Measurement: Raman, 532 nm, unoriented, Raman Data Processed
Mineral: Mooreite
Rruff sample: R060089
Ideal chemistry: Mg_15_(SO_4_)_2_(OH)_26_8H_2_O
Locality: Sterling Hill, New Jersey, USA
Source: University of Arizona Mineral Museum
Description: Tan fragment showing well-developed cleavage
Measured chemistry: Mg_9.00_Zn_4.00_(Mn^2+^_1.85_Mg_0.15_)_Σ=2_(S_1.00_O_4_)_2_(OH)_26_·8H_2_O
Raman shift (cm-1)	intensity
125.084	0
128.458	4.06284
131.833	17.7104
135.208	18.0302
138.583	6.09438
141.958	1.38089
145.333	0.407619
148.707	0.749104
152.082	3.28427
155.457	7.26276
158.832	8.94227
162.207	7.45368
165.582	5.80774
168.956	6.32049
172.331	5.93475
175.706	2.55072
179.081	0.193909
182.456	0.633041
185.83	0.36623
189.205	1.1
192.58	1.88298
195.955	4.34063
199.33	7.23871
202.704	10.8478
206.079	12.2263
209.454	14.196
212.829	17.5291
216.204	20.7779
219.578	22.5511
222.953	22.8356
226.328	22.1699
229.703	18.0908
233.078	13.9035
236.453	10.1761
239.827	8.3611
243.202	7.48775
246.577	7.81703
249.952	8.97697
253.327	8.82117
256.702	9.26329
260.076	8.91405
263.451	7.81188
266.826	6.16605
270.201	4.26252
273.576	3.46818
276.95	3.07748
280.325	2.41913
283.7	1.78863
287.075	1.22139
290.45	1.40203
293.825	0.945501
297.199	0.191507
300.574	0.514687
303.949	0.513025
307.324	0.113346
310.699	0.58239
314.073	1.57579
317.448	3.07094
320.823	5.56644
324.198	6.1387
327.573	8.24975
330.947	9.80424
334.322	10.178
337.697	9.39991
341.072	8.80537
344.447	8.09994
347.822	7.35109
351.196	8.17585
354.571	9.71822
357.946	9.0656
361.321	6.62449
364.696	4.50656
368.07	4.33561
371.445	6.68553
374.82	11.6533
378.195	16.3617
381.57	15.9985
384.945	11.9718
388.319	9.01852
391.694	7.28355
395.069	5.22749
398.444	1.0819
401.819	1.24084
405.193	1.44972
408.568	0.41291
411.943	3.7929
415.318	8.33691
418.693	12.3389
422.067	14.5776
425.442	17.7189
428.817	23.9883
432.192	33.3571
435.567	43.1123
438.942	41.0618
442.316	32.5852
445.691	27.1245
449.066	25.0974
452.441	29.4255
455.816	36.255
459.19	35.1257
462.565	25.1251
465.94	15.6707
469.315	10.233
472.69	7.55786
476.065	5.21472
479.439	4.37637
482.814	3.71519
486.189	4.90879
489.564	4.5377
492.939	3.0906
496.313	1.1282
499.688	0.465591
503.063	1.9563
506.438	5.28941
509.813	6.54956
513.188	4.57725
516.562	2.81847
519.937	1.67275
523.312	2.71032
526.687	5.9883
530.062	10.0915
533.436	15.1498
536.811	18.1341
540.186	16.0871
543.561	11.052
546.936	6.60854
550.311	3.41283
553.685	1.38026
557.06	0.264683
560.435	0.473843
563.81	0.326031
567.185	0.595207
570.559	0.555702
573.934	0.126911
577.309	0.497429
580.684	0.927109
584.059	1.7678
587.433	2.69128
590.808	3.7536
594.183	5.37905
597.558	7.40655
600.933	9.83964
604.308	13.202
607.682	14.6042
611.057	15.0427
614.432	12.9698
617.807	9.44474
621.182	7.85381
624.557	5.88929
627.931	4.83958
631.306	3.63499
634.681	2.63867
638.056	2.12851
641.431	1.75433
644.805	1.79899
648.18	1.62004
651.555	1.0672
654.93	0.7281
658.305	1.04154
661.679	0.958092
665.054	0.927521
668.429	0.615479
671.804	0.453156
675.179	0.52441
678.553	0.290497
681.928	0.265453
685.303	0.272034
688.678	0.003132
692.053	0.055439
695.428	0.366707
698.802	0.032204
702.177	0.207531
705.552	0.412781
708.927	0.107162
712.302	4e-06
715.677	0.373768
719.051	0.924404
722.426	0.669384
725.801	0.587547
729.176	0.595512
732.551	0.344627
735.925	0.665131
739.3	0.676701
742.675	0.34864
746.05	0.617012
749.425	0.923767
752.799	0.3442
756.174	0.640549
759.549	0.510059
762.924	0.789299
766.299	0.990738
769.673	1.34211
773.048	1.21661
776.423	1.41885
779.798	0.891281
783.173	1.22024
786.548	1.10711
789.922	1.22717
793.297	1.31997
796.672	1.25557
800.047	1.15446
803.422	1.09461
806.797	1.19224
810.171	1.12935
813.546	0.603371
816.921	0.816132
820.296	0.831051
823.671	1.0532
827.045	0.973206
830.42	0.844929
833.795	0.631138
837.17	0.314793
840.545	0.550919
843.919	0.614471
847.294	0.051968
850.669	0.320236
854.044	0.118484
857.419	0.395523
860.794	0.013691
864.168	0.149387
867.543	0.269253
870.918	0.098267
874.293	0.016125
877.668	0.049637
881.043	0.315952
884.417	0.327896
887.792	0.546574
891.167	0.472237
894.542	0.405136
897.917	0.301228
901.291	0.465553
904.666	0.541874
908.041	0.326027
911.416	0.620338
914.791	0.451557
918.165	0.208324
921.54	0.279869
924.915	0.267845
928.29	0.36195
931.665	0.910126
935.04	0.861462
938.414	0.990097
941.789	1.15168
945.164	1.05319
948.539	2.07602
951.914	2.65202
955.288	3.75843
958.663	5.36784
962.038	8.34391
965.413	14.9254
968.788	25.3821
972.163	37.1161
975.537	69.3005
978.912	178.22
982.287	295.162
985.662	110.919
989.037	37.0679
992.411	15.6327
995.786	7.66007
999.161	4.26505
1002.54	2.38177
1005.91	1.37111
1009.28	1.00195
1012.66	0.623238
1016.03	0.06311
1019.41	0.012531
1022.78	0.28553
1026.16	0.070732
1029.53	0.091522
1032.91	0.10495
1036.28	0.111614
1039.66	0.293304
1043.03	0.010262
1046.41	0.069279
1049.78	0.037422
1053.16	0.441059
1056.53	0.808483
1059.91	1.43261
1063.28	1.81321
1066.66	2.82885
1070.03	3.67273
1073.41	5.03038
1076.78	6.26646
1080.16	8.09327
1083.53	9.34616
1086.91	10.0742
1090.28	11.2719
1093.66	12.8537
1097.03	14.5203
1100.41	14.5327
1103.78	12.6305
1107.15	10.182
1110.53	8.44003
1113.9	7.401
1117.28	6.30476
1120.65	5.33326
1124.03	4.62477
1127.4	3.89601
1130.78	3.40772
1134.15	2.43201
1137.53	1.58761
1140.9	1.55496
1144.28	1.60151
1147.65	0.942616
1151.03	0.431553
1154.4	0.593983
1157.78	0.460506
1161.15	0.309303
1164.53	0.276131
1167.9	0.317043
1171.28	0.139954
1174.65	0.135799
1178.03	0.024765
1181.4	0.237312
1184.78	0.207077
1188.15	0.263878
1191.53	0.224026
1194.9	0.220486
1198.28	0.281399
1201.65	0.07803
1205.03	0.34304
1208.4	0.263897
1211.77	0.281429
1215.15	0.22686
1218.52	0.402397
1221.9	0.376667
1225.27	0.468018
1228.65	0.454983
1232.02	0.307121
1235.4	0.475349
1238.77	0.203274
1242.15	0.388069
1245.52	0.409893
1248.9	0.609585
1252.27	0.377129
1255.65	0.102272
1259.02	0.110916
1262.4	0.215847
1265.77	0.776623
1269.15	0.487289
1272.52	0.837776
1275.9	0.430546
1279.27	0.204987
1282.65	0.460064
1286.02	0.046928
1289.39	0.418869
1292.77	0.022854
1296.14	0.213676
