Measurement: Raman, 532 nm, unoriented, Raman Data Processed
Mineral: Moraesite
Rruff sample: R060876
Ideal chemistry: Be_2_PO_4_(OH)4H_2_O
Locality: Galileia, Minas Gerais, Brazil
Source: Bob Jenkins
Description: Colorless to tan fibrous crystals associated with beryllonite
Measured chemistry: Be_2.00_P_1.00_O_4_((OH)_0.85_F_0.15_)_Σ=1_·4H_2_O; trace amounts of Al and Fe; Be and H not measured but assumed by stoichiometry
Raman shift (cm-1)	intensity
156.19	0
159.565	0.569214
162.94	57.2636
166.315	77.4882
169.69	97.5625
173.064	106.318
176.439	71.8212
179.814	28.3746
183.189	34.9524
186.564	52.0353
189.939	89.5178
193.313	99.4203
196.688	118.624
200.063	139.479
203.438	150.059
206.813	81.395
210.187	31.667
213.562	3.18018
216.937	2.50562
220.312	15.806
223.687	17.1356
227.061	9.63171
230.436	17.3057
233.811	19.6254
237.186	0.756592
240.561	24.8676
243.936	22.7629
247.31	19.8737
250.685	3.12488
254.06	6.40015
257.435	21.4512
260.81	18.6383
264.185	33.1564
267.559	48.7355
270.934	37.9191
274.309	71.2875
277.684	103.838
281.059	101.908
284.433	156.776
287.808	204.768
291.183	242.091
294.558	268.175
297.933	245.86
301.308	206.889
304.682	100.475
308.057	81.2515
311.432	29.5535
314.807	15.2787
318.182	12.4077
321.556	26.2878
324.931	78.6332
328.306	76.6351
331.681	116.464
335.056	59.1958
338.43	39.6848
341.805	10.2954
345.18	4.97852
348.555	21.9833
351.93	25.3617
355.305	36.4722
358.679	124.34
362.054	236.359
365.429	322.38
368.804	484.298
372.179	658.795
375.553	783.929
378.928	619.168
382.303	341.824
385.678	185.286
389.053	73.6111
392.428	43.142
395.802	48.137
399.177	75.3108
402.552	78.7107
405.927	168.768
409.302	269.946
412.676	397.46
416.051	442.665
419.426	298.848
422.801	150.198
426.176	52.7363
429.551	2.9364
432.925	23.8226
436.3	24.2365
439.675	19.0021
443.05	19.387
446.425	45.2219
449.8	25.7678
453.174	58.151
456.549	52.8707
459.924	72.804
463.299	79.7067
466.674	123.72
470.048	134.643
473.423	159.172
476.798	131.887
480.173	139.347
483.548	133.814
486.923	141.516
490.297	66.7706
493.672	3.41077
497.047	24.5612
500.422	8.17285
503.797	8.96875
507.171	8.61462
510.546	1.17065
513.921	9.29126
517.296	34.3622
520.671	2.68103
524.045	45.3239
527.42	8.44714
530.795	38.2766
534.17	43.1938
537.545	66.219
540.92	112.192
544.294	104.631
547.669	153.428
551.044	216.534
554.419	203.955
557.794	173.382
561.168	178.247
564.543	216.089
567.918	315.888
571.293	413.179
574.668	647.936
578.043	876.926
581.417	1056.05
584.792	1160.75
588.167	1006.48
591.542	689.345
594.917	385.836
598.292	280.61
601.666	186.232
605.041	124.439
608.416	67.537
611.791	48.0714
615.166	60.7041
618.54	3.65002
621.915	40.9249
625.29	13.8147
628.665	20.9924
632.04	29.723
635.415	2.20081
638.789	4.47168
642.164	0.702271
645.539	9.25134
648.914	2.17493
652.289	0.246582
655.663	14.7205
659.038	16.3666
662.413	42.967
665.788	25.2129
669.163	23.5419
672.538	63.8284
675.912	65.8156
679.287	88.9965
682.662	135.901
686.037	152.705
689.412	241.317
692.786	239.138
696.161	257.886
699.536	223.774
702.911	204.044
706.286	178.982
709.66	127.027
713.035	89.1255
716.41	77.3942
719.785	23.6261
723.16	62.1724
726.535	13.8693
729.909	45.3645
733.284	5.1272
736.659	29.723
740.034	19.1091
743.409	37.7778
746.784	17.7524
750.158	16.5026
753.533	17.1821
756.908	43.1654
760.283	27.2394
763.658	24.561
767.033	28.8983
770.407	0.660278
773.782	61.396
777.157	35.49
780.532	51.8735
783.907	51.3315
787.281	63.1511
790.656	50.1542
794.031	71.4408
797.406	44.3477
800.781	59.2245
804.155	48.4534
807.53	22.3627
810.905	30.639
814.28	49.175
817.655	22.0029
821.029	6.77795
824.404	44.7778
827.779	58.3987
831.154	26.5287
834.529	47.7197
837.904	4.12207
841.278	7.7395
844.653	49.7262
848.028	20.8567
851.403	6.80017
854.778	26.0969
858.153	37.8251
861.527	14.8944
864.902	19.924
868.277	47.7585
871.652	40.2211
875.027	26.7836
878.401	6.29321
881.776	20.5057
885.151	17.1989
888.526	19.4084
891.901	36.7046
895.276	43.8879
898.65	19.4709
902.025	7.86829
905.4	36.8031
908.775	8.80017
912.15	24.6499
915.524	4.39697
918.899	10.6082
922.274	36.0582
925.649	37.2594
929.024	4.05566
932.399	32.8466
935.773	17.0342
939.148	36.7653
942.523	42.262
945.898	47.8235
949.273	44.2052
952.648	52.2461
956.022	37.965
959.397	32.075
962.772	46.4625
966.147	20.8854
969.521	6.80566
972.896	0.991577
976.271	15.9902
979.646	3.11792
983.021	16.913
986.396	9.35523
989.77	10.8878
993.145	43.7599
996.52	45.4783
999.895	83.3018
1003.27	98.165
1006.64	154.52
1010.02	297.307
1013.39	386.832
1016.77	611.989
1020.14	843.208
1023.52	1069.03
1026.89	1139.47
1030.27	1033.29
1033.64	881.429
1037.02	703.137
1040.39	502.994
1043.77	367.304
1047.14	215.164
1050.52	155.247
1053.89	69.1633
1057.27	53.3611
1060.64	80.3125
1064.02	24.3652
1067.39	90.7544
1070.77	126.058
1074.14	199.68
1077.52	287.934
1080.89	266.269
1084.27	253.378
1087.64	202.08
1091.02	169.426
1094.39	127.981
1097.77	76.4522
1101.14	57.4526
1104.51	39.3525
1107.89	21.0395
1111.26	29.9285
1114.64	34.3672
1118.01	21.3638
1121.39	9.93579
1124.76	17.5149
1128.14	27.1873
1131.51	13.4241
1134.89	9.22192
1138.26	37.0251
1141.64	15.0615
1145.01	7.14648
1148.39	15.2437
1151.76	46.2825
1155.14	17.8984
1158.51	35.5559
1161.89	32.8965
1165.26	18.8696
1168.64	13.2932
1172.01	29.2222
1175.38	38.3706
1178.76	32.4522
1182.13	9.2688
1185.51	26.3252
1188.88	88.8408
1192.26	42.6995
1195.63	68.4587
1199.01	37.096
1202.38	7.15112
1205.76	43.602
1209.13	5.55371
1212.51	37.4734
1215.88	31.8862
1219.26	15.7124
1222.63	47.8203
1226.01	37.0002
1229.38	28.3162
1232.76	3.13843
1236.13	8.32617
1239.51	31.7507
1242.88	54.6658
1246.26	25.948
1249.63	20.5252
1253.01	41.0808
1256.38	42.0418
1259.76	13.113
1263.13	30.0535
1266.51	5.32056
1269.88	22.0381
1273.26	66.4998
1276.63	82.0186
1280.01	38.3391
1283.38	102.485
1286.76	56.26
1290.13	25.3306
1293.5	33.2024
1296.88	41.0903
1300.25	39.4922
1303.63	44.9194
1307	39.4275
1310.38	25.2737
1313.75	5.84936
1317.13	19.7183
