Measurement: Raman, 514 nm, unoriented, Raman Data Processed
Mineral: Moraesite
Rruff sample: R060876
Ideal chemistry: Be_2_PO_4_(OH)4H_2_O
Locality: Galileia, Minas Gerais, Brazil
Source: Bob Jenkins
Description: Colorless to tan fibrous crystals associated with beryllonite
Measured chemistry: Be_2.00_P_1.00_O_4_((OH)_0.85_F_0.15_)_Σ=1_·4H_2_O; trace amounts of Al and Fe; Be and H not measured but assumed by stoichiometry
Raman shift (cm-1)	intensity
94.714	0
99.649	18.7598
104.582	362.807
109.512	4357.07
114.44	3549.2
119.365	6829.07
124.288	11973.5
129.209	7979.84
134.127	3849.59
139.043	2819.31
143.956	1993.36
148.867	2218.82
153.775	2469.78
158.681	1898.94
163.585	2237.02
168.486	2770.54
173.385	2091.75
178.282	1111.31
183.176	1183.64
188.067	2172.96
192.956	3164.23
197.843	3442.97
202.727	4147.29
207.609	148.266
212.489	96.9883
217.366	54.0469
222.24	55.6777
227.112	56.1582
231.982	168.91
236.849	273.754
241.714	137.025
246.577	244.568
251.437	64.9238
256.294	361.801
261.149	1122.18
266.002	655.957
270.852	1112.41
275.7	1570.1
280.545	1232.68
285.388	1566.47
290.229	1671.71
295.067	1780.78
299.902	1914.78
304.735	1157.73
309.566	897.269
314.394	531.914
319.22	456.766
324.043	419.459
328.864	954.09
333.682	591.598
338.498	282.945
343.311	372.117
348.122	617.012
352.931	715.791
357.737	1170.71
362.54	2769.08
367.341	6410.51
372.14	12935.9
376.936	15109.5
381.73	7725.1
386.521	3529.34
391.31	1740.68
396.096	811.234
400.88	754.008
405.661	686.273
410.44	1145.95
415.216	2040.99
419.99	1413.32
424.761	650.924
429.53	357.746
434.297	355.766
439.061	108.221
443.822	66.0527
448.581	38.6816
453.337	115.826
458.091	108.902
462.843	333.062
467.592	595.297
472.338	921.576
477.082	707.883
481.824	798.283
486.563	567.867
491.3	24.7598
496.034	191.691
500.765	268.324
505.494	79.6484
510.221	181.744
514.945	82.4727
519.666	524.707
524.385	374.412
529.102	455.133
533.816	637.564
538.527	598.797
543.236	1095.77
547.943	1430.49
552.647	1312.99
557.348	1834.27
562.047	2163.24
566.744	2799.92
571.438	3715.28
576.129	6208.26
580.818	9915.86
585.504	11321.1
590.188	8861.22
594.87	3868.64
599.549	1602.79
604.225	1036.78
608.899	608.613
613.57	489.096
618.239	240.174
622.905	167.992
627.569	405.522
632.23	20.7617
636.889	220.69
641.545	98.0664
646.198	123.383
650.849	167.283
655.498	77.6856
660.144	342.971
664.787	470.289
669.428	878.648
674.067	1262.04
678.703	2140.35
683.336	3287.91
687.967	4503.03
692.595	5731.47
697.221	5720.84
701.844	4821.1
706.465	3612.72
711.083	2256.58
715.698	1816.55
720.311	1242.38
724.922	877.92
729.53	664.334
734.135	563.357
738.738	284.648
743.338	399.457
747.936	328.633
752.531	154.941
757.124	217.398
761.714	113.43
766.302	34.1914
770.887	308.465
775.469	273.266
780.049	440.523
784.626	389.953
789.201	774.559
793.773	516.066
798.343	471.312
802.91	384.234
807.475	33.5508
812.037	348.18
816.596	201.602
821.153	290.938
825.707	8.36719
830.259	273.074
834.808	144.242
839.355	162.902
843.899	241.039
848.441	146.121
852.98	383.809
857.516	491.465
862.05	250.664
866.581	334.285
871.11	472.273
875.636	140.75
880.159	18.7695
884.68	10.0703
889.199	205.875
893.714	59.7773
898.228	36.8242
902.738	0.554688
907.246	103.84
911.752	45.332
916.255	238.531
920.755	129.391
925.253	287.348
929.748	142.668
934.241	114.484
938.731	169.793
943.218	336.223
947.703	449.082
952.186	160.887
956.665	439.176
961.142	440.394
965.617	641.324
970.089	588.562
974.558	876.609
979.025	736.699
983.489	910.973
987.951	1228.18
992.41	1635.39
996.866	1974.37
1001.32	2734.13
1005.77	3614.09
1010.22	5521.18
1014.67	8212.77
1019.11	12254
1023.55	17904.6
1027.99	21168.8
1032.42	19792.1
1036.86	16231.5
1041.29	11482.3
1045.72	7203.64
1050.14	4657.69
1054.56	3218.11
1058.98	2199.55
1063.4	1893.52
1067.82	1804.09
1072.23	1659.38
1076.64	1807.75
1081.05	2490.46
1085.45	1898.82
1089.85	1611.02
1094.25	1032.97
1098.65	818.074
1103.04	633.332
1107.43	651.055
1111.82	482.531
1116.21	694.242
1120.59	338.051
1124.97	466.269
1129.35	159.555
1133.73	119.848
1138.1	490.816
1142.47	148.469
1146.84	124.812
1151.21	92.2656
1155.57	137.703
1159.93	161.231
1164.29	68.5234
1168.64	72.3711
1172.99	117.836
1177.34	233.168
1181.69	89.3125
1186.04	361.867
1190.38	112.188
1194.72	81.1797
1199.05	105.199
1203.39	30.293
1207.72	58.25
1212.05	250.285
1216.37	307.438
1220.7	263.215
1225.02	172.676
1229.34	365.902
1233.65	12.9375
1237.97	252.691
1242.28	138.375
1246.59	107.852
1250.89	381.144
1255.19	326.953
1259.49	305.617
1263.79	382.824
1268.09	463.238
1272.38	503.227
1276.67	592.586
1280.95	326.637
1285.24	621.098
1289.52	221.82
1293.8	507.555
1298.08	387.18
1302.35	567.973
1306.62	509.375
1310.89	353.684
1315.15	180.394
1319.42	499.106
1323.68	300.332
1327.94	591.731
1332.19	593.719
1336.44	472.422
1340.69	716.91
1344.94	473.5
1349.19	552.027
1353.43	417.387
1357.67	645.906
1361.9	461.883
1366.14	357.875
1370.37	672.738
1374.6	833.828
1378.83	414.992
1383.05	422.711
1387.27	493.606
1391.49	316.664
1395.7	281.754
1399.92	434.906
1404.13	323.231
1408.34	471.828
1412.54	366.816
1416.74	413.09
1420.94	365.738
1425.14	70.4609
1429.34	572.731
1433.53	517.398
1437.72	506.82
1441.9	206.078
1446.09	119.555
1450.27	498.734
1454.45	82.6133
1458.63	129.965
1462.8	208.566
1466.97	176.289
1471.14	127.019
1475.31	272.973
1479.47	260.191
1483.63	78.7539
1487.79	249.75
1491.94	176.09
1496.09	56.9375
1500.24	117.547
1504.39	323.047
1508.54	19.2969
1512.68	576.223
1516.82	126.688
1520.95	421.34
1525.09	262.504
1529.22	238.348
1533.35	154.195
1537.47	1.375
1541.6	141.449
1545.72	110.578
1549.83	507.699
1553.95	337.102
1558.06	21.8672
1562.17	0
