Measurement: Raman, 785 nm, unoriented, Raman Data Processed
Mineral: Moraesite
Rruff sample: R060876
Ideal chemistry: Be_2_PO_4_(OH)4H_2_O
Locality: Galileia, Minas Gerais, Brazil
Source: Bob Jenkins
Description: Colorless to tan fibrous crystals associated with beryllonite
Measured chemistry: Be_2.00_P_1.00_O_4_((OH)_0.85_F_0.15_)_Σ=1_·4H_2_O; trace amounts of Al and Fe; Be and H not measured but assumed by stoichiometry
Raman shift (cm-1)	intensity
184.186	0
187.079	0.326172
189.972	2.00293
192.864	9.16577
195.757	54.7102
198.65	49.0818
201.543	27.9265
204.435	32.4868
207.328	34.2112
210.221	51.7961
213.113	18.8315
216.006	36.6052
218.899	6.36231
221.792	70.8081
224.684	55.4153
227.577	45.4109
230.47	27.5388
233.362	34.4285
236.255	12.958
239.148	57.1335
242.041	19.7112
244.933	43.4602
247.826	31.2224
250.719	61.477
253.611	43.6672
256.504	27.3315
259.397	38.3201
262.289	46.8374
265.182	64.8677
268.075	84.4006
270.967	94.1838
273.86	100.428
276.753	81.8052
279.646	110.135
282.538	88.3347
285.431	75.4988
288.324	126.317
291.216	124.32
294.109	94.1262
297.002	112.844
299.894	84.0623
302.787	85.8984
305.68	67.2649
308.572	48.0947
311.465	37.9958
314.358	40.7129
317.251	41.5305
320.143	44.729
323.036	48.6697
325.929	93.2314
328.821	96.103
331.714	128.375
334.607	68.5527
337.5	31.1174
340.392	22.4692
343.285	7.15796
346.178	10.8452
349.07	22.5085
351.963	34.0513
354.856	84.4011
357.748	125.16
360.641	228.142
363.534	304.645
366.426	435.198
369.319	578.761
372.212	802.085
375.105	912.565
377.997	862.411
380.89	575.284
383.783	308.525
386.675	169.53
389.568	134.504
392.461	54.0554
395.353	68.8679
398.246	58.9456
401.139	53.3301
404.032	107.734
406.924	97.4268
409.817	106.682
412.71	141.178
415.602	220.903
418.495	199.179
421.388	99.9397
424.281	38.7869
427.173	28.5732
430.066	27.3689
432.959	18.2905
435.851	14.7949
438.744	6.17603
441.637	40.2146
444.529	15.9211
447.422	14.7351
450.315	30.2848
453.208	45.1497
456.1	53.3024
458.993	32.7222
461.886	88.7032
464.778	88.3326
467.671	129.849
470.564	157.711
473.457	132.52
476.349	88.3363
479.242	84.4332
482.135	96.3621
485.027	90.5178
487.92	67.408
490.813	42.0607
493.705	12.34
496.598	39.5535
499.491	25.5743
502.384	7.18799
505.276	22.7997
508.169	17.8686
511.062	3.74023
513.954	30.3213
516.847	12.5444
519.74	35.4961
522.632	19.1001
525.525	30.1448
528.418	4.08301
531.311	61.0209
534.203	76.36
537.096	49.7258
539.989	62.119
542.881	52.4187
545.774	37.0056
548.667	57.7469
551.559	89.1425
554.452	121.601
557.345	118.915
560.237	146.098
563.13	150.04
566.023	243.737
568.915	272.895
571.808	408.467
574.701	543.246
577.594	691.125
580.486	846.23
583.379	971.876
586.272	988.94
589.164	832.037
592.057	588.259
594.95	365.534
597.842	239.388
600.735	148.425
603.628	108.072
606.521	123.941
609.413	86.7419
612.306	32.5264
615.199	43.8191
618.091	27.9976
620.984	8.14783
623.877	46.0062
626.769	11.6741
629.662	0.487549
632.555	19.8074
635.448	1.44055
638.34	17.8988
641.233	21.0406
644.126	44.1526
647.018	11.8212
649.911	26.9128
652.804	8.46765
655.697	3.7279
658.589	13.6921
661.482	27.6393
664.375	22.4019
667.267	48.8143
670.16	51.2512
673.053	43.6842
675.945	86.967
678.838	126.118
681.731	148.666
684.624	195.833
687.516	213.689
690.409	315.421
693.302	310.015
696.194	339.541
699.087	337.565
701.98	272.587
704.872	238.733
707.765	202.18
710.658	108.266
713.551	74.6622
716.443	114.036
719.336	21.8109
722.229	45.5078
725.121	31.208
728.014	44.6525
730.907	24.7285
733.799	29.4817
736.692	30.8826
739.585	43.9021
742.477	36.9872
745.37	15.4629
748.263	19.0432
751.156	12.9834
754.048	3.73572
756.941	2.94214
759.834	11.3015
762.726	20.2456
765.619	47.8367
768.512	38.9171
771.404	35.4645
774.297	18.4183
777.19	38.3058
780.083	24.7333
782.975	46.3146
785.868	42.0703
788.761	43.5872
791.653	71.6407
794.546	52.458
797.439	48.7329
800.332	41.0557
803.224	42.5249
806.117	72.954
809.01	13.919
811.902	44.2925
814.795	27.4161
817.688	46.6954
820.58	8.57654
823.473	16.8557
826.366	25.153
829.259	14.7072
832.151	14.676
835.044	7.34985
837.937	34.4177
840.829	18.705
843.722	19.7703
846.615	19.2947
849.507	38.2158
852.4	53.3307
855.293	16.9529
858.186	49.1005
861.078	19.8179
863.971	26.4801
866.864	24.3533
869.756	37.7662
872.649	10.1141
875.542	55.5668
878.434	4.74817
881.327	27.0001
884.22	33.1099
887.112	28.953
890.005	24.9679
892.898	42.6605
895.791	4.35352
898.683	20.7665
901.576	33.2861
904.469	26.2958
907.361	11.0673
910.254	7.75903
913.147	1.44177
916.04	41.9425
918.932	6.43909
921.825	21.8119
924.718	25.8512
927.61	15.303
930.503	9.8407
933.396	21.5571
936.288	6.3678
939.181	12.7484
942.074	16.7214
944.967	4.75732
947.859	29.204
950.752	0.637939
953.645	34.0819
956.537	0.566895
959.43	25.5231
962.323	7.79272
965.216	7.81689
968.108	23.1328
971.001	16.9264
973.894	11.6555
976.786	24.8816
979.679	33.2406
982.572	78.1691
985.464	37.089
988.357	11.1895
991.25	25.5209
994.143	35.6908
997.035	47.5602
999.928	65.5066
1002.82	106.357
1005.71	127.371
1008.61	203.042
1011.5	262.765
1014.39	346.248
1017.28	500.388
1020.18	678.203
1023.07	821.798
1025.96	935.732
1028.86	962.659
1031.75	867.383
1034.64	774.416
1037.53	600.797
1040.43	458.276
1043.32	333.602
1046.21	240.064
1049.1	160.196
1052	127.503
1054.89	33.3973
1057.78	58.4635
1060.67	48.4186
1063.57	88.9169
1066.46	15.036
1069.35	80.2687
1072.24	106.968
1075.14	128.589
1078.03	149.47
1080.92	195.548
1083.82	169.456
1086.71	123.597
1089.6	139.364
1092.49	71.4681
1095.39	62.9949
1098.28	28.9946
1101.17	10.2437
1104.07	25.2778
1106.96	1.11072
1109.85	14.7704
1112.74	11.4171
1115.64	46.0521
1118.53	31.6581
1121.42	2.88586
1124.31	8.79053
1127.21	21.609
1130.1	1.06482
1132.99	35.3629
1135.88	4.10681
1138.78	18.524
1141.67	6.41711
1144.56	5.39465
1147.46	1.83386
1150.35	18.3639
1153.24	57.5101
1156.13	42.301
1159.03	27.2365
1161.92	2.56982
1164.81	34.4487
1167.7	24.9696
1170.6	27.2311
1173.49	35.6765
1176.38	20.967
1179.28	31.6908
1182.17	0.460693
1185.06	51.8453
1187.95	19.0617
1190.85	36.6466
1193.74	20.0305
1196.63	41.8851
1199.52	25.0203
1202.42	16.5427
1205.31	14.587
1208.2	0.82373
1211.1	7.78125
1213.99	43.9888
1216.88	36.8624
1219.77	4.2821
1222.67	43.4957
1225.56	16.1298
1228.45	57.5044
1231.34	35.7297
1234.24	37.0319
1237.13	47.2507
1240.02	1.85303
1242.91	6.9707
