Measurement: Raman, 785 nm, unoriented, Raman Data Processed
Mineral: Morinite
Rruff sample: R070529
Ideal chemistry: NaCa_2_Al_2_(PO_4_)_2_(OH)F_4_2H_2_O
Locality: Hugo mine, Keystone, Pennington County, South Dakota, USA
Source: James Shigley
Description: Pale purple massive associated with white fluorapatite and colorless augelite
Raman shift (cm-1)	intensity
166.719	0
169.611	15.5225
172.504	9.07983
175.397	42.4351
178.29	60.6489
181.182	172.095
184.075	90.4592
186.968	39.197
189.86	30.7576
192.753	8.39966
195.646	6.70019
198.538	81.9792
201.431	67.019
204.324	234.182
207.216	332.995
210.109	477.303
213.002	628.034
215.895	700.278
218.787	854.907
221.68	929.22
224.573	980.237
227.465	762.456
230.358	496.738
233.251	319.317
236.143	249.803
239.036	154.388
241.929	153.299
244.822	108.022
247.714	138.465
250.607	80.7471
253.5	77.6331
256.392	17.2698
259.285	41.8667
262.178	21.6926
265.07	24.4854
267.963	21.727
270.856	0.926758
273.749	25.1306
276.641	35.654
279.534	40.6619
282.427	67.5024
285.319	73.3569
288.212	85.1643
291.105	99.2676
293.998	50.2817
296.89	92.4756
299.783	80.2373
302.676	75.0105
305.568	84.8603
308.461	60.23
311.354	96.9646
314.246	86.9939
317.139	136.153
320.032	140.54
322.925	167.924
325.817	195.679
328.71	174.568
331.603	175.965
334.495	131.075
337.388	70.0505
340.281	82.8774
343.173	54.4751
346.066	67.3142
348.959	36.1519
351.852	43.2419
354.744	25.709
357.637	84.6086
360.53	147.216
363.422	167.091
366.315	188.528
369.208	133.529
372.101	65.8889
374.993	24.4126
377.886	8.44629
380.779	15.6592
383.671	8.29492
386.564	15.7656
389.457	48.4719
392.349	116.266
395.242	183.846
398.135	337.744
401.027	466.213
403.92	643.696
406.813	827.742
409.706	912.175
412.598	903.843
415.491	894.852
418.384	968.688
421.276	948.734
424.169	903.866
427.062	932.164
429.954	918.087
432.847	725.496
435.74	587.614
438.633	522.295
441.525	451.028
444.418	462.677
447.311	389.205
450.203	394.553
453.096	332.249
455.989	349.155
458.882	260.777
461.774	276.419
464.667	252.917
467.56	223.61
470.452	148.17
473.345	118.044
476.238	81.6996
479.13	23.4254
482.023	12.2655
484.916	11.2573
487.808	14.0487
490.701	18.8271
493.594	7.12683
496.487	34.7751
499.379	37.1514
502.272	61.8175
505.165	145.654
508.057	243.835
510.95	338.723
513.843	405.354
516.736	545.375
519.628	618.885
522.521	704.143
525.414	659.406
528.306	593.896
531.199	505.271
534.092	405.906
536.984	280.769
539.877	207.861
542.77	165.388
545.663	115.47
548.555	82.5209
551.448	108.55
554.341	39.486
557.233	5.56079
560.126	9.4198
563.019	27.8505
565.911	21.2115
568.804	3.58923
571.697	36.4044
574.59	66.3793
577.482	159.858
580.375	241.553
583.268	304.711
586.16	293.254
589.053	373.687
591.946	382.832
594.838	212.005
597.731	94.0845
600.624	148.381
603.516	205.123
606.409	256.663
609.302	207.156
612.195	183.501
615.087	254.937
617.98	349.348
620.873	488.212
623.765	741.426
626.658	1034.93
629.551	1355.13
632.443	1700.84
635.336	1793.27
638.229	1481.68
641.122	952.233
644.014	603.745
646.907	382.506
649.8	256.896
652.692	157.4
655.585	135.923
658.478	71.4773
661.37	60.0812
664.263	60.0591
667.156	51.329
670.049	12.1757
672.941	31.0604
675.834	26.8688
678.727	3.56567
681.619	15.9962
684.512	16.2997
687.405	1.92334
690.298	16.0422
693.19	4.90173
696.083	10.7606
698.976	19.918
701.868	3.53088
704.761	0.628784
707.654	25.4464
710.546	27.5298
713.439	46.7891
716.332	48.4974
719.225	70.5503
722.117	63.3232
725.01	71.4329
727.903	59.2433
730.795	71.3427
733.688	104.302
736.581	109.398
739.473	120.856
742.366	111.641
745.259	57.9966
748.152	64.6667
751.044	3.88757
753.937	33.3534
756.83	36.5258
759.722	18.8304
762.615	17.5247
765.508	25.7991
768.4	14.9845
771.293	4.49097
774.186	13.3273
777.079	11.2899
779.971	24.2129
782.864	33.4186
785.757	15.4429
788.649	2.02869
791.542	0.611572
794.435	3.65002
797.327	6.71753
800.22	29.9242
803.113	23.3567
806.006	30.3151
808.898	9.40332
811.791	18.765
814.684	5.40088
817.576	12.219
820.469	28.1648
823.362	19.2402
826.255	21.1738
829.147	22.6954
832.04	13.4363
834.933	47.4126
837.825	54.6265
840.718	78.9679
843.611	78.8428
846.503	85.3433
849.396	124.647
852.289	145.172
855.182	154.287
858.074	157.823
860.967	185.773
863.86	150.158
866.752	111.929
869.645	120.692
872.538	102.685
875.43	81.5656
878.323	97.8591
881.216	89.2842
884.109	82.8423
887.001	104.853
889.894	111.34
892.787	108.528
895.679	93.574
898.572	74.2861
901.465	79.8982
904.357	35.3965
907.25	37.0868
910.143	22.4506
913.035	9.57581
915.928	2.27832
918.821	4.36072
921.714	10.0282
924.606	36.2865
927.499	8.29419
930.392	36.6099
933.284	30.0162
936.177	26.1709
939.07	46.3112
941.962	87.3685
944.855	111.697
947.748	173.71
950.641	316.758
953.533	697.529
956.426	1515.58
959.319	2274.73
962.211	3531.63
965.104	4158.04
967.997	1916.33
970.889	541.447
973.782	195.686
976.675	120.714
979.568	67.1454
982.46	28.7601
985.353	17.5601
988.246	0.913086
991.138	2.84631
994.031	5.25879
996.924	12.0789
999.817	11.5128
1002.71	19.6384
1005.6	23.9468
1008.5	28.645
1011.39	51.3469
1014.28	23.3444
1017.17	8.71204
1020.07	0.760376
1022.96	5.85156
1025.85	14.5189
1028.74	17.4731
1031.64	70.2116
1034.53	113.655
1037.42	127.726
1040.31	173.918
1043.21	188.917
1046.1	203.099
1048.99	244.775
1051.88	447.843
1054.78	318.75
1057.67	171.6
1060.56	106.62
1063.46	40.906
1066.35	3.7279
1069.24	3.36011
1072.13	33.9491
1075.03	51.0613
1077.92	133.786
1080.81	178.565
1083.7	115.891
1086.6	68.3002
1089.49	82.8023
1092.38	153.899
1095.28	226.989
1098.17	358.459
1101.06	533.85
1103.95	671.993
1106.85	802.976
1109.74	780.476
1112.63	669.318
1115.53	464.383
1118.42	342.774
1121.31	232.974
1124.2	133.303
1127.1	110.776
1129.99	110.156
1132.88	83.0581
1135.77	88.4745
1138.67	98.6952
1141.56	87.8063
1144.45	68.0763
1147.34	78.42
1150.24	90.9879
1153.13	123.431
1156.02	142.088
1158.91	133.597
1161.81	123.818
1164.7	121.382
1167.59	79.042
1170.49	49.9318
1173.38	54.7829
1176.27	10.0768
1179.16	7.96301
1182.06	3.97302
1184.95	4.55023
1187.84	18.6651
1190.73	18.0107
1193.63	5.62378
1196.52	28.7115
1199.41	12.71
1202.31	17.5765
1205.2	3.69568
1208.09	2.65106
1210.98	8.70429
1213.88	3.71021
1216.77	38.5239
1219.66	21.2286
1222.55	4.43182
1225.45	28.7109
1228.34	37.3031
1231.23	45.2576
1234.12	48.324
1237.02	30.8983
1239.91	1.28357
1242.8	19.4575
1245.7	46.0294
1248.59	17.0563
1251.48	25.4297
1254.37	22.7843
1257.27	21.1633
1260.16	47.2411
1263.05	0.54895
1265.94	3.65027
