Measurement: Raman, 532 nm, unoriented, Raman Data Processed
Mineral: Mosandrite
Rruff sample: R100097
Ideal chemistry: (Ca,Ce)_4_([box],Ca,Na)_3_Ti(Si_2_O_7_)_2_(H_2_O,OH,F)_4_H_2_O
Locality: Granite Mountain #2 Quarry, Arkansas, USA
Source: Henry Barwood
Description: Isolated yellowish-brown prismatic crystals in feldspar, associated with dark-green epidote, dark-brown astrophyllite, colorless fluorapatite, pinkish fluorite, and pale yellow monazite.
Raman shift (cm-1)	intensity
171.006	0
173.898	4.09808
176.791	4.45636
179.684	8.12927
182.577	15.5211
185.469	15.4825
188.362	17.5489
191.255	16.5057
194.147	20.7697
197.04	12.9434
199.933	20.1453
202.825	25.3882
205.718	23.8178
208.611	23.7177
211.504	17.9769
214.396	9.94751
217.289	11.3281
220.182	2.52045
223.074	0.441956
225.967	4.65625
228.86	2.25793
231.752	0.663086
234.645	4.50629
237.538	10.8339
240.43	18.3583
243.323	25.4298
246.216	37.6335
249.109	47.8117
252.001	62.6144
254.894	72.9998
257.787	81.8064
260.679	89.7862
263.572	94.5707
266.465	101.66
269.358	98.7409
272.25	86.72
275.143	79.8476
278.036	73.3013
280.928	66.278
283.821	62.7787
286.714	67.8648
289.606	65.8786
292.499	65.1152
295.392	50.3054
298.284	44.8726
301.177	37.687
304.07	40.6288
306.963	36.3713
309.855	45.0186
312.748	49.3649
315.641	58.6876
318.533	65.0235
321.426	70.1725
324.319	62.3117
327.212	51.7246
330.104	50.5493
332.997	34.675
335.89	20.6226
338.782	3.34949
341.675	13.1114
344.568	23.4062
347.46	29.5735
350.353	15.2961
353.246	0.626221
356.139	34.4775
359.031	81.2318
361.924	126.013
364.817	194.564
367.709	267.112
370.602	336.617
373.495	411.272
376.387	471.271
379.28	520.94
382.173	537.658
385.065	519.335
387.958	477.977
390.851	422.418
393.744	362.598
396.636	320.094
399.529	281.313
402.422	248.135
405.314	220.595
408.207	198.02
411.1	194.357
413.993	211.271
416.885	237.585
419.778	290.506
422.671	357.481
425.563	416.444
428.456	451.159
431.349	445.763
434.241	410.483
437.134	358.089
440.027	310.092
442.92	262.915
445.812	226.803
448.705	214.039
451.598	228.484
454.49	255.666
457.383	289.975
460.276	331.443
463.168	362.893
466.061	372.264
468.954	350.052
471.846	311.215
474.739	262.169
477.632	209.251
480.525	175.18
483.417	147.682
486.31	118.908
489.203	95.5393
492.095	65.408
494.988	33.3208
497.881	7.64539
500.774	16.894
503.666	16.5703
506.559	8.74744
509.452	20.8406
512.344	51.0709
515.237	79.2421
518.13	90.0277
521.022	121.019
523.915	146.082
526.808	163.694
529.701	179.903
532.593	175.816
535.486	161.333
538.379	133.849
541.271	105.988
544.164	72.8658
547.057	49.7545
549.949	28.2756
552.842	22.5311
555.735	6.68311
558.628	1.36829
561.52	7.67835
564.413	13.0469
567.306	12.2035
570.198	7.03442
573.091	2.1698
575.984	10.9674
578.876	22.149
581.769	42.8969
584.662	70.6531
587.554	94.4484
590.447	96.0245
593.34	87.1876
596.232	73.7419
599.125	58.413
602.018	42.0562
604.911	24.2166
607.803	21.1996
610.696	17.345
613.589	20.6251
616.481	30.8838
619.374	36.8876
622.267	47.4672
625.159	52.2283
628.052	61.7854
630.945	68.504
633.838	91.6237
636.73	101.307
639.623	112.503
642.516	128.584
645.408	147.752
648.301	172.033
651.194	205.099
654.087	244.088
656.979	283.334
659.872	336.609
662.765	381.942
665.657	404.634
668.55	383.634
671.443	321.019
674.335	234.73
677.228	166.345
680.121	117.08
683.014	100.865
685.906	82.3591
688.799	78.9027
691.692	80.2896
694.584	81.2127
697.477	74.6254
700.37	75.5472
703.263	63.8923
706.155	55.8523
709.048	52.7006
711.941	47.5084
714.833	35.1681
717.726	24.971
720.619	15.6772
723.511	7.56311
726.404	4.81543
729.297	5.02698
732.189	3.43603
735.082	5.31067
737.975	6.41089
740.868	6.75745
743.76	8.75647
746.653	2.9978
749.546	0.032959
752.438	8.26209
755.331	10.3831
758.224	21.7
761.116	33.641
764.009	45.9736
766.902	53.1827
769.795	51.9096
772.687	55.8186
775.58	56.776
778.473	45.3248
781.365	35.0375
784.258	25.4034
787.151	21.8361
790.043	9.24829
792.936	11.282
795.829	11.7096
798.722	19.5881
801.614	32.7922
804.507	56.1598
807.4	76.4817
810.292	107.803
813.185	132.324
816.078	154.838
818.971	164.26
821.863	172.539
824.756	159.345
827.649	147.99
830.541	132.238
833.434	124.322
836.327	107.076
839.219	96.3628
842.112	91.2393
845.005	100.036
847.898	112.296
850.79	133.72
853.683	127.734
856.576	112.103
859.468	89.6781
862.361	57.7561
865.254	26.3704
868.146	11.7164
871.039	3.51941
873.932	6.06543
876.824	3.04785
879.717	1.43091
882.61	3.02685
885.503	16.1445
888.395	33.3856
891.288	67.1744
894.181	93.5927
897.073	126.773
899.966	166.436
902.859	207.489
905.751	250.703
908.644	296.763
911.537	339.574
914.43	381.285
917.322	413.16
920.215	445.128
923.108	453.111
926	458.889
928.893	458.17
931.786	440.546
934.678	418.662
937.571	402.894
940.464	389.145
943.357	378.168
946.249	357.915
949.142	344.938
952.035	328.968
954.927	312.413
957.82	289.026
960.713	247.367
963.606	202.099
966.498	152.117
969.391	109.614
972.284	82.0455
975.176	54.9905
978.069	37.7355
980.962	26.7336
983.854	14.9368
986.747	9.76422
989.64	6.05469
992.533	3.29394
995.425	5.47241
998.318	8.26538
1001.21	8.15802
1004.1	7.4245
1007	4.37555
1009.89	3.35083
1012.78	1.43121
1015.67	4.21576
1018.57	11.328
1021.46	17.1172
1024.35	19.1157
1027.24	23.8911
1030.14	36.5237
1033.03	43.0743
1035.92	56.9941
1038.82	62.9703
1041.71	73.8599
1044.6	86.5254
1047.49	99.0498
1050.39	109.99
1053.28	123.881
1056.17	142.238
1059.07	153.035
1061.96	164.559
1064.85	183.576
1067.74	197.486
1070.63	213.638
1073.53	216.822
1076.42	213.453
1079.31	205.034
1082.21	190.724
1085.1	174.453
1087.99	163.869
1090.88	157.256
1093.78	161.577
1096.67	164.799
1099.56	172.642
1102.45	181.896
1105.35	190.562
1108.24	206.746
1111.13	215.45
1114.03	229.249
1116.92	235.656
1119.81	238.372
1122.7	235.088
1125.6	227.132
1128.49	215.929
1131.38	198.969
1134.28	179.716
1137.17	158.068
1140.06	131.178
1142.95	113.639
1145.85	86.689
1148.74	72.2965
1151.63	52.8634
1154.52	43.0453
1157.42	27.9011
1160.31	18.5378
1163.2	6.95575
1166.09	1.54517
1168.99	1.25574
1171.88	4.40039
1174.77	0.492737
1177.66	4.28381
1180.56	6.16248
1183.45	6.89307
1186.34	4.79767
1189.24	1.12909
1192.13	4.44275
1195.02	12.021
1197.91	17.9893
1200.81	24.3978
1203.7	32.8862
1206.59	40.5007
1209.48	47.5261
1212.38	55.3252
1215.27	63.5214
1218.16	66.6702
1221.06	76.7031
1223.95	85.4888
1226.84	90.8633
1229.73	98.009
1232.63	105.387
1235.52	108.777
1238.41	108.555
1241.31	114.239
1244.2	120.204
1247.09	122.716
1249.98	123.825
1252.88	130.058
1255.77	129.425
1258.66	132.427
1261.55	131.594
1264.45	126.901
1267.34	124.128
1270.23	119.311
1273.12	114.067
1276.02	98.3578
1278.91	86.5543
1281.8	73.8575
1284.69	55.5396
1287.59	48.0187
1290.48	30.3418
1293.37	18.5033
1296.27	8.28461
1299.16	2.63647
1302.05	1.98773
