Measurement: Raman, 532 nm, unoriented, Raman Data Processed
Mineral: Mottramite
Rruff sample: R120112
Ideal chemistry: PbCuVO_4_(OH)
Locality: Copperopolis, Yavapai County, Arizona, USA
Source: Joe Ruiz
Description: Radial sprays of yellow transparent needles, variety duhamelite; associated with goethite
Raman shift (cm-1)	intensity
198.004	0
200.897	0.589905
203.79	1.54126
206.682	3.3081
209.575	13.4508
212.468	4.72116
215.36	3.37906
218.253	6.41571
221.146	9.26224
224.038	12.1251
226.931	10.0596
229.824	5.50882
232.717	8.6582
235.609	18.2336
238.502	25.908
241.395	26.1994
244.287	29.5637
247.18	32.3386
250.073	34.1299
252.965	29.6426
255.858	25.3167
258.751	15.901
261.644	9.20017
264.536	0.084778
267.429	5.5293
270.322	10.6897
273.214	10.592
276.107	5.90509
279	2.31476
281.892	18.9544
284.785	40.0198
287.678	72.7372
290.571	116.581
293.463	163.666
296.356	210.727
299.249	251.599
302.141	271.28
305.034	278.228
307.927	270.565
310.82	264.085
313.712	252.113
316.605	234.177
319.498	213.869
322.39	192.999
325.283	166.751
328.176	141.875
331.068	118.225
333.961	95.4904
336.854	74.8904
339.747	69.4738
342.639	65.1113
345.532	71.3848
348.425	90.4111
351.317	125.16
354.21	172.535
357.103	235.552
359.995	305.509
362.888	376.627
365.781	445.697
368.673	486.792
371.566	478.192
374.459	422.675
377.352	337.904
380.244	256.875
383.137	191.529
386.03	148.028
388.922	114.967
391.815	97.158
394.708	84.8408
397.601	81.7705
400.493	78.7369
403.386	79.9266
406.279	84.201
409.171	85.115
412.064	79.8413
414.957	72.3491
417.849	63.652
420.742	46.3796
423.635	31.0501
426.527	15.9932
429.42	5.80722
432.313	3.9809
435.206	9.83337
438.098	9.18365
440.991	5.29102
443.884	3.78088
446.776	2.71963
449.669	13.7744
452.562	24.4811
455.454	34.1246
458.347	35.711
461.24	33.3028
464.133	27.8422
467.025	21.679
469.918	18.657
472.811	20.1423
475.703	21.711
478.596	24.5946
481.489	27.2326
484.382	24.4459
487.274	25.3915
490.167	23.5964
493.06	18.5287
495.952	13.2131
498.845	8.02417
501.738	3.08173
504.63	1.05023
507.523	2.41281
510.416	0.589325
513.308	1.00458
516.201	0.49704
519.094	0.174225
521.987	1.55972
524.879	3.85672
527.772	5.67145
530.665	4.82956
533.557	7.69705
536.45	4.65939
539.343	4.75171
542.236	5.53403
545.128	6.57355
548.021	5.56284
550.914	6.42853
553.806	7.85022
556.699	9.81082
559.592	12.9883
562.484	18.3113
565.377	21.5591
568.27	27.4124
571.163	31.9874
574.055	35.397
576.948	39.9928
579.841	41.9528
582.733	43.2327
585.626	39.1974
588.519	36.8926
591.411	33.067
594.304	30.7462
597.197	23.8252
600.09	22.1406
602.982	16.9246
605.875	16.3464
608.768	16.2373
611.66	13.9766
614.553	11.9141
617.446	9.29199
620.338	9.60346
623.231	9.57431
626.124	9.47903
629.016	8.11902
631.909	9.79358
634.802	9.76288
637.695	10.0082
640.587	10.0594
643.48	11.3023
646.373	12.5018
649.265	12.5838
652.158	13.6605
655.051	17.7096
657.943	15.6746
660.836	14.7973
663.729	14.3669
666.622	12.2049
669.514	12.2823
672.407	9.64099
675.3	10.2957
678.192	10.9126
681.085	12.8832
683.978	15.8551
686.87	17.4785
689.763	18.5669
692.656	15.9511
695.549	14.9411
698.441	14.7017
701.334	8.89957
704.227	4.19025
707.119	5.45337
710.012	4.04218
712.905	4.47455
715.798	2.81692
718.69	3.49136
721.583	3.81085
724.476	2.15225
727.368	3.3631
730.261	1.0921
733.154	5.00424
736.046	7.82483
738.939	9.89893
741.832	16.8087
744.725	13.3962
747.617	10.2595
750.51	3.02222
753.403	9.02319
756.295	28.6511
759.188	53.9064
762.081	91.7622
764.973	147.159
767.866	217.413
770.759	317.684
773.652	445.974
776.544	599.599
779.437	801.036
782.33	1021.47
785.222	1232.54
788.115	1395.12
791.008	1485.56
793.9	1468.79
796.793	1349.2
799.686	1172.96
802.578	993.354
805.471	826.194
808.364	682.908
811.257	560.043
814.149	468.166
817.042	400.543
819.935	348.927
822.827	315.712
825.72	304.067
828.613	312.605
831.505	353.468
834.398	408.055
837.291	482.603
840.184	562.658
843.076	639.526
845.969	713.823
848.862	782.153
851.754	831.011
854.647	838.882
857.54	793.42
860.433	697.01
863.325	575.246
866.218	455.006
869.111	349.851
872.003	271.63
874.896	210.493
877.789	158.536
880.681	111.449
883.574	84.1151
886.467	60.5344
889.36	46.1228
892.252	37.2792
895.145	25.8904
898.038	19.1011
900.93	7.3645
903.823	3.38245
906.716	1.03863
909.608	4.18018
912.501	4.35998
915.394	8.55084
918.287	6.56699
921.179	8.25122
924.072	7.86725
926.965	7.60873
929.857	5.2865
932.75	1.88074
935.643	1.73379
938.535	3.60053
941.428	6.70132
944.321	10.8819
947.213	15.1657
950.106	20.0418
952.999	25.5143
955.892	29.2217
958.784	32.0393
961.677	35.4419
964.57	39.9959
967.462	40.4329
970.355	44.8707
973.248	46.7124
976.14	46.9331
979.033	46.0601
981.926	45.5358
984.819	44.8084
987.711	40.398
990.604	40.0553
993.497	36.8146
996.389	32.8726
999.282	31.1741
1002.17	27.3836
1005.07	28.9494
1007.96	25.1794
1010.85	26.1914
1013.75	24.2053
1016.64	22.328
1019.53	22.3769
1022.42	20.8185
1025.32	18.935
1028.21	16.8883
1031.1	17.3042
1033.99	17.6477
1036.89	18.3452
1039.78	17.3745
1042.67	13.0122
1045.57	13.0662
1048.46	13.2859
1051.35	12.755
1054.24	9.59424
1057.14	10.5063
1060.03	12.608
1062.92	10.266
1065.81	10.8235
1068.71	7.72272
1071.6	7.47144
1074.49	4.88184
1077.38	6.8624
1080.28	3.07965
1083.17	6.14841
1086.06	4.16885
1088.96	3.70996
1091.85	4.83286
1094.74	2.92206
1097.63	5.63785
1100.53	5.40326
1103.42	1.87228
1106.31	6.82239
1109.2	3.97488
1112.1	3.34537
1114.99	1.20291
1117.88	2.84253
1120.78	1.19913
1123.67	0.782227
1126.56	0.451202
1129.45	0.385864
1132.35	0.405731
1135.24	0.592102
1138.13	0.5979
1141.02	1.10196
1143.92	1.11017
1146.81	0.56842
1149.7	2.56998
1152.6	0.036652
1155.49	0.181274
1158.38	2.23569
1161.27	1.07855
1164.17	1.854
1167.06	1.6181
1169.95	0.987854
1172.84	0.695343
1175.74	2.03122
1178.63	4.19132
1181.52	5.78619
1184.41	5.49231
1187.31	5.9097
1190.2	5.03043
1193.09	7.45459
1195.99	7.26978
1198.88	5.69858
1201.77	4.17477
1204.66	3.81125
1207.56	8.24213
1210.45	7.44757
1213.34	6.75842
1216.23	3.67377
1219.13	2.61542
1222.02	2.75842
1224.91	2.51984
1227.81	2.94614
1230.7	3.25684
1233.59	2.09366
1236.48	0.416779
1239.38	1.94745
1242.27	0.790039
1245.16	2.50638
1248.05	0.85199
1250.95	1.61523
1253.84	2.14612
1256.73	0.721497
1259.62	4.11887
1262.52	3.52914
1265.41	4.22745
1268.3	4.68878
1271.2	3.26031
1274.09	2.27643
1276.98	1.91898
1279.87	2.3512
1282.77	0.711609
1285.66	0.2146
1288.55	1.99619
1291.44	2.2037
1294.34	2.78076
1297.23	3.00159
1300.12	2.77814
1303.02	0
