Measurement: Raman, 532 nm, unoriented, Raman Data Processed
Mineral: Mottramite
Rruff sample: R050521
Ideal chemistry: PbCuVO_4_(OH)
Locality: Tsumeb mine, Tsumeb, Otavi District, Oshikoto, Namibia
Source: University of Arizona Mineral Museum
Description: Green tubular sprays
Measured chemistry: Pb_1.00_Cu_1.00_((V_0.97_As_0.03_)_Î£=1_O_4_)(OH)
Raman shift (cm-1)	intensity
145.405	0
148.78	115.545
152.155	108.163
155.53	31.0022
158.905	5.16724
162.279	120.962
165.654	238.661
169.029	291.4
172.404	139.481
175.779	11.5207
179.153	2.2926
182.528	60.7978
185.903	178.031
189.278	313.627
192.653	422.793
196.028	498.979
199.402	466.409
202.777	296.383
206.152	210.521
209.527	139.695
212.902	77.0391
216.276	25.5398
219.651	11.732
223.026	26.5601
226.401	38.8187
229.776	46.6688
233.15	41.619
236.525	31.3261
239.9	1.71741
243.275	39.5038
246.65	60.5166
250.025	67.3754
253.399	84.5642
256.774	129.839
260.149	191.114
263.524	313.58
266.899	540.878
270.273	892.51
273.648	1393.09
277.023	1980.94
280.398	2693.68
283.773	3537.96
287.147	4324.35
290.522	4279.21
293.897	3156.43
297.272	1991.89
300.647	1306.64
304.022	1093.94
307.396	1203.33
310.771	1616.12
314.146	2295.57
317.521	3154.91
320.896	4212.89
324.271	5330.15
327.645	6007.69
331.02	5779.02
334.395	4898.65
337.77	3933.6
341.145	3179.9
344.519	2853.84
347.894	2848.5
351.269	2754.4
354.644	2396.7
358.019	2142.81
361.394	2249.77
364.768	2406.96
368.143	1963.29
371.518	1026.2
374.893	368.77
378.267	52.4993
381.642	92.2291
385.017	120.307
388.392	46.5134
391.767	120.071
395.142	357.16
398.516	664.446
401.891	1070.94
405.266	1394.06
408.641	1296.63
412.016	848.88
415.39	518.537
418.765	399.156
422.14	391.174
425.515	497.061
428.89	630.92
432.265	701.275
435.639	643.753
439.014	456.397
442.389	256.1
445.764	114.971
449.139	46.8651
452.514	2.46326
455.888	11.3236
459.263	18.9509
462.638	11.3841
466.013	6.00671
469.388	18.1628
472.762	21.6459
476.137	17.5483
479.512	14.6014
482.887	17.0272
486.262	19.7706
489.637	28.0599
493.011	38.8551
496.386	47.6161
499.761	55.2784
503.136	61.252
506.511	72.9032
509.885	84.2334
513.26	84.3872
516.635	75.1476
520.01	68.9283
523.385	68.0651
526.76	69.2903
530.134	66.2126
533.509	67.5342
536.884	68.9422
540.259	65.0296
543.634	61.5111
547.008	61.8754
550.383	63.9143
553.758	62.07
557.133	63.3157
560.508	61.3569
563.882	60.5092
567.257	59.3785
570.632	63.8926
574.007	61.5582
577.382	54.4716
580.756	55.6753
584.131	51.6414
587.506	43.8239
590.881	40.4614
594.256	33.6413
597.631	25.3939
601.005	18.5916
604.38	12.7573
607.755	6.4017
611.13	0.286285
614.505	3.22311
617.88	1.50201
621.254	6.64642
624.629	10.641
628.004	1.98685
631.379	2.77521
634.754	3.78751
638.128	12.0009
641.503	20.1277
644.878	39.3093
648.253	55.4482
651.628	85.5684
655.002	133.192
658.377	179.707
661.752	261.903
665.127	371.883
668.502	511.182
671.876	669.137
675.251	829.105
678.626	964.939
682.001	1036.55
685.376	1033.85
688.751	1008.01
692.125	1039.14
695.5	1130.65
698.875	1298.65
702.25	1474.43
705.625	1529.55
709	1371.38
712.374	1010.5
715.749	653.475
719.124	387.843
722.499	214.92
725.874	112.94
729.248	43.4104
732.623	5.0564
735.998	24.2781
739.373	40.6264
742.748	57.541
746.122	44.8446
749.497	23.1298
752.872	6.60229
756.247	18.0724
759.622	57.5049
762.997	94.3967
766.371	162.357
769.746	270.085
773.121	422.38
776.496	683.483
779.871	1095.21
783.245	1699.43
786.62	2605.57
789.995	3815.78
793.37	5290.16
796.745	6850.62
800.12	7453.81
803.494	6493.95
806.869	5600.47
810.244	6203.7
813.619	8642.85
816.994	13481.2
820.368	20387.9
823.743	30097.1
827.118	39400.1
830.493	36196.2
833.868	20899.5
837.242	10549.5
840.617	5887.64
843.992	3669.12
847.367	2482.12
850.742	1855.9
854.117	1527.07
857.491	1356.26
860.866	1256.57
864.241	1137.28
867.616	913.37
870.991	665.534
874.365	461.083
877.74	296.007
881.115	187.858
884.49	109.133
887.865	49.5016
891.24	9.90491
894.614	13.7442
897.989	25.4376
901.364	33.721
904.739	34.1153
908.114	39.7634
911.489	34.0377
914.863	14.0108
918.238	17.6245
921.613	41.0844
924.988	66.5342
928.362	81.7476
931.737	77.2701
935.112	79.8883
938.487	70.4927
941.862	64.0619
945.237	66.6015
948.611	57.2221
951.986	58.1668
955.361	60.5487
958.736	56.8053
962.111	56.1991
965.486	45.9095
968.86	35.971
972.235	25.7853
975.61	29.914
978.985	32.2796
982.36	38.9745
985.734	37.5391
989.109	35.9461
992.484	33.4876
995.859	30.8041
999.234	34.1307
1002.61	37.4216
1005.98	35.0787
1009.36	28.5902
1012.73	29.9731
1016.11	30.2269
1019.48	25.6289
1022.86	23.7443
1026.23	27.6599
1029.61	25.8506
1032.98	34.4157
1036.36	38.1013
1039.73	36.5935
1043.11	28.8797
1046.48	29.4636
1049.86	26.7144
1053.23	24.3484
1056.61	20.988
1059.98	14.241
1063.36	14.2568
1066.73	13.5571
1070.11	11.9457
1073.48	8.61493
1076.85	8.50055
1080.23	11.8401
1083.6	9.06558
1086.98	11.3254
1090.35	0.337128
1093.73	2.45929
1097.1	0.652405
1100.48	0.439453
1103.85	3.13541
1107.23	2.06949
1110.6	2.55096
1113.98	3.36313
1117.35	2.41782
1120.73	2.27429
1124.1	5.81067
1127.48	4.46112
1130.85	7.41446
1134.23	12.701
1137.6	13.7495
1140.98	13.2002
1144.35	20.5301
1147.73	19.7919
1151.1	24.9814
1154.47	22.4638
1157.85	22.547
1161.22	23.3787
1164.6	17.9964
1167.97	16.3212
1171.35	11.6599
1174.72	10.9387
1178.1	8.06384
1181.47	11.2809
1184.85	9.09015
1188.22	11.5124
1191.6	10.5055
1194.97	12.7641
1198.35	8.48737
1201.72	12.2847
1205.1	12.3749
1208.47	9.77945
1211.85	12.674
1215.22	17.9693
1218.6	15.8362
1221.97	14.9169
1225.35	18.8779
1228.72	11.9589
1232.1	12.1395
1235.47	6.37906
1238.85	5.61841
1242.22	4.05539
1245.6	1.12665
1248.97	2.73486
1252.35	1.01923
1255.72	2.8248
1259.09	4.90494
1262.47	1.65389
1265.84	0.019379
1269.22	1.24652
1272.59	3.68982
1275.97	5.73888
1279.34	1.29695
1282.72	8.95697
1286.09	6.07216
1289.47	3.03075
1292.84	4.94824
1296.22	0.621414
1299.59	3.70499
1302.97	0.021576
