Measurement: Raman, 532 nm, unoriented, Raman Data Processed
Mineral: Mottramite
Rruff sample: R050517
Ideal chemistry: PbCuVO_4_(OH)
Locality: Tsumeb mine, Tsumeb, Otavi District, Oshikoto, Namibia
Source: University of Arizona Mineral Museum
Description: Coating of green prismatic crystals
Measured chemistry: Pb_1.00_Cu_1.00_((V_0.88_As_0.12_)_Î£=1_O_4_)(OH)
Raman shift (cm-1)	intensity
87.4802	0
90.855	7.4832
94.2298	20.3541
97.6046	26.9044
100.979	55.7461
104.354	31.0554
107.729	9.14926
111.104	6.5747
114.479	0.615067
117.853	23.6187
121.228	75.0452
124.603	180.918
127.978	334.501
131.353	526.623
134.728	763.84
138.102	978.88
141.477	1204.01
144.852	1325.83
148.227	1278.9
151.602	1236.09
154.976	1142.18
158.351	1006.67
161.726	891.698
165.101	862.186
168.476	819.224
171.851	714.929
175.225	570.246
178.6	508.401
181.975	470.303
185.35	465.23
188.725	517.697
192.1	586.152
195.474	629.869
198.849	573.016
202.224	490.653
205.599	347.649
208.974	293.043
212.348	205.025
215.723	157.296
219.098	89.8967
222.473	62.6708
225.848	7.38471
229.222	17.0472
232.597	26.7725
235.972	25.8893
239.347	0.112671
242.722	13.7496
246.097	3.93494
249.471	5.24316
252.846	7.22253
256.221	2.37433
259.596	21.3996
262.971	74.5057
266.346	173.303
269.72	322.529
273.095	633.254
276.47	1031.96
279.845	1623.48
283.22	2245.3
286.594	2711.86
289.969	2584.18
293.344	1799.16
296.719	1051.95
300.094	630.033
303.469	491.434
306.843	562.625
310.218	829.921
313.593	1377.1
316.968	2119.09
320.343	3084.49
323.717	4036.88
327.092	4584.82
330.467	4349.59
333.842	3643.85
337.217	2870.72
340.591	2224.62
343.966	1896.27
347.341	1690.36
350.716	1526.22
354.091	1349.72
357.466	1230.33
360.84	1255.99
364.215	1245.53
367.59	974.185
370.965	519.733
374.34	185.752
377.714	7.11206
381.089	60.6277
384.464	37.6337
387.839	11.8042
391.214	158.733
394.589	389.939
397.963	698.588
401.338	983.291
404.713	1148.63
408.088	962.922
411.463	628.629
414.837	379.958
418.212	260.807
421.587	236.795
424.962	282.237
428.337	318.971
431.712	338.281
435.086	311.589
438.461	225.847
441.836	158.981
445.211	89.1295
448.586	45.3613
451.961	14.7147
455.335	5.92407
458.71	0.624939
462.085	24.3139
465.46	1.00076
468.835	3.99237
472.209	6.91641
475.584	4.25436
478.959	5.04102
482.334	22.2574
485.709	19.6532
489.084	46.93
492.458	48.9147
495.833	52.1777
499.208	65.6617
502.583	59.1749
505.958	76.8419
509.332	88.2595
512.707	85.669
516.082	71.1092
519.457	65.5432
522.832	51.5427
526.207	42.9197
529.581	47.6882
532.956	32.9239
536.331	28.7478
539.706	29.7679
543.081	25.581
546.455	28.3031
549.83	30.3072
553.205	30.8249
556.58	26.8899
559.955	20.3327
563.33	28.6076
566.704	33.5692
570.079	36.4191
573.454	34.9197
576.829	53.4537
580.204	50.1418
583.578	53.8545
586.953	59.8475
590.328	79.6842
593.703	85.5182
597.078	89.9661
600.452	100.441
603.827	73.787
607.202	89.2907
610.577	61.6474
613.952	43.5421
617.327	18.8424
620.701	7.85535
624.076	0.305237
627.451	9.34134
630.826	7.68219
634.201	12.9006
637.576	4.10928
640.95	0.977509
644.325	49.7437
647.7	84.0079
651.075	121.934
654.45	164.662
657.824	248.676
661.199	342.655
664.574	439.317
667.949	537.748
671.324	646.594
674.698	714.074
678.073	773.639
681.448	750.895
684.823	700.264
688.198	658.719
691.573	650.503
694.947	727.428
698.322	823.77
701.697	914.802
705.072	960.323
708.447	873.008
711.822	699.222
715.196	515.435
718.571	337.738
721.946	205.651
725.321	137.733
728.696	88.8753
732.07	35.9268
735.445	0.615112
738.82	15.1732
742.195	46.2073
745.57	31.4016
748.944	29.7735
752.319	9.43115
755.694	0.408386
759.069	33.5081
762.444	48.4772
765.819	85.9576
769.193	149.325
772.568	220.122
775.943	367.349
779.318	574.883
782.693	990.666
786.067	1502.58
789.442	2348.25
792.817	3274.2
796.192	4057.92
799.567	4347.87
802.942	4052.92
806.316	3750.16
809.691	4359.11
813.066	6354.27
816.441	9887.43
819.816	14543.5
823.191	18920.6
826.565	20192.8
829.94	15801.7
833.315	9540.3
836.69	5314.48
840.065	3227.95
843.439	2252.83
846.814	1677.93
850.189	1354.17
853.564	1119.06
856.939	983.478
860.313	817.998
863.688	649.097
867.063	489.881
870.438	351.195
873.813	225.952
877.188	150.333
880.562	91.1703
883.937	51.9726
887.312	39.4135
890.687	12.4706
894.062	6.51208
897.437	27.4069
900.811	24.5622
904.186	24.8514
907.561	24.0298
910.936	10.7442
914.311	1.27798
917.685	28.3925
921.06	28.839
924.435	41.5947
927.81	44.0048
931.185	46.3411
934.559	31.1878
937.934	35.2978
941.309	25.3047
944.684	39.952
948.059	44.2045
951.434	30.2094
954.808	31.132
958.183	26.8292
961.558	37.8733
964.933	38.6551
968.308	30.4683
971.683	21.3702
975.057	20.0276
978.432	30.2311
981.807	35.1932
985.182	39.7558
988.557	37.1883
991.931	37.8577
995.306	35.7588
998.681	15.711
1002.06	22.3081
1005.43	22.6487
1008.81	29.6788
1012.18	11.892
1015.55	18.9361
1018.93	8.18222
1022.3	12.6658
1025.68	20.0314
1029.05	24.3981
1032.43	25.9349
1035.8	23.9209
1039.18	4.09305
1042.55	17.1711
1045.93	11.3853
1049.3	6.5412
1052.68	11.6759
1056.05	21.8714
1059.43	12.4691
1062.8	1.36542
1066.18	3.11841
1069.55	10.6929
1072.93	0.934479
1076.3	3.39288
1079.68	2.05701
1083.05	0.981995
1086.43	4.90939
1089.8	2.2805
1093.18	5.5502
1096.55	0.02037
1099.93	4.52933
1103.3	6.21893
1106.67	9.19531
1110.05	3.82696
1113.42	5.84213
1116.8	2.46448
1120.17	6.24979
1123.55	7.09091
1126.92	3.13322
1130.3	13.5045
1133.67	0.99707
1137.05	14.8536
1140.42	6.98401
1143.8	5.63422
1147.17	7.99152
1150.55	8.62251
1153.92	13.5654
1157.3	6.33153
1160.67	7.72298
1164.05	21.738
1167.42	9.56578
1170.8	13.1661
1174.17	8.85292
1177.55	14.7606
1180.92	14.9483
1184.3	11.7031
1187.67	19.3564
1191.05	7.31358
1194.42	12.7714
1197.8	21.1725
1201.17	9.3199
1204.55	12.6215
1207.92	16.3199
1211.3	9.41069
1214.67	22.2789
1218.04	14.2973
1221.42	16.596
1224.79	22.012
1228.17	18.1757
1231.54	12.2941
1234.92	20.5671
1238.29	10.1796
1241.67	0.811417
1245.04	11.1836
1248.42	16.1563
1251.79	1.02397
1255.17	5.00806
1258.54	14.7126
1261.92	11.3631
1265.29	8.1356
1268.67	12.1144
1272.04	9.04584
1275.42	4.9281
1278.79	4.91049
1282.17	6.18007
1285.54	1.1273
1288.91	9.31216
1292.29	4.91498
1295.66	4.28328
1299.04	3.79451
1302.41	0
