Measurement: Raman, 780 nm, unoriented, Raman Data Processed
Mineral: Mottramite
Rruff sample: R120112
Ideal chemistry: PbCuVO_4_(OH)
Locality: Copperopolis, Yavapai County, Arizona, USA
Source: Joe Ruiz
Description: Radial sprays of yellow transparent needles, variety duhamelite; associated with goethite
Raman shift (cm-1)	intensity
120.048	0
123.423	14.9622
126.798	28.0763
130.173	47.3549
133.548	58.328
136.923	65.1334
140.297	66.2198
143.672	60.6416
147.047	47.3311
150.422	39.6047
153.797	34.0582
157.171	24.3251
160.546	24.4166
163.921	18.4781
167.296	11.3038
170.671	7.15369
174.046	0.183472
177.42	0.497559
180.795	4.47138
184.17	1.60364
187.545	2.25501
190.92	3.63818
194.294	9.12079
197.669	7.31659
201.044	4.7334
204.419	10.8038
207.794	12.5555
211.168	14.4587
214.543	12.0028
217.918	12.0734
221.293	12.3442
224.668	12.4369
228.043	12.2297
231.417	8.12146
234.792	13.755
238.167	14.1067
241.542	3.55023
244.917	1.74097
248.292	2.66565
251.666	0.591858
255.041	2.4137
258.416	3.79517
261.791	1.21551
265.166	5.51904
268.54	4.24701
271.915	2.30151
275.29	10.8192
278.665	20.93
282.04	39.5221
285.414	60.0358
288.789	93.7243
292.164	127.56
295.539	159.753
298.914	183.162
302.288	185.32
305.663	180.534
309.038	170.933
312.413	147.449
315.788	127.727
319.163	114.723
322.537	100.665
325.912	82.6552
329.287	77.1458
332.662	62.4086
336.037	51.1279
339.411	36.7786
342.786	34.6374
346.161	32.9563
349.536	50.8761
352.911	60.4252
356.286	77.9912
359.66	112.016
363.035	142.666
366.41	169.313
369.785	183.194
373.16	169.581
376.534	137.414
379.909	107.655
383.284	79.4811
386.659	64.6161
390.034	51.835
393.409	40.8374
396.783	31.644
400.158	31.7532
403.533	29.5901
406.908	31.018
410.283	29.8156
413.658	19.2642
417.032	16.4483
420.407	8.72467
423.782	1.24524
427.157	2.27521
430.532	4.17133
433.906	6.4563
437.281	2.32324
440.656	2.74408
444.031	1.91681
447.406	4.23462
450.781	9.13873
454.155	11.639
457.53	9.9989
460.905	7.58154
464.28	10.2134
467.655	7.33758
471.029	4.39142
474.404	8.46612
477.779	10.7596
481.154	12.938
484.529	10.723
487.904	12.2622
491.278	5.79211
494.653	0.134583
498.028	3.14276
501.403	0.175598
504.778	4.02564
508.152	3.35394
511.527	3.80444
514.902	5.5553
518.277	1.29181
521.652	1.31732
525.026	0.871826
528.401	2.17078
531.776	1.86273
535.151	3.55719
538.526	3.55695
541.9	6.21625
545.275	9.24774
548.65	4.68945
552.025	8.91797
555.4	13.4059
558.775	14.8908
562.149	17.7554
565.524	19.3409
568.899	24.5311
572.274	22.0319
575.649	24.4111
579.024	27.4309
582.398	24.5312
585.773	22.6163
589.148	21.5035
592.523	17.2574
595.898	16.6287
599.273	14.8123
602.647	15.5177
606.022	9.69574
609.397	5.3562
612.772	9.41736
616.146	0.967896
619.521	0.045471
622.896	1.47028
626.271	4.52325
629.646	3.28906
633.021	0.373108
636.395	3.77338
639.77	6.15271
643.145	2.8269
646.52	5.83167
649.895	13.4773
653.269	16.6058
656.644	22.5746
660.019	29.7087
663.394	37.0541
666.769	51.0331
670.144	66.1507
673.518	93.0096
676.893	118.899
680.268	155.651
683.643	196.87
687.018	237.233
690.393	255.446
693.767	265.433
697.142	242.942
700.517	209.664
703.892	171.455
707.267	134.572
710.641	104.756
714.016	73.3321
717.391	49.3654
720.766	38.9991
724.141	23.3676
727.515	8.60071
730.89	8.46887
734.265	0.498352
737.64	7.24347
741.015	5.96991
744.39	8.77899
747.764	4.93585
751.139	7.54108
754.514	1.59943
757.889	11.5563
761.264	22.9367
764.639	49.2063
768.013	84.1709
771.388	116.482
774.763	165.981
778.138	230.266
781.513	295.341
784.887	361.24
788.262	402.616
791.637	428.301
795.012	419.893
798.387	373.528
801.761	331.51
805.136	291.757
808.511	251.251
811.886	221.734
815.261	188.858
818.636	184.813
822.01	167.011
825.385	174.382
828.76	181.404
832.135	202.392
835.51	226.633
838.885	257.281
842.259	276.516
845.634	304.848
849.009	317.937
852.384	315.781
855.759	290.768
859.133	250.223
862.508	200.231
865.883	154.217
869.258	121.851
872.633	97.6992
876.007	79.8117
879.382	64.5286
882.757	51.605
886.132	55.2501
889.507	47.1168
892.881	44.6418
896.256	32.9369
899.631	29.4043
903.006	19.3391
906.381	14.4773
909.756	10.5135
913.13	6.2019
916.505	1.36621
919.88	0.687134
923.255	5.2503
926.63	5.4137
930.005	6.85059
933.379	1.13818
936.754	2.7774
940.129	2.78174
943.504	2.96783
946.879	0.832947
950.253	0.796265
953.628	6.21197
957.003	4.51935
960.378	11.1404
963.753	15.5749
967.128	14.378
970.502	16.0523
973.877	18.4485
977.252	20.9253
980.627	24.3227
984.002	28.5991
987.376	20.8118
990.751	26.0439
994.126	22.6662
997.501	23.0761
1000.88	24.3597
1004.25	15.6419
1007.62	15.1321
1011	20.5961
1014.38	12.4344
1017.75	11.2916
1021.12	10.0643
1024.5	13.0763
1027.87	9.20837
1031.25	19.3156
1034.62	17.0531
1038	17.6129
1041.37	10.9979
1044.75	12.9432
1048.12	14.6639
1051.5	6.12811
1054.87	16.0669
1058.25	8.47986
1061.62	7.50732
1065	12.9026
1068.37	4.69543
1071.75	11.9472
1075.12	7.24432
1078.5	7.04169
1081.87	5.70514
1085.25	6.88477
1088.62	9.8924
1092	3.78406
1095.37	14.075
1098.74	8.71002
1102.12	6.11157
1105.49	0.816406
1108.87	3.16534
1112.24	3.44501
1115.62	3.20227
1118.99	3.88489
1122.37	2.94031
1125.74	1.18005
1129.12	7.65326
1132.49	7.0481
1135.87	1.14746
1139.24	3.17847
1142.62	4.67157
1145.99	0.686707
1149.37	5.37646
1152.74	0.695984
1156.12	0.124146
1159.49	11.661
1162.87	1.11041
1166.24	4.33404
1169.62	5.07452
1172.99	10.2312
1176.37	4.46246
1179.74	13.4186
1183.12	10.8925
1186.49	8.06482
1189.87	10.3547
1193.24	15.6056
1196.62	4.60065
1199.99	7.23169
1203.37	6.73474
1206.74	8.72638
1210.11	3.9519
1213.49	7.62903
1216.86	9.8103
1220.24	9.5816
1223.61	5.98419
1226.99	12.4112
1230.36	3.65814
1233.74	3.30042
1237.11	10.6456
1240.49	0.880493
1243.86	3.38239
1247.24	1.06439
1250.61	1.14233
1253.99	2.54346
1257.36	9.38324
1260.74	12.3709
1264.11	12.92
1267.49	5.35522
1270.86	2.92017
1274.24	10.0448
1277.61	4.20581
1280.98	9.95331
1284.36	10.4405
