Measurement: Raman, 780 nm, unoriented, Raman Data Processed
Mineral: Mottramite
Rruff sample: R050521
Ideal chemistry: PbCuVO_4_(OH)
Locality: Tsumeb mine, Tsumeb, Otavi District, Oshikoto, Namibia
Source: University of Arizona Mineral Museum
Description: Green tubular sprays
Measured chemistry: Pb_1.00_Cu_1.00_((V_0.97_As_0.03_)_Î£=1_O_4_)(OH)
Raman shift (cm-1)	intensity
145.892	0
148.785	0.052547
151.677	0.720863
154.57	0.017323
157.463	0.849583
160.355	1.3477
163.248	1.45247
166.141	2.74664
169.034	2.78185
171.926	2.22212
174.819	2.30503
177.712	3.89185
180.604	5.72671
183.497	8.12632
186.39	8.81091
189.282	8.50289
192.175	7.70914
195.068	6.90646
197.96	4.76591
200.853	3.6846
203.746	1.30191
206.639	1.13461
209.531	0.009071
212.424	0.279991
215.317	0.852816
218.209	0.243618
221.102	1.03848
223.995	0.183624
226.887	0.774101
229.78	0.088221
232.673	0.311575
235.566	0.462179
238.458	1.38678
241.351	2.18509
244.244	1.38033
247.136	2.60825
250.029	3.42977
252.922	4.5628
255.815	5.67169
258.707	8.28833
261.6	10.8969
264.493	14.7252
267.385	20.3951
270.278	25.3053
273.171	30.4731
276.063	34.0995
278.956	38.5399
281.849	40.6442
284.741	42.0055
287.634	39.9444
290.527	37.529
293.42	33.0783
296.312	31.4188
299.205	32.3472
302.098	37.5572
304.99	43.3844
307.883	50.7052
310.776	58.3136
313.668	65.5587
316.561	70.3211
319.454	74.7191
322.347	73.9287
325.239	71.8967
328.132	66.268
331.025	60.0266
333.917	52.5853
336.81	47.1307
339.703	42.2677
342.596	39.6863
345.488	34.5417
348.381	30.2074
351.274	24.798
354.166	20.1225
357.059	16.4436
359.952	13.5308
362.844	11.1827
365.737	6.01821
368.63	3.19991
371.522	0.202
374.415	1.50184
377.308	1.53019
380.201	0.414848
383.093	2.18366
385.986	4.74476
388.879	8.19862
391.771	10.18
394.664	11.9455
397.557	12.198
400.45	12.013
403.342	10.5865
406.235	8.03249
409.128	5.39447
412.02	3.11805
414.913	2.08199
417.806	1.02357
420.698	1.13354
423.591	0.537525
426.484	0.475594
429.377	0.366814
432.269	0.55242
435.162	0.166735
438.055	0.258163
440.947	0.20225
443.84	0.12414
446.733	0.164183
449.625	0.232445
452.518	0.276936
455.411	0.655318
458.303	1.04381
461.196	1.58132
464.089	1.66759
466.982	2.27868
469.874	2.07273
472.767	2.24223
475.66	2.12338
478.552	2.52573
481.445	2.44824
484.338	2.38508
487.231	2.8791
490.123	2.2515
493.016	2.94005
495.909	2.45806
498.801	2.33481
501.694	1.90132
504.587	1.69699
507.479	1.71748
510.372	1.35079
513.265	1.32011
516.158	1.35023
519.05	1.71384
521.943	1.41506
524.836	1.48692
527.728	1.43841
530.621	1.58487
533.514	1.5405
536.406	1.2785
539.299	0.968495
542.192	0.815635
545.085	0.893097
547.977	0.88248
550.87	0.927353
553.763	1.04384
556.655	0.762612
559.548	0.797999
562.441	0.982924
565.333	1.05616
568.226	0.410356
571.119	0.476455
574.011	0.889573
576.904	0.26671
579.797	0.241649
582.69	0.233453
585.582	0.142313
588.475	0.254712
591.368	0.249413
594.26	0.240897
597.153	0.128401
600.046	0.150655
602.938	0.073351
605.831	0.16131
608.724	0.136196
611.616	0.189302
614.509	0.040686
617.402	0.003446
620.295	0.092263
623.187	0.037205
626.08	0.002963
628.973	0.02468
631.865	0.08319
634.758	0.324188
637.651	0.381495
640.543	0.517164
643.436	0.68217
646.329	0.520108
649.222	1.08579
652.114	1.48448
655.007	1.7028
657.9	1.92186
660.792	2.3679
663.685	2.84036
666.578	3.85771
669.471	4.61936
672.363	4.98344
675.256	5.64039
678.149	6.09891
681.041	6.15686
683.934	6.30716
686.827	5.6715
689.719	5.3186
692.612	4.51566
695.505	5.01161
698.398	4.54864
701.29	4.14805
704.183	3.25493
707.076	2.97015
709.968	2.05436
712.861	1.51195
715.754	0.555581
718.646	0.519838
721.539	0.362301
724.432	0.022255
727.324	0.428262
730.217	0.212555
733.11	0.336996
736.003	0.372407
738.895	0.350438
741.788	0.171119
744.681	0.120181
747.573	0.267082
750.466	0.540674
753.359	1.00715
756.251	1.51289
759.144	1.96454
762.037	2.90111
764.93	4.4232
767.822	5.38101
770.715	8.14232
773.608	10.8333
776.5	14.2488
779.393	18.7443
782.286	22.5408
785.178	26.5448
788.071	30.8319
790.964	34.0442
793.857	36.7854
796.749	39.7462
799.642	44.9478
802.535	52.524
805.427	65.5176
808.32	85.4262
811.213	109.963
814.106	132.608
816.998	150.345
819.891	157.393
822.784	154.062
825.676	135.731
828.569	105.171
831.462	72.2364
834.354	48.0294
837.247	33.341
840.14	23.5434
843.033	17.5138
845.925	14.2216
848.818	11.3178
851.711	9.45007
854.603	8.10154
857.496	6.96417
860.389	6.20591
863.281	4.74597
866.174	3.56028
869.067	2.89451
871.96	2.18803
874.852	1.31993
877.745	0.986682
880.638	0.6913
883.53	0.724922
886.423	0.151588
889.316	0.071634
892.208	0.258997
895.101	0.229009
897.994	0.289138
900.886	0.756725
903.779	0.318088
906.672	0.38234
909.565	0.117944
912.457	0.316907
915.35	0.287069
918.243	0.00216
921.135	0.440436
924.028	0.110904
926.921	0.345764
929.813	0.444417
932.706	0.469713
935.599	0.374268
938.492	0.377381
941.384	0.717453
944.277	0.570337
947.17	0.622976
950.062	1.13629
952.955	0.684562
955.848	1.0591
958.74	0.735874
961.633	0.797674
964.526	0.986383
967.419	0.58099
970.311	0.824843
973.204	1.31854
976.097	0.379836
978.989	0.678143
981.882	0.681084
984.775	0.730508
987.668	0.742502
990.56	0.379069
993.453	0.855358
996.346	0.834682
999.238	0.678864
1002.13	0.379134
1005.02	0.619186
1007.92	0.528493
1010.81	0.477991
1013.7	0.69579
1016.59	0.641052
1019.49	0.76439
1022.38	0.348083
1025.27	0.627441
1028.16	0.524083
1031.06	0.649069
1033.95	0.91336
1036.84	1.19228
1039.74	0.340398
1042.63	0.641872
1045.52	0.184007
1048.41	0.424015
1051.31	0.081675
1054.2	0.311658
1057.09	0.50351
1059.98	0.415262
1062.88	0.412463
1065.77	0.477059
1068.66	0.10888
1071.56	0.515519
1074.45	0.055928
1077.34	0.440051
1080.23	0.319049
1083.13	0.60236
1086.02	0.233644
1088.91	0.157671
1091.81	0.053864
1094.7	0.232332
1097.59	0.341016
1100.48	0.176571
1103.38	0.227621
1106.27	0.150901
1109.16	0.158245
1112.05	0.349949
1114.95	0.319985
1117.84	0.454669
1120.73	0.506518
1123.62	0.564081
1126.52	0.016808
1129.41	0.46673
1132.3	0.063948
1135.19	0.57971
1138.09	0.301234
1140.98	0.129983
1143.87	0.435238
1146.77	0.395448
1149.66	0.310521
1152.55	0.274008
1155.44	0.376211
1158.34	0.199395
1161.23	0.361433
1164.12	0.597723
1167.02	0.35264
1169.91	0.226476
1172.8	0.646303
1175.69	0.313135
1178.59	0.637779
1181.48	0.475249
1184.37	0.151403
1187.26	0.185566
1190.16	0.354909
1193.05	0.393035
1195.94	0.213686
1198.84	0.430656
1201.73	0.4639
1204.62	0.581265
1207.51	0.254699
1210.4	0.134344
1213.3	0.367357
1216.19	0.549173
1219.08	0.322888
1221.98	0.214726
1224.87	0.012371
1227.76	0.132291
1230.65	0.521394
1233.55	0.008122
1236.44	0.344354
1239.33	0.693792
1242.22	0.176643
1245.12	0.295169
1248.01	0.051913
1250.9	0.171897
1253.8	0.211142
1256.69	0.420104
1259.58	0.077701
1262.47	1.0342
1265.37	0.511613
1268.26	0.346296
1271.15	0.373043
1274.05	0.533567
1276.94	0.482748
1279.83	0.047997
1282.72	0.320833
1285.62	0.283134
