Measurement: Raman, 785 nm, unoriented, Raman Data Processed
Mineral: Mozartite
Rruff sample: R070265
Ideal chemistry: CaMn^3+^SiO_4_(OH)
Locality: Wessels Mine, Kalahari Mn Field, Namibia
Source: Michael Scott
Description: Red to very dark red short prismatic striated crystals associated with datolite, calcite, hausmannite, and pectolite
Measured chemistry: Ca_1.00_Mn^3+^_1.00_Si_1.00_O_4_(OH); = dark phase, trace amounts of Fe and Al; OH estimated by charge balance : Mn^2+^Mn^3+^_2_O_4_ (light phase = hausmannite)
Raman shift (cm-1)	intensity
148.982	0
151.875	9.11646
154.768	68.6149
157.66	101.997
160.553	191.279
163.446	313.817
166.338	403.512
169.231	510.446
172.124	445.127
175.017	236.379
177.909	141.305
180.802	39.3119
183.695	2.65344
186.587	17.5292
189.48	10.2615
192.373	24.1163
195.265	111.936
198.158	219.478
201.051	227.506
203.944	193.778
206.836	247.928
209.729	292.469
212.622	445.067
215.514	613.315
218.407	543.572
221.3	330.068
224.192	239.468
227.085	213.192
229.978	279.803
232.87	331.766
235.763	447.324
238.656	593.709
241.549	734.401
244.441	825.794
247.334	905.192
250.227	883.558
253.119	789.635
256.012	720.968
258.905	661.784
261.798	643.63
264.69	548.226
267.583	430.7
270.476	387.478
273.368	331.16
276.261	254.638
279.154	208.312
282.046	165.583
284.939	137.57
287.832	55.3273
290.724	23.9736
293.617	10.4292
296.51	3.73352
299.403	13.9507
302.295	5.64453
305.188	5.37079
308.081	12.2624
310.973	3.04828
313.866	23.4387
316.759	7.98968
319.651	1.677
322.544	12.0959
325.437	13.7804
328.33	46.7709
331.222	61.3742
334.115	125.967
337.008	159.082
339.9	220.572
342.793	272.722
345.686	361.814
348.579	474.755
351.471	573.019
354.364	591.696
357.257	569.247
360.149	467.72
363.042	311.003
365.935	246.736
368.827	258.494
371.72	296.396
374.613	307.612
377.505	343.905
380.398	350.435
383.291	400.471
386.184	489.028
389.076	531.607
391.969	439.795
394.862	273.403
397.754	110.061
400.647	26.0876
403.54	16.1683
406.433	32.0056
409.325	68.6512
412.218	75.4677
415.111	123.34
418.003	150.833
420.896	206.151
423.789	261.88
426.681	424.947
429.574	542.022
432.467	623.397
435.36	682.975
438.252	697.308
441.145	670.994
444.038	577.042
446.93	452.876
449.823	314.747
452.716	213.132
455.608	238.135
458.501	310.152
461.394	367.509
464.286	451.591
467.179	537.13
470.072	558.211
472.965	553.611
475.857	524.348
478.75	477.939
481.643	394.791
484.535	327.913
487.428	276.551
490.321	236.137
493.214	173.219
496.106	124.532
498.999	77.972
501.892	30.4874
504.784	6.49451
507.677	18.2003
510.57	37.1136
513.462	36.5375
516.355	25.3626
519.248	19.3
522.14	26.601
525.033	52.6153
527.926	100.842
530.819	206.196
533.711	371.421
536.604	560.566
539.497	814.663
542.389	1142.08
545.282	1544.16
548.175	1856.68
551.067	1915.24
553.96	1952.02
556.853	2048.94
559.745	2230.3
562.638	2412.78
565.531	2311.1
568.424	1934.22
571.316	1461.93
574.209	1058.58
577.102	786.039
579.994	620.743
582.887	534.201
585.78	510.622
588.673	519.376
591.565	531.518
594.458	558.135
597.351	587.628
600.243	561.152
603.136	541.369
606.029	449.149
608.921	388.823
611.814	304.856
614.707	257.747
617.6	186.115
620.492	138.997
623.385	115.681
626.278	89.5751
629.17	61.8573
632.063	45.5579
634.956	39.8397
637.848	27.8423
640.741	13.692
643.634	26.6043
646.527	5.10879
649.419	4.06952
652.312	11.8849
655.205	7.81757
658.097	5.55225
660.99	0.460968
663.883	14.4026
666.775	3.47156
669.668	3.9133
672.561	13.1719
675.454	1.49206
678.346	9.32755
681.239	2.69577
684.132	13.0239
687.024	7.08563
689.917	4.70325
692.81	6.22961
695.702	1.9082
698.595	16.9438
701.488	7.23193
704.381	27.0171
707.273	22.7031
710.166	18.5654
713.059	12.2528
715.951	16.976
718.844	13.1931
721.737	7.31952
724.63	6.41745
727.522	4.3855
730.415	9.61362
733.308	10.1786
736.2	0.162964
739.093	13.3221
741.986	1.78122
744.878	4.73666
747.771	1.12039
750.664	3.8147
753.557	2.24307
756.449	7.87616
759.342	0.129547
762.235	5.4779
765.127	0.817078
768.02	1.41867
770.913	21.4635
773.805	24.4524
776.698	41.6531
779.591	53.0022
782.484	62.7254
785.376	91.7514
788.269	114.188
791.162	140.906
794.054	155.588
796.947	155.488
799.84	179.551
802.732	185.347
805.625	207.003
808.518	187.859
811.41	169.939
814.303	135.493
817.196	104.415
820.089	111.483
822.981	102.539
825.874	88.56
828.767	99.2509
831.659	109.579
834.552	140.443
837.445	170.681
840.337	199.926
843.23	276.851
846.123	320.558
849.016	404.113
851.908	429.791
854.801	449.312
857.694	452.257
860.586	404.521
863.479	363.057
866.372	314.971
869.264	274.134
872.157	262.425
875.05	245.893
877.943	251.154
880.835	273.443
883.728	278.66
886.621	278.132
889.513	245.642
892.406	179.47
895.299	145.933
898.192	143.107
901.084	87.9545
903.977	77.2979
906.87	32.1282
909.762	29.202
912.655	21.292
915.548	2.05447
918.44	16.5807
921.333	25.0734
924.226	4.37045
927.119	4.95071
930.011	1.78665
932.904	6.64804
935.797	15.432
938.689	2.21872
941.582	11.1662
944.475	32.7222
947.367	14.9179
950.26	37.0314
953.153	46.8303
956.045	60.2974
958.938	50.1247
961.831	64.7195
964.724	99.4272
967.616	109.691
970.509	143.118
973.402	203.171
976.294	233.831
979.187	313.159
982.08	333.544
984.972	360.609
987.865	314.275
990.758	247.768
993.651	213.277
996.543	174.302
999.436	135.637
1002.33	103.809
1005.22	83.4566
1008.11	74.79
1011.01	38.4096
1013.9	53.3032
1016.79	51.5295
1019.68	24.0915
1022.58	30.8598
1025.47	15.4932
1028.36	22.9574
1031.26	32.8684
1034.15	12.4453
1037.04	31.4656
1039.93	12.6968
1042.83	12.2798
1045.72	15.9611
1048.61	13.105
1051.51	8.46448
1054.4	14.0608
1057.29	23.2053
1060.18	5.96426
1063.08	2.58713
1065.97	8.14227
1068.86	3.78903
1071.75	5.85303
1074.65	13.6669
1077.54	1.92096
1080.43	16.1272
1083.32	4.57742
1086.22	7.39227
1089.11	0.563141
1092	23.9533
1094.89	7.31433
1097.79	35.2197
1100.68	22.5646
1103.57	30.4866
1106.47	26.0775
1109.36	4.20795
1112.25	28.2525
1115.14	22.1091
1118.04	28.8099
1120.93	37.1369
1123.82	17.5158
1126.71	1.38885
1129.61	3.6182
1132.5	20.0936
1135.39	26.295
1138.29	13.2548
1141.18	27.8644
1144.07	17.6794
1146.96	5.3009
1149.86	28.7317
1152.75	13.1619
1155.64	2.91805
1158.53	14.4445
1161.43	23.7751
1164.32	3.75566
1167.21	0.432663
1170.11	17.6402
1173	13.1973
1175.89	2.65111
1178.78	28.927
1181.68	15.3958
1184.57	25.8868
1187.46	24.1971
1190.35	5.07042
1193.25	9.79726
1196.14	13.2789
1199.03	19.8526
1201.92	24.4826
1204.82	23.5486
1207.71	33.0096
1210.6	28.6118
1213.5	11.0224
1216.39	12.6831
1219.28	4.67874
1222.17	17.5382
1225.07	21.0355
1227.96	8.1384
1230.85	5.07814
