Measurement: Raman, 532 nm, unoriented, Raman Data Processed
Mineral: Mozartite
Rruff sample: R070265
Ideal chemistry: CaMn^3+^SiO_4_(OH)
Locality: Wessels Mine, Kalahari Mn Field, Namibia
Source: Michael Scott
Description: Red to very dark red short prismatic striated crystals associated with datolite, calcite, hausmannite, and pectolite
Measured chemistry: Ca_1.00_Mn^3+^_1.00_Si_1.00_O_4_(OH); = dark phase, trace amounts of Fe and Al; OH estimated by charge balance : Mn^2+^Mn^3+^_2_O_4_ (light phase = hausmannite)
Raman shift (cm-1)	intensity
130.377	0
133.752	1.97467
137.127	61.7375
140.502	188.571
143.876	230.986
147.251	285.937
150.626	428.25
154.001	638.734
157.376	737.138
160.75	819.502
164.125	899.029
167.5	989.527
170.875	908.261
174.25	523.677
177.625	242.543
180.999	47.7233
184.374	0.344604
187.749	3.98334
191.124	2.67664
194.499	93.1845
197.874	194.073
201.248	209.853
204.623	224.718
207.998	372
211.373	650.625
214.748	902.834
218.122	665.877
221.497	322.142
224.872	217.438
228.247	267.845
231.622	422.387
234.996	730.719
238.371	1114.4
241.746	1447.93
245.121	1697.82
248.496	1746.73
251.871	1479.46
255.245	1198.48
258.62	964.406
261.995	803.736
265.37	667.837
268.745	549.469
272.12	461.072
275.494	405.653
278.869	306.402
282.244	197.16
285.619	99.8272
288.994	25.8801
292.368	12.1452
295.743	12.4926
299.118	17.7738
302.493	7.63928
305.868	30.7364
309.243	9.09985
312.617	15.047
315.992	7.7301
319.367	20.1254
322.742	20.3156
326.117	74.1656
329.491	96.3241
332.866	182.657
336.241	258.194
339.616	367.066
342.991	528.554
346.365	754.299
349.74	912.557
353.115	1050.58
356.49	1020.73
359.865	840.514
363.24	656.657
366.614	508.47
369.989	596.633
373.364	588.655
376.739	573.023
380.114	599.704
383.488	688.299
386.863	771.62
390.238	711.812
393.613	441.27
396.988	208.207
400.363	95.0013
403.737	58.7257
407.112	88.5222
410.487	107.933
413.862	159.217
417.237	123.398
420.611	137.985
423.986	283.739
427.361	485.342
430.736	660.034
434.111	740.83
437.486	739.996
440.86	678.144
444.235	529.6
447.61	368.413
450.985	264.82
454.36	322.572
457.735	507.122
461.109	741.473
464.484	925.58
467.859	988.757
471.234	1005.54
474.609	968.663
477.983	891.746
481.358	700.819
484.733	579.863
488.108	410.851
491.483	307.013
494.858	214.083
498.232	135.641
501.607	68.6204
504.982	24.7302
508.357	11.2756
511.732	14.2719
515.106	19.2622
518.481	-1.23638
521.856	26.8982
525.231	131.995
528.606	342.8
531.981	636.64
535.355	1031.13
538.73	1488.51
542.105	2095.89
545.48	2685.93
548.855	3082.56
552.229	3185.98
555.604	3300.61
558.979	3668.22
562.354	3960.92
565.729	3702.91
569.104	2968.26
572.478	2256.52
575.853	1801.34
579.228	1685.97
582.603	1751.07
585.978	1899.75
589.352	2164.99
592.727	2380.78
596.102	2551.95
599.477	2524.78
602.852	2310.28
606.227	1976.2
609.601	1597.7
612.976	1242.31
616.351	939.468
619.726	724.546
623.101	553.431
626.476	420.89
629.85	293.062
633.225	228.662
636.6	130.339
639.975	120.225
643.35	93.5802
646.724	48.635
650.099	17.7208
653.474	14.4396
656.849	4.71191
660.224	10.1694
663.598	16.2246
666.973	3.2937
670.348	1.88763
673.723	15.1179
677.098	8.19006
680.472	1.17413
683.847	1.69867
687.222	23.1982
690.597	30.483
693.972	47.9921
697.347	24.7487
700.721	31.2922
704.096	36.7455
707.471	82.1196
710.846	48.3228
714.221	54.3698
717.596	54.9425
720.97	62.8674
724.345	47.3543
727.72	75.5938
731.095	40.3298
734.47	37.2562
737.844	10.6985
741.219	22.2607
744.594	17.5612
747.969	11.0145
751.344	7.56775
754.719	21.485
758.093	9.13599
761.468	2.15888
764.843	1.68854
768.218	17.8052
771.593	3.84613
774.967	7.43402
778.342	21.897
781.717	4.98352
785.092	20.7127
788.467	83.077
791.842	65.178
795.216	95.2816
798.591	132.237
801.966	96.8314
805.341	121.265
808.716	102.314
812.091	51.1446
815.465	26.9387
818.84	13.4082
822.215	37.2445
825.59	29.6664
828.965	65.9164
832.339	119.084
835.714	205.453
839.089	383.03
842.464	477.428
845.839	643.875
849.213	836.981
852.588	928.389
855.963	1014.05
859.338	1024.46
862.713	920.655
866.087	827.8
869.462	651.064
872.837	648.818
876.212	658.717
879.587	701.265
882.962	746.45
886.337	773.385
889.711	696.992
893.086	607.793
896.461	514.375
899.836	409.558
903.211	312.335
906.585	167.11
909.96	119.585
913.335	57.8193
916.71	7.44678
920.085	2.52539
923.46	16.4117
926.834	22.4203
930.209	1.12024
933.584	2.10022
936.959	3.51074
940.334	31.4199
943.708	33.2504
947.083	71.501
950.458	87.0177
953.833	124.436
957.208	174.685
960.582	302.553
963.957	382.363
967.332	588.439
970.707	876.348
974.082	1222.73
977.457	1498.48
980.831	1770.95
984.206	1789.43
987.581	1541.69
990.956	1200.69
994.331	882.999
997.705	667.56
1001.08	531.062
1004.46	379.151
1007.83	269.742
1011.21	201.785
1014.58	154.887
1017.95	141.28
1021.33	101.586
1024.7	76.8019
1028.08	123.532
1031.45	44.8412
1034.83	69.0059
1038.2	42.5859
1041.58	53.1346
1044.95	2.71899
1048.33	18.0946
1051.7	11.061
1055.08	9.29547
1058.45	13.9066
1061.83	1.80377
1065.2	13.709
1068.58	4.58972
1071.95	14.3646
1075.33	21.2054
1078.7	26.5156
1082.08	16.3166
1085.45	16.3256
1088.83	26.4937
1092.2	13.5063
1095.58	31.3146
1098.95	19.7596
1102.33	22.5324
1105.7	18.2621
1109.07	40.5759
1112.45	34.3198
1115.82	12.3224
1119.2	53.8835
1122.57	40.4901
1125.95	10.7758
1129.32	44.2059
1132.7	24.9005
1136.07	5.1958
1139.45	35.3843
1142.82	10.8192
1146.2	31.7012
1149.57	8.66657
1152.95	6.25586
1156.32	22.6022
1159.7	21.1693
1163.07	23.6221
1166.45	27.7873
1169.82	25.0986
1173.2	11.7998
1176.57	10.4862
1179.95	33.1833
1183.32	41.6818
1186.69	65.5244
1190.07	62.1257
1193.44	62.8496
1196.82	54.1007
1200.19	47.5566
1203.57	58.6067
1206.94	71.121
1210.32	56.0981
1213.69	38.6002
1217.07	60.6099
1220.44	58.8674
1223.82	56.7667
1227.19	31.0281
1230.57	40.0646
1233.94	21.7839
1237.32	32.9058
1240.69	59.4163
1244.07	30.9689
1247.44	2.37073
1250.82	20.0189
1254.19	4.71161
1257.57	50.2675
1260.94	21.6135
1264.32	18.5529
1267.69	12.2205
1271.07	25.3151
1274.44	48.8196
1277.82	56.1388
1281.19	30.412
1284.57	0.084351
1287.94	23.609
1291.32	7.5304
1294.69	22.2208
1298.06	15.1428
1301.44	12.6026
1304.81	0
