Measurement: Raman, 532 nm, unoriented, Raman Data Processed
Mineral: Muirite
Rruff sample: R120160
Ideal chemistry: Ba_10_Ca_2_Mn^2+^Ti^4+^Si_10_O_30_(OH)_10_
Locality: Gun Claim, MacMillian Pass, Itsy Mts, Watson Lake Mining District, Yukon Territory, Canada
Source: Donald Doell
Description: Orange-red massive, associated with colorless sanbornite with good cleavage, diopside, and witherite.
Raman shift (cm-1)	intensity
193.981	0
196.874	7.6637
199.766	8.40503
202.659	1.78619
205.552	0.257385
208.445	8.3924
211.337	30.5561
214.23	37.968
217.123	52.5269
220.015	55.0033
222.908	56.6658
225.801	51.2363
228.693	60.7867
231.586	71.6308
234.479	92.0764
237.371	124.387
240.264	184.534
243.157	237.468
246.05	306.275
248.942	391.566
251.835	503.744
254.728	663.279
257.62	862.486
260.513	1092.02
263.406	1312.83
266.298	1455.44
269.191	1489.63
272.084	1376.17
274.977	1158.24
277.869	886.357
280.762	644.389
283.655	475.31
286.547	391.41
289.44	352.268
292.333	348.695
295.226	355.593
298.118	382.466
301.011	385.912
303.904	359.049
306.796	314.473
309.689	265.328
312.582	228.784
315.474	197.303
318.367	176.388
321.26	152.509
324.152	119.973
327.045	86.8497
329.938	62.9246
332.831	39.8619
335.723	24.0922
338.616	8.17462
341.509	3.3111
344.401	13.6326
347.294	16.0217
350.187	9.88385
353.079	3.58398
355.972	6.54761
358.865	5.75238
361.758	7.83063
364.65	12.1284
367.543	27.734
370.436	51.3624
373.328	77.6703
376.221	108.584
379.114	134.442
382.007	151.863
384.899	169.419
387.792	168.492
390.685	157.318
393.577	136.841
396.47	123.488
399.363	104.652
402.255	91.825
405.148	80.2108
408.041	73.8211
410.933	84.4631
413.826	91.6257
416.719	89.7664
419.612	70.5794
422.504	47.1668
425.397	35.6989
428.29	35.0394
431.182	33.2214
434.075	29.3672
436.968	18.7432
439.861	8.31464
442.753	1.77399
445.646	8.85425
448.539	9.12207
451.431	2.71497
454.324	11.8691
457.217	30.0762
460.109	52.3748
463.002	72.2214
465.895	85.2413
468.788	85.4966
471.68	67.4555
474.573	51.0963
477.466	48.7055
480.358	55.4329
483.251	63.8656
486.144	73.1282
489.036	78.5384
491.929	78.5196
494.822	80.3838
497.714	84.3765
500.607	100.089
503.5	114.345
506.393	131.652
509.285	153.926
512.178	186.509
515.071	208.181
517.963	226.509
520.856	240.396
523.749	245.743
526.641	239.312
529.534	214.717
532.427	180.036
535.32	142.83
538.212	111.886
541.105	93.7315
543.998	81.6757
546.89	80.7742
549.783	76.6344
552.676	73.9362
555.568	68.9286
558.461	67.678
561.354	53.1442
564.247	41.0504
567.139	28.6315
570.032	17.1938
572.925	7.93503
575.817	2.37607
578.71	0.22287
581.603	0.588348
584.495	1.66122
587.388	2.69592
590.281	2.33777
593.174	1.3299
596.066	0.434998
598.959	0.487488
601.852	0.302734
604.744	2.53274
607.637	0.770813
610.53	0.391083
613.423	0.058655
616.315	0.590515
619.208	2.63904
622.101	0.850739
624.993	1.2334
627.886	0.072021
630.779	1.0997
633.671	0.218811
636.564	3.07626
639.457	3.66861
642.35	9.2067
645.242	14.9756
648.135	20.3273
651.028	27.4867
653.92	49.6187
656.813	74.9847
659.706	104.091
662.598	134.935
665.491	154.326
668.384	141.015
671.277	141.333
674.169	182.103
677.062	266.935
679.955	399.347
682.847	578.64
685.74	774.055
688.633	826.695
691.525	583.859
694.418	291.744
697.311	153.769
700.203	87.5454
703.096	55.074
705.989	37.0957
708.882	26.3818
711.774	18.8954
714.667	12.9244
717.56	9.90298
720.452	12.868
723.345	12.2285
726.238	10.8769
729.13	11.5971
732.023	12.0938
734.916	13.303
737.809	14.6692
740.701	14.8844
743.594	13.3724
746.487	17.3496
749.379	19.4483
752.272	18.679
755.165	19.3183
758.058	23.0682
760.95	23.9453
763.843	27.4463
766.736	33.0453
769.628	33.8733
772.521	41.9766
775.414	49.791
778.306	52.6641
781.199	53.701
784.092	45.8892
786.985	27.2325
789.877	13.3534
792.77	8.319
795.663	3.98373
798.555	0.637787
801.448	3.19061
804.341	4.00561
807.233	3.50458
810.126	2.65476
813.019	4.14822
815.912	0.595581
818.804	0.26535
821.697	3.48257
824.59	8.34656
827.482	13.4561
830.375	22.6862
833.268	42.814
836.16	67.0711
839.053	98.9466
841.946	137.813
844.838	176.797
847.731	216.73
850.624	256.377
853.517	297.066
856.409	332.98
859.302	361.267
862.195	370.034
865.087	367.891
867.98	351.46
870.873	326.936
873.765	300.271
876.658	279.264
879.551	259.031
882.444	240.232
885.336	225.261
888.229	210.912
891.122	191.262
894.014	168.069
896.907	140.372
899.8	108.819
902.692	83.0306
905.585	59.4305
908.478	38.9153
911.371	26.9099
914.263	20.4939
917.156	19.283
920.049	21.2373
922.941	22.7709
925.834	29.0117
928.727	29.7543
931.62	26.391
934.512	30.6872
937.405	19.0764
940.298	18.2051
943.19	18.7556
946.083	18.8682
948.976	18.6768
951.868	11.391
954.761	0.015381
957.654	3.67603
960.547	6.0965
963.439	5.37537
966.332	5.67261
969.225	1.27264
972.117	13.4136
975.01	21.5506
977.903	25.4478
980.795	29.0962
983.688	38.6392
986.581	46.9299
989.473	60.3287
992.366	78.6686
995.259	115.574
998.152	166.043
1001.04	232.458
1003.94	308.14
1006.83	385.615
1009.72	444.503
1012.62	451.532
1015.51	352.114
1018.4	251.545
1021.29	214.069
1024.19	196.22
1027.08	197.854
1029.97	209.571
1032.86	208.052
1035.76	228.838
1038.65	254.964
1041.54	297.488
1044.43	339.621
1047.33	378.61
1050.22	413.609
1053.11	433.019
1056.01	405.216
1058.9	307.782
1061.79	170.725
1064.68	75.4296
1067.58	27.8057
1070.47	12.7002
1073.36	5.57379
1076.26	1.67145
1079.15	1.38635
1082.04	1.91425
1084.93	2.09857
1087.83	1.896
1090.72	0.235229
1093.61	0.030579
1096.5	1.29721
1099.4	1.30875
1102.29	1.1019
1105.18	0.113953
1108.07	1.57465
1110.97	0.419739
1113.86	2.79941
1116.75	0.00119
1119.64	1.23456
1122.54	4.47266
1125.43	3.45532
1128.32	0.02243
1131.22	1.83588
1134.11	3.92856
1137	4.97769
1139.89	5.32245
1142.79	3.2034
1145.68	4.61423
1148.57	1.19922
1151.46	3.14572
1154.36	5.10068
1157.25	6.26093
1160.14	6.36981
1163.04	5.22733
1165.93	4.28699
1168.82	5.5657
1171.71	5.55975
1174.61	6.00415
1177.5	5.03702
1180.39	5.10312
1183.28	4.37445
1186.18	3.77603
1189.07	3.95142
1191.96	7.96344
1194.86	4.22089
1197.75	5.75931
1200.64	6.61768
1203.53	4.65057
1206.43	3.70801
1209.32	6.76492
1212.21	2.35086
1215.1	2.81
1218	2.49143
1220.89	4.24225
1223.78	3.52029
1226.67	4.06937
1229.57	1.82974
1232.46	0.885681
1235.35	0.216003
1238.25	1.04315
1241.14	3.7785
1244.03	3.41739
1246.92	4.33841
1249.82	2.99008
1252.71	3.56073
1255.6	3.84268
1258.49	1.78592
1261.39	4.46136
1264.28	4.08646
1267.17	4.41101
1270.07	4.67508
1272.96	5.30847
1275.85	1.69565
1278.74	0.312225
1281.64	2.01685
1284.53	2.57886
1287.42	3.7258
1290.31	1.69199
1293.21	1.85751
1296.1	1.40329
1298.99	1.57468
1301.88	0
