Measurement: Raman, 532 nm, unoriented, Raman Data Processed
Mineral: Munakataite
Rruff sample: R110006
Ideal chemistry: Pb_2_Cu_2_(Se^4+^O_3_)SO_4_(OH)_4_
Locality: Tonopah-Belmont mine, Maricopa County, Arizona, USA
Source: Marcus Origlieri
Description: Jackstraw aggregate of blue bladed crystals
Raman shift (cm-1)	intensity
205.779	0
208.672	2.34996
211.565	4.88727
214.457	6.64824
217.35	11.4704
220.243	8.75888
223.135	6.54352
226.028	5.12627
228.921	4.82007
231.813	1.60095
234.706	3.17422
237.599	3.97121
240.492	5.84051
243.384	4.39394
246.277	5.69653
249.17	7.33147
252.062	2.92983
254.955	2.9933
257.848	3.63528
260.74	3.23045
263.633	0.826172
266.526	4.90547
269.418	4.53851
272.311	4.57489
275.204	5.08343
278.097	8.62633
280.989	8.75856
283.882	1.77393
286.775	0.938263
289.667	0.572342
292.56	1.65001
295.453	0.665176
298.346	4.03819
301.238	1.25554
304.131	0.122543
307.024	0.115662
309.916	1.08975
312.809	0.966339
315.702	4.44398
318.594	9.84796
321.487	12.774
324.38	16.3319
327.273	27.8694
330.165	37.4549
333.058	45.4709
335.951	51.6976
338.843	57.8308
341.736	66.8776
344.629	84.7669
347.522	71.4702
350.414	53.5217
353.307	42.6356
356.2	43.8609
359.092	34.19
361.985	33.6136
364.878	36.1949
367.77	46.2484
370.663	51.8692
373.556	62.5724
376.449	70.0406
379.341	75.5343
382.234	61.852
385.127	48.9945
388.019	32.3047
390.912	16.8008
393.805	8.64676
396.697	2.97446
399.59	1.14976
402.483	6.1409
405.376	3.00169
408.268	2.11116
411.161	0.168152
414.054	0.359619
416.946	1.53336
419.839	2.17548
422.732	0.516342
425.625	9.47827
428.517	13.9107
431.41	18.22
434.303	44.0672
437.195	68.5083
440.088	98.7051
442.981	50.2345
445.873	8.75339
448.766	5.58389
451.659	5.16635
454.551	19.4447
457.444	34.5542
460.337	53.6134
463.23	76.5039
466.122	109.225
469.015	130.601
471.908	124.311
474.8	92.3811
477.693	55.8891
480.586	35.8741
483.479	20.0909
486.371	11.2129
489.264	5.80762
492.157	3.18042
495.049	4.86908
497.942	3.62811
500.835	2.44672
503.728	6.48093
506.62	7.90138
509.513	12.6471
512.406	23.0548
515.298	30.7139
518.191	49.7397
521.084	58.0787
523.976	61.5491
526.869	48.7945
529.762	31.0524
532.654	17.0024
535.547	13.352
538.44	8.73441
541.333	7.18082
544.225	5.44222
547.118	2.89941
550.011	2.76068
552.903	1.46944
555.796	1.16371
558.689	1.9893
561.582	1.29106
564.474	2.47939
567.367	1.07483
570.26	3.11148
573.152	2.29579
576.045	4.06212
578.938	0.98262
581.831	0.651596
584.723	0.963089
587.616	3.18056
590.509	2.61912
593.401	3.46971
596.294	11.0413
599.187	11.6144
602.079	13.775
604.972	21.0427
607.865	19.4992
610.758	13.8628
613.65	20.0124
616.543	18.0392
619.436	7.22237
622.328	3.19161
625.221	1.8145
628.114	2.7117
631.006	3.63641
633.899	3.58232
636.792	4.00078
639.685	7.08424
642.577	8.64421
645.47	10.6131
648.363	15.1381
651.255	17.429
654.148	19.8451
657.041	27.8436
659.933	27.4704
662.826	26.9713
665.719	23.8428
668.612	15.9295
671.504	10.2352
674.397	8.98619
677.29	3.2309
680.182	4.18851
683.075	1.94414
685.968	0.512024
688.861	2.61943
691.753	1.63135
694.646	0.049973
697.539	1.56276
700.431	0.736572
703.324	0.896942
706.217	2.0277
709.109	8.21574
712.002	11.3573
714.895	17.6032
717.788	23.5364
720.68	28.5465
723.573	35.2391
726.466	39.614
729.358	42.1127
732.251	38.8271
735.144	38.3818
738.036	35.0632
740.929	36.8543
743.822	29.334
746.715	29.8946
749.607	26.1167
752.5	21.2258
755.393	22.4195
758.285	25.7561
761.178	20.0596
764.071	24.92
766.963	34.4177
769.856	43.7791
772.749	63.3768
775.642	97.6976
778.534	148.218
781.427	225.293
784.32	326.516
787.212	437.618
790.105	536.96
792.998	545.209
795.89	409.422
798.783	240.097
801.676	127.424
804.569	70.045
807.461	40.419
810.354	20.8758
813.247	15.2001
816.139	9.08577
819.032	8.18285
821.925	13.4286
824.818	16.3043
827.71	21.0612
830.603	11.7757
833.496	1.17015
836.388	0.703125
839.281	0.283417
842.174	3.60585
845.067	0.083191
847.959	0.429031
850.852	3.3033
853.745	0.447144
856.637	0.273346
859.53	0.164444
862.423	2.05533
865.315	3.57584
868.208	2.08855
871.101	2.50461
873.994	4.08962
876.886	1.37178
879.779	1.51079
882.672	1.76259
885.564	0.531631
888.457	0.552856
891.35	1.79893
894.242	3.09549
897.135	0.257004
900.028	2.11757
902.92	0.753433
905.813	1.70898
908.706	4.2659
911.599	0.381866
914.491	4.25574
917.384	5.33762
920.277	7.20174
923.169	3.838
926.062	6.84486
928.955	3.57896
931.848	6.28123
934.74	7.19055
937.633	6.21333
940.526	8.10277
943.418	5.48895
946.311	12.4278
949.204	20.6292
952.096	32.109
954.989	57.4074
957.882	99.3162
960.775	155.466
963.667	254.631
966.56	348.137
969.453	280.314
972.345	123.843
975.238	57.3934
978.131	31.3613
981.024	17.604
983.916	8.61083
986.809	8.19249
989.702	5.78401
992.594	1.32088
995.487	1.40082
998.38	1.10864
1001.27	2.6991
1004.16	1.80705
1007.06	0.899796
1009.95	2.58351
1012.84	1.48518
1015.74	1.23906
1018.63	0.25145
1021.52	4.57094
1024.41	0.578201
1027.31	4.38171
1030.2	5.3101
1033.09	8.61891
1035.98	11.1127
1038.88	13.8553
1041.77	16.8928
1044.66	21.5405
1047.56	27.1519
1050.45	27.9337
1053.34	25.2697
1056.23	25.403
1059.13	26.4847
1062.02	26.2802
1064.91	31.3588
1067.81	33.5995
1070.7	32.9215
1073.59	37.537
1076.48	36.7612
1079.38	36.4766
1082.27	30.6944
1085.16	29.9532
1088.05	25.7192
1090.95	24.2603
1093.84	23.2193
1096.73	23.478
1099.62	19.0338
1102.52	19.4541
1105.41	18.8468
1108.3	17.1436
1111.19	10.9535
1114.09	8.81145
1116.98	9.06026
1119.87	11.0934
1122.77	6.95818
1125.66	4.16144
1128.55	6.15157
1131.44	2.68565
1134.34	0.77504
1137.23	0.176239
1140.12	0.229034
1143.02	0.821274
1145.91	1.01045
1148.8	0.643082
1151.69	0.569122
1154.59	3.36623
1157.48	0.965546
1160.37	2.09772
1163.26	1.84239
1166.16	1.8064
1169.05	2.70183
1171.94	1.22821
1174.84	0.673264
1177.73	2.58162
1180.62	5.68163
1183.51	1.04045
1186.4	6.19208
1189.3	6.06529
1192.19	1.93912
1195.08	3.74548
1197.98	3.57143
1200.87	5.20348
1203.76	4.79343
1206.65	2.66408
1209.55	3.39085
1212.44	7.98769
1215.33	2.36583
1218.22	3.25378
1221.12	6.13147
1224.01	2.62593
1226.9	4.13586
1229.8	3.18147
1232.69	5.5454
1235.58	1.11354
1238.47	0.168503
1241.37	2.86977
1244.26	3.02579
1247.15	1.30714
1250.05	2.55162
1252.94	2.13383
1255.83	3.44185
1258.72	2.65445
1261.62	6.93709
1264.51	3.88831
1267.4	3.58029
1270.29	0.968277
1273.19	5.94728
1276.08	1.88469
1278.97	4.87996
1281.87	3.21188
1284.76	2.22993
1287.65	1.10204
1290.54	1.32129
1293.43	4.05125
1296.33	5.1203
1299.22	2.69
1302.11	0.42099
