Measurement: Raman, 532 nm, unoriented, Raman Data Processed
Mineral: Munakataite
Rruff sample: R110005
Ideal chemistry: Pb_2_Cu_2_(Se^4+^O_3_)SO_4_(OH)_4_
Locality: Tonopah-Belmont mine, Maricopa County, Arizona, USA
Source: Marcus Origlieri
Description: Blue acicular to prismatic crystals with tapering terminations, associated with brochantite and cerussite
Raman shift (cm-1)	intensity
166.728	0
169.62	0.21688
172.513	1.53889
175.406	0.872115
178.298	1.12659
181.191	1.65134
184.084	0.007177
186.976	4.42152
189.869	5.67279
192.762	6.14119
195.655	5.64675
198.547	4.64752
201.44	4.89867
204.333	5.19279
207.225	2.50421
210.118	1.79693
213.011	3.33695
215.904	2.6708
218.796	3.34112
221.689	3.65351
224.582	3.75804
227.474	4.40132
230.367	4.2588
233.26	1.08317
236.152	2.07275
239.045	1.1925
241.938	1.02675
244.831	2.66013
247.723	3.19923
250.616	2.7546
253.509	0.03207
256.401	2.30131
259.294	0.711488
262.187	0.304387
265.079	1.78816
267.972	1.20496
270.865	0.304087
273.758	2.98851
276.65	3.68657
279.543	2.33405
282.436	1.85358
285.328	2.61409
288.221	0.968295
291.114	0.666013
294.007	0.3988
296.899	0.431059
299.792	0.93075
302.685	0.140664
305.577	1.50095
308.47	0.254074
311.363	0.055615
314.255	0.789821
317.148	0.380682
320.041	0.710326
322.933	2.81793
325.826	5.85801
328.719	6.55049
331.612	7.43088
334.504	7.65306
337.397	6.92749
340.29	9.54504
343.183	13.9903
346.075	15.4881
348.968	12.0818
351.861	11.5981
354.753	10.7046
357.646	12.3407
360.539	14.9189
363.431	14.9301
366.324	15.7466
369.217	19.4453
372.11	23.6554
375.002	29.2334
377.895	33.5642
380.788	34.3641
383.68	31.2289
386.573	24.4837
389.466	15.2116
392.358	9.50613
395.251	6.59846
398.144	5.09419
401.036	4.27204
403.929	1.42498
406.822	1.7796
409.715	0.564517
412.607	0.285718
415.5	0.346206
418.393	0.668311
421.285	0.967769
424.178	1.05629
427.071	0.014426
429.964	2.41753
432.856	3.46848
435.749	6.75346
438.642	11.2516
441.534	13.3001
444.427	5.07868
447.32	1.59583
450.212	3.57913
453.105	5.76273
455.998	9.34458
458.891	13.1998
461.783	18.2878
464.676	25.0605
467.569	29.9125
470.461	31.2868
473.354	26.8623
476.247	18.3622
479.139	11.1127
482.032	4.71613
484.925	2.68681
487.818	2.11119
490.71	1.88206
493.603	2.16364
496.496	1.94956
499.388	0.131335
502.281	1.43647
505.174	2.96392
508.067	3.77287
510.959	7.80795
513.852	9.41082
516.745	14.9463
519.637	19.1338
522.53	22.2828
525.423	21.1851
528.316	16.1886
531.208	9.6585
534.101	6.51082
536.994	4.71692
539.886	3.84771
542.779	3.13626
545.672	2.78259
548.564	2.5164
551.457	0.66702
554.35	0.093701
557.242	1.78497
560.135	1.73442
563.028	0.776267
565.921	0.977499
568.813	0.55857
571.706	0.903884
574.599	0.040913
577.491	0.872356
580.384	2.13284
583.277	0.04674
586.17	0.010239
589.062	0.01083
591.955	2.89241
594.848	2.75331
597.74	1.65522
600.633	2.29821
603.526	3.3309
606.418	3.35217
609.311	3.34116
612.204	1.56461
615.097	2.55497
617.989	1.52302
620.882	3.06118
623.775	0.411985
626.667	3.37753
629.56	2.81454
632.453	0.774963
635.346	1.37303
638.238	0.281602
641.131	2.96341
644.024	0.917723
646.916	3.73298
649.809	1.7753
652.702	3.56527
655.594	4.6588
658.487	5.3405
661.38	6.07708
664.273	5.56684
667.165	3.05511
670.058	5.70301
672.951	5.05203
675.843	2.69558
678.736	2.64861
681.629	0.980325
684.521	2.2686
687.414	0.949348
690.307	0.597833
693.199	1.21601
696.092	0.19706
698.985	0.303477
701.878	0.869623
704.77	0.174466
707.663	2.04162
710.556	2.07687
713.448	3.0001
716.341	2.00385
719.234	1.65393
722.127	2.18543
725.019	2.33356
727.912	2.57271
730.805	3.22279
733.697	0.906156
736.59	2.70908
739.483	3.3237
742.375	1.49886
745.268	1.44211
748.161	2.09281
751.054	2.52731
753.946	1.34664
756.839	2.87955
759.732	4.21423
762.625	3.92556
765.517	4.05015
768.41	7.07776
771.303	6.10926
774.195	10.5828
777.088	15.3322
779.981	26.7214
782.873	41.3476
785.766	62.2106
788.659	86.9465
791.552	105.601
794.444	102.495
797.337	74.2527
800.23	41.8513
803.122	22.3055
806.015	11.4758
808.908	6.0038
811.8	4.73139
814.693	4.07909
817.586	2.31952
820.479	2.0585
823.371	3.03015
826.264	3.77796
829.157	4.97373
832.049	2.8242
834.942	0.608104
837.835	0.792268
840.727	0.317023
843.62	1.37555
846.513	0.2149
849.405	0.09996
852.298	1.96165
855.191	0.183853
858.084	0.685666
860.976	0.046707
863.869	1.70398
866.762	2.12522
869.654	0.506247
872.547	1.14735
875.44	0.37693
878.333	0.425064
881.225	1.86002
884.118	1.16888
887.011	2.04053
889.903	1.88448
892.796	0.213266
895.689	0.813595
898.582	1.20749
901.474	0.604368
904.367	1.8231
907.26	0.423368
910.152	1.05238
913.045	1.4098
915.938	0.935639
918.83	2.43995
921.723	1.93787
924.616	1.72363
927.509	2.06786
930.401	2.63062
933.294	2.93931
936.187	0.565311
939.079	1.59508
941.972	0.868638
944.865	2.9121
947.757	5.42614
950.65	7.42541
953.543	11.438
956.436	20.3725
959.328	36.4346
962.221	62.4017
965.114	91.8132
968.006	118.141
970.899	79.651
973.792	38.7519
976.684	17.8424
979.577	9.22371
982.47	4.40823
985.362	3.15459
988.255	2.74649
991.148	1.39496
994.041	0.170299
996.933	1.67281
999.826	0.182278
1002.72	1.30876
1005.61	0.240081
1008.5	0.367874
1011.4	0.094506
1014.29	1.47308
1017.18	0.021858
1020.08	0.510746
1022.97	1.23577
1025.86	1.86346
1028.75	1.17951
1031.65	2.15391
1034.54	1.18648
1037.43	3.2767
1040.32	4.09178
1043.22	2.48699
1046.11	5.21782
1049	3.98487
1051.89	2.86682
1054.79	3.87516
1057.68	5.12038
1060.57	5.10341
1063.47	4.54157
1066.36	6.66179
1069.25	5.45473
1072.14	6.38558
1075.04	6.6045
1077.93	5.67599
1080.82	5.93274
1083.71	3.96252
1086.61	3.96283
1089.5	3.74792
1092.39	5.01726
1095.29	5.23008
1098.18	5.31599
1101.07	2.96651
1103.96	4.89456
1106.86	3.57002
1109.75	2.52845
1112.64	1.47565
1115.53	3.06879
1118.43	1.09758
1121.32	1.93983
1124.21	0.067575
1127.11	2.48787
1130	0.128907
1132.89	0.949503
1135.78	0.91976
1138.68	1.02382
1141.57	2.5397
1144.46	0.49182
1147.35	0.929824
1150.25	1.84544
1153.14	0.700732
1156.03	0.017543
1158.92	2.1753
1161.82	2.18544
1164.71	0.990605
1167.6	1.58689
1170.5	2.38669
1173.39	2.13141
1176.28	1.81717
1179.17	0.175143
1182.07	2.00105
1184.96	1.21901
1187.85	3.27575
1190.74	2.92873
1193.64	1.89479
1196.53	0.892443
1199.42	0.584389
1202.32	1.54592
1205.21	3.20185
1208.1	2.34676
1210.99	0.335771
1213.89	1.45119
1216.78	2.94368
1219.67	0.58028
1222.56	1.97473
1225.46	2.13372
1228.35	1.65373
1231.24	1.53183
1234.13	1.74501
1237.03	1.4666
1239.92	1.54362
1242.81	1.61107
1245.71	2.50851
1248.6	1.341
1251.49	2.06431
1254.38	0.207836
1257.28	1.17811
1260.17	1.1755
1263.06	1.73578
1265.95	2.69097
1268.85	2.00799
1271.74	2.15291
1274.63	1.47908
1277.53	2.28234
1280.42	2.19806
1283.31	1.48997
1286.2	2.87991
1289.1	0.612948
1291.99	0.031138
1294.88	0.57821
1297.78	0.187287
1300.67	0.54535
