Measurement: Raman, 532 nm, unoriented, Raman Data Processed
Mineral: Murdochite
Rruff sample: R110122
Ideal chemistry: Cu_12_Pb_2_O_15_Cl_2_
Locality: Mapimi, Mexico
Source: Rob Lavinsky
Description: Coating of black cubes
Raman shift (cm-1)	intensity
177.273	0
180.166	0.881416
183.059	1.61052
185.951	4.12666
188.844	3.95664
191.737	6.31472
194.629	3.36484
197.522	3.35352
200.415	2.37239
203.308	1.0349
206.2	1.98202
209.093	0.100258
211.986	1.12185
214.878	2.86209
217.771	2.17885
220.664	0.042274
223.556	0.989586
226.449	2.30545
229.342	0.31488
232.234	0.452278
235.127	1.81436
238.02	1.95488
240.913	2.91207
243.805	2.09575
246.698	2.51609
249.591	2.5229
252.483	2.38279
255.376	4.84692
258.269	2.86113
261.161	6.34908
264.054	6.69981
266.947	8.80383
269.84	14.4668
272.732	16.0567
275.625	25.7128
278.518	31.5888
281.41	42.9838
284.303	52.7534
287.196	66.958
290.089	82.0915
292.981	93.0943
295.874	88.2472
298.767	65.2618
301.659	50.7446
304.552	41.8412
307.445	38.1336
310.337	39.7284
313.23	39.8721
316.123	39.6453
319.015	40.7251
321.908	40.431
324.801	40.6432
327.694	38.1487
330.586	37.3613
333.479	38.7122
336.372	36.7215
339.264	37.6838
342.157	34.111
345.05	29.6245
347.942	21.391
350.835	13.951
353.728	10.3467
356.621	8.28696
359.513	3.96442
362.406	2.77341
365.299	1.85116
368.191	0.271568
371.084	0.553123
373.977	0.615479
376.87	0.868484
379.762	1.8563
382.655	0.442284
385.548	0.259392
388.44	1.19556
391.333	2.2226
394.226	0.658005
397.118	1.44923
400.011	0.357979
402.904	0.138672
405.796	1.28626
408.689	3.70257
411.582	3.64963
414.475	2.39484
417.367	2.41579
420.26	3.08955
423.153	3.21297
426.045	5.55969
428.938	6.38246
431.831	6.31596
434.724	5.17554
437.616	5.96634
440.509	6.97554
443.402	10.1469
446.294	13.0378
449.187	16.3942
452.08	17.1728
454.972	19.8705
457.865	23.8955
460.758	24.0975
463.651	23.3848
466.543	17.8643
469.436	13.694
472.329	13.3614
475.221	8.99001
478.114	9.34193
481.007	8.69475
483.899	7.9007
486.792	7.46597
489.685	7.79306
492.577	8.45862
495.47	9.9685
498.363	10.4112
501.256	11.2202
504.148	14.1418
507.041	14.4183
509.934	16.4722
512.826	16.8466
515.719	15.6697
518.612	15.0685
521.505	16.2852
524.397	17.4867
527.29	21.9582
530.183	26.9191
533.075	32.5445
535.968	29.0389
538.861	21.081
541.753	12.3417
544.646	8.4715
547.539	5.93011
550.432	1.13333
553.324	2.36694
556.217	1.62495
559.11	0.237465
562.002	0.990211
564.895	0.339333
567.788	0.112862
570.68	0.058868
573.573	0.637466
576.466	1.02308
579.359	0.911964
582.251	1.08342
585.144	0.291992
588.037	0.987083
590.929	0.14584
593.822	1.28855
596.715	1.56951
599.607	0.062176
602.5	2.39394
605.393	0.301102
608.285	1.12308
611.178	3.2318
614.071	4.60026
616.964	6.0731
619.856	8.63605
622.749	11.729
625.642	12.3651
628.534	12.3351
631.427	9.32549
634.32	7.39386
637.212	5.24795
640.105	5.1402
642.998	3.12425
645.891	2.42094
648.783	2.56635
651.676	1.74596
654.569	2.42278
657.461	0.000481
660.354	2.88833
663.247	1.19927
666.139	1.21884
669.032	0.724377
671.925	2.17428
674.818	3.37785
677.71	3.7045
680.603	1.44291
683.496	2.62945
686.388	4.61835
689.281	2.06518
692.174	2.27191
695.067	5.3216
697.959	2.52291
700.852	1.9352
703.745	1.63003
706.637	1.78826
709.53	1.79191
712.423	3.86462
715.315	2.48234
718.208	0.434521
721.101	2.63134
723.994	3.20747
726.886	0.401653
729.779	2.63837
732.672	1.01397
735.564	4.4302
738.457	0.737713
741.35	2.05939
744.242	1.54188
747.135	1.35086
750.028	2.87318
752.92	0.104454
755.813	2.45357
758.706	2.17699
761.599	1.15729
764.491	4.58044
767.384	1.65403
770.277	0.33884
773.169	3.55656
776.062	3.54698
778.955	2.25763
781.847	1.86129
784.74	0.065315
787.633	1.66482
790.526	0.594063
793.418	0.352711
796.311	1.45135
799.204	0.039726
802.096	1.60165
804.989	1.84794
807.882	1.10583
810.774	1.36262
813.667	1.91635
816.56	0.059322
819.453	0.161041
822.345	1.57709
825.238	0.356159
828.131	1.78393
831.023	3.0117
833.916	2.17486
836.809	0.513927
839.702	1.54281
842.594	1.82648
845.487	1.62386
848.38	0.578278
851.272	0.427364
854.165	1.25777
857.058	0.690666
859.95	1.99703
862.843	1.50498
865.736	0.980583
868.629	0.796898
871.521	1.03731
874.414	0.574055
877.307	0.828255
880.199	1.69035
883.092	1.513
885.985	1.11675
888.877	2.27251
891.77	2.97469
894.663	2.68355
897.556	1.6735
900.448	1.94734
903.341	3.32801
906.234	1.68495
909.126	2.5286
912.019	1.77286
914.912	2.88567
917.804	4.62575
920.697	4.86785
923.59	2.19532
926.482	2.85315
929.375	3.62627
932.268	1.51709
935.161	1.55723
938.053	3.35702
940.946	2.3904
943.839	2.43366
946.731	3.21512
949.624	1.61474
952.517	4.19136
955.409	1.42352
958.302	1.67552
961.195	0.004093
964.088	0.177433
966.98	2.29025
969.873	4.00271
972.766	3.03549
975.658	0.689953
978.551	2.89184
981.444	1.52059
984.337	1.61156
987.229	1.73602
990.122	0.554146
993.015	3.60139
995.907	2.34057
998.8	1.32116
1001.69	2.79185
1004.59	2.74174
1007.48	1.20981
1010.37	0.795006
1013.26	0.933033
1016.16	3.17223
1019.05	1.07105
1021.94	2.21756
1024.83	2.43426
1027.73	0.461864
1030.62	2.25661
1033.51	0.507973
1036.4	1.54016
1039.3	0.386097
1042.19	0.541981
1045.08	0.542641
1047.98	2.39594
1050.87	1.66575
1053.76	0.549782
1056.65	3.0415
1059.55	1.95576
1062.44	2.43385
1065.33	1.18665
1068.22	0.639599
1071.12	0.786049
1074.01	1.64386
1076.9	2.92031
1079.8	3.21097
1082.69	3.75173
1085.58	3.75841
1088.47	2.43047
1091.37	7.04991
1094.26	6.33088
1097.15	5.09014
1100.04	3.97763
1102.94	6.20557
1105.83	5.28653
1108.72	5.66701
1111.62	2.58823
1114.51	4.72177
1117.4	3.43827
1120.29	4.83493
1123.19	3.86602
1126.08	4.19518
1128.97	3.88176
1131.86	3.37771
1134.76	3.41921
1137.65	3.44044
1140.54	2.36838
1143.43	1.25976
1146.33	2.25045
1149.22	2.72234
1152.11	2.91965
1155.01	3.67046
1157.9	1.6702
1160.79	1.72544
1163.68	3.26181
1166.58	0.270741
1169.47	0.473064
1172.36	0.137604
1175.26	2.5403
1178.15	2.21022
1181.04	2.2126
1183.93	1.95281
1186.83	2.29757
1189.72	0.768898
1192.61	1.2409
1195.5	0.081249
1198.4	3.1601
1201.29	1.82542
1204.18	1.34285
1207.07	2.51341
1209.97	1.19114
1212.86	1.54396
1215.75	3.51379
1218.64	1.34086
1221.54	0.464386
1224.43	3.05331
1227.32	3.06092
1230.22	2.36673
1233.11	2.78284
1236	2.96117
1238.89	3.63218
1241.79	4.27792
1244.68	2.04029
1247.57	2.22927
1250.46	0.875294
1253.36	2.32645
1256.25	0.266285
1259.14	1.40166
1262.04	0.510952
1264.93	0.941166
1267.82	1.88435
1270.71	0.839554
1273.61	1.2834
1276.5	2.24685
1279.39	0.609158
1282.29	0.767818
1285.18	1.02343
1288.07	2.70843
1290.96	2.88733
1293.86	0.03978
1296.75	0.886681
1299.64	0.059387
1302.53	0.319363
