Measurement: Raman, 532 nm, unoriented, Raman Data Processed
Mineral: Murmanite
Rruff sample: R110202
Ideal chemistry: Na_2_Ti_2_(Si_2_O_7_)O_2_2H_2_O
Locality: Kvanefjeld Mt., Kuannersuit plateau, Ilimaussaq complex, Narsaq, Kitaa Province, Greenland
Source: Donald Doell
Description: Pink plates frozen in matrix
Raman shift (cm-1)	intensity
175.827	0
178.72	7.11081
181.612	6.48552
184.505	4.65346
187.398	2.69588
190.29	1.6637
193.183	0.241074
196.076	0.971252
198.968	4.76862
201.861	5.96712
204.754	6.88863
207.647	8.78655
210.539	7.68739
213.432	7.1852
216.325	7.13736
219.217	6.08167
222.11	6.37253
225.003	9.01897
227.895	10.8635
230.788	14.819
233.681	14.027
236.573	12.607
239.466	9.19684
242.359	6.66098
245.252	3.16528
248.144	3.81703
251.037	6.61057
253.93	11.9892
256.822	19.4838
259.715	26.4418
262.608	30.6229
265.5	30.3126
268.393	26.3591
271.286	21.0594
274.179	17.5373
277.071	10.9746
279.964	2.43796
282.857	1.40833
285.75	1.09062
288.642	0.107834
291.535	5.35078
294.428	11.8833
297.32	23.0769
300.213	30.9409
303.106	35.0751
305.998	34.5561
308.891	29.6352
311.784	20.0539
314.676	13.5083
317.569	7.64455
320.462	5.81808
323.355	3.96834
326.247	7.3425
329.14	10.9681
332.033	16.8921
334.925	26.2568
337.818	37.5748
340.711	49.9593
343.603	66.1847
346.496	80.8035
349.389	86.295
352.281	79.1334
355.174	61.4126
358.067	41.5449
360.96	26.4064
363.852	14.4643
366.745	6.24173
369.638	0.54599
372.53	2.16727
375.423	1.74625
378.316	0.123398
381.209	1.81326
384.101	2.82535
386.994	5.24336
389.887	6.59387
392.779	7.72334
395.672	6.42656
398.565	7.31307
401.457	6.35566
404.35	3.42168
407.243	2.76717
410.135	3.01289
413.028	3.25378
415.921	4.26095
418.814	5.61309
421.706	6.23486
424.599	5.16425
427.492	7.89079
430.384	10.7424
433.277	13.5658
436.17	17.1552
439.062	22.3881
441.955	27.8716
444.848	31.5801
447.741	33.7184
450.633	30.9647
453.526	27.0785
456.419	21.1264
459.311	17.2067
462.204	14.1895
465.097	13.6471
467.99	11.8072
470.882	9.63812
473.775	8.62727
476.668	7.50198
479.56	6.47886
482.453	5.67149
485.346	4.45853
488.238	2.67151
491.131	0.571083
494.024	0.809227
496.916	0.473488
499.809	1.70604
502.702	0.75222
505.595	1.40905
508.487	0.848877
511.38	1.18824
514.273	1.3911
517.165	2.67028
520.058	3.33787
522.951	5.27708
525.844	8.26584
528.736	11.2765
531.629	16.2843
534.522	21.8131
537.414	28.1471
540.307	35.8743
543.2	42.746
546.092	47.4901
548.985	49.9521
551.878	52.5021
554.771	52.127
557.663	50.9017
560.556	49.7773
563.449	50.7313
566.341	51.4851
569.234	55.2018
572.127	55.3329
575.019	53.7913
577.912	51.5705
580.805	46.7598
583.697	40.3835
586.59	36.4549
589.483	33.2796
592.376	31.4732
595.268	28.0339
598.161	24.8177
601.054	22.522
603.946	17.483
606.839	12.6315
609.732	7.38615
612.625	3.27488
615.517	0.156372
618.41	1.49048
621.303	1.55017
624.195	3.08878
627.088	2.63263
629.981	0.37645
632.873	2.25768
635.766	4.37795
638.659	8.04627
641.552	11.4177
644.444	16.9864
647.337	21.0746
650.23	29.1234
653.122	37.2074
656.015	47.1542
658.908	56.4304
661.8	69.3853
664.693	81.498
667.586	96.4178
670.479	108.633
673.371	120.333
676.264	126.993
679.157	129.783
682.049	125.383
684.942	118.836
687.835	109.007
690.727	100.229
693.62	89.9692
696.513	82.4579
699.405	74.3856
702.298	66.8047
705.191	60.7229
708.084	55.4931
710.976	49.6977
713.869	44.885
716.762	38.7855
719.654	33.2475
722.547	26.3589
725.44	22.0037
728.332	18.7346
731.225	16.4513
734.118	12.3262
737.011	10.7078
739.903	9.05392
742.796	6.81094
745.689	6.0356
748.581	5.86872
751.474	5.01447
754.367	5.71667
757.26	5.82558
760.152	5.33405
763.045	4.88683
765.938	4.12868
768.83	4.96801
771.723	4.28005
774.616	5.32829
777.508	4.18294
780.401	3.43372
783.294	2.44781
786.187	1.71752
789.079	0.506897
791.972	1.12563
794.865	0.732231
797.757	0.809273
800.65	2.46704
803.543	2.00718
806.435	1.78665
809.328	0.80806
812.221	0.857948
815.114	0.480644
818.006	0.033661
820.899	0.039139
823.792	0.272865
826.684	1.38281
829.577	1.19347
832.47	3.43672
835.362	5.16319
838.255	13.7284
841.148	14.5258
844.04	19.7102
846.933	25.1837
849.826	29.7297
852.719	31.7993
855.611	29.0654
858.504	25.0956
861.397	19.8705
864.289	13.7126
867.182	9.11357
870.075	4.04124
872.967	1.13905
875.86	1.51073
878.753	0.985764
881.646	0.48452
884.538	1.47481
887.431	5.36718
890.324	10.0914
893.216	16.0927
896.109	23.4198
899.002	32.6755
901.894	42.3704
904.787	51.0338
907.68	55.0211
910.573	58.1269
913.465	60.093
916.358	68.7977
919.251	78.2757
922.143	90.2122
925.036	107.629
927.929	123.241
930.822	136.519
933.714	146.305
936.607	140.367
939.5	126.996
942.392	108.024
945.285	87.0091
948.178	67.9424
951.07	51.798
953.963	39.8556
956.856	30.6558
959.749	25.256
962.641	22.877
965.534	20.619
968.427	17.5076
971.319	15.0664
974.212	13.5658
977.105	10.5004
979.997	8.90899
982.89	8.01036
985.783	6.74599
988.676	6.07066
991.568	5.8159
994.461	4.60408
997.354	4.79174
1000.25	3.67006
1003.14	2.69569
1006.03	1.2776
1008.92	0.390572
1011.82	0.191986
1014.71	0.181229
1017.6	0.14315
1020.5	0.93766
1023.39	1.0965
1026.28	0.84211
1029.17	0.532433
1032.07	0.839134
1034.96	2.22059
1037.85	4.43919
1040.74	6.74091
1043.64	9.6572
1046.53	12.6116
1049.42	12.3503
1052.32	12.0719
1055.21	9.74426
1058.1	7.57839
1060.99	4.54784
1063.89	4.07629
1066.78	1.87517
1069.67	2.12992
1072.56	1.26002
1075.46	1.6648
1078.35	1.0714
1081.24	0.434326
1084.13	0.69017
1087.03	0.51442
1089.92	1.16939
1092.81	1.50329
1095.7	1.78229
1098.6	1.4605
1101.49	1.17753
1104.38	2.43931
1107.28	1.98635
1110.17	1.67225
1113.06	2.14905
1115.95	2.29669
1118.85	2.57141
1121.74	2.5325
1124.63	2.1695
1127.53	2.01241
1130.42	1.60799
1133.31	1.68282
1136.2	1.58549
1139.1	1.7753
1141.99	1.55504
1144.88	0.76796
1147.77	0.811134
1150.67	1.55289
1153.56	0.53363
1156.45	1.33082
1159.35	0.196594
1162.24	0.157074
1165.13	0.041931
1168.02	0.916534
1170.92	0.517654
1173.81	0.346481
1176.7	0.731522
1179.59	0.320175
1182.49	0.631897
1185.38	0.265701
1188.27	1.16712
1191.16	0.410782
1194.06	0.33503
1196.95	0.753883
1199.84	0.099815
1202.73	0.250206
1205.63	0.639709
1208.52	1.44667
1211.41	1.0406
1214.31	2.00839
1217.2	1.1741
1220.09	0.40683
1222.98	0.839844
1225.88	1.07851
1228.77	0.657967
1231.66	0.229034
1234.56	0.643494
1237.45	0.365723
1240.34	1.29472
1243.23	1.13669
1246.13	1.62278
1249.02	0.621658
1251.91	0.591629
1254.8	0.092636
1257.7	0.574738
1260.59	1.02909
1263.48	0.801811
1266.38	1.50021
1269.27	0.672218
1272.16	0.555389
1275.05	1.3997
1277.95	0.552483
1280.84	0.615746
1283.73	0.677277
1286.62	0.973114
1289.52	0.481842
1292.41	1.03656
1295.3	0.228119
1298.19	0.982658
1301.09	0.825058
