Measurement: Raman, 532 nm, unoriented, Raman Data Processed
Mineral: Muscovite
Rruff sample: R100147
Ideal chemistry: KAl_2_(Si_3_Al)O_10_(OH)_2_
Locality: Blue Mountain Quarry, Methuen Township, Petersborough County, Ontario, Canada
Source: Mineralogical Museum, Harvard University
Description: Book of brown mica
Raman shift (cm-1)	intensity
132.497	0
135.872	3.06554
139.247	0.162821
142.622	1.9603
145.996	4.04417
149.371	10.06
152.746	21.8629
156.121	44.4913
159.496	62.9485
162.871	74.3642
166.245	98.434
169.62	128.168
172.995	146.963
176.37	145.818
179.745	134.832
183.119	125.674
186.494	122.731
189.869	132.064
193.244	150.189
196.619	159.66
199.994	154.038
203.369	133.915
206.743	122.495
210.118	116.919
213.493	121.882
216.868	115.679
220.243	74.868
223.617	31.4345
226.992	7.2287
230.367	1.03874
233.742	0.906464
237.117	12.2129
240.492	44.5352
243.866	100.088
247.241	173.169
250.616	268.464
253.991	402.395
257.366	588.004
260.74	754.559
264.115	726.074
267.49	515.838
270.865	305.183
274.24	180.486
277.615	104.936
280.989	63.9386
284.364	36.1104
287.739	23.2157
291.114	11.0941
294.489	3.47758
297.863	1.00724
301.238	0.908905
304.613	1.7785
307.988	1.78604
311.363	1.96505
314.738	3.01748
318.112	3.90115
321.487	1.89525
324.862	0.352379
328.237	1.18144
331.612	2.77434
334.986	3.87218
338.361	1.56338
341.736	0.149246
345.111	0.232849
348.486	7.22765
351.861	15.4981
355.235	24.6789
358.61	38.1569
361.985	50.3222
365.36	65.7058
368.735	82.3344
372.11	101.845
375.484	119.79
378.859	134.802
382.234	144.426
385.609	154.343
388.984	170.292
392.358	189.682
395.733	210.805
399.108	231.714
402.483	252.454
405.858	253.6
409.233	237.798
412.607	204.729
415.982	163.871
419.357	129.589
422.732	98.6139
426.107	76.9658
429.481	61.3427
432.856	47.1483
436.231	34.2238
439.606	24.4982
442.981	15.6135
446.356	9.88852
449.73	4.74041
453.105	1.5174
456.48	2.16894
459.855	1.66202
463.23	3.06649
466.604	5.98632
469.979	7.41166
473.354	6.65487
476.729	8.34373
480.104	9.49697
483.479	7.6816
486.853	6.47834
490.228	4.46746
493.603	5.3487
496.978	2.04237
500.353	0.070602
503.728	0.643074
507.102	1.37751
510.477	0.695549
513.852	1.1628
517.227	1.39445
520.602	0.323715
523.976	1.43005
527.351	1.57896
530.726	3.47083
534.101	5.31428
537.476	5.34131
540.851	6.56051
544.225	5.99885
547.6	5.71601
550.975	8.90218
554.35	9.99226
557.725	8.70515
561.099	9.97469
564.474	8.39147
567.849	6.55558
571.224	5.95876
574.599	3.87562
577.973	1.88923
581.348	0.014076
584.723	0.413902
588.098	1.93317
591.473	0.449272
594.848	2.23565
598.222	6.0428
601.597	9.89856
604.972	13.6274
608.347	18.9
611.722	26.7893
615.097	35.6555
618.471	43.9001
621.846	49.7651
625.221	56.4607
628.596	60.4822
631.971	60.9382
635.346	59.4667
638.72	49.745
642.095	42.2981
645.47	28.9916
648.845	18.781
652.22	11.2514
655.594	2.78937
658.969	0.338211
662.344	2.2833
665.719	1.46468
669.094	0.446205
672.468	7.12397
675.843	15.8875
679.218	32.7696
682.593	56.7912
685.968	89.1349
689.343	136.58
692.717	190.461
696.092	246.627
699.467	291.544
702.842	289.996
706.217	236.117
709.592	157.597
712.966	96.8834
716.341	55.3535
719.716	32.9365
723.091	18.3624
726.466	13.7652
729.841	13.9721
733.215	20.1589
736.59	29.491
739.965	41.5889
743.34	53.6173
746.715	61.999
750.089	61.2745
753.464	56.6473
756.839	50.3845
760.214	38.9636
763.589	28.4275
766.963	16.8579
770.338	8.04965
773.713	2.1674
777.088	0.23542
780.463	0.153267
783.838	0.797066
787.212	0.144302
790.587	0.965134
793.962	2.9219
797.337	3.36653
800.712	5.39073
804.087	3.06257
807.461	1.84206
810.836	1.70627
814.211	1.95469
817.586	0.039413
820.961	1.12874
824.335	1.24531
827.71	0.359261
831.085	0.651592
834.46	0.451759
837.835	0.087429
841.21	0.257599
844.584	1.01422
847.959	0.200657
851.334	3.82477
854.709	3.39112
858.084	4.30064
861.458	4.43496
864.833	7.38686
868.208	8.30301
871.583	10.8418
874.958	12.8586
878.333	14.0745
881.707	16.63
885.082	17.7692
888.457	19.9362
891.832	24.5074
895.207	30.107
898.582	37.2733
901.956	44.0995
905.331	49.6429
908.706	54.1307
912.081	56.0768
915.456	49.9924
918.83	40.7903
922.205	33.1137
925.58	22.4828
928.955	17.0824
932.33	13.0297
935.705	13.5182
939.079	12.5807
942.454	12.5931
945.829	18.4079
949.204	20.7194
952.579	25.3634
955.953	25.9891
959.328	24.9434
962.703	19.2903
966.078	14.1022
969.453	7.68033
972.827	3.61776
976.202	1.72501
979.577	0.450867
982.952	0.868263
986.327	0.570923
989.702	0.876923
993.077	0.655991
996.451	0.996429
999.826	1.21333
1003.2	1.60724
1006.58	1.63123
1009.95	3.6507
1013.33	5.71142
1016.7	3.70957
1020.08	6.29711
1023.45	4.79674
1026.83	3.78938
1030.2	2.58561
1033.57	0.57468
1036.95	0.017822
1040.32	1.08033
1043.7	0.910435
1047.07	4.26373
1050.45	7.90397
1053.82	8.99221
1057.2	9.87389
1060.57	12.3218
1063.95	13.3504
1067.32	13.767
1070.7	13.807
1074.07	14.569
1077.45	14.1753
1080.82	17.19
1084.2	15.801
1087.57	19.9366
1090.95	20.049
1094.32	23.2536
1097.7	30.227
1101.07	34.3141
1104.45	39.0283
1107.82	45.4379
1111.19	48.2559
1114.57	48.5101
1117.94	45.246
1121.32	40.077
1124.69	32.6994
1128.07	27.2356
1131.44	21.5265
1134.82	14.6221
1138.19	8.22409
1141.57	5.63702
1144.94	2.0957
1148.32	0.496376
1151.69	0.957008
1155.07	0.313671
1158.44	0.089081
1161.82	0.214382
1165.19	0.355099
1168.57	0.20536
1171.94	0.118832
1175.32	0.96048
1178.69	1.51873
1182.07	1.84785
1185.44	0.872776
1188.82	2.23133
1192.19	2.42728
1195.57	0.317326
1198.94	2.33823
1202.32	3.43013
1205.69	2.49802
1209.07	1.88807
1212.44	2.41824
1215.82	0.070015
1219.19	3.96786
1222.56	2.10547
1225.94	2.53117
1229.31	2.53198
1232.69	1.97427
1236.06	1.96412
1239.44	1.63908
1242.81	2.60588
1246.19	2.89383
1249.56	0.496746
1252.94	3.47912
1256.31	2.78941
1259.69	1.55202
1263.06	1.18279
1266.44	0.613457
1269.81	2.93654
1273.19	1.59013
1276.56	2.11205
1279.94	1.54153
1283.31	1.91151
1286.69	1.05964
1290.06	1.35053
1293.43	0.877567
1296.81	2.17286
1300.18	0.275127
