Measurement: Raman, 532 nm, unoriented, Raman Data Processed
Mineral: Muscovite
Rruff sample: R060182
Ideal chemistry: KAl_2_(Si_3_Al)O_10_(OH)_2_
Locality: Reliance mine, Mica Mountain, Tete Juane Cache, British Columbia, Canada
Source: Lloyd Twaites
Description: Pale-yellow transparent mica, polytype 2M1
Measured chemistry: (K_0.91_Na_0.09_)(Al_0.93_Fe^3+^_0.05_Mg_0.02_)_2_(Si_3.04_Al_0.96_)O_10_(OH)_2_
Raman shift (cm-1)	intensity
150.046	0
152.939	1.53459
155.832	4.55722
158.724	7.34137
161.617	12.3617
164.51	16.643
167.402	22.7434
170.295	23.5435
173.188	19.9188
176.081	16.7187
178.973	17.2881
181.866	18.1275
184.759	24.456
187.651	30.7503
190.544	55.5864
193.437	70.2482
196.329	77.0466
199.222	65.6122
202.115	58.9756
205.008	52.7919
207.9	52.9917
210.793	61.2591
213.686	67.5512
216.578	65.3131
219.471	40.9231
222.364	17.4123
225.256	0.989304
228.149	4.24187
231.042	7.4894
233.935	1.91956
236.827	19.6073
239.72	52.4704
242.613	108.875
245.505	185.159
248.398	272.678
251.291	366.794
254.184	474.68
257.076	606.342
259.969	712.59
262.862	696.737
265.754	526.366
268.647	342.959
271.54	215.236
274.433	137.458
277.325	90.1934
280.218	60.9972
283.111	42.439
286.003	28.8778
288.896	17.3777
291.789	10.3245
294.681	8.40663
297.574	5.05288
300.467	5.30785
303.36	4.00338
306.252	5.526
309.145	7.59869
312.038	6.31251
314.93	7.67529
317.823	6.4602
320.716	7.95665
323.608	3.88519
326.501	1.35317
329.394	2.00619
332.287	0.262009
335.179	2.73949
338.072	2.25086
340.965	0.03392
343.857	1.43033
346.75	5.86112
349.643	12.266
352.536	19.0291
355.428	26.6453
358.321	36.3636
361.214	46.1571
364.106	60.5518
366.999	72.4609
369.892	84.8551
372.784	95.7395
375.677	104.804
378.57	112.323
381.462	118.68
384.355	128.059
387.248	143.195
390.141	159.653
393.033	179.712
395.926	199.005
398.819	221.299
401.712	239.558
404.604	247.871
407.497	246.135
410.39	230.101
413.282	199.007
416.175	167.517
419.068	134.515
421.96	105.814
424.853	82.6697
427.746	62.5765
430.639	48.9429
433.531	35.8287
436.424	27.4053
439.317	16.6726
442.209	11.9393
445.102	5.09832
447.995	3.11164
450.887	0.401878
453.78	0.463409
456.673	0.150963
459.565	2.36702
462.458	3.56465
465.351	5.66827
468.244	6.31404
471.136	7.65
474.029	7.46367
476.922	9.0095
479.815	7.65541
482.707	6.5572
485.6	5.36557
488.493	3.93633
491.385	2.65382
494.278	1.16304
497.171	1.52331
500.063	0.574692
502.956	0.962349
505.849	0.47892
508.741	0.372147
511.634	0.157745
514.527	1.78293
517.42	0.749588
520.312	1.4609
523.205	1.92386
526.098	5.32964
528.99	5.84502
531.883	9.64202
534.776	9.56087
537.668	11.728
540.561	12.6752
543.454	12.0597
546.347	10.9083
549.239	11.9118
552.132	10.934
555.025	11.5924
557.917	12.7949
560.81	10.9302
563.703	10.5907
566.596	8.48659
569.488	7.65308
572.381	4.70757
575.274	3.17411
578.166	2.11593
581.059	0.624786
583.952	0.230644
586.845	0.45182
589.737	1.34714
592.63	1.32874
595.523	3.02396
598.415	4.86074
601.308	9.10271
604.201	12.7812
607.093	17.9097
609.986	22.1319
612.879	26.5026
615.771	31.7071
618.664	38.7476
621.557	43.5418
624.45	48.7683
627.342	52.4865
630.235	56.9632
633.128	56.8548
636.02	55.8956
638.913	51.7747
641.806	44.7341
644.698	36.1537
647.591	25.5713
650.484	18.4907
653.377	9.25751
656.269	4.03215
659.162	0.001526
662.055	1.70371
664.947	2.25073
667.84	0.458939
670.733	6.86939
673.626	16.1903
676.518	30.0017
679.411	47.818
682.304	73.9733
685.196	110.529
688.089	159.737
690.982	215.465
693.875	273.153
696.767	329.071
699.66	357.707
702.553	340.559
705.445	278.562
708.338	199.659
711.231	133.897
714.124	87.4891
717.016	56.9456
719.909	37.1033
722.802	27.0071
725.694	19.8046
728.587	18.3841
731.48	22.0318
734.372	27.9318
737.265	35.9435
740.158	47.1137
743.051	56.8305
745.943	64.5454
748.836	67.7583
751.729	65.7003
754.621	61.1812
757.514	52.4375
760.407	41.9651
763.299	30.2498
766.192	18.2547
769.085	13.0222
771.977	6.15678
774.87	3.05894
777.763	0.754227
780.656	1.03866
783.548	0.725143
786.441	0.299561
789.334	0.523941
792.226	0.632263
795.119	0.16452
798.012	0.338112
800.904	0.116753
803.797	0.347038
806.69	0.052711
809.583	0.911484
812.475	0.745064
815.368	0.516541
818.261	0.56942
821.154	0.949013
824.046	0.062553
826.939	2.13144
829.832	3.24545
832.724	4.78371
835.617	5.13092
838.51	5.60268
841.402	6.3586
844.295	7.36865
847.188	8.71647
850.081	5.92055
852.973	7.11623
855.866	5.41834
858.759	3.52142
861.651	2.43864
864.544	3.24747
867.437	2.30915
870.33	2.38421
873.222	0.759842
876.115	2.73383
879.008	5.03425
881.9	7.79741
884.793	11.4079
887.686	17.0458
890.578	21.1077
893.471	30.5924
896.364	38.6785
899.256	47.3618
902.149	53.7052
905.042	61.0473
907.935	61.7021
910.827	59.0864
913.72	54.102
916.613	45.9515
919.505	35.4806
922.398	26.7404
925.291	19.0155
928.183	13.9297
931.076	11.4817
933.969	10.9902
936.862	11.8412
939.754	13.857
942.647	17.8525
945.54	24.417
948.432	28.0496
951.325	32.2272
954.218	31.8753
957.111	28.0385
960.003	22.3239
962.896	15.5036
965.789	10.5524
968.681	6.23905
971.574	3.68736
974.467	1.44097
977.36	2.79173
980.252	1.04958
983.145	0.622185
986.038	1.52693
988.93	1.81332
991.823	1.18567
994.716	0.497078
997.608	0.494362
1000.5	0.195343
1003.39	1.16867
1006.29	1.84051
1009.18	3.69933
1012.07	3.00159
1014.97	3.86668
1017.86	3.35445
1020.75	4.16818
1023.64	3.92437
1026.54	3.68043
1029.43	2.49743
1032.32	1.66291
1035.21	0.942883
1038.11	0.752251
1041	0.764282
1043.89	1.29144
1046.78	3.29172
1049.68	4.46642
1052.57	6.73843
1055.46	8.61688
1058.36	10.4957
1061.25	11.9332
1064.14	13.5362
1067.03	15.8185
1069.93	17.0663
1072.82	17.6374
1075.71	18.0154
1078.6	18.9844
1081.5	19.8339
1084.39	22.2067
1087.28	20.1351
1090.17	21.8011
1093.07	22.5066
1095.96	24.6139
1098.85	28.2757
1101.75	31.384
1104.64	35.6575
1107.53	38.4755
1110.42	40.7959
1113.32	41.0951
1116.21	40.6952
1119.1	38.6715
1121.99	34.6859
1124.89	30.8466
1127.78	26.3215
1130.67	21.8692
1133.57	16.8307
1136.46	13.7634
1139.35	7.99983
1142.24	5.56115
1145.14	3.43348
1148.03	2.47511
1150.92	0.605236
1153.81	3.00132
1156.71	0.621948
1159.6	0.532993
1162.49	0.599651
1165.38	1.00307
1168.28	0.224846
1171.17	0.363121
1174.06	1.0773
1176.96	0.208771
1179.85	0.609928
1182.74	1.72168
1185.63	0.765633
1188.53	1.35302
1191.42	1.97197
1194.31	1.71248
1197.2	2.76286
1200.1	4.42713
1202.99	3.45779
1205.88	2.98242
1208.78	3.08266
1211.67	4.34238
1214.56	4.10193
1217.45	1.70793
1220.35	2.87147
1223.24	2.11505
1226.13	1.25202
1229.03	1.85391
1231.92	2.25975
1234.81	3.57909
1237.7	1.61251
1240.6	2.30041
1243.49	2.39656
1246.38	2.5462
1249.27	1.95353
1252.17	1.7458
1255.06	1.93356
1257.95	1.45485
1260.84	1.32955
1263.74	1.23174
1266.63	0.347618
1269.52	0.909576
1272.41	1.12898
1275.31	0.880741
1278.2	0.730721
1281.09	0.881897
1283.99	0.433441
1286.88	0.984074
1289.77	0.886692
1292.66	0.764347
1295.56	0.225857
1298.45	0.789833
1301.34	0.209576
