Measurement: Raman, 532 nm, unoriented, Raman Data Processed
Mineral: Muscovite
Rruff sample: R050080
Ideal chemistry: KAl_2_(Si_3_Al)O_10_(OH)_2_
Locality: Brazil
Source: Rock Currier
Description: Tan colored micaceous crystals of 2M1 polytype
Measured chemistry: (K_0.93_Na_0.07_)(Al_0.99_Fe^3+^_0.01_)_2_(Si_3.00_Al_1.00_)O_10_((OH)_0.97_F_0.03_)_2_
Raman shift (cm-1)	intensity
176.178	0
179.071	10.207
181.964	208.019
184.856	131.523
187.749	370.457
190.642	958.734
193.535	1658.53
196.427	2206.68
199.32	2270.06
202.213	1915.27
205.105	1882.91
207.998	1897.93
210.891	2277.91
213.783	2581.86
216.676	2083.64
219.569	1158.66
222.462	553.871
225.354	110.5
228.247	16.6172
231.14	10.6602
234.032	37.5156
236.925	89.2617
239.818	457.578
242.71	790.531
245.603	1466.96
248.496	2794.41
251.388	4332.15
254.281	6744.69
257.174	10077.7
260.067	13079.7
262.959	14205.7
265.852	11492.6
268.745	7829.2
271.637	4913.82
274.53	3094.38
277.423	2153.11
280.315	1655.57
283.208	1096.5
286.101	749.356
288.994	535.734
291.886	438.531
294.779	561.82
297.672	479.894
300.564	428.305
303.457	491.676
306.35	482.043
309.243	305.367
312.135	298.445
315.028	373.543
317.921	251.824
320.813	305.648
323.706	99.3633
326.599	66.7305
329.491	61.6172
332.384	18.8438
335.277	121.109
338.17	62.4375
341.062	25.8438
343.955	12.3828
346.848	113.566
349.74	89.668
352.633	250.367
355.526	212.836
358.418	521.949
361.311	857.871
364.204	964.883
367.097	1226.46
369.989	1720.94
372.882	1959.17
375.775	2305
378.667	2991.04
381.56	2974.92
384.453	3092.01
387.346	3270.75
390.238	3935.04
393.131	4288.07
396.024	4853.93
398.916	5089.48
401.809	5554.7
404.702	5302
407.594	4964.14
410.487	4362.09
413.38	3725.77
416.272	3121.33
419.165	2624.02
422.058	2164.41
424.951	1647.68
427.843	1342.01
430.736	846.594
433.629	990.766
436.521	520.938
439.414	522.055
442.307	386.723
445.2	174.59
448.092	154.195
450.985	113.039
453.878	126.352
456.77	2.27344
459.663	144.856
462.556	80.375
465.448	74.3828
468.341	247.445
471.234	169.207
474.127	157.164
477.019	264.898
479.912	393.688
482.805	462.406
485.697	603.258
488.59	211.508
491.483	267.394
494.375	121.711
497.268	168.844
500.161	243.797
503.053	251.953
505.946	256.484
508.839	72.5469
511.732	17.4648
514.624	36.8516
517.517	53.4023
520.41	138.289
523.302	181.144
526.195	194.785
529.088	216.769
531.981	221.527
534.873	258.199
537.766	327.656
540.659	224.369
543.551	191.619
546.444	237.602
549.337	375.766
552.229	268.43
555.122	269.867
558.015	265.856
560.908	324.562
563.8	527.043
566.693	564.594
569.586	275.738
572.478	228.383
575.371	225.516
578.264	106.758
581.156	93.1953
584.049	50.2695
586.942	64.5078
589.835	154.047
592.727	98.1953
595.62	66.625
598.513	200.539
601.405	60.4688
604.298	214.906
607.191	352.469
610.083	502.562
612.976	685.008
615.869	887.281
618.762	1194.74
621.654	1332.66
624.547	1561.96
627.44	1871.99
630.332	2012.55
633.225	2005.69
636.118	1877.46
639.01	1683.45
641.903	1447.69
644.796	1112.84
647.689	1133.79
650.581	825.781
653.474	520.539
656.367	472.992
659.259	344.945
662.152	130.492
665.045	390.57
667.938	254.312
670.83	227.344
673.723	372.555
676.616	677.938
679.508	831.188
682.401	1441.58
685.294	2248.78
688.186	2752.18
691.079	4196.81
693.972	5398.59
696.865	6453.06
699.757	6893.58
702.65	7004.88
705.543	5695.32
708.435	3791.49
711.328	2652.66
714.221	1513.59
717.113	941.633
720.006	458.383
722.899	335.695
725.792	273.047
728.684	44.9922
731.577	34.2188
734.47	438.977
737.362	706.227
740.255	1055.27
743.148	1576.98
746.04	1867.18
748.933	1949.46
751.826	2065.52
754.719	1855.92
757.611	1788.96
760.504	1486.99
763.397	1223.56
766.289	691.172
769.182	568.117
772.075	145.312
774.967	30.625
777.86	0.992188
780.753	87.1406
783.646	24.1719
786.538	121.914
789.431	62.5625
792.324	229.766
795.216	117.273
798.109	29.7422
801.002	101.594
803.894	63.1172
806.787	14.9453
809.68	113.141
812.573	165.898
815.465	324.164
818.358	364.844
821.251	384.469
824.143	302.25
827.036	32.1016
829.929	266.312
832.822	241.914
835.714	402.414
838.607	232.258
841.5	188.594
844.392	281.031
847.285	460.781
850.178	121.766
853.07	176.367
855.963	181.867
858.856	45.3438
861.749	23.3281
864.641	63.4453
867.534	155.25
870.427	44.1875
873.319	151.305
876.212	247.086
879.105	377.211
881.997	160.719
884.89	361.711
887.783	375.172
890.676	465.844
893.568	580.242
896.461	836.375
899.354	1093.13
902.246	1530.92
905.139	1794.1
908.032	1922.39
910.924	2122.01
913.817	1963.25
916.71	1833.72
919.602	1650.5
922.495	1379.64
925.388	1044.92
928.281	821.469
931.173	652.742
934.066	546.531
936.959	641.109
939.851	773.992
942.744	812.711
945.637	866.078
948.529	1126.89
951.422	1186.26
954.315	1331.32
957.208	1342.22
960.1	941.586
962.993	700.469
965.886	438.305
968.778	323.961
971.671	321.688
974.564	12.3203
977.457	123.633
980.349	61.8906
983.242	52.3047
986.135	175.219
989.027	108.883
991.92	42.0938
994.813	177.258
997.705	20.625
1000.6	49.0234
1003.49	262.664
1006.38	126.328
1009.28	308.234
1012.17	404.836
1015.06	331.969
1017.95	283.695
1020.85	318.883
1023.74	240.375
1026.63	88.4609
1029.53	158.383
1032.42	67.2422
1035.31	64.2578
1038.2	76.0391
1041.1	214.383
1043.99	39.1797
1046.88	90.1797
1049.77	231.188
1052.67	80.2031
1055.56	174.953
1058.45	19.2109
1061.35	266.812
1064.24	128.148
1067.13	228.297
1070.02	191.055
1072.92	168.148
1075.81	305.914
1078.7	708.117
1081.59	421.633
1084.49	445.219
1087.38	367.805
1090.27	641.648
1093.16	526.578
1096.06	838.203
1098.95	984.758
1101.84	1135.26
1104.73	1282.62
1107.63	1238.52
1110.52	1159.82
1113.41	1220.94
1116.31	1379.94
1119.2	1030.91
1122.09	882.578
1124.98	949.297
1127.88	636.875
1130.77	487.766
1133.66	348
1136.56	253.008
1139.45	197.75
1142.34	197.562
1145.23	203.914
1148.13	71.8281
1151.02	116.289
1153.91	133.367
1156.8	114.125
1159.7	2.51562
1162.59	315.344
1165.48	56.2109
1168.38	49.375
1171.27	75.4141
1174.16	402.883
1177.05	20.4922
1179.95	224.18
1182.84	129.523
1185.73	163.539
1188.62	212.891
1191.52	300.805
1194.41	369.164
1197.3	445.391
1200.19	293.336
1203.09	98.9609
1205.98	27.2188
1208.87	177.359
1211.77	231.984
1214.66	128.945
1217.55	288.047
1220.44	52.1562
1223.34	157.898
1226.23	68.1641
1229.12	117.094
1232.01	226.898
1234.91	131.969
1237.8	150.023
1240.69	60.9297
1243.59	17.5469
1246.48	236.93
1249.37	198.195
1252.26	91.4688
1255.16	134.414
1258.05	104.398
1260.94	267.539
1263.83	365.781
1266.73	317.711
1269.62	299.148
1272.51	460.68
1275.4	368.039
1278.3	224.891
1281.19	391.461
1284.08	356.008
1286.98	155.734
1289.87	142.672
1292.76	235.172
1295.65	204.766
1298.55	55.6953
