Measurement: Raman, 532 nm, unoriented, Raman Data Processed
Mineral: Muscovite
Rruff sample: R061120
Ideal chemistry: KAl_2_(Si_3_Al)O_10_(OH)_2_
Locality: Aracuai City,  Minas Gerais, Brazil
Source: Michael Scott
Description: Lavender prismatic micaceous crystals
Measured chemistry: gray phase: (K_0.93_Na_0.07_)_Σ=1_(Al_1.95_Fe^3+^_0.05_)_Σ=2_(Si_3.00_Al_1.00_)O_10_(OH)_2_; OH estimated by charge balance
Raman shift (cm-1)	intensity
133.136	0
136.028	61.9453
138.921	328.225
141.814	324.982
144.706	229.144
147.599	31.9785
150.492	28.1836
153.385	221.283
156.277	334.902
159.17	548.504
162.063	718.633
164.955	852.764
167.848	1256.94
170.741	1622.49
173.633	2010.63
176.526	2269.76
179.419	2323.04
182.311	2295.02
185.204	2063.48
188.097	1845.42
190.989	2085.03
193.882	2624.94
196.775	3204.78
199.668	3252.98
202.56	2755.98
205.453	2343.83
208.346	2403.26
211.238	2978.77
214.131	3326.18
217.024	2736.85
219.917	1668.08
222.809	709.443
225.702	246.201
228.595	97.8926
231.487	25.4023
234.38	120.492
237.273	43.1387
240.165	270.086
243.058	803.445
245.951	1666.14
248.844	2831.16
251.736	5314.44
254.629	9135.86
257.522	13647.9
260.414	18444
263.307	20561.5
266.2	16832.9
269.092	11594.1
271.985	7480.61
274.878	4887.99
277.771	3218.37
280.663	2241.16
283.556	1558.94
286.449	1144.42
289.341	888.898
292.234	541.506
295.127	416.545
298.019	347.871
300.912	199.707
303.805	1.8418
306.697	25.2227
309.59	21.248
312.483	55.3691
315.375	137.871
318.268	108.008
321.161	252.998
324.054	493.982
326.946	398.459
329.839	323.16
332.732	371.856
335.625	365.289
338.517	174.787
341.41	29.3984
344.303	95.4473
347.195	52.3691
350.088	0.699219
352.981	23.875
355.873	33.3594
358.766	177.818
361.659	656.381
364.551	1096.57
367.444	1715.18
370.337	2253.36
373.229	2845.05
376.122	3432.53
379.015	3798.97
381.908	4312.76
384.8	4607.57
387.693	4859.85
390.586	5288.23
393.478	5616.95
396.371	6139.83
399.264	6450.51
402.156	6686.97
405.049	6424.5
407.942	5907
410.835	5211.61
413.727	4357.36
416.62	3636.92
419.513	3114.36
422.405	2915.88
425.298	2686.59
428.191	2467.78
431.084	2095.06
433.976	1731.15
436.869	1704.8
439.762	1605.43
442.654	1476.73
445.547	1258.16
448.44	840.035
451.332	489.147
454.225	350.342
457.118	179.615
460.01	21.6445
462.903	103.408
465.796	103.816
468.689	40.918
471.581	182.299
474.474	526.719
477.367	720.248
480.259	838.422
483.152	1047.9
486.045	1061.11
488.937	1065.75
491.83	930.488
494.723	853.934
497.615	716.404
500.508	764.588
503.401	593.213
506.294	400.277
509.186	145.842
512.079	151.727
514.972	9.98047
517.864	112.754
520.757	5.21484
523.65	21.6836
526.543	48.2246
529.435	37.9922
532.328	71.1777
535.221	68.9785
538.113	396.268
541.006	675.061
543.899	1092.7
546.791	1205.51
549.684	1229.77
552.577	1247.53
555.47	1161.15
558.362	1010.33
561.255	818.516
564.148	761.316
567.04	503.086
569.933	164.889
572.826	67.2793
575.718	80.4199
578.611	66.0312
581.504	37.416
584.396	11.2383
587.289	100.272
590.182	45.8613
593.075	220.812
595.967	369.412
598.86	69.166
601.753	228.701
604.645	267.252
607.538	569.277
610.431	705.516
613.323	699.994
616.216	829.943
619.109	899.191
622.001	1026.34
624.894	1156.36
627.787	1199.59
630.68	1036.56
633.572	630.312
636.465	14.2656
639.358	44.7773
642.25	41.0117
645.143	56.1094
648.036	52.5273
650.928	32.4219
653.821	14.3281
656.714	0.628906
659.607	25.0391
662.499	191.805
665.392	275.207
668.285	338.191
671.177	12.9141
674.07	122.086
676.963	242.832
679.856	762.453
682.748	1409.58
685.641	2394.98
688.534	3657.78
691.426	5036.1
694.319	6688.35
697.212	8400.46
700.104	9568.9
702.997	9965.74
705.89	9372.57
708.783	8571.43
711.675	7579.06
714.568	5980.77
717.461	4154.33
720.353	2763.22
723.246	1918.78
726.139	1460.42
729.031	1027.32
731.924	977.484
734.817	1118.69
737.71	1257.41
740.602	1676.88
743.495	2122.33
746.388	2672.77
749.28	3036.66
752.173	3355.14
755.066	3494.21
757.958	3156.45
760.851	3001.12
763.744	2692.79
766.636	2400.3
769.529	1952.82
772.422	1672.91
775.315	1285.19
778.207	969.535
781.1	621.941
783.993	442.481
786.885	314.074
789.778	308.176
792.671	70.168
795.563	87.9258
798.456	46.1211
801.349	39.8008
804.241	133.484
807.134	147.469
810.027	113.363
812.92	53.1328
815.812	248.012
818.705	633.891
821.598	1398.44
824.49	1244.48
827.383	1264.25
830.276	1145.89
833.168	1108.14
836.061	1005.89
838.954	627.547
841.847	424.797
844.739	392.387
847.632	317.144
850.525	243.969
853.417	161.144
856.31	354.418
859.203	532.363
862.096	362.699
864.988	411.559
867.881	260.324
870.774	295.781
873.666	402.297
876.559	315.34
879.452	336.074
882.344	114.926
885.237	168.508
888.13	260.793
891.023	435.332
893.915	301.027
896.808	392.039
899.701	426.121
902.593	866.766
905.486	1257.75
908.379	1676.69
911.271	1708.46
914.164	1815.89
917.057	1621.03
919.949	1484.78
922.842	1255.91
925.735	1110.56
928.628	955.914
931.52	951.727
934.413	730.984
937.306	698.012
940.198	813.371
943.091	774.184
945.984	987.258
948.876	1006.48
951.769	1251.16
954.662	1217.05
957.554	1138.5
960.447	1069.81
963.34	963.992
966.233	824.133
969.125	590.75
972.018	392.875
974.911	350.602
977.803	413.055
980.696	378.356
983.589	371.918
986.481	388.668
989.374	442.453
992.267	152.559
995.16	67.0703
998.052	96.293
1000.95	116.809
1003.84	24.4258
1006.73	41.3672
1009.62	35.5625
1012.52	113.18
1015.41	324.777
1018.3	430.816
1021.19	408.094
1024.09	628.668
1026.98	549.644
1029.87	520.609
1032.77	440.656
1035.66	389.129
1038.55	573.461
1041.44	486.641
1044.34	276.75
1047.23	341.75
1050.12	372.34
1053.01	290.766
1055.91	244.664
1058.8	194.551
1061.69	88.9727
1064.58	30.2812
1067.48	71.1562
1070.37	402.582
1073.26	537.051
1076.15	638.523
1079.05	750.293
1081.94	684.496
1084.83	783.672
1087.73	794.773
1090.62	740.273
1093.51	669.957
1096.4	808.328
1099.3	917.922
1102.19	1133.84
1105.08	1199.82
1107.97	1358.69
1110.87	1499.85
1113.76	1554.98
1116.65	1473.36
1119.55	1261.31
1122.44	1286.7
1125.33	982.66
1128.22	886.129
1131.12	616.223
1134.01	554.109
1136.9	534.109
1139.8	510.488
1142.69	397.871
1145.58	298.644
1148.47	260.602
1151.37	2.42578
1154.26	181.051
1157.15	133.434
1160.04	166.469
1162.94	1.41797
1165.83	32.5586
1168.72	81.75
1171.61	158.176
1174.51	73.1914
1177.4	88.6875
1180.29	204.586
1183.18	364.383
1186.08	306.789
1188.97	400.301
1191.86	194.574
1194.76	124.762
1197.65	8.72656
1200.54	42.2383
1203.43	178.121
1206.33	92.3203
1209.22	136.207
1212.11	67.125
1215.01	238.238
1217.9	176.961
1220.79	88.2031
1223.68	492.023
1226.58	454.918
1229.47	509.527
1232.36	239.727
1235.25	245.098
1238.15	60.6953
1241.04	320.977
1243.93	135.426
1246.82	147.531
1249.72	165.457
1252.61	42.0625
1255.5	166.535
1258.39	72.2656
1261.29	85.6562
1264.18	53.0859
1267.07	69.8633
1269.97	157.117
1272.86	257.672
1275.75	642.531
1278.64	416.109
1281.54	263.293
1284.43	33.8242
1287.32	71.3398
