Measurement: Raman, 514 nm, unoriented, Raman Data Processed
Mineral: Muscovite
Rruff sample: R050188
Ideal chemistry: KAl_2_(Si_3_Al)O_10_(OH)_2_
Locality: Sapinero, near Blue Mesa Reservoir, Gunnison County, Colorado, USA
Source: Dave Bunk Minerals
Description: Black pseudohexagonal crystal, polytype 2M1, associated with quartz
Measured chemistry: (K_0.91_Na_0.09_)(Al_0.86_Fe^3+^_0.06_Fe^2+^_0.04_Mg_0.03_Ti_0.01_)_2_(Si_0.78_Al_0.22_)_4_O_10_(OH)_2_
Raman shift (cm-1)	intensity
82.218	0
86.404	50.241
90.587	1099
94.768	2235.66
98.947	4029.36
103.124	2663.97
107.3	1957.56
111.473	2022.08
115.644	965.766
119.813	147.641
123.981	107.336
128.146	96.812
132.309	85.764
136.47	419.824
140.63	500.364
144.787	1022.44
148.942	1356.79
153.096	1877.64
157.247	2226.22
161.396	3117.16
165.544	3539.22
169.689	3331.56
173.833	2918.74
177.974	2487.88
182.114	2523.13
186.251	3022.59
190.387	3745.19
194.52	4413.96
198.652	4462.99
202.782	3696.28
206.909	3980.77
211.035	3501.7
215.159	3676.66
219.281	2950.95
223.4	1812.42
227.518	1061.13
231.634	683.323
235.748	868.863
239.86	1686.73
243.97	3023.89
248.079	5765.15
252.185	12204.8
256.289	22674.5
260.391	32380.4
264.492	28285.5
268.59	18267.4
272.687	10358.7
276.781	5713.07
280.874	3584.21
284.964	2072.34
289.053	1371.57
293.14	854.687
297.225	647.561
301.308	449.528
305.389	549.278
309.468	478.759
313.545	401.922
317.62	425.721
321.693	426.102
325.765	178.014
329.834	95.416
333.902	315.224
337.967	465.678
342.031	91.561
346.093	287.174
350.153	673.356
354.21	1123.06
358.267	1721.15
362.321	2277.94
366.373	2752.91
370.423	3408.59
374.471	4140.56
378.518	4776.67
382.563	4962.87
386.605	5137.11
390.646	6020.34
394.685	7348.55
398.722	8133.74
402.757	9706.9
406.79	10715.4
410.821	10874.1
414.851	10109.5
418.878	8381.13
422.904	6706.95
426.927	5566.92
430.949	4621.02
434.969	3515.22
438.987	2715.51
443.003	1939.86
447.018	1370.25
451.03	855.661
455.041	600.095
459.049	461.568
463.056	547.029
467.061	524.453
471.064	488.826
475.065	308.137
479.064	352.374
483.062	351.526
487.057	108.583
491.051	97.536
495.043	36.319
499.032	83.328
503.02	174.928
507.007	240.841
510.991	233.387
514.973	268.552
518.954	136.477
522.933	19.866
526.91	96.798
530.885	277.179
534.858	474.702
538.829	517.537
542.799	672.748
546.766	624.25
550.732	742.771
554.696	807.258
558.658	861.597
562.618	1009.77
566.576	1021.77
570.533	1150.61
574.488	1085.28
578.44	1003.77
582.391	992.089
586.341	1087.23
590.288	1334.19
594.233	1335.98
598.177	1689.58
602.119	1975
606.059	2329.24
609.997	2697.3
613.933	2982.18
617.868	3513.88
621.801	3586.4
625.731	4084.74
629.66	4088.91
633.588	4187.91
637.513	4131.73
641.437	3826.38
645.358	3361.87
649.278	2953.2
653.196	2833.75
657.113	2399.34
661.027	2349.04
664.94	2325.29
668.851	2488.24
672.76	2623.02
676.667	3231.52
680.572	3965.03
684.476	5597.67
688.378	8395.5
692.278	12574.8
696.176	18374.1
700.072	23908.5
703.967	21420
707.86	15815.7
711.751	9983.08
715.64	6810.97
719.527	4913.86
723.413	3788.76
727.297	3209.68
731.179	3174.62
735.059	3342.6
738.937	3788.61
742.814	4291.66
746.689	4680.75
750.562	4585.9
754.433	4275.1
758.303	3546.37
762.17	2640.7
766.036	1930.11
769.901	1399.59
773.763	963.127
777.624	770.807
781.482	631.551
785.339	530.392
789.195	579.332
793.048	543.377
796.9	484.865
800.75	420.8
804.598	418.185
808.445	264.749
812.289	202.67
816.132	342.203
819.973	564.501
823.813	806.104
827.65	758.776
831.486	506.769
835.32	247.471
839.152	145.385
842.983	209.42
846.812	252.092
850.639	210.646
854.464	157.142
858.288	197.164
862.11	59.56
865.93	89.39
869.748	290.494
873.564	340.907
877.379	442.621
881.192	547.593
885.004	854.845
888.813	1168.34
892.621	1599.05
896.427	2049.94
900.232	2771.1
904.034	3480.51
907.835	4011.13
911.634	4000.93
915.432	3825.89
919.227	3195.03
923.021	2620.45
926.813	2060.02
930.604	1698.76
934.393	1603.66
938.18	1651.72
941.965	1742.92
945.749	1998.25
949.53	2138.72
953.311	2453.31
957.089	2517.02
960.866	2278.84
964.641	1894.77
968.414	1558.81
972.185	1278.94
975.955	1253.14
979.723	1173.4
983.49	1125.7
987.254	1131.06
991.017	1041.23
994.779	1078.53
998.538	1175.79
1002.3	1187.43
1006.05	1198.94
1009.81	1289.88
1013.56	1332.17
1017.31	1306.62
1021.06	1354.25
1024.81	1424.52
1028.55	1181.36
1032.3	1039.52
1036.04	981.282
1039.78	869.212
1043.52	981.593
1047.26	1070.99
1050.99	1340.79
1054.73	1563.3
1058.46	1764.86
1062.19	1970.19
1065.92	2138.36
1069.65	2275.87
1073.37	2608.5
1077.1	2329.02
1080.82	2310.13
1084.54	2271.74
1088.26	2194.23
1091.97	2275.92
1095.69	2313.94
1099.4	2453.66
1103.12	2828.53
1106.83	3011.78
1110.54	3453.29
1114.24	3505.8
1117.95	3244.77
1121.65	3004.25
1125.35	2595.94
1129.06	2136.44
1132.75	1738.14
1136.45	1230.94
1140.15	755.231
1143.84	427.295
1147.53	213.937
1151.22	84.65
1154.91	59.64
1158.6	49.946
1162.28	6.11
1165.97	16.048
1169.65	88.074
1173.33	82.093
1177.01	33.989
1180.69	34.904
1184.36	23.805
1188.04	28.139
1191.71	20.682
1195.38	18.995
1199.05	64.217
1202.71	17.292
1206.38	53.203
1210.04	105.464
1213.71	3.348
1217.37	12.56
1221.03	62.159
1224.68	47.798
1228.34	9.814
1231.99	144.106
1235.65	49.722
1239.3	40.014
1242.95	36.025
1246.59	105.892
1250.24	145.456
1253.88	145.66
1257.53	97.512
1261.17	53.03
1264.81	107.123
1268.45	114.112
1272.08	143.735
1275.72	82.66
1279.35	55.363
1282.98	115.816
1286.61	87.869
1290.24	149.586
1293.87	152.986
1297.49	170.074
1301.11	226.629
1304.73	162.383
1308.36	166.203
1311.97	165.146
1315.59	119.173
1319.2	7.292
1322.82	10.763
1326.43	131.521
1330.04	46.885
1333.65	121.103
1337.26	52.489
1340.86	105.69
1344.47	86.477
1348.07	69.866
1351.67	169.902
1355.27	61.534
1358.87	120.005
1362.46	116.625
1366.06	98.235
1369.65	67.391
1373.24	160.694
1376.83	124.879
1380.42	117.441
1384	186.542
1387.59	117.121
1391.17	108.444
1394.75	145.753
1398.33	82.087
1401.91	114.13
1405.49	116.71
1409.06	167.249
1412.64	113.608
1416.21	90.227
1419.78	175.442
1423.35	99.715
1426.91	155.342
1430.48	148.112
1434.05	295.389
1437.61	254.095
1441.17	267.903
1444.73	308.932
1448.29	258.98
1451.84	315.172
1455.4	187.176
1458.95	297.894
1462.5	245.321
1466.05	181.792
1469.6	75.988
1473.15	164.947
1476.69	108.476
1480.24	48.382
1483.78	91.628
1487.32	30.123
1490.86	7.169
1494.39	111.027
1497.93	44.877
1501.46	84.083
1505	106.786
1508.53	125.529
1512.06	128.42
1515.59	81.901
1519.11	124.419
1522.64	0
