Measurement: Raman, 785 nm, unoriented, Raman Data Processed
Mineral: Muscovite
Rruff sample: R040108
Ideal chemistry: KAl_2_(Si_3_Al)O_10_(OH)_2_
Locality: USSR
Source: University of Arizona Mineral Museum
Description: Dark green hexagonal tablet
Measured chemistry: (K_0.96_Na_0.04_)_Σ=1_(Al_1.48_Fe^3+^_0.20_Mg_0.16_Fe^2+^_0.14_Ti_0.02_)_Σ=2_(Si_3.28_Al_0.72_)_Σ=4_O_10_(OH)_2_; OH estimated by charge balance
Raman shift (cm-1)	intensity
153.931	0
156.824	2.96924
159.717	122.824
162.609	126.31
165.502	78.8296
168.395	18.0442
171.287	51.3818
174.18	55.7707
177.073	62.3723
179.965	99.0557
182.858	176.848
185.751	265.876
188.644	340.48
191.536	317.588
194.429	286.764
197.322	248.557
200.214	201.56
203.107	192.438
206	158.143
208.893	121.822
211.785	135.305
214.678	174.07
217.571	165.684
220.463	201.062
223.356	127.944
226.249	68.6002
229.141	82.4755
232.034	4.08777
234.927	41.318
237.82	49.2867
240.712	155.697
243.605	265.243
246.498	458.092
249.39	835.484
252.283	1415.4
255.176	2252.02
258.068	3089.45
260.961	3526.19
263.854	3163.2
266.746	2341.57
269.639	1526.07
272.532	996.473
275.425	637.395
278.317	403.9
281.21	248.023
284.103	169.896
286.995	91.5538
289.888	34.7184
292.781	3.79785
295.673	22.09
298.566	10.3367
301.459	17.2452
304.351	7.51001
307.244	3.34167
310.137	38.6919
313.03	56.8058
315.922	32.3534
318.815	30.3867
321.708	0.297729
324.6	22.1865
327.493	4.25818
330.386	7.44385
333.279	28.3701
336.171	5.99585
339.064	0.098022
341.957	10.1273
344.849	30.4916
347.742	56.5558
350.635	69.4918
353.527	104.745
356.42	127.458
359.313	154.716
362.205	156.483
365.098	203.668
367.991	209.867
370.884	253.363
373.776	314.366
376.669	339.673
379.562	393.236
382.454	406.647
385.347	463.194
388.24	479.891
391.132	539.928
394.025	581.841
396.918	697.741
399.811	801.989
402.703	887.686
405.596	1034.06
408.489	1118.63
411.381	1277.67
414.274	1316.01
417.167	1322.84
420.06	1254.44
422.952	1141.56
425.845	995.065
428.738	823.077
431.63	665.771
434.523	461.288
437.416	388.575
440.308	308.175
443.201	223.423
446.094	193.909
448.986	156.111
451.879	125.501
454.772	111.83
457.665	110.175
460.557	82.0732
463.45	95.3036
466.343	90.3936
469.235	65.7913
472.128	79.1205
475.021	45.6077
477.913	20.9353
480.806	28.1063
483.699	10.1102
486.592	1.06091
489.484	5.33801
492.377	14.4901
495.27	17.6408
498.162	2.61548
501.055	19.7048
503.948	23.7748
506.841	14.903
509.733	16.5045
512.626	33.5576
515.519	68.7413
518.411	67.79
521.304	99.3497
524.197	80.8013
527.089	152.283
529.982	169.199
532.875	211.86
535.768	236.897
538.66	254.472
541.553	273.502
544.446	250.952
547.338	271.753
550.231	239.996
553.124	224.803
556.016	233.767
558.909	212.713
561.802	211.357
564.694	198.784
567.587	201.045
570.48	249.95
573.373	273.291
576.265	283.028
579.158	277.522
582.051	295.826
584.943	307.682
587.836	293.817
590.729	299.235
593.621	278.161
596.514	266.416
599.407	242.234
602.299	239.337
605.192	256.318
608.085	244.201
610.978	203.762
613.87	196.187
616.763	169.438
619.656	139.868
622.548	109.149
625.441	104.803
628.334	77.9095
631.226	59.3252
634.119	50.4141
637.012	30.7374
639.905	19.8136
642.797	26.411
645.69	42.1312
648.583	7.88525
651.475	10.616
654.368	3.10583
657.261	21.137
660.154	5.11243
663.046	15.7501
665.939	30.0382
668.832	5.24561
671.724	52.1755
674.617	57.5094
677.51	103.833
680.402	201.236
683.295	311.36
686.188	492.721
689.081	714.503
691.973	1066.4
694.866	1477.72
697.759	1855.55
700.651	2000.84
703.544	1733.69
706.437	1327.13
709.329	925.696
712.222	580.412
715.115	393.91
718.007	248.33
720.9	170.154
723.793	108.988
726.686	79.2855
729.578	86.8533
732.471	90.1868
735.364	104.522
738.256	116.386
741.149	149.629
744.042	129.501
746.934	190.597
749.827	179.29
752.72	181.693
755.612	149.059
758.505	130.913
761.398	84.3234
764.291	71.7161
767.183	4.25989
770.076	28.9398
772.969	3.58667
775.861	26.8326
778.754	18.1168
781.647	38.2212
784.54	40.1274
787.432	46.0161
790.325	42.108
793.218	48.7574
796.11	41.8143
799.003	5.97351
801.896	1.08032
804.788	14.8959
807.681	14.054
810.574	0.835815
813.467	4.29871
816.359	1.86792
819.252	8.86694
822.145	39.1194
825.037	31.2521
827.93	20.9419
830.823	31.6941
833.716	38.7622
836.608	51.4584
839.501	63.5284
842.394	101.885
845.286	102.454
848.179	102.023
851.072	77.5897
853.964	111.355
856.857	49.5759
859.75	79.3221
862.642	54.3972
865.535	74.1024
868.428	57.8787
871.321	44.7759
874.213	58.9676
877.106	68.5727
879.999	79.4935
882.891	75.1124
885.784	124.831
888.677	159.604
891.569	181.2
894.462	227.656
897.355	245.152
900.247	263.335
903.14	235.706
906.033	239.708
908.926	224.343
911.818	189.076
914.711	180.25
917.604	122.773
920.496	78.096
923.389	68.1429
926.282	31.1165
929.174	17.201
932.067	7.71704
934.96	2.83771
937.853	22.6583
940.745	1.03442
943.638	39.5652
946.531	15.5125
949.423	30.3235
952.316	51.923
955.209	43.3123
958.101	34.9755
960.994	28.295
963.887	0.606567
966.78	33.3201
969.672	36.5376
972.565	13.9847
975.458	4.71905
978.35	22.2745
981.243	5.72907
984.136	36.8913
987.029	25.9791
989.921	0.680603
992.814	10.9415
995.707	32.4891
998.599	17.6757
1001.49	43.2125
1004.38	44.2668
1007.28	32.3147
1010.17	46.4524
1013.06	46.8464
1015.96	41.6433
1018.85	57.4802
1021.74	35.5314
1024.63	14.5423
1027.53	28.5627
1030.42	31.3851
1033.31	15.5673
1036.2	33.7029
1039.1	33.5347
1041.99	26.9326
1044.88	11.7685
1047.78	2.78809
1050.67	23.7081
1053.56	23.1645
1056.45	41.1715
1059.35	70.8848
1062.24	80.9589
1065.13	117.986
1068.02	89.475
1070.92	132.346
1073.81	125.609
1076.7	147.67
1079.6	160.348
1082.49	143.425
1085.38	153.458
1088.27	171.77
1091.17	139.349
1094.06	142.271
1096.95	133.832
1099.84	135.707
1102.74	122.847
1105.63	134.438
1108.52	140.957
1111.41	160.119
1114.31	159.704
1117.2	155.038
1120.09	157.333
1122.98	156.895
1125.88	150.394
1128.77	110.344
1131.66	102.88
1134.56	98.2827
1137.45	89.7743
1140.34	64.8348
1143.23	20.1149
1146.13	25.7118
1149.02	20.5383
1151.91	10.4805
1154.81	9.49054
1157.7	0.786987
1160.59	13.5961
1163.48	9.47437
1166.38	1.66516
1169.27	7.69025
1172.16	12.2281
1175.05	21.1183
1177.95	27.7259
1180.84	12.496
1183.73	8.60663
1186.62	16.1309
1189.52	10.3513
1192.41	20.4666
1195.3	8.95978
1198.2	19.1246
1201.09	13.3666
1203.98	21.5477
1206.87	17.2578
1209.77	31.1485
1212.66	27.4756
1215.55	6.04535
1218.44	26.0068
1221.34	8.32111
1224.23	17.4116
1227.12	29.019
1230.02	28.3114
1232.91	14.1316
1235.8	4.53357
1238.69	15.0378
1241.59	20.8588
1244.48	26.1101
1247.37	24.6769
1250.26	16.9576
1253.16	25.7712
1256.05	37.8622
1258.94	18.1155
1261.84	2.04651
