Measurement: Raman, 785 nm, unoriented, Raman Data Processed
Mineral: Muscovite
Rruff sample: R040104
Ideal chemistry: KAl_2_(Si_3_Al)O_10_(OH)_2_
Locality: unknown
Source: University of Arizona Mineral Museum
Description: Dark green hexagonal tablet
Measured chemistry: (K_0.91_Na_0.09_)_Σ=1_(Al_1.70_Fe^3+^_0.14_Mg_0.08_Fe^2+^_0.06_Ti_0.02_)_Σ=2_(Si_3.12_Al_0.88_)_Σ=4_O_10_(OH)_2_; OH estimated by charge balance
Raman shift (cm-1)	intensity
148.146	0
151.038	657.085
153.931	319.762
156.824	42.7685
159.717	293.757
162.609	678.183
165.502	544.875
168.395	441.869
171.287	258.51
174.18	145.531
177.073	86.707
179.965	93.0229
182.858	239.103
185.751	625.435
188.644	1069.27
191.536	1499.32
194.429	1673.43
197.322	1478.07
200.214	1226
203.107	980.839
206	942.329
208.893	968.529
211.785	1082.48
214.678	1235.59
217.571	1089.44
220.463	731.148
223.356	365.414
226.249	93.3696
229.141	24.741
232.034	95.5876
234.927	14.7549
237.82	88.5464
240.712	295.627
243.605	656.752
246.498	1178.33
249.39	2166.23
252.283	3734.99
255.176	5973.91
258.068	8590.14
260.961	9972.61
263.854	8644.97
266.746	6195.69
269.639	4229.83
272.532	2846.41
275.425	1992.56
278.317	1444.53
281.21	1067.33
284.103	839.794
286.995	576.329
289.888	413.186
292.781	311.457
295.673	288.112
298.566	229.236
301.459	270.705
304.351	301.38
307.244	352.463
310.137	385.195
313.03	398.003
315.922	345
318.815	298.765
321.708	242.093
324.6	218.97
327.493	148.645
330.386	88.2584
333.279	46.8344
336.171	37.3962
339.064	33.4003
341.957	50.3449
344.849	40.6208
347.742	29.049
350.635	44.3107
353.527	115.148
356.42	206.894
359.313	300.469
362.205	441.956
365.098	585.674
367.991	727.682
370.884	885.878
373.776	1057.93
376.669	1227.07
379.562	1310.96
382.454	1457.81
385.347	1610.02
388.24	1810.35
391.132	2136.55
394.025	2426.71
396.918	2923.71
399.811	3403.95
402.703	3916.18
405.596	4260.93
408.489	4488.79
411.381	4428.54
414.274	4040.03
417.167	3520.6
420.06	2923.02
422.952	2358.91
425.845	1892.77
428.738	1500.31
431.63	1223.95
434.523	925.583
437.416	752.826
440.308	554.034
443.201	386.042
446.094	278.572
448.986	187.214
451.879	122.629
454.772	102.329
457.665	96.9939
460.557	124.237
463.45	127.646
466.343	164.93
469.235	137.79
472.128	188.729
475.021	161.155
477.913	167.425
480.806	167.083
483.699	133.177
486.592	133.457
489.484	97.7613
492.377	80.6352
495.27	59.8809
498.162	5.43274
501.055	10.4978
503.948	1.56787
506.841	19.8621
509.733	73.9462
512.626	36.6251
515.519	5.71472
518.411	14.141
521.304	13.963
524.197	4.81555
527.089	17.65
529.982	37.3712
532.875	34.6768
535.768	111.758
538.66	107.308
541.553	115.877
544.446	164.401
547.338	121.331
550.231	150.158
553.124	172.875
556.016	162.683
558.909	202.152
561.802	175.577
564.694	162.054
567.587	135.176
570.48	142.586
573.373	186.135
576.265	114.944
579.158	114.755
582.051	120.223
584.943	109.384
587.836	142.746
590.729	136.06
593.621	172.124
596.514	212.683
599.407	288.478
602.299	313.364
605.192	309.561
608.085	400.759
610.978	453.341
613.87	499.537
616.763	523.197
619.656	582.797
622.548	562.02
625.441	621.691
628.334	636.832
631.226	640.392
634.119	589.613
637.012	600.017
639.905	511.143
642.797	478.315
645.69	338.85
648.583	299.073
651.475	145.189
654.368	81.0985
657.261	77.5745
660.154	15.3121
663.046	31.8684
665.939	33.3313
668.832	50.0989
671.724	18.5884
674.617	68.625
677.51	202.859
680.402	398.016
683.295	624.382
686.188	951.391
689.081	1488.51
691.973	2184.15
694.866	3059.03
697.759	3861.16
700.651	4232.04
703.544	3772.32
706.437	2964.85
709.329	1976.8
712.222	1250.66
715.115	781.116
718.008	488.184
720.9	319.154
723.793	194.595
726.686	156.572
729.578	147.761
732.471	214.364
735.364	335.519
738.256	477.919
741.149	637.173
744.042	615.377
746.934	895.29
749.827	930.421
752.72	942.97
755.612	840.309
758.505	690.741
761.398	595.127
764.291	413.132
767.183	236.419
770.076	173.865
772.969	120.875
775.861	33.1262
778.754	50.8052
781.647	52.7741
784.54	80.6774
787.432	113.149
790.325	50.7046
793.218	79.7849
796.11	71.4525
799.003	29.9082
801.896	13.7736
804.788	17.6909
807.681	39.3046
810.574	31.3416
813.467	24.0495
816.359	0.390869
819.252	12.0947
822.145	6.48975
825.037	8.04334
827.93	8.98297
830.823	30.3349
833.716	10.679
836.608	8.12067
839.501	17.179
842.394	25.6562
845.286	48.4999
848.179	43.3331
851.072	59.9109
853.964	54.9443
856.857	95.6115
859.75	105.72
862.643	128.516
865.535	161.658
868.428	205.986
871.321	216.904
874.213	241.711
877.106	281.677
879.999	280.991
882.891	323.452
885.784	345.78
888.677	345.813
891.569	421.991
894.462	500.383
897.355	581.764
900.247	650.568
903.14	716.189
906.033	752.034
908.926	793.629
911.818	744.664
914.711	716.824
917.604	603.651
920.496	476.035
923.389	383.897
926.282	309.805
929.174	184.977
932.067	153.114
934.96	118.544
937.853	114.331
940.745	133.105
943.638	190.835
946.531	189.825
949.423	228.845
952.316	256.414
955.209	290.474
958.101	243.551
960.994	177.924
963.887	175.804
966.78	101.406
969.672	97.2588
972.565	45.5782
975.458	63.8884
978.35	32.5522
981.243	20.3281
984.136	2.94275
987.029	3.41205
989.921	21.3115
992.814	23.4954
995.707	4.84204
998.599	9.36047
1001.49	12.686
1004.38	42.6148
1007.28	62.006
1010.17	41.319
1013.06	61.8171
1015.96	81.0298
1018.85	64.8746
1021.74	24.7391
1024.63	29.7679
1027.53	0.825562
1030.42	67.847
1033.31	26.963
1036.2	19.9082
1039.1	20.7301
1041.99	2.42163
1044.88	80.0842
1047.78	87.2586
1050.67	102.178
1053.56	132.094
1056.45	182.384
1059.35	203.008
1062.24	218.338
1065.13	270.686
1068.02	292.659
1070.92	298.954
1073.81	320.507
1076.7	378.388
1079.6	365.286
1082.49	361.004
1085.38	350.601
1088.27	337.242
1091.17	336.345
1094.06	332.896
1096.95	322.015
1099.84	382.384
1102.74	374.211
1105.63	384.063
1108.52	428.754
1111.41	489.659
1114.31	463.904
1117.2	448.952
1120.09	419.42
1122.98	399.143
1125.88	305.147
1128.77	327.685
1131.66	244.677
1134.56	151.767
1137.45	137.916
1140.34	65.0403
1143.23	43.9857
1146.13	4.30237
1149.02	48.9537
1151.91	13.8076
1154.81	7.68005
1157.7	7.29559
1160.59	9.9191
1163.48	0.734924
1166.38	0.616547
1169.27	18.6016
1172.16	6.61121
1175.05	15.2452
1177.95	35.4584
1180.84	52.9707
1183.73	34.5547
1186.62	38.325
1189.52	30.3125
1192.41	49.7971
1195.3	40.4057
1198.2	36.5211
1201.09	8.63623
1203.98	39.5135
1206.87	24.6028
1209.77	74.2004
1212.66	38.9731
1215.55	13.3621
1218.44	20.8066
1221.34	6.03271
1224.23	29.3391
1227.12	10.3513
1230.02	44.9164
1232.91	6.80704
1235.8	23.0435
1238.69	25.5439
1241.59	46.0878
1244.48	45.9948
1247.37	35.5543
1250.26	14.597
1253.16	29.5403
1256.05	59.9391
1258.94	23.0697
1261.84	11.5924
1264.73	29.7733
1267.62	2.05145
