Measurement: Raman, 532 nm, unoriented, Raman Data Processed
Mineral: Muscovite
Rruff sample: R040124
Ideal chemistry: KAl_2_(Si_3_Al)O_10_(OH)_2_
Locality: Garnet Hill, Pennsylvania, USA
Source: Bob Downs
Description: Grayish green mica book
Measured chemistry: (K_0.90_Na_0.07_)(Al_0.86_Fe_0.10_Mg_0.04_)_2_(Si_0.76_Al_0.24_)_4_O_10_((OH)_0.99_F_0.01_)_2_
Raman shift (cm-1)	intensity
143.394	0
146.287	7.53918
149.18	97.1385
152.072	148.09
154.965	290.563
157.858	289.503
160.75	429.517
163.643	527.535
166.536	549.579
169.429	551.977
172.321	454.592
175.214	388.118
178.107	333.118
180.999	363.078
183.892	506.545
186.785	710.761
189.678	998.315
192.57	1259.31
195.463	1269.7
198.356	1114.38
201.248	966.988
204.141	869.845
207.034	802.123
209.926	896.193
212.819	1011.13
215.712	1104.57
218.605	896.575
221.497	545.523
224.39	251.38
227.283	31.0334
230.175	52.0642
233.068	69.7083
235.961	20.2041
238.853	120.306
241.746	428.02
244.639	821.069
247.532	1485.33
250.424	2526.2
253.317	4131.34
256.21	6562.39
259.102	8783.27
261.995	9100.98
264.888	7056.99
267.781	4672.07
270.673	2964.86
273.566	1895.58
276.459	1257.53
279.351	859.543
282.244	569.348
285.137	358.318
288.029	275.78
290.922	159.425
293.815	57.4647
296.707	47.793
299.6	20.631
302.493	71.4554
305.386	46.7328
308.278	100.941
311.171	86.5442
314.064	95.2261
316.956	138.888
319.849	124.292
322.742	99.5259
325.635	55.9509
328.527	37.8079
331.42	3.00818
334.313	12.7518
337.205	61.634
340.098	53.0035
342.991	14.3063
345.883	0.670776
348.776	41.9474
351.669	156.887
354.562	250.941
357.454	356.801
360.347	447.726
363.24	650.333
366.132	797.622
369.025	920.779
371.918	1063.65
374.81	1184.64
377.703	1306.15
380.596	1403.67
383.488	1532.31
386.381	1661.13
389.274	1952.22
392.167	2213.24
395.059	2547.76
397.952	2928.95
400.845	3291.22
403.737	3665.87
406.63	3864.23
409.523	3800.28
412.416	3488.83
415.308	3003.62
418.201	2452.29
421.094	1911.41
423.986	1497.97
426.879	1163.44
429.772	910.169
432.664	695.87
435.557	591.88
438.45	410.021
441.343	337.529
444.235	256.907
447.128	153.558
450.021	138.451
452.913	95.18
455.806	73.4286
458.699	139.928
461.591	152.1
464.484	168.473
467.377	222.435
470.27	186.44
473.162	193.66
476.055	198.633
478.948	181.088
481.84	165.759
484.733	126.231
487.626	130.137
490.519	86.0282
493.411	61.7592
496.304	9.59741
499.197	6.05786
502.089	30.3715
504.982	39.9381
507.875	5.54724
510.767	49.29
513.66	42.2135
516.553	1.82312
519.446	9.94971
522.338	0.179199
525.231	37.6416
528.124	45.852
531.016	73.3314
533.909	130.426
536.802	147.997
539.694	142.613
542.587	108.046
545.48	157.58
548.372	179.415
551.265	176.559
554.158	186.179
557.051	228.63
559.943	201.525
562.836	225.231
565.729	200.813
568.621	153.06
571.514	145.084
574.407	116.913
577.299	96.6433
580.192	102.535
583.085	78.4641
585.978	110.555
588.87	143.445
591.763	168.245
594.656	274.039
597.548	307.021
600.441	379.445
603.334	506.017
606.227	609.294
609.119	729.977
612.012	802.71
614.905	834.204
617.797	922.397
620.69	905.813
623.583	894.389
626.476	907.904
629.368	894.282
632.261	886.926
635.154	846.309
638.046	753.979
640.939	675.984
643.832	595.232
646.724	421.908
649.617	335.187
652.51	150.924
655.403	107.231
658.295	19.0569
661.188	24.937
664.081	58.8645
666.973	54.5029
669.866	8.66211
672.759	44.0784
675.651	177.634
678.544	367.302
681.437	619.803
684.33	970.377
687.222	1493.05
690.115	2213.68
693.008	3072.05
695.9	3990.73
698.793	4568.97
701.686	4501.63
704.578	3707.67
707.471	2604.57
710.364	1699.5
713.256	1033.75
716.149	622.281
719.042	401.37
721.935	178.182
724.827	110.617
727.72	101.758
730.613	112.883
733.505	196.273
736.398	344.11
739.291	509.42
742.183	683.906
745.076	790.212
747.969	837.075
750.862	857.751
753.754	815.695
756.647	719.608
759.54	596.808
762.432	447.921
765.325	283.534
768.218	194.319
771.111	86.2809
774.003	48.4667
776.896	31.8324
779.789	62.2786
782.681	85.2329
785.574	114.927
788.467	113.667
791.359	132.163
794.252	134.473
797.145	146.975
800.038	114.562
802.93	83.0781
805.823	76.9161
808.716	22.5707
811.608	10.0418
814.501	17.1844
817.394	11.2274
820.286	20.215
823.179	11.1426
826.072	30.2071
828.965	20.7958
831.857	20.9724
834.75	11.3021
837.643	45.2415
840.535	42.1641
843.428	72.9039
846.321	87.3197
849.213	106.977
852.106	89.2368
854.999	119.849
857.891	145.804
860.784	151.251
863.677	135.477
866.57	184.296
869.462	225.454
872.355	255.964
875.248	271.284
878.14	307.377
881.033	342.305
883.926	359.409
886.819	411.182
889.711	450.802
892.604	559.361
895.497	632.787
898.389	708.951
901.282	818.098
904.175	829.216
907.067	857.492
909.96	908.634
912.853	793.453
915.746	698.15
918.638	543.725
921.531	399.902
924.424	276.685
927.316	182.381
930.209	66.9581
933.102	69.2635
935.995	44.9703
938.887	48.7731
941.78	88.4231
944.673	157.51
947.565	292.728
950.458	319.066
953.351	340.937
956.243	355.552
959.136	299.884
962.029	218
964.922	162.213
967.814	122.426
970.707	50.1285
973.6	42.2147
976.492	25.0908
979.385	17.8889
982.278	5.58118
985.17	0.185425
988.063	4.22754
990.956	9.09338
993.848	13.6704
996.741	17.2745
999.634	16.523
1002.53	8.65552
1005.42	11.8535
1008.31	53.5377
1011.21	57.4313
1014.1	78.8585
1016.99	74.2715
1019.88	109.256
1022.78	91.3269
1025.67	86.5729
1028.56	100.659
1031.45	46.7445
1034.35	23.0907
1037.24	9.26318
1040.13	15.9403
1043.02	3.41956
1045.92	41.6423
1048.81	68.6193
1051.7	131.016
1054.6	146.235
1057.49	246.464
1060.38	258.406
1063.27	357.437
1066.17	364.394
1069.06	411.078
1071.95	467.438
1074.84	501.031
1077.74	516.628
1080.63	520.163
1083.52	501.807
1086.41	489.602
1089.31	506.18
1092.2	511.05
1095.09	510.73
1097.99	518.566
1100.88	579.766
1103.77	655.981
1106.66	721.346
1109.56	736.891
1112.45	772.654
1115.34	766.509
1118.23	722.359
1121.13	672.542
1124.02	613.127
1126.91	531.371
1129.81	408.707
1132.7	316.286
1135.59	240.966
1138.48	184.172
1141.38	140.617
1144.27	62.766
1147.16	69.4371
1150.05	34.3688
1152.95	8.49634
1155.84	8.57153
1158.73	10.0915
1161.62	4.10193
1164.52	2.94775
1167.41	0.499146
1170.3	6.10083
1173.2	7.1051
1176.09	16.1199
1178.98	12.7987
1181.87	19.5092
1184.77	73.8837
1187.66	44.6003
1190.55	12.4879
1193.44	21.3186
1196.34	19.4828
1199.23	23.2033
1202.12	28.0551
1205.02	50.8257
1207.91	31.6752
1210.8	50.9701
1213.69	61.7343
1216.59	19.4959
1219.48	50.9601
1222.37	53.2148
1225.27	48.817
1228.16	43.9194
1231.05	57.8159
1233.94	72.635
1236.84	38.1613
1239.73	3.4353
1242.62	36.5691
1245.51	30.8678
1248.41	36.1401
1251.3	19.661
1254.19	9.98938
1257.08	38.6061
1259.98	16.5098
1262.87	0.940796
1265.76	18.0847
