Measurement: Raman, 785 nm, unoriented, Raman Data Processed
Mineral: Muscovite
Rruff sample: R061120
Ideal chemistry: KAl_2_(Si_3_Al)O_10_(OH)_2_
Locality: Aracuai City,  Minas Gerais, Brazil
Source: Michael Scott
Description: Lavender prismatic micaceous crystals
Measured chemistry: gray phase: (K_0.93_Na_0.07_)_Σ=1_(Al_1.95_Fe^3+^_0.05_)_Σ=2_(Si_3.00_Al_1.00_)O_10_(OH)_2_; OH estimated by charge balance
Raman shift (cm-1)	intensity
183.985	0
186.878	6.23438
189.77	292.051
192.663	931.918
195.556	1633.47
198.448	1961.62
201.341	1732.45
204.234	1365.77
207.126	1186.21
210.019	1329.93
212.912	1748.3
215.805	1923.19
218.697	1463.67
221.59	896.113
224.483	341.332
227.375	65.3008
230.268	56.2539
233.161	107.957
236.054	212.93
238.946	343.93
241.839	892.981
244.732	1470.85
247.624	2167.79
250.517	3625.86
253.41	5208.35
256.302	7872.03
259.195	10907.8
262.088	12905.7
264.981	11881.7
267.873	8833.67
270.766	5851.12
273.659	3611.85
276.551	2380.18
279.444	1593.94
282.337	1410.95
285.229	1124.79
288.122	843.691
291.015	713.184
293.908	498.242
296.8	357.18
299.693	490.652
302.586	566.887
305.478	517.234
308.371	548.648
311.264	539.129
314.156	380.75
317.049	324.863
319.942	203.723
322.834	297.547
325.727	180.027
328.62	157.199
331.513	118.445
334.405	46.9883
337.298	68.5664
340.191	206.957
343.083	0.316406
345.976	50.5898
348.869	14.7383
351.762	169.199
354.654	284.469
357.547	307.043
360.44	553.637
363.332	606.078
366.225	806.402
369.118	957.356
372.01	1464.87
374.903	1798.82
377.796	2015.09
380.688	1862.08
383.581	2104.5
386.474	2465.48
389.366	2786.81
392.259	3368.22
395.152	3956.27
398.045	4378.61
400.937	4685.22
403.83	5005.66
406.723	4971.98
409.615	4716.8
412.508	4330.35
415.401	3775.45
418.293	3020.74
421.186	2679.28
424.079	2060.74
426.972	1737.67
429.864	1316.68
432.757	1190.59
435.65	661.797
438.542	563.316
441.435	408.219
444.328	381.137
447.221	214.082
450.113	176.871
453.006	19.8711
455.899	38.7188
458.791	24.2109
461.684	58.3867
464.577	31.7031
467.469	141.945
470.362	157.371
473.255	170.707
476.148	173.441
479.04	124.398
481.933	74.3047
484.826	107.406
487.718	174.055
490.611	94.6328
493.504	164.141
496.396	35.4062
499.289	134.156
502.182	23.6523
505.075	27.6055
507.967	153.769
510.86	178.957
513.753	15.9023
516.645	9.28125
519.538	64.6914
522.431	190.031
525.323	97.8379
528.216	134.752
531.109	122.387
534.001	256.078
536.894	82.3789
539.787	207.059
542.68	316.315
545.572	293.566
548.465	349.932
551.358	467.115
554.25	505.057
557.143	378.336
560.036	510.981
562.928	438.113
565.821	398.457
568.714	370.957
571.607	281.209
574.499	344.144
577.392	154.432
580.285	86.9941
583.177	66.8848
586.07	37.9199
588.963	29.6777
591.856	88.2188
594.748	13.3242
597.641	97.8184
600.534	43.0371
603.426	83.5156
606.319	117.348
609.212	186.328
612.104	286.34
614.997	332.562
617.89	323.582
620.783	692.637
623.675	948.127
626.568	938.768
629.461	1044.15
632.353	1133.46
635.246	949.064
638.139	833.439
641.031	745.748
643.924	570.586
646.817	511.049
649.71	324.119
652.602	293.471
655.495	143.209
658.388	40.2109
661.28	40.3457
664.173	77.5996
667.066	51.0898
669.958	56.2188
672.851	162.924
675.744	305.963
678.636	593.234
681.529	907.42
684.422	1299.06
687.315	1942.97
690.207	2737.98
693.1	3744.56
695.993	5007.15
698.885	5974.41
701.778	6392.48
704.671	6066.83
707.563	5180.8
710.456	4006.86
713.349	2703.1
716.242	1785.77
719.134	978.988
722.027	667.297
724.92	374.643
727.812	171.988
730.705	146.613
733.598	303.316
736.49	355.914
739.383	720.881
742.276	885.604
745.169	1224.3
748.061	1382.72
750.954	1373.16
753.847	1373.23
756.739	1231.78
759.632	1081.35
762.525	934.697
765.418	678.152
768.31	342.305
771.203	288.853
774.096	92.25
776.988	108.586
779.881	78.0273
782.774	64.5019
785.666	18.168
788.559	68.793
791.452	99.6914
794.345	54.8359
797.237	25.252
800.13	50.2383
803.023	35.8105
805.915	37.4668
808.808	3.4043
811.701	88.0156
814.593	81.8965
817.486	107.262
820.379	39.0137
823.271	38.7207
826.164	44.6074
829.057	22.4824
831.95	12.9219
834.842	116.711
837.735	27.7852
840.628	23.4004
843.52	11.8789
846.413	56.7695
849.306	71.8633
852.198	68.6992
855.091	83.1328
857.984	30.8242
860.877	98.8711
863.769	90.6914
866.662	133.881
869.555	154.94
872.447	170.424
875.34	169.773
878.233	121.143
881.125	123.465
884.018	262.326
886.911	247.568
889.804	323.812
892.696	290.717
895.589	398.455
898.482	659.615
901.374	665.277
904.267	869.055
907.16	977.67
910.053	1079.66
912.945	1161.56
915.838	996.758
918.731	898.086
921.623	724.631
924.516	477.451
927.409	541.525
930.301	434.535
933.194	283.609
936.087	333.842
938.979	248.49
941.872	389.08
944.765	535.168
947.658	566.299
950.55	586.809
953.443	694.084
956.336	679.58
959.228	573.381
962.121	381.641
965.014	333.49
967.906	237.199
970.799	90.2656
973.692	67.4727
976.585	24.2988
979.477	69.3398
982.37	12.2637
985.263	74.1367
988.155	41.7988
991.048	45.5273
993.941	65.0391
996.833	18.0068
999.726	32.0879
1002.62	9.45605
1005.51	19.2686
1008.4	91.8242
1011.3	147.344
1014.19	136.658
1017.08	75.0723
1019.98	235.533
1022.87	167.42
1025.76	169.306
1028.65	133.72
1031.55	118.228
1034.44	87.6768
1037.33	15.0654
1040.22	11.3408
1043.12	32.6543
1046.01	38.4238
1048.9	120.928
1051.8	118.397
1054.69	230.912
1057.58	177.948
1060.47	257.894
1063.37	153.727
1066.26	247.743
1069.15	223.078
1072.04	229.511
1074.94	283.719
1077.83	319.574
1080.72	391.879
1083.61	252.009
1086.51	423.853
1089.4	272.442
1092.29	420.532
1095.18	450.986
1098.08	379.728
1100.97	511.963
1103.86	556.221
1106.76	612.062
1109.65	867.546
1112.54	625.422
1115.43	734.785
1118.33	679.467
1121.22	582.164
1124.11	507.018
1127.01	479.688
1129.9	381.927
1132.79	298.804
1135.68	228.484
1138.58	167.644
1141.47	207.282
1144.36	57.1416
1147.25	73.9346
1150.15	130.864
1153.04	33.0684
1155.93	52.4209
1158.83	15.9072
1161.72	19.2461
1164.61	42.4893
1167.5	8.16211
1170.39	130.02
1173.29	115.186
1176.18	44.7012
1179.07	124.972
1181.97	21.2441
1184.86	59.9902
1187.75	141.25
1190.64	101.825
1193.54	133.368
1196.43	129.974
1199.32	95.0576
1202.21	145.046
1205.11	174.398
1208	119.197
1210.89	82.0586
1213.79	132.315
1216.68	59.7041
1219.57	166.644
1222.46	137.394
1225.36	92.2637
1228.25	107.52
1231.14	117.341
1234.04	155.629
1236.93	51.2978
