Measurement: Raman, 780 nm, unoriented, Raman Data Processed
Mineral: Muscovite
Rruff sample: R050198
Ideal chemistry: KAl_2_(Si_3_Al)O_10_(OH)_2_
Locality: California, USA
Source: University of Arizona Mineral Museum
Description: Micaceous aggregate, polytype 2M1
Measured chemistry: (K_0.92_Na_0.08_)(Al_0.76_Mg_0.18_Fe^3+^_0.04_Fe^2+^_0.02_)_2_(Si_3.40_Al_0.60_)O_10_(OH)_2_
Raman shift (cm-1)	intensity
150.338	0
153.23	0.430389
156.123	2.40131
159.016	0.424805
161.909	0.506104
164.801	4.03595
167.694	8.14929
170.587	14.6813
173.479	21.2355
176.372	27.4683
179.265	34.9877
182.157	46.6323
185.05	60.5103
187.943	73.4698
190.835	78.0358
193.728	63.8668
196.621	46.5021
199.514	31.9663
202.406	24.1649
205.299	19.333
208.192	13.9598
211.084	12.7509
213.977	11.0732
216.87	6.6897
219.762	4.47375
222.655	3.87585
225.548	3.70502
228.441	4.20413
231.333	5.60178
234.226	6.9859
237.119	10.2149
240.011	15.3311
242.904	26.2666
245.797	43.5314
248.69	61.4464
251.582	83.0925
254.475	105.366
257.368	133.156
260.26	166.447
263.153	197.781
266.046	200.757
268.938	162.666
271.831	107.69
274.724	63.0717
277.616	34.5969
280.509	19.8482
283.402	9.72555
286.295	4.01242
289.187	1.38022
292.08	0.745789
294.973	0.396576
297.865	1.23712
300.758	1.79324
303.651	1.97726
306.543	0.963562
309.436	0.886169
312.329	0.923553
315.221	1.28928
318.114	0.094086
321.007	0.00473
323.9	0.948517
326.792	0.751892
329.685	0.322174
332.578	0.144775
335.47	0.007904
338.363	0.788422
341.256	4.30371
344.149	3.21667
347.041	6.98322
349.934	9.14999
352.827	9.60605
355.719	11.1488
358.612	12.4506
361.505	10.6062
364.397	12.7701
367.29	10.3922
370.183	10.4226
373.075	11.6982
375.968	8.85202
378.861	9.36841
381.754	13.5915
384.646	13.0555
387.539	14.2333
390.432	14.3613
393.324	15.9405
396.217	16.9918
399.11	19.8945
402.002	20.4442
404.895	24.2912
407.788	26.0422
410.681	28.6265
413.573	31.4787
416.466	35.3137
419.359	35.3034
422.251	37.3072
425.144	35.912
428.037	33.5385
430.93	31.7585
433.822	31.0283
436.715	25.533
439.608	20.4448
442.5	12.627
445.393	7.21753
448.286	4.59793
451.178	1.45782
454.071	0.018524
456.964	0.411865
459.856	0.230621
462.749	1.93262
465.642	0.082672
468.535	0.103333
471.427	0.377136
474.32	1.11188
477.213	0.859009
480.105	0.349609
482.998	0.722839
485.891	1.4314
488.783	0.199127
491.676	1.2135
494.569	1.12189
497.462	1.81973
500.354	1.936
503.247	0.944489
506.14	1.71542
509.032	1.7102
511.925	2.95685
514.818	2.97415
517.71	3.7247
520.603	5.50592
523.496	5.7626
526.389	6.85339
529.281	6.83658
532.174	8.67273
535.067	9.13806
537.959	7.40793
540.852	7.52862
543.745	6.39127
546.638	6.8728
549.53	6.40512
552.423	5.12189
555.316	4.47162
558.208	1.24469
561.101	1.39984
563.994	0.153534
566.886	0.879578
569.779	0.746582
572.672	0.04776
575.564	0.569092
578.457	1.1929
581.35	1.05966
584.243	0.63266
587.135	3.32684
590.028	2.7731
592.921	2.19974
595.813	1.80066
598.706	1.2579
601.599	0.746643
604.491	3.45889
607.384	1.89276
610.277	0.202881
613.169	1.06784
616.062	1.4791
618.955	0.993073
621.848	2.05572
624.74	1.5809
627.633	1.30621
630.526	2.10788
633.418	1.86423
636.311	2.67334
639.204	3.35736
642.096	4.47168
644.989	4.30841
647.882	4.40231
650.775	5.43594
653.667	4.518
656.56	5.28647
659.453	5.56924
662.345	5.86191
665.238	5.66718
668.131	7.85837
671.024	9.96411
673.916	11.0852
676.809	15.4911
679.702	21.3534
682.594	29.4519
685.487	39.6891
688.38	55.7668
691.272	72.8521
694.165	94.6763
697.058	114.998
699.951	130.868
702.843	138.22
705.736	122.334
708.629	90.0256
711.521	59.3916
714.414	38.4049
717.307	23.804
720.199	13.556
723.092	8.64865
725.985	4.36887
728.877	1.04309
731.77	0.427063
734.663	0.639618
737.556	0.263397
740.448	1.7594
743.341	2.06162
746.234	4.75659
749.126	1.9689
752.019	2.89655
754.912	3.07599
757.804	2.0549
760.697	0.834717
763.59	0.619202
766.482	1.80072
769.375	0.304031
772.268	0.33934
775.161	0.510727
778.053	1.08197
780.946	0.128174
783.839	0.948959
786.731	1.82495
789.624	1.63438
792.517	3.23146
795.409	0.521454
798.302	1.96115
801.195	2.06775
804.088	2.2397
806.98	2.58961
809.873	3.01254
812.766	2.13062
815.658	3.54739
818.551	5.82355
821.444	4.71732
824.337	7.10683
827.229	7.24397
830.122	8.04889
833.015	9.21803
835.907	10.9934
838.8	11.4629
841.693	11.6237
844.585	10.0977
847.478	7.98675
850.371	7.0471
853.264	5.49799
856.156	4.85756
859.049	3.68494
861.942	2.91151
864.834	1.81587
867.727	1.05383
870.62	0.266098
873.512	0.667191
876.405	0.239426
879.298	0.904205
882.191	0.155289
885.083	2.89183
887.976	3.06439
890.869	1.78778
893.761	5.5598
896.654	4.72734
899.547	3.65491
902.439	4.97685
905.332	3.27025
908.225	2.91689
911.117	2.0625
914.01	1.98792
916.903	1.19923
919.796	0.935638
922.688	0.126007
925.581	0.787216
928.474	0.360306
931.366	0.243912
934.259	1.02492
937.152	0.287781
940.044	1.46263
942.937	1.91722
945.83	3.79364
948.723	3.78624
951.615	4.55002
954.508	5.05084
957.401	5.83362
960.293	5.46587
963.186	5.90744
966.079	6.09619
968.971	7.13615
971.864	6.60045
974.757	7.13005
977.65	6.68994
980.542	6.58984
983.435	6.79309
986.328	7.31044
989.22	6.08722
992.113	6.42068
995.006	6.52789
997.899	5.47281
1000.79	5.33441
1003.68	4.63422
1006.58	3.63893
1009.47	3.96136
1012.36	3.54703
1015.25	2.72093
1018.15	2.43594
1021.04	1.61171
1023.93	1.47353
1026.83	2.00063
1029.72	0.097504
1032.61	0.470825
1035.5	0.519547
1038.4	0.011169
1041.29	0.182922
1044.18	0.69606
1047.07	0.274994
1049.97	0.019836
1052.86	0.416382
1055.75	0.307861
1058.64	0.809921
1061.54	1.92841
1064.43	2.27661
1067.32	3.20863
1070.22	3.28857
1073.11	3.57857
1076	5.17122
1078.89	5.28192
1081.79	5.72012
1084.68	6.78111
1087.57	6.99672
1090.46	7.53238
1093.36	8.31484
1096.25	10.1779
1099.14	9.86322
1102.04	11.5696
1104.93	11.482
1107.82	12.5775
1110.71	12.861
1113.61	15.1999
1116.5	13.5753
1119.39	14.0536
1122.29	15.1451
1125.18	14.7544
1128.07	12.2946
1130.96	10.5082
1133.86	8.40685
1136.75	7.46915
1139.64	5.74637
1142.53	5.61484
1145.43	3.40701
1148.32	3.17706
1151.21	2.33019
1154.1	2.4819
1157	2.67104
1159.89	1.22697
1162.78	2.03287
1165.67	1.88675
1168.57	1.9605
1171.46	2.25857
1174.35	2.62093
1177.25	3.12419
1180.14	2.8606
1183.03	1.25848
1185.92	0.555359
1188.82	2.67412
1191.71	1.6376
1194.6	0.211624
1197.49	2.06775
1200.39	0.643707
1203.28	1.35219
1206.17	0.329514
1209.07	1.21915
1211.96	0.662247
1214.85	0.070023
1217.74	0.077606
1220.64	0.127991
1223.53	0.298096
1226.42	0.859634
1229.31	1.0524
1232.21	0.411041
1235.1	0.946716
1237.99	2.6855
1240.88	3.01117
1243.78	1.21492
1246.67	1.60634
1249.56	2.74736
1252.46	3.76764
1255.35	2.50237
1258.24	2.21611
1261.13	2.01828
1264.03	1.38095
1266.92	2.4377
1269.81	1.09109
1272.7	1.68797
1275.6	0.963303
1278.49	1.04926
1281.38	0.603455
1284.28	0.904877
