Measurement: Raman, 785 nm, unoriented, Raman Data Processed
Mineral: Muscovite
Rruff sample: R040124
Ideal chemistry: KAl_2_(Si_3_Al)O_10_(OH)_2_
Locality: Garnet Hill, Pennsylvania, USA
Source: Bob Downs
Description: Grayish green mica book
Measured chemistry: (K_0.90_Na_0.07_)(Al_0.86_Fe_0.10_Mg_0.04_)_2_(Si_0.76_Al_0.24_)_4_O_10_((OH)_0.99_F_0.01_)_2_
Raman shift (cm-1)	intensity
138.858	0
141.75	16.7932
144.643	578.246
147.536	1543.5
150.429	1944.9
153.321	1763.08
156.214	924.435
159.107	844.574
161.999	1093.16
164.892	1377.87
167.785	1515.59
170.677	1391.71
173.57	1165.29
176.463	1041.1
179.356	877.237
182.248	840.233
185.141	996.072
188.034	1288.04
190.926	1654.87
193.819	1775.26
196.712	1796.23
199.604	1501.16
202.497	1297.98
205.39	1166.03
208.282	1159.3
211.175	1170.51
214.068	1264.55
216.961	1336.56
219.853	1050.11
222.746	661.214
225.639	205.789
228.531	16.3311
231.424	106.343
234.317	168.445
237.209	3.59399
240.102	183.133
242.995	481.16
245.888	968.859
248.78	1689.42
251.673	2870.19
254.566	4568.25
257.458	6904.36
260.351	8811.45
263.244	8433.75
266.137	6226.26
269.029	4122.93
271.922	2564.84
274.815	1656.2
277.707	1093.05
280.6	706.599
283.493	503.375
286.385	339.766
289.278	240.796
292.171	89.5232
295.063	46.6435
297.956	42.3054
300.849	72.1643
303.742	87.596
306.634	212.682
309.527	249.554
312.42	251.781
315.312	231.606
318.205	161.71
321.098	158.605
323.99	110.656
326.883	84.7109
329.776	81.1687
332.669	22.3755
335.561	62.9089
338.454	65.1685
341.347	42.6843
344.239	24.3711
347.132	3.07349
350.025	22.0754
352.918	143.645
355.81	260.315
358.703	372.582
361.596	503.167
364.488	640.473
367.381	829.173
370.274	982.739
373.166	1172.32
376.059	1283.23
378.952	1422.98
381.844	1535.78
384.737	1702.03
387.63	1940.56
390.523	2211.6
393.415	2517.45
396.308	2940.48
399.201	3409.51
402.093	3953.09
404.986	4339.64
407.879	4441.83
410.772	4253.1
413.664	3944.35
416.557	3354.16
419.45	2770.91
422.342	2174.19
425.235	1686.18
428.128	1332.67
431.02	978.038
433.913	771.395
436.806	641.771
439.699	514.454
442.591	357.249
445.484	218.556
448.377	206.523
451.269	138.144
454.162	114.83
457.055	73.6086
459.947	130.257
462.84	186.668
465.733	201.486
468.625	210.076
471.518	221.647
474.411	228.361
477.304	168.294
480.196	151.209
483.089	158.291
485.982	155.65
488.874	119.497
491.767	115.938
494.66	28.4651
497.553	4.31689
500.445	18.6587
503.338	23.4875
506.231	21.9145
509.123	19.6267
512.016	28.6282
514.909	9.86816
517.802	18.3464
520.694	2.80786
523.587	16.0027
526.48	1.8457
529.372	58.8176
532.265	70.6055
535.158	89.7944
538.05	78.0688
540.943	102.726
543.836	50.1096
546.729	112.109
549.621	166.843
552.514	190.8
555.407	179.13
558.299	217.754
561.192	204.688
564.085	229.254
566.977	228.375
569.87	157.762
572.763	169.012
575.655	115.241
578.548	134.549
581.441	138.194
584.333	115.156
587.226	125.802
590.119	144.647
593.012	198.078
595.904	251.82
598.797	314.643
601.69	341.146
604.582	401.612
607.475	494.679
610.368	592.469
613.26	635.863
616.153	658.9
619.046	650.08
621.939	672.456
624.831	703.953
627.724	681.238
630.617	676.722
633.509	681.651
636.402	643.568
639.295	582.803
642.188	496.704
645.08	477.206
647.973	350.496
650.866	230.464
653.758	89.8123
656.651	66.968
659.544	45.1028
662.436	4.83398
665.329	71.6501
668.222	28.1831
671.115	17.0337
674.007	44.9243
676.9	158.778
679.793	290.19
682.685	588.144
685.578	908.416
688.471	1433.06
691.363	2083.19
694.256	2838.96
697.149	3560.67
700.042	4016.82
702.934	3695.18
705.827	2826.55
708.72	1920.03
711.612	1141.2
714.505	683.115
717.398	456.925
720.29	199.742
723.183	117.494
726.076	63.3042
728.968	25.051
731.861	126.382
734.754	236.37
737.647	394.444
740.539	566.474
743.432	723.116
746.325	897.461
749.217	950.342
752.11	917.378
755.003	838.313
757.895	763.352
760.788	609.098
763.681	456.524
766.574	334.981
769.466	205.397
772.359	139.971
775.252	73.0083
778.144	66.8386
781.037	68.925
783.93	96.9534
786.822	105.902
789.715	72.3262
792.608	128.708
795.501	139.497
798.393	99.6587
801.286	73.7556
804.179	27.47
807.071	22.4783
809.964	51.9204
812.857	50.6909
815.75	11.5422
818.642	1.98486
821.535	41.5891
824.428	23.9075
827.32	29.2634
830.213	33.3293
833.106	27.0669
835.998	16.9402
838.891	9.69238
841.784	77.4148
844.677	127.979
847.569	114.44
850.462	100.83
853.355	109.711
856.247	93.3415
859.14	126.854
862.033	169.584
864.925	198.541
867.818	208.869
870.711	217.891
873.604	255.888
876.496	308.676
879.389	293.666
882.282	319.589
885.174	322.508
888.067	378.905
890.96	471.323
893.852	497.164
896.745	606.295
899.638	644.092
902.53	680.679
905.423	739.518
908.316	735.742
911.209	739.054
914.101	654.699
916.994	555.607
919.887	442.571
922.779	298.762
925.672	228
928.565	132.657
931.457	103.122
934.35	51.831
937.243	55.0923
940.136	47.865
943.028	179.48
945.921	156.946
948.814	162.347
951.706	223.603
954.599	281.344
957.492	277.198
960.385	260.817
963.277	145.493
966.17	92.0315
969.063	80.0222
971.955	55.4424
974.848	7.95532
977.741	24.7263
980.633	13.2422
983.526	13.135
986.419	20.0608
989.312	0.89502
992.204	26.3264
995.097	24.6243
997.99	19.7434
1000.88	24.5317
1003.77	63.3716
1006.67	94.9868
1009.56	108.394
1012.45	127.18
1015.35	102.687
1018.24	159.556
1021.13	124.627
1024.02	97.1213
1026.92	86.8542
1029.81	76.2822
1032.7	32.0945
1035.6	22.2788
1038.49	5.28003
1041.38	28.8123
1044.27	12.1743
1047.17	7.28076
1050.06	94.4827
1052.95	115.984
1055.84	182.248
1058.74	172.825
1061.63	189.628
1064.52	248.065
1067.41	287.127
1070.31	291.078
1073.2	325.273
1076.09	331.968
1078.98	337.365
1081.88	381.159
1084.77	359.208
1087.66	351.573
1090.56	367.084
1093.45	368.21
1096.34	349.5
1099.23	382.732
1102.13	386.737
1105.02	458.239
1107.91	485.231
1110.81	463.993
1113.7	500.287
1116.59	475.888
1119.48	425.169
1122.38	378.13
1125.27	378.156
1128.16	288.794
1131.05	207.404
1133.95	164.547
1136.84	159.523
1139.73	177.085
1142.62	128.97
1145.52	90.27
1148.41	146.022
1151.3	107.674
1154.19	86.2244
1157.09	40.5024
1159.98	12.8501
1162.87	14.9375
1165.77	3.7334
1168.66	10.78
1171.55	27.3325
1174.44	5.29053
1177.34	4.44507
1180.23	17.4856
1183.12	39.2322
1186.02	96.9534
1188.91	78.8518
1191.8	62.5061
1194.69	93.0801
1197.59	86.5532
1200.48	38.6724
1203.37	78.1746
1206.26	23.9102
1209.16	33.4941
1212.05	78.6702
1214.94	11.291
1217.84	12.4221
1220.73	73.4949
1223.62	38.8491
1226.51	5.19531
