Measurement: Raman, 785 nm, unoriented, Raman Data Processed
Mineral: Muscovite
Rruff sample: R050080
Ideal chemistry: KAl_2_(Si_3_Al)O_10_(OH)_2_
Locality: Brazil
Source: Rock Currier
Description: Tan colored micaceous crystals of 2M1 polytype
Measured chemistry: (K_0.93_Na_0.07_)(Al_0.99_Fe^3+^_0.01_)_2_(Si_3.00_Al_1.00_)O_10_((OH)_0.97_F_0.03_)_2_
Raman shift (cm-1)	intensity
129.215	0
132.108	506.648
135.001	965.187
137.893	274.195
140.786	22.6211
143.679	98.9692
146.572	670.255
149.464	1058.56
152.357	1129.97
155.25	732.404
158.142	350.577
161.035	296.545
163.928	294.656
166.821	351.562
169.713	396.423
172.606	440.205
175.499	397.492
178.391	387.279
181.284	397.197
184.177	412.321
187.069	411.147
189.962	390.772
192.855	466.005
195.748	557.336
198.64	627.662
201.533	596.752
204.426	496.124
207.318	448.8
210.211	487.141
213.104	544.681
215.996	502.609
218.889	373.45
221.782	131.411
224.674	73.0112
227.567	12.729
230.46	32.3684
233.353	10.6262
236.245	0.265381
239.138	62.2278
242.031	190.11
244.923	349.981
247.816	608.851
250.709	945.922
253.601	1360.78
256.494	2020.5
259.387	2745.49
262.28	3241.7
265.172	3014.53
268.065	2183.35
270.958	1385.35
273.85	888.668
276.743	572.204
279.636	370.632
282.529	273.403
285.421	163.625
288.314	101.072
291.207	82.8975
294.099	7.14893
296.992	33.0466
299.885	34.5559
302.777	67.7625
305.67	20.4656
308.563	37.2969
311.455	33.5173
314.348	14.1758
317.241	30.5088
320.134	0.77002
323.026	7.60669
325.919	8.26245
328.812	27.2837
331.704	10.051
334.597	16.1306
337.49	12.7263
340.382	10.6694
343.275	6.07227
346.168	5.87598
349.061	50.1775
351.953	45.875
354.846	80.925
357.739	89.0588
360.631	115.835
363.524	175.566
366.417	229.25
369.31	299.901
372.202	421.164
375.095	510.039
377.988	531.75
380.88	591.146
383.773	630.095
386.666	635.688
389.558	732.784
392.451	785.802
395.344	831.336
398.236	889.766
401.129	942.703
404.022	947.184
406.915	903.186
409.807	811.322
412.7	668.075
415.593	547.773
418.485	498.863
421.378	400.202
424.271	322.904
427.163	291.069
430.056	234.559
432.949	165.355
435.842	149.088
438.734	77.7065
441.627	80.7085
444.52	51.2009
447.412	12.8612
450.305	16.6038
453.198	17.475
456.091	9.55408
458.983	13.4889
461.876	10.2981
464.769	20.1243
467.661	20.3771
470.554	42.894
473.447	61.9657
476.339	28.2379
479.232	28.9343
482.125	23.614
485.017	50.3655
487.91	17.9838
490.803	32.5343
493.696	63.8325
496.588	20.3937
499.481	38.1641
502.374	26.7266
505.266	30.6155
508.159	4.83325
511.052	4.25964
513.944	5.25366
516.837	18.9311
519.73	7.67322
522.623	23.9226
525.515	7.27368
528.408	21.4646
531.301	30.7689
534.193	21.262
537.086	44.4376
539.979	30.4078
542.871	28.3368
545.764	26.6172
548.657	6.23999
551.55	26.3324
554.442	23.4379
557.335	28.6903
560.228	32.2944
563.12	37.7983
566.013	16.525
568.906	53.115
571.798	15.9576
574.691	4.72058
577.584	28.8477
580.477	30.7061
583.369	21.705
586.262	11.2173
589.155	16.7693
592.047	4.60877
594.94	9.90515
597.833	22.2051
600.726	12.3318
603.618	34.2032
606.511	35.635
609.404	56.3163
612.296	65.4286
615.189	123.606
618.082	152.474
620.974	188.095
623.867	236.107
626.76	269.419
629.653	321.453
632.545	300.952
635.438	286.297
638.331	284.701
641.223	189.986
644.116	138.568
647.009	123.437
649.901	69.9552
652.794	19.2465
655.687	28.291
658.58	2.63208
661.472	23.1499
664.365	14.2579
667.258	8.28406
670.15	31.3704
673.043	50.6067
675.936	63.1815
678.828	122.855
681.721	226.709
684.614	352.034
687.506	458.61
690.399	694.201
693.292	910.289
696.185	1144.15
699.077	1343.92
701.97	1394.64
704.863	1260.4
707.755	975.324
710.648	688.206
713.541	469.555
716.433	315.651
719.326	189.772
722.219	156.288
725.112	97.1659
728.004	73.5836
730.897	72.0518
733.79	106.925
736.682	133.843
739.575	192.047
742.468	239.255
745.361	323.964
748.253	330.994
751.146	378.607
754.039	372.685
756.931	300.081
759.824	193.87
762.717	201.576
765.609	139.152
768.502	151.569
771.395	64.562
774.288	17.1079
777.18	44.5405
780.073	17.1184
782.966	2.2887
785.858	0.557861
788.751	0.746338
791.644	29.8803
794.536	13.511
797.429	32.4513
800.322	16.053
803.215	50.2319
806.107	40.0114
809	2.83118
811.893	1.80933
814.785	32.3694
817.678	3.17273
820.571	23.8595
823.463	3.31213
826.356	32.9559
829.249	7.65723
832.141	1.82483
835.034	20.4408
837.927	39.7277
840.82	31.4544
843.712	19.4882
846.605	33.7081
849.498	12.1077
852.39	6.78857
855.283	32.6304
858.176	5.30054
861.068	20.3625
863.961	26.0605
866.854	18.7653
869.747	12.6691
872.639	1.02954
875.532	9.78174
878.425	4.69141
881.317	32.6471
884.21	55.7014
887.103	59.1935
889.995	63.5193
892.888	95.337
895.781	111.808
898.674	133.585
901.566	177.175
904.459	256.268
907.352	271.625
910.244	299.082
913.137	359.838
916.03	251.101
918.923	280.21
921.815	201.733
924.708	156.458
927.601	124.449
930.493	109.94
933.386	87.5891
936.279	109.841
939.171	88.8086
942.064	115.204
944.957	125.053
947.85	166.712
950.742	190.592
953.635	213.002
956.528	200.316
959.42	181.221
962.313	135.2
965.206	107.35
968.098	86.429
970.991	24.3077
973.884	11.2748
976.777	9.05981
979.669	27.9559
982.562	41.8794
985.455	14.6492
988.347	15.9795
991.24	12.2697
994.133	9.17212
997.025	22.0785
999.918	25.4781
1002.81	5.28162
1005.7	7.10425
1008.6	0.597534
1011.49	15.1285
1014.38	21.0437
1017.27	23.7817
1020.17	1.96875
1023.06	4.60034
1025.95	35.4065
1028.85	1.37
1031.74	24.4784
1034.63	26.9469
1037.52	3.76428
1040.42	12.6043
1043.31	4.06604
1046.2	33.6411
1049.09	12.0428
1051.99	52.6217
1054.88	58.1243
1057.77	34.4015
1060.66	41.8449
1063.56	35.5173
1066.45	17.6414
1069.34	21.36
1072.24	16.6055
1075.13	45.2096
1078.02	27.2078
1080.91	40.2438
1083.81	72.8931
1086.7	70.5127
1089.59	49.2173
1092.48	45.2145
1095.38	109.295
1098.27	112.034
1101.16	126.024
1104.06	144.648
1106.95	190.254
1109.84	172.273
1112.73	201.874
1115.63	222.36
1118.52	187.284
1121.41	171.452
1124.3	132.164
1127.2	108.98
1130.09	86.8625
1132.98	72.2958
1135.88	43.5429
1138.77	59.8594
1141.66	35.9584
1144.55	38.2273
1147.45	0.873657
1150.34	40.6775
1153.23	23.157
1156.12	24.7758
1159.02	13.3088
1161.91	0.890625
1164.8	20.3495
1167.69	34.6414
1170.59	8.20947
1173.48	36.4087
1176.37	13.1233
1179.27	21.8456
1182.16	17.9672
1185.05	43.7277
1187.94	36.8726
1190.84	45.9749
1193.73	22.9963
1196.62	22.9342
1199.51	1.20264
1202.41	12.7683
1205.3	40.8879
1208.19	28.0485
1211.09	19.9462
1213.98	8.38123
1216.87	27.2411
1219.76	17.2244
1222.66	9.44385
1225.55	0.252563
