Measurement: Raman, 532 nm, unoriented, Raman Data Processed
Mineral: Muscovite
Rruff sample: R050198
Ideal chemistry: KAl_2_(Si_3_Al)O_10_(OH)_2_
Locality: California, USA
Source: University of Arizona Mineral Museum
Description: Micaceous aggregate, polytype 2M1
Measured chemistry: (K_0.92_Na_0.08_)(Al_0.76_Mg_0.18_Fe^3+^_0.04_Fe^2+^_0.02_)_2_(Si_3.40_Al_0.60_)O_10_(OH)_2_
Raman shift (cm-1)	intensity
150.665	0
153.558	2.5835
156.451	7.63892
159.343	0.470581
162.236	3.46576
165.129	0.145142
168.021	3.14673
170.914	10.9494
173.807	13.6353
176.699	20.0006
179.592	23.2691
182.485	32.7462
185.377	42.9606
188.27	55.8505
191.163	54.1478
194.056	47.3509
196.948	35.5636
199.841	23.1005
202.734	18.9323
205.626	12.3999
208.519	5.78097
211.412	0.133789
214.304	1.84497
217.197	0.903198
220.09	0.0625
222.983	0.969177
225.875	0.651306
228.768	2.18512
231.661	4.56952
234.553	2.19537
237.446	8.22974
240.339	18.6602
243.232	23.0623
246.124	38.9663
249.017	55.3444
251.91	78.7974
254.802	109.344
257.695	144.049
260.588	193.685
263.48	244.943
266.373	284.139
269.266	261.097
272.159	196.615
275.051	122.561
277.944	78.6519
280.837	48.2193
283.729	32.5554
286.622	21.8493
289.515	13.1964
292.407	13.4337
295.3	14.8517
298.193	10.0657
301.086	9.69269
303.978	7.36731
306.871	8.61713
309.764	9.86426
312.656	8.47974
315.549	6.7096
318.442	5.49585
321.334	6.90064
324.227	5.04175
327.12	3.33289
330.012	4.47888
332.905	1.68091
335.798	0.46814
338.691	1.17798
341.583	2.27173
344.476	2.87109
347.369	3.47559
350.261	5.41479
353.154	4.41199
356.047	5.32678
358.94	6.60669
361.832	7.02832
364.725	6.91492
367.618	4.95154
370.51	5.35779
373.403	6.05338
376.296	7.13642
379.188	9.64477
382.081	10.821
384.974	12.344
387.866	15.9415
390.759	17.9095
393.652	21.2117
396.545	22.2119
399.437	25.631
402.33	29.7754
405.223	32.9731
408.115	41.0792
411.008	43.2707
413.901	48.837
416.793	53.4762
419.686	59.7471
422.579	58.0112
425.472	60.9528
428.364	62.8995
431.257	63.042
434.15	59.3126
437.042	55.4636
439.935	44.4843
442.828	30.0619
445.721	23.5131
448.613	11.8514
451.506	7.66968
454.399	6.6864
457.291	3.15417
460.184	0.651489
463.077	1.24463
465.969	1.33887
468.862	0.838867
471.755	0.189209
474.647	2.01965
477.54	1.92036
480.433	0.85144
483.326	0.55127
486.218	0.744629
489.111	1.5896
492.004	1.55322
494.896	4.00952
497.789	2.78259
500.682	2.61804
503.575	1.5459
506.467	0.50769
509.36	0.308716
512.253	1.08106
515.145	4.19665
518.038	6.24426
520.931	5.28003
523.823	9.9115
526.716	11.6262
529.609	14.0142
532.501	11.1992
535.394	16.83
538.287	16.8483
541.18	13.3254
544.072	10.529
546.965	8.83594
549.858	7.87512
552.75	7.60852
555.643	5.55371
558.536	7.12289
561.428	6.35755
564.321	4.11597
567.214	2.88879
570.107	1.84436
572.999	2.60998
575.892	1.26953
578.785	1.13171
581.677	2.99353
584.57	5.19617
587.463	4.02039
590.356	7.16077
593.248	6.02991
596.141	5.02564
599.034	9.44226
601.926	10.2422
604.819	10.3527
607.712	9.90771
610.604	10.6451
613.497	11.2373
616.39	3.61682
619.283	5.5802
622.175	9.23791
625.068	6.80249
627.961	6.01721
630.853	0.488403
633.746	3.45679
636.639	0.870605
639.531	0.192383
642.424	1.7218
645.317	1.35278
648.21	3.78015
651.102	3.87378
653.995	5.57678
656.888	6.33179
659.78	2.68091
662.673	4.40027
665.566	4.45288
668.458	3.70227
671.351	9.69141
674.244	8.00159
677.136	14.8745
680.029	23.4441
682.922	30.7007
685.815	44.9799
688.707	65.7855
691.6	94.4055
694.493	133.54
697.385	169.316
700.278	218.033
703.171	244.878
706.063	232.376
708.956	184.228
711.849	122.999
714.741	75.3394
717.634	45.3771
720.527	25.045
723.42	18.652
726.312	9.50391
729.205	2.06238
732.098	1.56921
734.99	0.063232
737.883	1.42065
740.776	4.99475
743.668	8.96631
746.561	9.56641
749.454	11.0161
752.347	10.968
755.239	9.17578
758.132	6.11353
761.025	4.17248
763.917	8.64075
766.81	5.78467
769.703	3.89319
772.596	6.26794
775.488	5.56909
778.381	2.35034
781.274	0.882568
784.166	1.00623
787.059	2.41296
789.952	0.14502
792.844	0.438232
795.737	3.07727
798.63	0.91272
801.523	2.67456
804.415	3.36975
807.308	3.41296
810.201	4.10095
813.093	1.70117
815.986	2.12842
818.879	3.77966
821.771	5.11902
824.664	11.0281
827.557	9.8468
830.449	8.67541
833.342	12.3838
836.235	14.5874
839.128	17.4475
842.02	16.2727
844.913	17.9742
847.806	13.179
850.698	12.9159
853.591	10.6173
856.484	7.58081
859.376	4.97095
862.269	4.53992
865.162	1.35998
868.055	0.791382
870.947	1.71411
873.84	0.440674
876.733	0.649292
879.625	3.57239
882.518	3.29651
885.411	7.46521
888.303	8.23889
891.196	7.39404
894.089	6.40613
896.982	9.61719
899.874	10.8469
902.767	12.0099
905.66	12.8297
908.552	9.62891
911.445	10.3549
914.338	9.72229
917.231	10.7788
920.123	9.11743
923.016	4.10815
925.909	4.42627
928.801	4.52332
931.694	7.93872
934.587	4.44092
937.479	2.20227
940.372	4.50378
943.265	8.69421
946.158	4.26917
949.05	7.30335
951.943	8.64514
954.836	7.99524
957.728	8.70325
960.621	7.7168
963.514	9.23401
966.406	7.71106
969.299	9.04602
972.192	13.2982
975.085	10.6158
977.977	13.6185
980.87	14.5493
983.763	11.9834
986.655	7.91577
989.548	9.32556
992.441	9.81628
995.333	8.48047
998.226	4.93481
1001.12	6.85034
1004.01	7.46631
1006.9	6.15271
1009.8	6.01904
1012.69	5.19434
1015.58	3.84021
1018.48	2.12048
1021.37	2.21082
1024.26	2.00854
1027.15	0.994263
1030.05	0.312866
1032.94	1.11523
1035.83	0.132935
1038.72	0.805298
1041.62	0.905396
1044.51	0.076416
1047.4	1.12219
1050.3	4.37366
1053.19	2.66028
1056.08	4.16968
1058.97	4.65271
1061.87	2.64783
1064.76	4.92835
1067.65	9.91516
1070.54	6.66272
1073.44	9.90625
1076.33	12.6126
1079.22	15.4287
1082.11	19.7841
1085.01	17.5386
1087.9	18.6416
1090.79	17.4435
1093.68	17.7987
1096.58	18.7433
1099.47	21.5647
1102.36	26.3163
1105.26	23.6956
1108.15	26.697
1111.04	25.8413
1113.93	28.2079
1116.83	27.9834
1119.72	25.2958
1122.61	23.7964
1125.51	23.9324
1128.4	19.8787
1131.29	20.4105
1134.18	11.2346
1137.08	15.2828
1139.97	10.9617
1142.86	9.01721
1145.75	6.92017
1148.65	8.15283
1151.54	4.47522
1154.43	3.89062
1157.33	4.1875
1160.22	5.98267
1163.11	6.05103
1166	5.41846
1168.89	1.86328
1171.79	0.405396
1174.68	2.50452
1177.57	3.45801
1180.47	1.63672
1183.36	0.345703
1186.25	1.5686
1189.14	2.31958
1192.04	0.290405
1194.93	0.158569
1197.82	2.5293
1200.71	2.83411
1203.61	3.60315
1206.5	2.04089
1209.39	0.451538
1212.29	2.68909
1215.18	1.36743
1218.07	4.04407
1220.96	4.06921
1223.86	8.73645
1226.75	3.03223
1229.64	4.40442
1232.54	1.8269
1235.43	4.52417
1238.32	0.045288
1241.21	0.778809
1244.11	9.54285
1247	5.14075
1249.89	5.33435
1252.78	2.97449
1255.68	5.82092
1258.57	5.43506
1261.46	7.63086
1264.35	8.69055
1267.25	5.40698
1270.14	1.46936
1273.03	5.04236
1275.92	1.31628
1278.82	4.62293
1281.71	3.07764
1284.6	4.35644
1287.5	2.38074
1290.39	4.27502
1293.28	3.83887
1296.17	4.15125
1299.07	2.00598
1301.96	5.50732
1304.85	3.00574
