Measurement: Raman, 514 nm, unoriented, Raman Data Processed
Mineral: Muscovite
Rruff sample: R050080
Ideal chemistry: KAl_2_(Si_3_Al)O_10_(OH)_2_
Locality: Brazil
Source: Rock Currier
Description: Tan colored micaceous crystals of 2M1 polytype
Measured chemistry: (K_0.93_Na_0.07_)(Al_0.99_Fe^3+^_0.01_)_2_(Si_3.00_Al_1.00_)O_10_((OH)_0.97_F_0.03_)_2_
Raman shift (cm-1)	intensity
104.516	0
107.3	170.572
110.082	320.314
112.864	420.609
115.644	880.12
118.424	691.002
121.203	266.183
123.981	199.314
126.758	60.7
129.534	34.661
132.309	8.968
135.083	4.505
137.857	98.34
140.63	10.19
143.401	1.902
146.172	92.564
148.942	11.27
151.711	37.328
154.48	210.311
157.247	3.652
160.013	37.629
162.779	175.591
165.544	119.142
168.308	270.814
171.07	331.721
173.833	729.902
176.594	856.101
179.354	833.566
182.114	738.276
184.872	882.214
187.63	820.346
190.387	703.514
193.143	980.734
195.898	1306.03
198.652	1406.42
201.405	1246.9
204.158	995.557
206.909	1233.32
209.66	1053.52
212.41	1307.13
215.159	1446.86
217.907	1174.4
220.654	642.408
223.4	528.6
226.146	183.85
228.891	74.158
231.634	22.414
234.377	7.953
237.119	12.531
239.86	226.045
242.601	192.666
245.34	496.305
248.079	690.301
250.816	1139.31
253.553	2108.31
256.289	3920.32
259.024	6151.43
261.758	8233.53
264.492	8152.75
267.224	6115.98
269.956	4418.32
272.687	2856.08
275.416	1654.21
278.146	1203.63
280.874	974.258
283.601	730.928
286.327	395.896
289.053	357.828
291.778	494.91
294.502	509.172
297.225	284.143
299.947	201.73
302.668	108.328
305.389	327.518
308.108	243.99
310.827	149.467
313.545	43.551
316.262	180.791
318.978	170.268
321.693	225.383
324.408	347.645
327.121	393.066
329.834	74.693
332.546	279.512
335.257	280.947
337.967	149.074
340.677	231.143
343.385	128.125
346.093	120.418
348.799	191.926
351.505	306.514
354.21	246.469
356.915	238.109
359.618	524.578
362.321	642.537
365.022	670.84
367.723	755
370.423	835.385
373.122	919.768
375.821	1456.32
378.518	1656.74
381.215	1361.46
383.91	1499.08
386.605	1722.05
389.299	1567.45
391.992	1790.14
394.685	1966.11
397.376	2457.25
400.067	2782.77
402.757	2496.57
405.446	2559.59
408.134	2403.99
410.821	2384.72
413.508	1688.39
416.193	1678.38
418.878	1354.68
421.562	1054.95
424.245	972.02
426.927	835.311
429.609	752.824
432.289	631.363
434.969	655.4
437.648	480.285
440.326	540.709
443.003	186.898
445.68	133.457
448.355	375.955
451.03	249.781
453.704	271.049
456.377	176.879
459.049	205.945
461.721	127.887
464.391	65.76
467.061	367.525
469.73	130.793
472.398	64.363
475.065	106.127
477.731	32.125
480.397	120.723
483.062	181.482
485.725	85.158
488.389	127.848
491.051	58.645
493.712	32.23
496.373	21.236
499.032	174.439
501.691	150.555
504.349	172.738
507.007	107.785
509.663	23.98
512.319	115.727
514.973	201.318
517.627	240.771
520.28	246.371
522.933	140.334
525.584	164.461
528.235	110.457
530.885	262.32
533.534	38.941
536.182	198.592
538.829	246.992
541.476	152.334
544.121	248.447
546.766	122.338
549.41	226.969
552.053	281.455
554.696	48.807
557.337	148.016
559.978	151.072
562.618	401.986
565.257	105.67
567.895	80.135
570.533	301.453
573.17	65.625
575.805	39.053
578.44	51.352
581.075	339.895
583.708	466.258
586.341	45.441
588.972	162.441
591.603	270.273
594.233	137.961
596.863	340.488
599.491	206.863
602.119	212.076
604.746	316.982
607.372	372.885
609.997	692.639
612.621	182.199
615.245	540.727
617.868	784.863
620.49	775.557
623.111	1231.15
625.731	1259.77
628.351	1406.61
630.97	1083.43
633.588	1157.23
636.205	1059.6
638.821	1101.92
641.437	1441.62
644.051	1249.86
646.665	1001.49
649.278	657.074
651.89	332.26
654.502	573.869
657.113	506.5
659.722	730.01
662.331	328.123
664.94	563.744
667.547	665.1
670.154	661.861
672.76	711.676
675.365	825.873
677.969	817.627
680.572	862.076
683.175	983.82
685.777	1251.06
688.378	1576.44
690.978	2138.8
693.577	2093.75
696.176	3000.59
698.774	3814.41
701.371	4373.31
703.967	4403.54
706.562	3912.6
709.157	2681.42
711.751	2078.82
714.344	1527.06
716.936	933.271
719.527	1191.98
722.118	860.434
724.708	833.867
727.297	895.277
729.885	816.162
732.472	619.133
735.059	501.01
737.645	748.848
740.23	950.119
742.814	959.5
745.397	1247.64
747.98	1021.2
750.562	1109.06
753.143	1065.2
755.723	1204.29
758.303	1319.92
760.881	920.381
763.459	1031.3
766.036	448.605
768.613	247.592
771.188	632.08
773.763	605.455
776.337	441.662
778.91	209.703
781.482	156.562
784.054	207.354
786.625	270.018
789.195	409.586
791.764	62.045
794.332	29.645
796.9	247.449
799.467	48.602
802.033	85.098
804.598	287.543
807.163	251.523
809.726	187.363
812.289	158.035
814.851	81.461
817.413	6.523
819.973	109.473
822.533	150.988
825.092	49.672
827.65	136.371
830.208	410.758
832.764	2.977
835.32	272.152
837.875	422.527
840.429	208.25
842.983	148.82
845.536	400.254
848.088	297.586
850.639	168.07
853.189	8.102
855.739	393.027
858.288	584.195
860.836	354.688
863.383	14.641
865.93	70.887
868.475	232.312
871.02	309.621
873.564	364.84
876.108	149.016
878.65	153.395
881.192	257.016
883.733	339.898
886.274	371.664
888.813	668.371
891.352	343.984
893.89	538.516
896.427	362.977
898.964	401.59
901.499	609.648
904.034	902.738
906.568	818.609
909.102	986.398
911.634	981.094
914.166	1043.6
916.697	1181.02
919.227	1302.36
921.757	1064.26
924.285	860.422
926.813	893.91
929.341	738.91
931.867	860.078
934.393	566.336
936.918	435.133
939.442	454.926
941.965	581.969
944.488	517.898
947.009	1150.85
949.53	1018.63
952.051	939.609
954.57	721.156
957.089	972.191
959.607	745.055
962.124	689.812
964.641	825.648
967.156	589.293
969.671	571.949
972.185	296.738
974.699	281.824
977.211	592.008
979.723	468.301
982.234	242.371
984.745	198.867
987.254	578.355
989.763	469.5
992.271	266.492
994.779	459.762
997.285	544.242
999.791	75.555
1002.3	77.801
1004.8	369.328
1007.3	489.637
1009.81	259.688
1012.31	562.582
1014.81	489.312
1017.31	560.887
1019.81	155.309
1022.31	655.57
1024.81	671.688
1027.31	556.73
1029.8	764.688
1032.3	113.562
1034.79	856.387
1037.29	394.223
1039.78	409.348
1042.27	526.113
1044.77	707.133
1047.26	418.375
1049.75	626.754
1052.24	512.973
1054.73	389.512
1057.22	659.25
1059.7	609.332
1062.19	347.93
1064.68	307.496
1067.16	61.008
1069.65	35.461
1072.13	362.875
1074.61	162.281
1077.1	5.445
1079.58	452.973
1082.06	241.371
1084.54	159.934
1087.02	155.68
1089.5	242.789
1091.97	67.344
1094.45	76.004
1096.93	6.438
1099.4	3.738
1101.88	1.168
1104.35	273.703
1106.83	178.113
1109.3	127.082
1111.77	223.832
1114.24	518.41
1116.71	299.473
1119.18	301.305
