Measurement: Raman, 780 nm, unoriented, Raman Data Processed
Mineral: Muscovite
Rruff sample: R050188
Ideal chemistry: KAl_2_(Si_3_Al)O_10_(OH)_2_
Locality: Sapinero, near Blue Mesa Reservoir, Gunnison County, Colorado, USA
Source: Dave Bunk Minerals
Description: Black pseudohexagonal crystal, polytype 2M1, associated with quartz
Measured chemistry: (K_0.91_Na_0.09_)(Al_0.86_Fe^3+^_0.06_Fe^2+^_0.04_Mg_0.03_Ti_0.01_)_2_(Si_0.78_Al_0.22_)_4_O_10_(OH)_2_
Raman shift (cm-1)	intensity
140.213	0
143.106	0.104996
145.999	0.935135
148.891	3.09456
151.784	4.35787
154.677	6.75191
157.569	8.26469
160.462	10.713
163.355	11.7858
166.248	10.7363
169.14	9.42787
172.033	7.86411
174.926	6.55772
177.818	6.37816
180.711	5.60704
183.604	7.6462
186.496	9.91137
189.389	11.6807
192.282	14.028
195.174	14.5392
198.067	14.3391
200.96	11.4954
203.853	11.0592
206.745	10.0248
209.638	10.5729
212.531	11.4403
215.423	11.3627
218.316	8.50627
221.209	3.85571
224.101	0.069901
226.994	1.98076
229.887	0.338623
232.78	2.46051
235.672	8.10765
238.565	20.8976
241.458	37.4707
244.35	56.2047
247.243	77.0851
250.136	101.268
253.029	129.495
255.921	159.545
258.814	182.354
261.707	183.096
264.599	150.906
267.492	106.943
270.385	71.2773
273.277	46.7725
276.17	29.7533
279.063	19.9719
281.955	12.4535
284.848	8.1745
287.741	5.79978
290.634	3.14576
293.526	1.53995
296.419	2.17341
299.312	0.515915
302.204	0.957253
305.097	1.24268
307.99	0.942093
310.882	0.706284
313.775	0.573086
316.668	0.979103
319.561	0.774166
322.453	0.432182
325.346	0.264847
328.239	0.66613
331.131	0.511158
334.024	0.986984
336.917	0.540257
339.809	0.043404
342.702	0.773678
345.595	2.17196
348.488	2.87317
351.38	5.45898
354.273	7.35654
357.166	9.68609
360.058	12.7882
362.951	14.5553
365.844	17.2166
368.736	19.9528
371.629	22.7053
374.522	25.5902
377.415	27.6415
380.307	29.731
383.2	31.5304
386.093	34.734
388.985	37.5985
391.878	41.3353
394.771	45.9967
397.663	50.0863
400.556	55.9771
403.449	59.0534
406.342	60.8933
409.234	59.803
412.127	56.6427
415.02	51.4601
417.912	45.2842
420.805	38.2734
423.698	32.4619
426.59	26.2829
429.483	22.4095
432.376	18.0368
435.269	14.4645
438.161	11.0878
441.054	8.45291
443.947	6.20657
446.839	4.09999
449.732	3.78061
452.625	2.78912
455.517	2.76371
458.41	2.55027
461.303	2.90092
464.195	3.36566
467.088	3.18608
469.981	2.68361
472.874	2.66443
475.766	2.14995
478.659	2.17723
481.552	1.48946
484.444	0.870667
487.337	0.606487
490.23	0.391697
493.123	0.212971
496.015	0.304893
498.908	0.620186
501.801	0.167698
504.693	0.158215
507.586	0.573635
510.479	0.762199
513.371	0.358177
516.264	0.545181
519.157	0.438152
522.049	0.720135
524.942	1.14218
527.835	2.28097
530.728	2.24376
533.62	3.19418
536.513	3.3619
539.406	3.68961
542.298	3.95398
545.191	4.15093
548.084	4.13952
550.976	4.28881
553.869	5.03555
556.762	4.26731
559.655	3.91887
562.547	3.85731
565.44	3.3099
568.333	2.94322
571.225	2.07819
574.118	1.26983
577.011	1.00975
579.904	0.238541
582.796	0.175823
585.689	0.197491
588.582	0.781227
591.474	0.561565
594.367	0.890553
597.26	0.995304
600.152	1.83878
603.045	2.27447
605.938	3.08572
608.83	3.97378
611.723	3.96676
614.616	4.65095
617.509	5.85255
620.401	6.57778
623.294	7.12742
626.187	7.69762
629.079	8.05214
631.972	7.88128
634.865	7.3794
637.757	6.70533
640.65	5.38174
643.543	3.5078
646.436	2.48083
649.328	1.63987
652.221	0.831726
655.114	0.216927
658.006	0.52813
660.899	0.233463
663.792	0.065937
666.684	0.240261
669.577	1.58926
672.47	3.43663
675.362	6.56422
678.255	11.7342
681.148	17.7555
684.041	28.0048
686.933	38.778
689.826	52.2315
692.719	66.2631
695.611	79.0864
698.504	88.5177
701.397	86.8268
704.29	73.394
707.182	55.7409
710.075	37.94
712.968	24.222
715.86	15.8804
718.753	10.4944
721.646	7.67831
724.538	6.11096
727.431	5.39126
730.324	6.41748
733.216	7.36224
736.109	9.31243
739.002	9.96628
741.895	11.8997
744.787	12.9898
747.68	13.8666
750.573	12.7753
753.465	11.3492
756.358	9.37815
759.251	6.85559
762.144	7.10777
765.036	3.53142
767.929	2.09808
770.822	0.793106
773.714	0.549122
776.607	0.157536
779.5	0.253979
782.392	0.156059
785.285	0.333672
788.178	0.460178
791.071	0.106606
793.963	0.438297
796.856	0.524517
799.749	0.32584
802.641	0.38295
805.534	0.633137
808.427	1.54596
811.319	2.0895
814.212	1.33474
817.105	1.04744
819.997	1.75095
822.89	1.47312
825.783	1.35593
828.676	1.46862
831.568	1.10755
834.461	1.17276
837.354	0.787884
840.246	0.859215
843.139	0.260635
846.032	0.338768
848.924	0.076599
851.817	0.283676
854.71	0.02747
857.603	0.220726
860.495	0.345627
863.388	0.22821
866.281	1.0306
869.173	1.35422
872.066	1.05617
874.959	1.30737
877.851	1.54619
880.744	1.84555
883.637	1.81983
886.529	2.86684
889.422	3.59109
892.315	4.98412
895.208	6.64096
898.1	8.38383
900.993	9.70639
903.886	10.5776
906.778	11.7289
909.671	11.3578
912.564	10.8594
915.457	9.09809
918.349	7.55334
921.242	6.04615
924.135	4.65254
927.027	3.48757
929.92	2.88305
932.813	2.59356
935.705	2.82452
938.598	2.50206
941.491	3.15927
944.384	3.80977
947.276	4.43542
950.169	4.9548
953.062	5.06125
955.954	4.53823
958.847	3.7046
961.74	3.24056
964.632	2.35623
967.525	1.55418
970.418	0.383461
973.311	0.459469
976.203	0.170029
979.096	0.310791
981.989	0.010216
984.881	0.122974
987.774	0.130398
990.667	0.350861
993.559	0.162209
996.452	0.110706
999.345	0.151356
1002.24	0.328686
1005.13	0.286667
1008.02	0.279949
1010.92	0.765896
1013.81	0.42939
1016.7	0.737446
1019.59	0.834
1022.49	0.869736
1025.38	0.804586
1028.27	0.162622
1031.16	0.038605
1034.06	0.337463
1036.95	0.288462
1039.84	0.199881
1042.73	0.055426
1045.63	0.61689
1048.52	0.961605
1051.41	1.99599
1054.31	3.12596
1057.2	3.76088
1060.09	4.30977
1062.98	5.19704
1065.88	5.88748
1068.77	5.33389
1071.66	5.58475
1074.56	5.58472
1077.45	6.21325
1080.34	6.18954
1083.23	6.99681
1086.13	7.25458
1089.02	7.8095
1091.91	8.31736
1094.8	8.13041
1097.7	8.75857
1100.59	9.65902
1103.48	9.66375
1106.38	10.5292
1109.27	10.7175
1112.16	11.3285
1115.05	10.6738
1117.94	9.57395
1120.84	8.71983
1123.73	6.71891
1126.62	5.79824
1129.52	4.33449
1132.41	3.34848
1135.3	1.62226
1138.19	0.845556
1141.09	0.740641
1143.98	0.210342
1146.87	0.183933
1149.77	1.19698
1152.66	0.752542
1155.55	1.83967
1158.44	1.99926
1161.34	2.39464
1164.23	3.96757
1167.12	3.71075
1170.01	3.67051
1172.91	2.98507
1175.8	2.91923
1178.69	2.31369
1181.59	1.43175
1184.48	1.59583
1187.37	1.17189
1190.26	0.78196
1193.16	0.619314
1196.05	0.485617
1198.94	0.206551
1201.83	0.700939
1204.73	0.433799
1207.62	0.886265
1210.51	0.383548
1213.4	0.386603
1216.3	1.76021
1219.19	3.12315
1222.08	4.22973
1224.97	5.35792
1227.87	5.6381
1230.76	7.02095
1233.65	7.96279
1236.55	9.12153
1239.44	9.94668
1242.33	11.0186
1245.22	10.2466
1248.12	11.4011
1251.01	10.573
1253.9	10.3118
1256.8	10.908
1259.69	10.4434
1262.58	10.4464
1265.47	8.85087
1268.37	6.11485
1271.26	2.00485
1274.15	2.89757
1277.04	0.248718
1279.94	1.55397
1282.83	2.45657
1285.72	0.262518
