Measurement: Raman, 780 nm, unoriented, Raman Data Processed
Mineral: Muscovite
Rruff sample: R100147
Ideal chemistry: KAl_2_(Si_3_Al)O_10_(OH)_2_
Locality: Blue Mountain Quarry, Methuen Township, Petersborough County, Ontario, Canada
Source: Mineralogical Museum, Harvard University
Description: Book of brown mica
Raman shift (cm-1)	intensity
145.567	0
148.459	1.91787
151.352	0.415726
154.245	1.14737
157.137	2.52947
160.03	6.67036
162.923	12.1651
165.816	20.6144
168.708	31.9471
171.601	42.0655
174.494	49.2396
177.386	51.627
180.279	48.5165
183.172	44.0368
186.065	45.6966
188.957	54.3638
191.85	70.2913
194.743	88.5524
197.635	87.3744
200.528	79.3838
203.421	66.2386
206.313	59.4661
209.206	60.1183
212.099	68.1755
214.992	74.4241
217.884	60.6281
220.777	35.1242
223.67	15.2903
226.562	3.84503
229.455	2.41019
232.348	2.10715
235.24	1.68723
238.133	6.26511
241.026	18.3251
243.918	34.9084
246.811	55.2551
249.704	83.0641
252.597	134.039
255.489	215.116
258.382	331.371
261.275	412.831
264.167	377.106
267.06	276.989
269.953	179.471
272.846	112.774
275.738	73.4129
278.631	48.5039
281.524	31.9351
284.416	23.524
287.309	15.8275
290.202	11.5122
293.094	7.13273
295.987	6.68744
298.88	5.82836
301.772	6.83809
304.665	6.01903
307.558	7.31778
310.45	8.64947
313.343	8.35212
316.236	8.3935
319.129	8.59389
322.021	6.29068
324.914	5.28913
327.807	4.90915
330.699	1.24348
333.592	0.053078
336.485	0.15062
339.377	0.713936
342.27	1.79903
345.163	3.01902
348.056	0.710281
350.948	1.83533
353.841	6.36437
356.734	9.59665
359.626	15.9245
362.519	21.3566
365.412	31.4044
368.305	37.9249
371.197	47.4962
374.09	56.7986
376.983	64.8328
379.875	69.4474
382.768	73.9348
385.661	79.309
388.553	89.0331
391.446	99.3037
394.339	112.079
397.231	126.92
400.124	144.019
403.017	155.631
405.909	163.586
408.802	157.767
411.695	144.91
414.588	122.674
417.48	102.642
420.373	84.908
423.266	67.4761
426.158	55.0693
429.051	44.3537
431.944	36.2692
434.837	29.0504
437.729	21.9663
440.622	15.6307
443.515	10.7013
446.407	6.52644
449.3	4.31681
452.193	1.62214
455.085	1.464
457.978	0.9487
460.871	1.27779
463.764	2.87894
466.656	4.41888
469.549	5.57378
472.442	5.0572
475.334	6.72238
478.227	5.99837
481.12	7.40666
484.012	7.02374
486.905	6.42174
489.798	5.02448
492.69	4.1255
495.583	3.15521
498.476	2.14044
501.369	1.11948
504.261	0.02243
507.154	0.802414
510.047	0.870419
512.939	0.794201
515.832	0.564011
518.725	0.602318
521.617	0.377682
524.51	0.004536
527.403	0.489941
530.296	2.33421
533.188	2.25207
536.081	2.84432
538.974	3.38332
541.866	3.2311
544.759	4.72293
547.652	4.8989
550.544	5.81772
553.437	6.93988
556.33	5.658
559.222	5.57626
562.115	6.11859
565.008	6.18662
567.901	4.57491
570.793	4.47052
573.686	4.14849
576.579	3.22012
579.471	0.631065
582.364	1.78335
585.257	0.630188
588.149	0.026104
591.042	0.380333
593.935	0.703339
596.828	1.92603
599.72	3.59946
602.613	4.2733
605.506	6.98238
608.398	10.0451
611.291	12.1289
614.184	13.5753
617.077	16.7188
619.969	22.3296
622.862	24.0158
625.755	28.1328
628.647	30.286
631.54	31.8879
634.433	30.5627
637.325	29.8575
640.218	25.6294
643.111	20.5139
646.004	14.5075
648.896	11.0836
651.789	5.04937
654.682	5.20852
657.574	0.788139
660.467	0.138016
663.36	0.617577
666.252	0.628822
669.145	0.462555
672.038	2.17403
674.931	7.29354
677.823	14.9593
680.716	23.2489
683.609	35.1976
686.501	51.7931
689.394	72.3462
692.287	101.409
695.179	134.66
698.072	168.015
700.965	186.922
703.857	171.136
706.75	134.162
709.643	90.9007
712.535	58.2282
715.428	35.794
718.321	22.2889
721.214	14.272
724.106	9.24198
726.999	5.85075
729.892	6.98428
732.784	9.47954
735.677	13.7385
738.57	20.249
741.462	28.1962
744.355	36.2098
747.248	38.9543
750.141	41.8922
753.033	38.8101
755.926	35.7502
758.819	30.5504
761.711	22.0947
764.604	16.7288
767.497	11.1566
770.389	6.75702
773.282	3.92423
776.175	0.879486
779.068	0.642231
781.96	1.16981
784.853	0.383003
787.746	1.2802
790.638	1.58068
793.531	1.06651
796.424	2.08028
799.317	5.40048
802.209	3.21092
805.102	2.74447
807.995	2.39462
810.887	2.27447
813.78	1.54569
816.673	0.745655
819.565	0.327148
822.458	0.841469
825.351	0.108963
828.244	0.071873
831.136	1.24039
834.029	0.385498
836.922	0.05817
839.814	0.733486
842.707	0.696823
845.6	1.1778
848.492	0.329357
851.385	1.76225
854.278	1.07702
857.17	2.43837
860.063	2.62433
862.956	3.56245
865.849	5.37326
868.741	4.60708
871.634	5.83969
874.527	7.09354
877.419	6.85804
880.312	9.76597
883.205	9.85828
886.097	10.6844
888.99	13.3935
891.883	15.3802
894.775	16.8774
897.668	21.228
900.561	24.0315
903.454	28.6309
906.346	32.4876
909.239	35.4179
912.132	35.4272
915.024	33.8872
917.917	29.7701
920.81	24.1087
923.702	17.6309
926.595	13.8557
929.488	9.59808
932.381	9.39828
935.273	7.50964
938.166	7.86619
941.059	9.04982
943.951	10.2978
946.844	13.3838
949.737	17.3604
952.63	18.4242
955.522	19.7436
958.415	19.0751
961.308	13.8813
964.2	9.72606
967.093	8.33215
969.986	4.66077
972.878	3.16795
975.771	1.10014
978.664	1.52328
981.557	0.298634
984.449	0.444248
987.342	0.430271
990.235	1.83062
993.127	0.258808
996.02	1.04508
998.913	0.457592
1001.8	0.289848
1004.7	0.969906
1007.59	0.537655
1010.48	3.8115
1013.38	3.42383
1016.27	3.17493
1019.16	3.6157
1022.05	4.03045
1024.95	2.49802
1027.84	2.59789
1030.73	0.789726
1033.62	0.231831
1036.52	0.121113
1039.41	0.769958
1042.3	0.299698
1045.2	1.10278
1048.09	3.16635
1050.98	3.12798
1053.87	5.47519
1056.77	6.22759
1059.66	6.2495
1062.55	6.6517
1065.44	7.35667
1068.34	7.64238
1071.23	8.91386
1074.12	9.35108
1077.02	9.59629
1079.91	8.08556
1082.8	8.76991
1085.69	10.1005
1088.59	10.4741
1091.48	12.4669
1094.37	13.3795
1097.26	16.3211
1100.16	18.5687
1103.05	21.6226
1105.94	22.3396
1108.84	24.6514
1111.73	25.9368
1114.62	25.1266
1117.51	22.8124
1120.41	21.1193
1123.3	18.4541
1126.19	15.5581
1129.08	13.8472
1131.98	10.0977
1134.87	7.50598
1137.76	5.41374
1140.65	3.61454
1143.55	1.08139
1146.44	0.158978
1149.33	0.491796
1152.23	0.479471
1155.12	1.07025
1158.01	0.110777
1160.9	0.187387
1163.8	0.255676
1166.69	0.982872
1169.58	1.01753
1172.47	0.270737
1175.37	1.05364
1178.26	0.00366
1181.15	0.399345
1184.05	1.7284
1186.94	2.30428
1189.83	2.6983
1192.72	2.51805
1195.62	2.4289
1198.51	2.35885
1201.4	0.607533
1204.29	1.49825
1207.19	2.12833
1210.08	1.82859
1212.97	2.49099
1215.87	1.90179
1218.76	2.64229
1221.65	2.26857
1224.54	0.134844
1227.44	1.13008
1230.33	1.47361
1233.22	0.015545
1236.11	1.5105
1239.01	1.32081
1241.9	0.948652
1244.79	2.18207
1247.68	1.22973
1250.58	0.762157
1253.47	1.86232
1256.36	1.02021
1259.26	0.871986
1262.15	0.004023
1265.04	1.88349
1267.93	0.16481
1270.83	0.506256
1273.72	0.76557
1276.61	0.225376
1279.5	1.42831
1282.4	0.422358
