Measurement: Raman, 514 nm, unoriented, Raman Data Processed
Mineral: Muscovite
Rruff sample: R040108
Ideal chemistry: KAl_2_(Si_3_Al)O_10_(OH)_2_
Locality: USSR
Source: University of Arizona Mineral Museum
Description: Dark green hexagonal tablet
Measured chemistry: (K_0.96_Na_0.04_)_Σ=1_(Al_1.48_Fe^3+^_0.20_Mg_0.16_Fe^2+^_0.14_Ti_0.02_)_Σ=2_(Si_3.28_Al_0.72_)_Σ=4_O_10_(OH)_2_; OH estimated by charge balance
Raman shift (cm-1)	intensity
93.375	0
97.554	241.88
101.732	342.317
105.908	461.635
110.082	434.466
114.254	567.847
118.424	589.277
122.592	547.413
126.758	386.292
130.922	422.898
135.083	513.208
139.243	574.622
143.401	321.523
147.557	284.678
151.711	106.642
155.863	63.854
160.013	55.996
164.161	14.708
168.308	33.075
172.452	130.374
176.594	362.19
180.734	804.417
184.872	1240.37
189.008	1903.21
193.143	2140
197.275	1836.73
201.405	1835.72
205.534	1590.81
209.66	1377.12
213.784	1149.48
217.907	1392.38
222.027	1401.17
226.146	1268.64
230.263	1173.15
234.377	1145.47
238.49	1301.56
242.601	1758.37
246.709	2895.91
250.816	5457.19
254.921	10116.2
259.024	17208.4
263.125	22340.5
267.224	19372.7
271.321	12073
275.416	7063.85
279.51	4013.06
283.601	2284.49
287.69	1258.08
291.778	737.527
295.863	749.798
299.947	147.083
304.029	24.395
308.108	3.689
312.186	21.09
316.262	34.96
320.336	91.306
324.408	8.56
328.478	7.891
332.546	104.857
336.612	16.897
340.677	153.347
344.739	344.971
348.799	602.335
352.858	952.061
356.915	1184.94
360.969	1544.3
365.022	1757.43
369.073	1945.17
373.122	2341.57
377.169	2624.24
381.215	2689.14
385.258	2960.84
389.299	3357.4
393.339	3660.82
397.376	4195.1
401.412	5051.24
405.446	5807.26
409.478	6688.14
413.508	7497.89
417.536	7981.53
421.562	7925.06
425.586	7112.52
429.609	6081.86
433.629	4476.08
437.648	3390.17
441.665	2398.12
445.68	1728.92
449.693	1404.59
453.704	1179.11
457.713	1114.5
461.721	1040.75
465.726	966.049
469.73	840.37
473.731	630.115
477.731	444.151
481.729	319.617
485.725	245.789
489.72	190.541
493.712	35.425
497.703	90.901
501.691	70.825
505.678	122.004
509.663	67.338
513.646	27.549
517.627	59.119
521.607	236.486
525.584	419.304
529.56	729.862
533.534	801.409
537.506	1059.95
541.476	1149.51
545.444	944.096
549.41	1019.71
553.375	918.349
557.337	840.029
561.298	782.754
565.257	776.528
569.214	561.357
573.17	706.246
577.123	807.2
581.075	802.226
585.024	1149.33
588.972	1292.51
592.918	1458.78
596.863	1776.13
600.805	2090.36
604.746	2248.15
608.685	2412.82
612.621	2445.61
616.557	2378.98
620.49	2262.55
624.421	2036.71
628.351	1597.07
632.279	1507.79
636.205	1486.94
640.129	1317.4
644.051	1388.21
647.972	1330.48
651.89	1268.33
655.807	1177.65
659.722	1080.25
663.636	1022.17
667.547	1076.03
671.457	1404.54
675.365	1635.6
679.271	1980.12
683.175	2790.22
687.077	4078.87
690.978	6466.11
694.877	9744.59
698.774	14756.3
702.669	16570.3
706.562	14061.6
710.454	9291.05
714.344	6264.8
718.232	3977.82
722.118	2852.11
726.002	2274.66
729.885	1777.49
733.766	1662.59
737.645	1706.98
741.522	1836.64
745.397	1895.59
749.271	1722.82
753.143	1747.34
757.013	1338.14
760.881	952.237
764.748	648.624
768.613	376.303
772.476	132.275
776.337	79.541
780.196	171.1
784.054	157.238
787.91	216.372
791.764	71.945
795.616	53.782
799.467	87.855
803.316	44.974
807.163	173.649
811.008	107.252
814.851	103.611
818.693	271.373
822.533	587.848
826.371	434.783
830.208	313.039
834.042	176.528
837.875	168.247
841.706	343.194
845.536	466.366
849.363	520.76
853.189	476.371
857.013	404.204
860.836	248.282
864.656	118.648
868.475	143.281
872.292	85.183
876.108	254.375
879.922	277.872
883.733	498.661
887.544	455.816
891.352	765.242
895.159	1026.93
898.964	1228.84
902.767	1452.96
906.568	1448.3
910.368	1373.85
914.166	1163.65
917.962	1008.67
921.757	685.881
925.55	434.245
929.341	161.762
933.13	30.416
936.918	56.911
940.703	38.344
944.488	43.103
948.27	30.376
952.051	168.156
955.83	235.009
959.607	290.195
963.383	143.534
967.156	113.222
970.928	148.754
974.699	252.34
978.468	483.417
982.234	241.639
986	66.342
989.763	123.065
993.525	205.81
997.285	267.553
1001.04	221.291
1004.8	331.561
1008.55	367.094
1012.31	415.045
1016.06	453.157
1019.81	481.738
1023.56	550.497
1027.31	475.688
1031.05	438.361
1034.79	445.73
1038.53	488.169
1042.27	474.786
1046.01	442.054
1049.75	527.147
1053.48	716.992
1057.22	742.289
1060.95	1031.55
1064.68	1214.09
1068.4	1342.76
1072.13	1515.38
1075.86	1801.47
1079.58	1877.23
1083.3	1930.69
1087.02	1853.32
1090.74	1811.86
1094.45	1701.34
1098.17	1588.33
1101.88	1656.71
1105.59	1579.39
1109.3	1795.8
1113.01	1674.13
1116.71	1775.46
1120.42	1844.29
1124.12	1815.75
1127.82	1526.35
1131.52	1312.69
1135.22	989.953
1138.91	828.61
1142.61	535.865
1146.3	363.987
1149.99	261.328
1153.68	114.36
1157.37	137.055
1161.06	38.646
1164.74	6.845
1168.42	17.485
1172.1	13.588
1175.78	5.007
1179.46	92.649
1183.14	69.325
1186.81	13.42
1190.48	29.131
1194.15	69.424
1197.83	21.269
1201.49	19.789
1205.16	15.894
1208.82	9.258
1212.49	85.823
1216.15	69.683
1219.81	77.867
1223.46	10.662
1227.12	106.011
1230.78	43.252
1234.43	97.752
1238.08	85.346
1241.73	45.463
1245.38	50.837
1249.03	157.341
1252.67	116.85
1256.31	155.66
1259.95	160.136
1263.6	71.199
1267.23	168.785
1270.87	214.943
1274.51	178.743
1278.14	117.182
1281.77	139.256
1285.4	237.966
1289.03	163.295
1292.66	341.214
1296.28	285.756
1299.91	385.189
1303.53	366.322
1307.15	415.907
1310.77	332.194
1314.38	303.398
1318	227.964
1321.61	221.02
1325.23	277.106
1328.84	129.243
1332.45	16.135
1336.06	65.308
1339.66	154.363
1343.27	138.063
1346.87	206.29
1350.47	244.983
1354.07	137.587
1357.67	99.306
1361.26	153.178
1364.86	128.32
1368.45	119.264
1372.04	74.394
1375.63	78.53
1379.22	44.565
1382.81	149.563
1386.39	101.066
1389.98	172.576
1393.56	62.842
1397.14	127.774
1400.72	150.413
1404.3	59.5
1407.87	201.478
1411.45	161.089
1415.02	139.417
1418.59	258.434
1422.16	238.318
1425.73	300.518
1429.29	376
1432.86	410.241
1436.42	599.611
1439.98	670.666
1443.54	836.657
1447.1	697.62
1450.66	672.246
1454.21	605.751
1457.77	540.118
1461.32	551.578
1464.87	420.431
1468.42	460.783
1471.96	326.606
1475.51	344.37
1479.06	256.198
1482.6	198.635
1486.14	124.415
1489.68	246.303
1493.22	13.668
1496.75	43.645
1500.29	79.226
1503.82	22.462
1507.35	9.737
1510.88	60.497
1514.41	132.421
1517.94	149.493
1521.46	5.916
1524.99	0.124
