Measurement: Raman, 514 nm, unoriented, Raman Data Processed
Mineral: Muscovite
Rruff sample: R040104
Ideal chemistry: KAl_2_(Si_3_Al)O_10_(OH)_2_
Locality: unknown
Source: University of Arizona Mineral Museum
Description: Dark green hexagonal tablet
Measured chemistry: (K_0.91_Na_0.09_)_Σ=1_(Al_1.70_Fe^3+^_0.14_Mg_0.08_Fe^2+^_0.06_Ti_0.02_)_Σ=2_(Si_3.12_Al_0.88_)_Σ=4_O_10_(OH)_2_; OH estimated by charge balance
Raman shift (cm-1)	intensity
114.254	0
118.424	409.689
122.592	403.558
126.758	31.6937
130.922	75.4251
135.083	47.0243
139.243	113.271
143.401	360.057
147.557	734.475
151.711	784.246
155.863	1184.93
160.013	1466.19
164.161	2067.98
168.308	2205.29
172.452	1807.75
176.594	1674.98
180.734	1627.46
184.872	2053.64
189.008	2907.91
193.143	3727.92
197.275	3747.02
201.405	3314.24
205.534	2748.66
209.66	2438.69
213.784	2353.83
217.907	2560.48
222.027	1532.9
226.146	526.446
230.263	53.9663
234.377	34.042
238.49	69.8288
242.601	621.834
246.709	1648.83
250.816	4212
254.921	9382.8
259.024	17283.7
263.125	20242.2
267.224	14914.5
271.321	8888.72
275.416	4829.12
279.51	2668.65
283.601	1475.85
287.69	817.533
291.778	429.379
295.863	237.593
299.947	205.779
304.029	232.743
308.108	265.202
312.186	332.984
316.262	441.721
320.336	384.392
324.408	308.957
328.478	185.075
332.546	28.2284
336.612	47.3224
340.677	57.4025
344.739	66.3389
348.799	28.0399
352.858	279.87
356.915	716.871
360.969	1101.51
365.022	1631.82
369.073	2243.8
373.122	2919.55
377.169	3430.82
381.215	3702.45
385.258	4202.67
389.299	4906.63
393.339	5575.9
397.376	6869.09
401.412	8484.63
405.446	10029.8
409.478	10830
413.508	10609.1
417.536	9301.93
421.562	7322.27
425.586	5755.67
429.609	4582.5
433.629	3551.01
437.648	2748.24
441.665	2211.21
445.68	1709.86
449.693	1323.26
453.704	968.504
457.713	817.574
461.721	710.971
465.726	725.936
469.73	771.88
473.731	733.968
477.731	650.846
481.729	560.511
485.725	468.966
489.72	385.973
493.712	128.403
497.703	99.7694
501.691	32.561
505.678	97.0499
509.663	44.5428
513.646	20.3638
517.627	13.947
521.607	66.3271
525.584	133.989
529.56	121.832
533.534	18.4957
537.506	126.825
541.476	199.393
545.444	139.221
549.41	207.299
553.375	308.485
557.337	365.903
561.298	454.569
565.257	543.232
569.214	568.814
573.17	648.319
577.123	671.211
581.075	688.11
585.024	833.405
588.972	855.644
592.918	1152.83
596.863	1355.97
600.805	1600.26
604.746	1878.12
608.685	2195.14
612.621	2482.13
616.557	2809.1
620.49	3119.05
624.421	3207.98
628.351	3181.89
632.279	3300.78
636.205	3217.65
640.129	2975.51
644.051	2762.37
647.972	2419.22
651.89	2082.62
655.807	1754.42
659.722	1529.36
663.636	1290.85
667.547	1192.31
671.457	1375.55
675.365	1576.78
679.271	1878.92
683.175	2588.83
687.077	3825.86
690.978	5847.53
694.877	8763.85
698.774	12749
702.669	14134.8
706.562	11672.2
710.454	7710.43
714.344	5145.52
718.232	3399.55
722.118	2610.63
726.002	2029.78
729.885	1883.99
733.766	2090.27
737.645	2523.63
741.522	3039.07
745.397	3588.58
749.271	3788.18
753.143	3935.87
757.013	3582.65
760.881	2976.52
764.748	2379.49
768.613	1758.55
772.476	1246.72
776.337	851.987
780.196	740.361
784.054	634.839
787.91	627.116
791.764	649.12
795.616	663.924
799.467	582.841
803.316	484.871
807.163	269.016
811.008	277.289
814.851	80.7156
818.693	0.535782
822.533	17.8948
826.371	98.1541
830.208	89.8408
834.042	4.51512
837.875	31.842
841.706	21.6948
845.536	22.5719
849.363	18.2493
853.189	111.54
857.013	136.972
860.836	51.6987
864.656	5.00249
868.475	184.894
872.292	275.018
876.108	429.416
879.922	628.36
883.733	792.772
887.544	991.065
891.352	1304.37
895.159	1626.87
898.964	2017.55
902.767	2398.47
906.568	2748.57
910.368	2914.83
914.166	3053.23
917.962	2780.66
921.757	2211.58
925.55	1749.49
929.341	1353.53
933.13	1133.67
936.918	994.903
940.703	1023.23
944.488	1159.68
948.27	1444.26
952.051	1629.91
955.83	1705.65
959.607	1732.49
963.383	1547.43
967.156	1289.44
970.928	1126.29
974.699	1008.43
978.468	950.286
982.234	955.592
986	865.217
989.763	794.787
993.525	747.639
997.285	725.373
1001.04	720.905
1004.8	849.945
1008.55	826.38
1012.31	806.435
1016.06	932.275
1019.81	977.739
1023.56	995.059
1027.31	915.667
1031.05	840.543
1034.79	625.6
1038.53	535.552
1042.27	586.409
1046.01	712.439
1049.75	762.309
1053.48	1078.75
1057.22	1189.64
1060.95	1377.48
1064.68	1542.02
1068.4	1632.15
1072.13	1699.4
1075.86	1826.49
1079.58	1723.38
1083.3	1821.65
1087.02	1781.46
1090.74	1643.72
1094.45	1683.47
1098.17	1690.04
1101.88	1831.02
1105.59	2080.43
1109.3	2159.27
1113.01	2311.8
1116.71	2243.13
1120.42	2139.97
1124.12	1969.02
1127.82	1545.84
1131.52	1364.72
1135.22	1024.15
1138.91	627.145
1142.61	433.697
1146.3	181.106
1149.99	94.9543
1153.68	51.8144
1157.37	20.8566
1161.06	41.0221
1164.74	52.9569
1168.42	7.05386
1172.1	24.298
1175.78	4.05203
1179.46	4.06786
1183.14	7.30141
1186.81	14.4125
1190.48	11.6408
1194.15	6.81482
1197.83	13.8315
1201.49	4.45567
1205.16	39.0184
1208.82	0.726486
1212.49	20.1387
1216.15	15.3193
1219.81	13.2088
1223.46	27.3601
1227.12	33.6287
1230.78	13.6816
1234.43	37.4976
1238.08	0.696425
1241.73	85.7584
1245.38	99.6183
1249.03	23.0084
1252.67	83.1372
1256.31	49.7578
1259.95	122.756
1263.6	72.7617
1267.23	23.583
1270.87	124.052
1274.51	107.87
1278.14	89.0901
1281.77	26.9887
1285.4	53.2017
1289.03	86.3953
1292.66	131.613
1296.28	67.385
1299.91	193.608
1303.53	100.369
1307.15	171.074
1310.77	157.403
1314.38	146.032
1318	82.8025
1321.61	91.5893
1325.23	99.8544
1328.84	88.9415
1332.45	170.715
1336.06	55.0186
1339.66	27.4092
1343.27	50.6942
1346.87	101.162
1350.47	32.6304
1354.07	46.0651
1357.67	53.4213
1361.26	55.6088
1364.86	89.4847
1368.45	97.0962
1372.04	51.3618
1375.63	38.8207
1379.22	99.2172
1382.81	78.1289
1386.39	79.7316
1389.98	10.8576
1393.56	0.938162
1397.14	39.1043
1400.72	67.546
1404.3	22.6432
1407.87	32.7145
1411.45	6.81217
1415.02	0.637982
1418.59	39.6993
1422.16	52.2942
1425.73	12.142
1429.29	60.2161
1432.86	33.4442
1436.42	121.883
1439.98	189.028
1443.54	170.499
1447.1	76.7267
1450.66	38.7527
1454.21	46.6503
1457.77	16.3619
1461.32	14.3494
