Measurement: Raman, 532 nm, unoriented, Raman Data Processed
Mineral: Muscovite
Rruff sample: R050188
Ideal chemistry: KAl_2_(Si_3_Al)O_10_(OH)_2_
Locality: Sapinero, near Blue Mesa Reservoir, Gunnison County, Colorado, USA
Source: Dave Bunk Minerals
Description: Black pseudohexagonal crystal, polytype 2M1, associated with quartz
Measured chemistry: (K_0.91_Na_0.09_)(Al_0.86_Fe^3+^_0.06_Fe^2+^_0.04_Mg_0.03_Ti_0.01_)_2_(Si_0.78_Al_0.22_)_4_O_10_(OH)_2_
Raman shift (cm-1)	intensity
140.541	0
143.916	0.136147
147.29	0.833549
150.665	2.96781
154.04	5.27116
157.415	7.08073
160.79	7.96474
164.164	10.469
167.539	10.5672
170.914	9.54327
174.289	8.67265
177.664	7.86608
181.038	9.54277
184.413	11.022
187.788	14.9761
191.163	16.4715
194.538	18.373
197.913	18.0104
201.287	15.3046
204.662	13.2171
208.037	11.4273
211.412	10.7375
214.787	11.3201
218.161	10.5472
221.536	5.94997
224.911	1.46449
228.286	0.968719
231.661	1.3568
235.036	1.02713
238.41	7.07375
241.785	18.4837
245.16	34.8069
248.535	53.6736
251.91	74.8846
255.284	100.768
258.659	129.984
262.034	145.712
265.409	123.681
268.784	83.2351
272.159	52.845
275.533	32.0615
278.908	20.2168
282.283	13.0985
285.658	8.18286
289.033	5.31266
292.407	3.25821
295.782	2.36585
299.157	2.33273
302.532	2.106
305.907	2.17071
309.281	2.77343
312.656	2.946
316.031	2.72234
319.406	2.791
322.781	2.1118
326.156	0.991974
329.53	0.126938
332.905	0.790344
336.28	0.625637
339.655	0.912655
343.03	0.411709
346.404	0.091728
349.779	1.70252
353.154	3.44112
356.529	5.96163
359.904	7.98914
363.279	10.9599
366.653	13.581
370.028	16.4103
373.403	18.5937
376.778	21.5743
380.153	24.5262
383.527	26.7225
386.902	30.6345
390.277	34.1765
393.652	39.9337
397.027	46.4243
400.402	54.3004
403.776	60.5568
407.151	63.261
410.526	65.1965
413.901	60.5295
417.276	54.1143
420.65	46.2192
424.025	37.0768
427.4	30.4447
430.775	24.4735
434.15	19.2289
437.524	14.3117
440.899	10.3444
444.274	6.90493
447.649	4.6668
451.024	2.78567
454.399	2.29485
457.773	2.47324
461.148	2.31362
464.523	2.8486
467.898	3.2253
471.273	3.01165
474.647	3.1379
478.022	2.89331
481.397	2.945
484.772	1.95021
488.147	1.64702
491.522	1.49286
494.896	1.05352
498.271	0.656807
501.646	0.085556
505.021	0.078926
508.396	0.472095
511.771	0.5784
515.145	0.734818
518.52	0.121822
521.895	0.003082
525.27	0.197865
528.644	0.883732
532.019	1.60074
535.394	1.90733
538.769	2.0832
542.144	2.18286
545.519	2.15063
548.893	2.00186
552.268	2.37554
555.643	2.61419
559.018	2.3144
562.393	2.03432
565.768	2.2214
569.142	1.19339
572.517	0.917542
575.892	0.053822
579.267	0.187748
582.642	0.144119
586.016	0.234081
589.391	0.996109
592.766	1.07117
596.141	1.86243
599.516	3.53502
602.89	3.89666
606.265	5.17913
609.64	7.053
613.015	8.06108
616.39	8.55291
619.765	10.074
623.139	10.487
626.514	10.4473
629.889	10.6373
633.264	9.9977
636.639	9.16125
640.014	7.36451
643.388	6.22664
646.763	3.81297
650.138	3.01721
653.513	1.3823
656.888	0.300777
660.262	0.419868
663.637	0.9585
667.012	0.267929
670.387	0.871159
673.762	2.96446
677.136	6.41156
680.511	12.4649
683.886	20.6285
687.261	32.5057
690.636	47.5256
694.011	64.2699
697.385	77.1857
700.76	85.2804
704.135	75.5126
707.51	56.7544
710.885	35.2634
714.259	21.1984
717.634	12.4664
721.009	8.07914
724.384	5.04019
727.759	4.75523
731.134	5.44296
734.508	6.99356
737.883	9.89133
741.258	12.3852
744.633	14.8553
748.008	15.8559
751.382	15.8621
754.757	13.3543
758.132	11.5633
761.507	8.78308
764.882	5.95218
768.256	3.5486
771.631	1.92223
775.006	0.270721
778.381	0.923653
781.756	0.084599
785.131	0.251923
788.505	0.124474
791.88	0.590527
795.255	0.51437
798.63	0.885502
802.005	1.13636
805.38	0.356968
808.754	0.900055
812.129	0.945869
815.504	1.04087
818.879	1.16678
822.254	1.92606
825.628	2.02764
829.003	1.8283
832.378	1.16437
835.753	0.590996
839.128	0.076202
842.502	0.426071
845.877	0.411503
849.252	0.245636
852.627	0.308731
856.002	0.068855
859.376	0.767517
862.751	0.870171
866.126	1.13182
869.501	1.93375
872.876	2.32703
876.251	2.56071
879.625	3.55971
883	3.40707
886.375	4.86402
889.75	5.95545
893.125	7.76442
896.5	10.1171
899.874	12.1606
903.249	13.8326
906.624	14.3638
909.999	15.0602
913.374	14.2286
916.748	12.4767
920.123	10.3792
923.498	7.98637
926.873	5.96619
930.248	4.61078
933.622	3.2984
936.997	3.56131
940.372	3.23627
943.747	3.65055
947.122	5.00397
950.497	5.18774
953.871	5.6225
957.246	5.25429
960.621	4.07605
963.996	3.19759
967.371	2.20287
970.745	1.07404
974.12	0.64595
977.495	0.302326
980.87	0.02634
984.245	0.075115
987.62	0.311306
990.994	0.226215
994.369	0.170616
997.744	0.330879
1001.12	0.126289
1004.49	0.176044
1007.87	0.739784
1011.24	0.700203
1014.62	1.32603
1017.99	1.67127
1021.37	1.69431
1024.74	1.64461
1028.12	0.770588
1031.49	0.376358
1034.87	0.171078
1038.24	0.218781
1041.62	0.237637
1044.99	1.06477
1048.37	1.46943
1051.74	2.01671
1055.12	3.16413
1058.49	4.68255
1061.87	5.73686
1065.24	6.75239
1068.62	7.80433
1071.99	8.24714
1075.37	8.17651
1078.74	8.50808
1082.11	8.59353
1085.49	7.71688
1088.86	7.28532
1092.24	7.592
1095.61	8.04366
1098.99	9.1422
1102.36	9.91723
1105.74	10.4709
1109.11	11.1774
1112.49	11.015
1115.86	10.8046
1119.24	10.119
1122.61	8.90742
1125.99	7.6126
1129.36	6.00168
1132.74	4.29907
1136.11	3.09268
1139.49	2.6681
1142.86	1.26372
1146.24	0.544594
1149.61	0.440361
1152.98	0.195442
1156.36	0.244286
1159.73	0.394676
1163.11	0.324306
1166.48	0.791313
1169.86	1.47663
1173.23	2.20031
1176.61	2.55447
1179.98	2.25115
1183.36	2.66253
1186.73	2.46711
1190.11	2.46645
1193.48	1.79773
1196.86	1.80775
1200.23	1.70419
1203.61	1.63738
1206.98	1.37859
1210.36	1.15745
1213.73	0.416065
1217.11	0.075329
1220.48	0.020744
1223.86	0.09399
1227.23	0.042206
1230.61	0.740738
1233.98	1.02083
1237.36	1.82648
1240.73	2.06333
1244.11	2.6607
1247.48	2.97646
1250.86	3.16297
1254.23	3.83511
1257.61	4.57951
1260.98	4.82339
1264.35	4.638
1267.73	3.92512
1271.1	4.14145
1274.48	4.08466
1277.85	3.95456
1281.23	3.7414
1284.6	2.89713
1287.98	1.67695
1291.35	0.950378
1294.73	0.478954
1298.1	0.007511
1301.48	0.641647
1304.85	0.28949
