Measurement: Raman, 532 nm, unoriented, Raman Data Processed
Mineral: Muscovite
Rruff sample: R040108
Ideal chemistry: KAl_2_(Si_3_Al)O_10_(OH)_2_
Locality: USSR
Source: University of Arizona Mineral Museum
Description: Dark green hexagonal tablet
Measured chemistry: (K_0.96_Na_0.04_)_Σ=1_(Al_1.48_Fe^3+^_0.20_Mg_0.16_Fe^2+^_0.14_Ti_0.02_)_Σ=2_(Si_3.28_Al_0.72_)_Σ=4_O_10_(OH)_2_; OH estimated by charge balance
Raman shift (cm-1)	intensity
129.279	0
132.654	5.66577
136.028	11.7687
139.403	60.1397
142.778	17.0324
146.153	58.21
149.528	65.6692
152.902	39.6879
156.277	20.7716
159.652	16.3674
163.027	2.49158
166.402	25.4521
169.776	28.5526
173.151	69.2109
176.526	142.653
179.901	197.893
183.276	331.957
186.65	385.677
190.025	489.308
193.4	411.868
196.775	314.948
200.15	272.74
203.525	274.046
206.899	242.161
210.274	197.665
213.649	204.158
217.024	197.637
220.399	189.667
223.774	173.262
227.148	154.652
230.523	110.713
233.898	114.657
237.273	165.412
240.648	229.837
244.022	445.005
247.397	809.84
250.772	1459.88
254.147	2338.42
257.522	3318.01
260.896	3741.42
264.271	3139.84
267.646	2092.47
271.021	1283.87
274.396	796.344
277.771	481.587
281.145	290.734
284.52	197.384
287.895	119.503
291.27	43.208
294.645	24.9569
298.019	3.63586
301.394	5.54333
304.769	4.62891
308.144	19.5013
311.519	45.3901
314.893	36.4336
318.268	34.1267
321.643	65.2884
325.018	21.6957
328.393	17.929
331.767	5.17334
335.142	32.3397
338.517	12.9717
341.892	24.6738
345.267	44.457
348.642	54.9582
352.016	114.929
355.391	145.262
358.766	182.464
362.141	250.623
365.516	244.643
368.89	318.204
372.265	351.862
375.64	373.987
379.015	398.356
382.39	465.741
385.765	522.447
389.139	607.477
392.514	714.623
395.889	817.77
399.264	955.143
402.639	1106.07
406.013	1314.18
409.388	1461.26
412.763	1628.54
416.138	1729.56
419.513	1608.11
422.887	1437.6
426.262	1212.34
429.637	961.245
433.012	715.667
436.387	570.02
439.762	405.658
443.136	275.128
446.511	244.388
449.886	213.831
453.261	211.365
456.636	202.145
460.01	207.607
463.385	210.04
466.76	188.818
470.135	141.871
473.51	134.977
476.885	111.195
480.259	94.3914
483.634	86.9658
487.009	29.9321
490.384	10.7794
493.759	6.17993
497.133	1.3866
500.508	0.716309
503.883	8.64832
507.258	5.30811
510.633	26.9996
514.008	18.9409
517.382	25.416
520.757	78.7003
524.132	66.9419
527.507	148.607
530.882	123.29
534.256	166.256
537.631	179.451
541.006	171.988
544.381	174.141
547.756	147.462
551.13	152.894
554.505	138.927
557.88	121.38
561.255	122.375
564.63	53.7799
568.005	23.0604
571.379	32.0269
574.754	36.8379
578.129	36.4391
581.504	81.9467
584.879	132.314
588.253	143.113
591.628	182.073
595.003	167.767
598.378	194.623
601.753	284.3
605.128	317.714
608.502	321.628
611.877	323.612
615.252	282.776
618.627	231.39
622.001	209.351
625.376	188.008
628.751	123.974
632.126	122.333
635.501	66.9506
638.876	28.5613
642.25	18.0146
645.625	16.2223
649	5.71497
652.375	4.16577
655.75	18.6915
659.125	7.09338
662.499	3.78662
665.874	7.68066
669.249	30.287
672.624	88.3363
675.999	90.455
679.373	217.055
682.748	452.539
686.123	684.328
689.498	1046.5
692.873	1530.35
696.247	2036.26
699.622	2354.76
702.997	2179.46
706.372	1658.32
709.747	994.867
713.121	675.127
716.496	388.364
719.871	262.713
723.246	185.865
726.621	126.781
729.996	117.639
733.37	79.2764
736.745	148.499
740.12	149.741
743.495	234.827
746.87	256.594
750.245	270.165
753.619	251.035
756.994	185.858
760.369	163.994
763.744	103.679
767.119	57.7046
770.493	65.0931
773.868	70.1897
777.243	66.2684
780.618	98.5192
783.993	61.186
787.367	78.5896
790.742	87.4739
794.117	58.3547
797.492	51.1183
800.867	26.8026
804.241	7.39563
807.616	33.0768
810.991	24.0757
814.366	9.32385
817.741	0.807007
821.116	127.371
824.49	113.687
827.865	108.156
831.24	146.137
834.615	135.258
837.99	178.577
841.365	189.92
844.739	221.41
848.114	174.332
851.489	148.85
854.864	166.071
858.239	151.109
861.613	156.151
864.988	113.696
868.363	87.6146
871.738	107.154
875.113	102.437
878.487	149.25
881.862	146.969
885.237	213.326
888.612	313.316
891.987	358.487
895.361	380.204
898.736	436.221
902.111	426.818
905.486	428.685
908.861	406.036
912.236	340.928
915.61	233.314
918.985	171.974
922.36	130.649
925.735	111.966
929.11	65.8342
932.485	13.8335
935.859	24.9477
939.234	33.4554
942.609	44.7195
945.984	33.4031
949.359	58.7927
952.733	95.5342
956.108	102.68
959.483	110.932
962.858	52.808
966.233	49.6329
969.607	42.955
972.982	52.7106
976.357	27.9999
979.732	60.4536
983.107	61.3684
986.481	71.4996
989.856	46.0848
993.231	46.8332
996.606	16.3458
999.981	25.7075
1003.36	14.6007
1006.73	45.2532
1010.11	25.1577
1013.48	63.0458
1016.86	27.4117
1020.23	48.0031
1023.6	74.3981
1026.98	78.9419
1030.35	42.6052
1033.73	32.676
1037.1	19.2532
1040.48	18.3865
1043.85	6.27271
1047.23	4.6925
1050.6	34.8153
1053.98	81.267
1057.35	103.214
1060.73	135.036
1064.1	203.95
1067.48	230.501
1070.85	256.769
1074.23	269.256
1077.6	317.035
1080.98	302.904
1084.35	312.882
1087.73	279.006
1091.1	259.121
1094.48	264.104
1097.85	245.972
1101.22	219.919
1104.6	267.943
1107.97	272.497
1111.35	297.472
1114.72	297.868
1118.1	287.78
1121.47	291.739
1124.85	263.385
1128.22	237.282
1131.6	195.776
1134.97	156.62
1138.35	150.122
1141.72	74.0778
1145.1	64.0552
1148.47	22.295
1151.85	8.46924
1155.22	31.8334
1158.6	8.39551
1161.97	59.1895
1165.35	13.3828
1168.72	0.455322
1172.1	52.3264
1175.47	15.49
1178.85	18.2941
1182.22	34.9534
1185.6	28.2772
1188.97	5.64587
1192.35	14.551
1195.72	21.7963
1199.1	29.1188
1202.47	42.3689
1205.84	31.532
1209.22	40.8079
1212.59	48.5621
1215.97	21.1497
1219.34	44.5038
1222.72	53.0206
1226.09	22.3961
1229.47	65.0376
1232.84	56.3844
1236.22	54.1155
1239.59	41.0665
1242.97	23.619
1246.34	25.4229
1249.72	29.1495
1253.09	1.94482
1256.47	36.1523
1259.84	63.6343
1263.22	38.2394
1266.59	22.1527
1269.97	9.21069
1273.34	61.6014
1276.72	56.829
1280.09	16.3783
1283.46	31.7627
1286.84	0.295288
