Measurement: Raman, 514 nm, unoriented, Raman Data Processed
Mineral: Muscovite
Rruff sample: R040124
Ideal chemistry: KAl_2_(Si_3_Al)O_10_(OH)_2_
Locality: Garnet Hill, Pennsylvania, USA
Source: Bob Downs
Description: Grayish green mica book
Measured chemistry: (K_0.90_Na_0.07_)(Al_0.86_Fe_0.10_Mg_0.04_)_2_(Si_0.76_Al_0.24_)_4_O_10_((OH)_0.99_F_0.01_)_2_
Raman shift (cm-1)	intensity
142.016	0
146.172	171.527
150.327	23.6868
154.48	7.48466
158.63	188.711
162.779	405.23
166.926	246.213
171.07	136.673
175.213	149.996
179.354	105.705
183.493	571.1
187.63	1403.91
191.765	1812.36
195.898	1973.21
200.029	1868.16
204.158	1889.9
208.285	1904.64
212.41	1821.82
216.533	1497.38
220.654	856.422
224.773	325.758
228.891	31.7607
233.006	10.6408
237.119	497.415
241.231	1445.25
245.34	2999.8
249.448	6493.94
253.553	13775.8
257.657	19031
261.758	17451.5
265.858	11605.2
269.956	6752.78
274.052	4620.06
278.146	2197.43
282.237	1316.89
286.327	567.49
290.416	290.251
294.502	30.1969
298.586	31.391
302.668	41.9724
306.749	17.1817
310.827	73.3563
314.903	21.3012
318.978	32.5651
323.051	161.371
327.121	5.53025
331.19	56.4418
335.257	24.8102
339.322	98.4274
343.385	162.476
347.446	461.259
351.505	764.236
355.563	1150.31
359.618	1418.48
363.672	1911.27
367.723	2314.76
371.773	2595.39
375.821	2991.1
379.866	3399.44
383.91	3664.91
387.952	4059.97
391.992	4622.64
396.031	5369.01
400.067	6313.13
404.101	6983.25
408.134	7134.69
412.165	6395.64
416.193	5012.15
420.22	3731.22
424.245	2865.51
428.268	2134.08
432.289	1595.88
436.309	1238.29
440.326	1055.31
444.342	602.959
448.355	621.236
452.367	562.019
456.377	322.131
460.385	439.457
464.391	401.049
468.395	481.506
472.398	357.099
476.398	100.928
480.397	178.62
484.394	19.7083
488.389	89.2041
492.382	80.8629
496.373	34.7439
500.362	72.0151
504.349	44.0184
508.335	101.204
512.319	144.877
516.3	61.5406
520.28	57.6103
524.259	246.166
528.235	293.358
532.209	365.534
536.182	396.392
540.152	437.058
544.121	583.525
548.088	394.725
552.053	580.759
556.017	512.7
559.978	649.466
563.938	687.02
567.895	801.365
571.851	868.508
575.805	888.454
579.758	787.21
583.708	697.781
587.657	780.172
591.603	1146.39
595.548	1143.44
599.491	1400.33
603.432	1713.05
607.372	2203.63
611.309	2531.02
615.245	2437.34
619.179	2667.57
623.111	2349.74
627.041	2636.97
630.97	2439.24
634.896	2444.97
638.821	2144.04
642.744	1917.74
646.665	1635.42
650.584	1321.29
654.502	1074.26
658.418	672.762
662.331	517.798
666.244	710.156
670.154	856.695
674.062	1130.73
677.969	1461.33
681.874	2075.96
685.777	3359.22
689.678	4955.25
693.577	7756.64
697.475	10222.5
701.371	10264.9
705.265	8005.93
709.157	4920.27
713.047	2909.59
716.936	2080.91
720.823	1595.2
724.708	1208.5
728.591	1402.78
732.472	1327.07
736.352	1338.37
740.23	1765.68
744.106	1869.99
747.98	1824.32
751.853	1623.66
755.723	1405.02
759.592	1060.41
763.459	839.821
767.325	413.579
771.188	222.733
775.05	230.254
778.91	74.0957
782.768	86.4152
786.625	199.053
790.479	327.758
794.332	113.535
798.183	170.381
802.033	96.3782
805.88	57.6158
809.726	27.8383
813.57	24.3504
817.413	105.324
821.253	104.052
825.092	21.7407
828.929	18.333
832.764	58.7309
836.598	5.7629
840.429	35.8001
844.259	52.5633
848.088	58.1113
851.914	124.252
855.739	7.23499
859.562	96.4331
863.383	213.088
867.203	461.443
871.02	463.777
874.836	550.64
878.65	579.972
882.463	825.479
886.274	874.217
890.083	820.602
893.89	1061.83
897.695	1269.68
901.499	1478.07
905.301	1649.49
909.102	1626.05
912.9	1544.64
916.697	1605.91
920.492	1198.2
924.285	782.471
928.077	619.732
931.867	472.172
935.655	322.613
939.442	586.048
943.226	687.475
947.009	616.849
950.791	808.226
954.57	805.59
958.348	684.657
962.124	719.345
965.899	486.167
969.671	359.163
973.442	542.048
977.211	270.825
980.979	358.943
984.745	684.563
988.509	523.236
992.271	445.427
996.032	704.301
999.791	326.068
1003.55	209.755
1007.3	400.045
1011.06	759.155
1014.81	615.288
1018.56	730.004
1022.31	629.18
1026.06	822.512
1029.8	583.334
1033.55	353.142
1037.29	635.65
1041.03	823.882
1044.77	612.924
1048.5	771.884
1052.24	599.834
1055.97	725.025
1059.7	1113.73
1063.43	1156.03
1067.16	1226.88
1070.89	990.693
1074.61	1176.29
1078.34	1040.65
1082.06	1301.76
1085.78	1461.62
1089.5	1352.92
1093.21	1161.34
1096.93	1135.9
1100.64	1278.5
1104.35	1600.92
1108.06	1428.28
1111.77	1917.41
1115.48	1782.22
1119.18	1544.01
1122.89	1469.95
1126.59	1359.32
1130.29	705.008
1133.99	727.761
1137.68	749.8
1141.38	191.012
1145.07	11.963
1148.76	68.5513
1152.45	90.7087
1156.14	49.5635
1159.83	28.2916
1163.51	62.9393
1167.19	85.0756
1170.88	33.2559
1174.56	0.150875
1178.23	64.0707
1181.91	16.8754
1185.59	115.031
1189.26	151.806
1192.93	103.115
1196.6	31.2034
1200.27	62.5123
1203.94	365.582
1207.6	133.628
1211.27	4.43208
1214.93	110.031
1218.59	157.687
1222.25	77.4612
1225.9	70.8432
1229.56	13.5429
1233.21	164.991
1236.86	184.706
1240.51	59.7008
1244.16	78.4827
1247.81	307.886
1251.45	357.636
1255.1	244.291
1258.74	28.8581
1262.38	136.397
1266.02	224.002
1269.66	62.0251
1273.29	165.056
1276.93	66.6752
1280.56	202.909
1284.19	123.029
1287.82	258.177
1291.45	142.256
1295.07	95.719
1298.7	121.339
1302.32	510.559
1305.94	616.912
1309.56	579.856
1313.18	358.141
1316.8	371.403
1320.41	13.983
1324.02	43.0666
1327.63	343.082
1331.24	51.3779
1334.85	221.136
1338.46	81.709
1342.06	134.678
1345.67	206.442
1349.27	225.801
1352.87	345.507
1356.47	331.038
1360.07	465.945
1363.66	178.713
1367.25	135.376
1370.85	595.664
1374.44	189.019
1378.03	142.43
1381.61	25.9883
1385.2	338.827
1388.78	39.7186
1392.37	285.791
1395.95	254.559
1399.53	109.623
1403.1	711.02
1406.68	176.232
1410.26	316.918
1413.83	263.95
1417.4	205.53
1420.97	386.784
1424.54	225.204
1428.1	0.575317
