Measurement: Raman, 532 nm, unoriented, Raman Data Processed
Mineral: Muscovite
Rruff sample: R040104
Ideal chemistry: KAl_2_(Si_3_Al)O_10_(OH)_2_
Locality: unknown
Source: University of Arizona Mineral Museum
Description: Dark green hexagonal tablet
Measured chemistry: (K_0.91_Na_0.09_)_Σ=1_(Al_1.70_Fe^3+^_0.14_Mg_0.08_Fe^2+^_0.06_Ti_0.02_)_Σ=2_(Si_3.12_Al_0.88_)_Σ=4_O_10_(OH)_2_; OH estimated by charge balance
Raman shift (cm-1)	intensity
136.028	0
138.921	66.8628
141.814	83.7764
144.706	249.311
147.599	482.264
150.492	645.668
153.385	774.23
156.277	940.968
159.17	1238.23
162.063	1588.87
164.955	1638.12
167.848	1607.65
170.741	1440.45
173.633	1226.38
176.526	1073.25
179.419	1159.94
182.311	1345.54
185.204	1841.57
188.097	2406.2
190.989	2719.96
193.882	2827.77
196.775	2632.86
199.668	2287.16
202.56	2080.11
205.453	1987.77
208.346	1909.34
211.238	2104.36
214.131	2179.55
217.024	1906.27
219.917	1213.13
222.809	556.701
225.702	144.604
228.595	98.3496
231.487	125.642
234.38	94.9341
237.273	210.022
240.165	762.224
243.058	1573.81
245.951	3074.24
248.844	5481.62
251.736	9233.8
254.629	14080.4
257.522	18886.5
260.414	21295
263.307	18491.7
266.2	13211.6
269.092	8808.81
271.985	5719.17
274.878	3874.69
277.771	2629.32
280.663	1854.78
283.556	1212.81
286.449	831.851
289.341	517.92
292.234	188.186
295.127	165.082
298.019	162.622
300.912	126.543
303.805	157.031
306.697	172.805
309.59	153.91
312.483	243.148
315.375	266.853
318.268	214.085
321.161	192.415
324.054	211.132
326.946	109.649
329.839	39.2993
332.732	110.705
335.625	167.944
338.517	68.2407
341.41	52.5215
344.303	28.3589
347.195	77.3164
350.088	291.633
352.981	455.99
355.873	735.136
358.766	954.327
361.659	1231.73
364.551	1498.64
367.444	1882.27
370.337	2261.3
373.229	2530.39
376.122	2818.67
379.015	3050.78
381.908	3349.38
384.8	3711.64
387.693	4051.61
390.586	4498.6
393.478	4999.41
396.371	5768.16
399.264	6530.1
402.156	7238.6
405.049	7787.44
407.942	7953.79
410.835	7788.52
413.727	7047.93
416.62	5965.79
419.513	4918.02
422.405	3992.19
425.298	3131.41
428.191	2514.23
431.084	1981.49
433.976	1585
436.869	1316.98
439.762	916.161
442.654	696.715
445.547	513.273
448.44	377.216
451.332	228.894
454.225	187.385
457.118	233.913
460.01	252.374
462.903	309.846
465.796	429.072
468.689	392.085
471.581	360.113
474.474	358.193
477.367	312.853
480.259	272.438
483.152	313.358
486.045	203.847
488.937	162.077
491.83	95.0813
494.723	42.1846
497.615	16.616
500.508	29.8286
503.401	18.4497
506.294	18.3621
509.186	42.5471
512.079	118.577
514.972	58.8154
517.864	68.105
520.757	38.489
523.65	11.4902
526.543	74.1335
529.435	152.659
532.328	163.597
535.221	196.042
538.113	239.186
541.006	265.375
543.899	296.922
546.791	286.394
549.684	271.228
552.577	357.998
555.47	314.341
558.362	346.104
561.255	356.466
564.148	254.336
567.04	302.991
569.933	220.268
572.826	116.877
575.718	118.252
578.611	62.6538
581.504	73.0068
584.396	137.686
587.289	124.148
590.182	235.894
593.075	311.731
595.967	523.717
598.86	556.907
601.753	720.14
604.645	907.09
607.538	1135.32
610.431	1276.6
613.323	1449.65
616.216	1488.51
619.109	1602.03
622.001	1682.55
624.894	1729.34
627.787	1703.94
630.68	1715.04
633.572	1653.99
636.465	1365.15
639.358	1170.69
642.25	947.623
645.143	746.386
648.036	488.208
650.928	300.94
653.821	188.829
656.714	15.9043
659.607	47.7983
662.499	48.7495
665.392	87.5767
668.285	69.2251
671.177	109.287
674.07	300.959
676.963	643.35
679.856	1203.66
682.748	1892.31
685.641	2960.72
688.534	4312.66
691.426	5960.96
694.319	7975.26
697.212	9833.13
700.104	10726.2
702.997	10267.4
705.89	8212.82
708.783	5852.77
711.675	3971.59
714.568	2646.4
717.461	1802.64
720.353	1314.09
723.246	966.856
726.139	818.606
729.031	921.227
731.924	895.593
734.817	1081.18
737.71	1343.54
740.602	1578.55
743.495	1865.99
746.388	2014.92
749.28	2071.89
752.173	1876.83
755.066	1839.23
757.958	1501.22
760.851	1271.48
763.744	923.608
766.636	586.269
769.529	318.154
772.422	170.308
775.315	60.1509
778.207	6.38965
781.1	4.43896
783.993	5.08838
786.885	25.8877
789.778	74.1948
792.671	109.076
795.563	96.1809
798.456	79.8938
801.349	48.0969
804.241	44.1782
807.134	11.5076
810.027	3.70093
812.92	22.2505
815.812	42.5852
818.705	42.8589
821.598	129.998
824.49	201.481
827.383	141.062
830.276	115.293
833.168	43.3274
836.061	53.4504
838.954	20.2053
841.847	79.6411
844.739	45.658
847.632	14.5859
850.525	11.7585
853.417	52.0413
856.31	137.786
859.203	156.959
862.096	205.226
864.988	222.915
867.881	241.999
870.774	320.64
873.666	379.29
876.559	389.277
879.452	484.562
882.344	547.164
885.237	738.772
888.13	796.581
891.023	911.047
893.915	1057.37
896.808	1277.52
899.701	1424.9
902.593	1583.48
905.486	1709.99
908.379	1731.05
911.271	1674.93
914.164	1607.69
917.057	1376.42
919.949	1067.54
922.842	842.825
925.735	620.469
928.628	360.248
931.52	272.076
934.413	204.698
937.306	184.875
940.198	287.625
943.091	282.809
945.984	344.636
948.876	500.728
951.769	544.726
954.662	615.227
957.554	602.2
960.447	406.72
963.34	348.946
966.233	262.402
969.125	107.968
972.018	81.2324
974.911	20.9844
977.803	26.5171
980.696	28.7114
983.589	0.544434
986.481	0.341797
989.374	14.1733
992.267	22.187
995.16	30.9951
998.052	29.8154
1000.95	33.8745
1003.84	40.3462
1006.73	53.6279
1009.62	116.606
1012.52	130.013
1015.41	111.891
1018.3	85.4683
1021.19	191.806
1024.09	184.383
1026.98	166.6
1029.87	130.643
1032.77	40.3037
1035.66	3.84424
1038.55	59.6328
1041.44	10.2417
1044.34	41.0845
1047.23	217.296
1050.12	313.53
1053.01	512.863
1055.91	530.239
1058.8	658.516
1061.69	770.495
1064.58	926.655
1067.48	958.809
1070.37	1024.51
1073.26	1019.1
1076.15	1149.74
1079.05	1078.62
1081.94	1093
1084.83	1075.54
1087.73	1105.7
1090.62	1127.99
1093.51	1166.5
1096.4	1161.42
1099.3	1326.49
1102.19	1424.38
1105.08	1587
1107.97	1671.8
1110.87	1762.62
1113.76	1758.64
1116.65	1746.12
1119.55	1627.57
1122.44	1412.37
1125.33	1273.84
1128.22	994.014
1131.12	816.885
1134.01	716.578
1136.9	572.675
1139.8	380.934
1142.69	163.727
1145.58	126.062
1148.47	40.6797
1151.37	5.0376
1154.26	17.3294
1157.15	8.57471
1160.04	18.8965
1162.94	13.373
1165.83	8.86523
1168.72	57.4797
1171.61	37.1206
1174.51	38.846
1177.4	72.7471
1180.29	25.7571
1183.18	41.3757
1186.08	59.5203
1188.97	41.8184
1191.86	16.6692
1194.76	34.0571
1197.65	82.2642
1200.54	88.7439
1203.43	52.8691
1206.33	63.5173
1209.22	104.01
1212.11	113.246
1215.01	59.3164
1217.9	84.0674
1220.79	79.6931
1223.68	71.3289
1226.58	12.5046
1229.47	88.4524
1232.36	31.1992
1235.25	48.9116
1238.15	52.0432
1241.04	14.9006
1243.93	2.09473
1246.82	45.2183
1249.72	54.2891
1252.61	64.2178
1255.5	20.7317
1258.39	76.97
1261.29	105.091
1264.18	3.52026
