Measurement: Raman, 780 nm, unoriented, Raman Data Processed
Mineral: Muscovite
Rruff sample: R060182
Ideal chemistry: KAl_2_(Si_3_Al)O_10_(OH)_2_
Locality: Reliance mine, Mica Mountain, Tete Juane Cache, British Columbia, Canada
Source: Lloyd Twaites
Description: Pale-yellow transparent mica, polytype 2M1
Measured chemistry: (K_0.91_Na_0.09_)(Al_0.93_Fe^3+^_0.05_Mg_0.02_)_2_(Si_3.04_Al_0.96_)O_10_(OH)_2_
Raman shift (cm-1)	intensity
150.844	0
153.736	1.63978
156.629	2.42464
159.522	0.856644
162.414	4.11135
165.307	6.96197
168.2	7.66145
171.093	7.94515
173.985	5.82981
176.878	4.65644
179.771	4.94328
182.663	4.51243
185.556	5.24701
188.449	10.4626
191.341	18.218
194.234	20.9359
197.127	22.0028
200.019	18.125
202.912	14.837
205.805	11.7707
208.697	13.0384
211.59	15.3972
214.483	19.1401
217.376	18.0207
220.268	12.1568
223.161	3.97517
226.054	-0.0372198
228.946	0.532643
231.839	1.18699
234.732	0.238678
237.625	4.95854
240.517	11.819
243.41	23.9095
246.303	36.2713
249.195	48.2758
252.088	62.7652
254.981	82.7826
257.873	113.375
260.766	138.048
263.659	136.621
266.551	102.5
269.444	66.2624
272.337	39.6203
275.23	24.2088
278.122	15.6231
281.015	10.6488
283.908	9.08925
286.8	7.32419
289.693	2.65466
292.586	3.1642
295.478	1.0557
298.371	0.455696
301.264	1.36616
304.157	1.55826
307.049	2.08634
309.942	2.30393
312.835	3.19639
315.727	2.29224
318.62	3.09285
321.513	2.61822
324.406	1.54029
327.298	0.673721
330.191	0.031376
333.084	0.472973
335.976	0.760853
338.869	0.948788
341.762	0.33276
344.654	0.345154
347.547	1.35947
350.44	1.96968
353.332	4.52747
356.225	5.19278
359.118	7.64246
362.01	11.2012
364.903	12.771
367.796	15.4736
370.689	18.7552
373.581	22.3929
376.474	24.3938
379.367	25.0215
382.259	26.8746
385.152	29.4739
388.045	31.4722
390.938	35.7096
393.83	40.7182
396.723	45.7936
399.616	51.3124
402.508	55.9425
405.401	57.7511
408.294	58.401
411.186	55.2966
414.079	50.774
416.972	42.2958
419.865	34.2019
422.757	26.8535
425.65	21.8973
428.543	16.676
431.435	12.6575
434.328	8.08806
437.221	7.01843
440.113	3.9336
443.006	2.19463
445.899	0.689789
448.791	0.797157
451.684	0.166542
454.577	0.133255
457.47	0.491819
460.362	0.660488
463.255	0.791927
466.148	2.23725
469.04	2.81397
471.933	2.58751
474.826	2.1785
477.719	3.10384
480.611	1.83596
483.504	2.86658
486.397	2.69221
489.289	0.731176
492.182	1.23417
495.075	0.480595
497.967	1.4697
500.86	0.740267
503.753	0.354382
506.645	0.443357
509.538	0.054743
512.431	0.061703
515.323	0.057205
518.216	0.232805
521.109	0.099703
524.002	1.84675
526.894	1.92599
529.787	1.10874
532.68	3.15447
535.572	2.53824
538.465	5.11934
541.358	5.24401
544.25	5.61138
547.143	5.218
550.036	6.82596
552.929	5.59366
555.821	4.14485
558.714	4.83626
561.607	2.35743
564.499	2.90893
567.392	2.79901
570.285	2.55354
573.178	1.52012
576.07	1.80957
578.963	0.745169
581.856	0.217981
584.748	0.108753
587.641	0.042406
590.534	0.140493
593.426	0.439108
596.319	0.117313
599.212	0.473648
602.105	2.3374
604.997	2.36151
607.89	2.79681
610.783	3.65109
613.675	4.52115
616.568	5.16193
619.461	5.8834
622.353	6.96382
625.246	9.20111
628.139	9.303
631.031	9.52411
633.924	10.1472
636.817	10.112
639.71	10.3378
642.602	8.53955
645.495	7.41046
648.388	4.77705
651.28	2.12217
654.173	1.88481
657.066	1.77587
659.958	0.482962
662.851	0.787369
665.744	0.018518
668.636	0.249996
671.529	0.979103
674.422	2.7017
677.315	5.38839
680.207	7.89411
683.1	13.1806
685.993	20.0189
688.885	28.862
691.778	37.0226
694.671	50.6859
697.563	60.3882
700.456	67.682
703.349	65.9732
706.242	52.9371
709.134	38.4377
712.027	26.9595
714.92	15.6369
717.812	10.8116
720.705	7.50973
723.598	4.01357
726.49	3.63946
729.383	3.78568
732.276	4.56685
735.169	5.92662
738.061	6.1985
740.954	8.94688
743.847	11.9672
746.739	13.8827
749.632	15.2771
752.525	15.2963
755.418	13.5096
758.31	11.7584
761.203	10.8619
764.096	6.87465
766.988	5.29448
769.881	3.30988
772.774	2.55349
775.666	1.28701
778.559	0.206388
781.452	0.786114
784.345	0.578194
787.237	0.477392
790.13	0.859118
793.023	1.18876
795.915	0.356327
798.808	0.604723
801.701	0.049835
804.593	0.869905
807.486	0.09123
810.379	0.06975
813.271	0.062059
816.164	1.22164
819.057	0.651585
821.949	0.286427
824.842	0.546221
827.735	1.058
830.628	0.351488
833.52	0.845076
836.413	2.17977
839.306	1.93377
842.198	2.15037
845.091	2.129
847.984	2.66244
850.876	1.5966
853.769	1.66987
856.662	2.13784
859.555	2.27547
862.447	1.37253
865.34	1.40261
868.233	0.692568
871.125	1.01837
874.018	0.71727
876.911	1.11997
879.803	1.65351
882.696	2.10837
885.589	3.07744
888.482	4.07784
891.374	5.408
894.267	7.30265
897.16	9.53382
900.052	11.8916
902.945	13.0906
905.838	14.6849
908.731	15.2649
911.623	15.1747
914.516	14.4181
917.409	12.1411
920.301	9.39805
923.194	7.46972
926.087	5.31001
928.979	4.9356
931.872	3.23156
934.765	2.60042
937.658	3.03921
940.55	3.68226
943.443	3.87641
946.336	6.3286
949.228	7.62714
952.121	8.371
955.014	8.63756
957.906	7.56246
960.799	6.52914
963.692	4.98833
966.584	3.86483
969.477	2.76747
972.37	1.02424
975.263	0.244053
978.155	0.452317
981.048	0.281721
983.941	0.221292
986.833	0.393059
989.726	0.512014
992.619	0.527302
995.511	0.414808
998.404	0.972166
1001.3	1.62816
1004.19	0.090288
1007.08	0.385309
1009.98	0.903875
1012.87	1.08112
1015.76	0.793348
1018.65	0.982431
1021.55	1.24731
1024.44	1.03562
1027.33	1.76883
1030.22	0.529249
1033.12	0.589634
1036.01	0.562963
1038.9	0.338539
1041.8	0.773338
1044.69	0.00724
1047.58	0.317183
1050.47	1.41109
1053.37	1.47425
1056.26	1.55784
1059.15	2.10709
1062.04	2.31146
1064.94	2.78139
1067.83	2.94649
1070.72	3.38447
1073.61	3.10965
1076.51	3.49796
1079.4	3.37406
1082.29	3.09773
1085.18	3.42745
1088.08	3.63798
1090.97	4.34601
1093.86	3.87718
1096.76	4.01649
1099.65	4.16882
1102.54	5.07088
1105.43	7.10691
1108.33	7.47145
1111.22	7.96867
1114.11	7.82653
1117.01	8.21713
1119.9	8.00998
1122.79	6.82565
1125.68	6.00863
1128.58	5.1627
1131.47	4.2829
1134.36	3.01376
1137.25	2.75493
1140.15	1.6508
1143.04	1.08348
1145.93	0.322581
1148.82	1.25691
1151.72	0.184993
1154.61	0.787758
1157.5	0.272924
1160.39	0.064404
1163.29	0.661823
1166.18	0.26802
1169.07	0.689673
1171.97	0.402924
1174.86	0.875211
1177.75	0.687596
1180.64	0.438539
1183.54	1.13123
1186.43	0.443357
1189.32	0.721683
1192.21	0.687502
1195.11	1.37362
1198	0.964601
1200.89	1.32371
1203.79	0.071974
1206.68	0.848392
1209.57	0.466712
1212.46	1.08088
1215.36	1.69052
1218.25	1.08934
1221.14	2.06575
1224.04	0.4938
1226.93	0.840639
1229.82	1.14799
1232.71	0.846184
1235.61	1.01658
1238.5	0.882435
1241.39	0.583992
1244.28	1.80634
1247.18	1.55955
1250.07	0.645566
1252.96	1.11836
1255.85	0.929537
1258.75	0.541094
1261.64	0.870367
1264.53	1.06196
1267.42	0.386111
1270.32	0.649974
1273.21	0.71946
1276.1	1.65848
1279	0.061658
1281.89	0.259697
1284.78	0.552589
