Measurement: Raman, 780 nm, unoriented, Raman Data Processed
Mineral: Mushistonite
Rruff sample: R060153
Ideal chemistry: Cu^2+^Sn^4+^(OH)_6_
Locality: Ping Wu, Xuebaoding, Sichuan, China
Source: Marcus Origlieri
Description: Yellow fine-grained earthy aggregate with green acicular malachite
Raman shift (cm-1)	intensity
94.4526	0
97.8274	8.74829
101.202	1.44311
104.577	17.0732
107.952	64.9972
111.327	138.104
114.701	249.144
118.076	389.302
121.451	532.147
124.826	671.144
128.201	696.012
131.576	611.909
134.95	460.598
138.325	295.821
141.7	169.76
145.075	74.5765
148.45	20.776
151.825	11.277
155.199	9.72174
158.574	4.25635
161.949	1.81708
165.324	10.0077
168.698	22.1858
172.073	34.3793
175.448	45.0527
178.823	56.1623
182.198	65.9312
185.573	71.3884
188.947	76.0625
192.322	80.1748
195.697	84.3997
199.072	90.2702
202.447	89.4457
205.821	89.4154
209.196	79.0928
212.571	66.4065
215.946	54.1527
219.321	43.5621
222.696	33.055
226.07	29.3879
229.445	19.9765
232.82	16.943
236.195	15.9907
239.57	12.5991
242.945	10.5666
246.319	10.1597
249.694	6.46668
253.069	3.76227
256.444	3.67242
259.818	3.04541
263.193	5.76202
266.568	11.6385
269.943	19.7501
273.318	29.1578
276.693	42.3422
280.067	56.9183
283.442	74.4808
286.817	92.1506
290.192	108.948
293.567	126.003
296.942	133.692
300.316	136.105
303.691	126.191
307.066	110.701
310.441	91.2631
313.816	72.1985
317.19	58.7696
320.565	47.7077
323.94	39.5731
327.315	34.4519
330.69	33.8389
334.065	30.7336
337.439	33.513
340.814	32.4141
344.189	33.3951
347.564	31.266
350.938	28.5129
354.313	27.452
357.688	24.3563
361.063	21.1367
364.438	17.5181
367.813	11.8747
371.187	9.74963
374.562	4.979
377.937	1.45306
381.312	0.104126
384.687	1.62329
388.062	3.09039
391.436	2.00626
394.811	1.55273
398.186	1.11478
401.561	2.34854
404.935	2.36978
408.31	2.28149
411.685	0.598206
415.06	0.927612
418.435	0.905182
421.81	0.963135
425.184	2.2392
428.559	0.118347
431.934	0.226532
435.309	1.58777
438.684	3.89981
442.058	8.99094
445.433	10.0066
448.808	10.6465
452.183	13.4869
455.558	18.149
458.933	21.3863
462.307	30.3057
465.682	32.5733
469.057	40.474
472.432	49.1278
475.807	56.4469
479.182	65.679
482.556	83.0052
485.931	98.505
489.306	123.96
492.681	157.041
496.055	198.301
499.43	241.252
502.805	287.822
506.18	333.107
509.555	371.756
512.93	400.279
516.304	405.982
519.679	374.637
523.054	307.977
526.429	220.956
529.804	140.976
533.178	81.6025
536.553	42.5159
539.928	19.4217
543.303	5.03513
546.678	2.50879
550.053	0.719727
553.427	3.71695
556.802	6.74622
560.177	6.69132
563.552	5.21677
566.927	3.43039
570.302	3.69836
573.676	2.88562
577.051	3.72726
580.426	5.61917
583.801	11.6603
587.176	14.1494
590.55	18.4177
593.925	22.6254
597.3	30.7452
600.675	33.5425
604.05	37.9855
607.424	42.4387
610.799	44.6957
614.174	47.9328
617.549	45.251
620.924	42.603
624.298	41.3559
627.673	33.3519
631.048	28.8354
634.423	23.2397
637.798	17.5329
641.173	14.9996
644.547	10.5106
647.922	4.63693
651.297	2.3616
654.672	0.556976
658.047	1.0965
661.421	1.51001
664.796	0.145111
668.171	2.85226
671.546	1.11615
674.921	0.900513
678.295	0.843933
681.67	2.21429
685.045	2.82486
688.42	4.28079
691.795	5.48816
695.17	6.94873
698.544	6.69019
701.919	8.50879
705.294	11.3382
708.669	13.2586
712.044	17.7752
715.418	17.8101
718.793	16.9894
722.168	18.0776
725.543	18.3882
728.918	16.4947
732.293	16.6376
735.667	16.0239
739.042	12.9528
742.417	12.9689
745.792	9.97311
749.167	11.0912
752.541	8.12607
755.916	7.98733
759.291	5.345
762.666	4.5148
766.041	2.79889
769.415	0.747925
772.79	2.27518
776.165	3.2616
779.54	1.24103
782.915	2.55591
786.29	3.75803
789.664	6.95834
793.039	8.11163
796.414	13.1913
799.789	13.352
803.164	17.2002
806.538	23.0883
809.913	23.8167
813.288	25.277
816.663	25.0624
820.038	23.6658
823.413	20.8825
826.787	19.0425
830.162	14.4885
833.537	11.7538
836.912	10.7667
840.287	8.90811
843.661	7.35642
847.036	7.18582
850.411	6.694
853.786	5.52936
857.161	4.43591
860.535	3.8783
863.91	3.56436
867.285	1.90732
870.66	2.61365
874.035	1.63626
877.409	1.23978
880.784	0.57428
884.159	0.03894
887.534	0.533325
890.909	0.503387
894.284	0.472687
897.658	0.269684
901.033	0.732513
904.408	0.672791
907.783	0.743225
911.158	0.270203
914.533	1.00943
917.907	1.08462
921.282	0.304169
924.657	1.48498
928.032	2.40506
931.407	2.26602
934.781	3.53192
938.156	2.83176
941.531	2.5065
944.906	3.85376
948.281	4.6391
951.655	4.89957
955.03	6.03989
958.405	5.70157
961.78	9.81976
965.155	13.4129
968.529	16.0068
971.904	18.9279
975.279	19.4936
978.654	15.4218
982.029	9.34323
985.404	7.0054
988.778	6.37622
992.153	3.6247
995.528	2.66525
998.903	1.52161
1002.28	2.53894
1005.65	2.25171
1009.03	1.50442
1012.4	0.61557
1015.78	1.18826
1019.15	0.968475
1022.53	0.269012
1025.9	0.686783
1029.28	0.590897
1032.65	1.56984
1036.03	2.3582
1039.4	2.483
1042.78	3.18927
1046.15	2.44035
1049.53	4.29903
1052.9	5.91478
1056.28	9.66682
1059.65	1.23561
1063.02	1.61482
1066.4	1.43253
1069.77	0.631836
1073.15	1.27789
1076.52	1.01184
1079.9	1.2675
1083.27	2.58978
1086.65	3.15851
1090.02	2.99896
1093.4	0.515717
1096.77	0.091003
1100.15	0.472855
1103.52	0.103653
1106.9	0.838135
1110.27	1.59322
1113.65	0.792603
1117.02	0.944962
1120.4	1.82063
1123.77	0.749969
1127.15	0.95517
1130.52	2.13443
1133.9	1.67406
1137.27	0.857727
1140.64	0.868515
1144.02	0.857895
1147.39	1.82628
1150.77	2.45682
1154.14	2.01694
1157.52	2.76804
1160.89	1.90387
1164.27	2.89069
1167.64	2.82873
1171.02	2.93126
1174.39	4.1095
1177.77	2.8777
1181.14	2.72507
1184.52	2.61182
1187.89	2.39874
1191.27	1.72913
1194.64	4.73502
1198.02	3.14049
1201.39	2.40451
1204.77	2.38789
1208.14	3.05727
1211.52	2.65907
1214.89	1.44817
1218.27	1.65205
1221.64	1.17497
1225.02	0.47348
1228.39	1.52991
1231.77	2.36719
1235.14	1.98286
1238.52	0.411804
1241.89	0.95462
1245.26	1.93631
1248.64	0.221115
1252.01	1.39385
1255.39	1.98003
1258.76	0.363968
1262.14	1.48357
1265.51	2.38367
1268.89	1.58726
1272.26	1.31796
1275.64	0.202698
1279.01	0.376266
1282.39	0.268677
