Measurement: Raman, 532 nm, unoriented, Raman Data Processed
Mineral: Nabalamprophyllite
Rruff sample: R060877
Ideal chemistry: Na_3_(BaNa)Ti^4+^_3_(Si_2_O_7_)_2_O_2_(OH)_2_
Locality: Slyuda (mica) quarry, Kovdor, Kola Peninsula, Russia
Source: Michael Scott
Description: Yellowish brown platy fragment. IS THIS A NEW MINERAL?
Measured chemistry: (Na_2.67_Mg_0.12_Mn^2+^_0.07_Ca_0.05_)(Ba_1.39_K_0.27_Sr_0.04_)(Ti_2.89_Fe_0.26_Al_0.01_)(Si_1.95_O_7_)_2_O_2_[(OH)_1.55_F_0.45_]_Î£=2_; light ring contains more Ba and Ti.
Raman shift (cm-1)	intensity
134.058	0
137.433	58.2565
140.808	74.2802
144.183	37.4403
147.557	68.4641
150.932	109.751
154.307	324.066
157.682	711.935
161.057	1183.39
164.431	1360.28
167.806	767.283
171.181	314.065
174.556	105.831
177.931	42.5231
181.305	34.5013
184.68	77.788
188.055	19.9624
191.43	1.76746
194.805	18.494
198.179	5.3667
201.554	32.0836
204.929	100.367
208.304	203.273
211.679	238.027
215.054	292.607
218.428	226.137
221.803	142.116
225.178	26.3673
228.553	48.9985
231.928	38.5894
235.303	52.9352
238.677	59.3346
242.052	152.139
245.427	304.342
248.802	438.15
252.177	560.846
255.551	534.563
258.926	452.147
262.301	352.045
265.676	298.365
269.051	360.1
272.425	391.302
275.8	406.421
279.175	423.889
282.55	342.6
285.925	309.482
289.3	210.189
292.674	179.726
296.049	125.027
299.424	130.506
302.799	188.343
306.174	333.243
309.548	474.479
312.923	565.455
316.298	684.517
319.673	654.259
323.048	522.254
326.422	499.444
329.797	487.834
333.172	631.046
336.547	599.401
339.922	505.87
343.296	378.801
346.671	237.388
350.046	224.68
353.421	141.651
356.796	100.788
360.171	112.093
363.545	153.165
366.92	239.046
370.295	245.631
373.67	239.823
377.045	92.1472
380.419	41.2451
383.794	32.0063
387.169	153.559
390.544	399.947
393.919	741.528
397.293	1012.44
400.668	1279.8
404.043	1473.01
407.418	1488.26
410.793	1438.77
414.168	1441.18
417.542	1315.63
420.917	1201.34
424.292	902.276
427.667	498.301
431.042	176.946
434.416	1.44287
437.791	62.3125
441.166	37.2542
444.541	227.133
447.916	659.871
451.291	1191.35
454.665	1358.51
458.04	972.138
461.415	696.737
464.79	467.384
468.165	316.063
471.539	197.121
474.914	106.158
478.289	61.6167
481.664	68.9995
485.039	108.315
488.413	100.036
491.788	100.424
495.163	46.6085
498.538	10.6106
501.913	20.3148
505.288	20.7665
508.662	5.11304
512.037	51.6039
515.412	130.674
518.787	189.719
522.162	191.936
525.536	203.474
528.911	230.298
532.286	153.921
535.661	114.399
539.036	86.4443
542.41	82.8038
545.785	139.292
549.16	169.993
552.535	210.958
555.91	336.489
559.284	497.476
562.659	699.99
566.034	1078.25
569.409	1676.64
572.784	2500.15
576.159	3113.71
579.533	2874.74
582.908	2273.89
586.283	1891.08
589.658	1645.06
593.033	1443.55
596.408	1194.76
599.782	905.076
603.157	543.514
606.532	355.092
609.907	176.407
613.282	93.6172
616.656	62.0378
620.031	27.021
623.406	7.95288
626.781	6.03735
630.156	38.4591
633.53	9.21814
636.905	15.0989
640.28	18.423
643.655	9.44702
647.03	8.99438
650.404	104.178
653.779	177.903
657.154	274.018
660.529	463.74
663.904	647.228
667.279	922.179
670.653	1271.79
674.028	1661.25
677.403	2080.33
680.778	2564.96
684.153	2974.43
687.528	2935.83
690.902	2602.02
694.277	2086.97
697.652	1493.56
701.027	1024.91
704.402	712.418
707.776	575.099
711.151	444.596
714.526	420.485
717.901	375.368
721.276	405.658
724.65	362.82
728.025	290.262
731.4	287.598
734.775	251.533
738.15	246.425
741.524	195.345
744.899	182.115
748.274	151.638
751.649	65.3408
755.024	54.3843
758.399	43.3789
761.773	53.5037
765.148	11.606
768.523	17.5454
771.898	41.3472
775.273	43.9602
778.648	34.3992
782.022	45.8272
785.397	153.205
788.772	314.095
792.147	467.435
795.521	640.007
798.896	784.573
802.271	775.62
805.646	653.808
809.021	457.976
812.396	192.274
815.77	93.8643
819.145	106.333
822.52	129.65
825.895	64.0698
829.27	149.546
832.644	431.265
836.019	901.552
839.394	1413.89
842.769	1956.44
846.144	2447.85
849.519	2983.31
852.893	3420.73
856.268	3904.85
859.643	4124.75
863.018	4230.77
866.393	4402.06
869.767	4892.38
873.142	5480.74
876.517	5966.26
879.892	6437.57
883.267	6637.26
886.641	6750.4
890.016	6633.46
893.391	6222.86
896.766	5528.47
900.141	4638.34
903.516	3889.85
906.89	3171.24
910.265	2682.44
913.64	2078.81
917.015	1660.38
920.39	1468.35
923.764	1538.08
927.139	1785.57
930.514	2112.58
933.889	2492.7
937.264	3137.35
940.639	3969.64
944.013	4654.48
947.388	4657.75
950.763	3957.21
954.138	3070.04
957.513	2476.66
960.887	2042.47
964.262	1391.68
967.637	633.278
971.012	138.45
974.387	60.5112
977.761	170.158
981.136	96.9199
984.511	97.7307
987.886	69.8699
991.261	8.27173
994.635	41.564
998.01	71.9963
1001.38	150.858
1004.76	168.248
1008.13	259.026
1011.51	303.807
1014.88	339.825
1018.26	344.222
1021.63	427.628
1025.01	467.888
1028.38	460.422
1031.76	486.241
1035.13	475.589
1038.51	410.967
1041.88	365.06
1045.26	343.665
1048.63	292.335
1052.01	313.523
1055.38	306.369
1058.76	351.705
1062.13	388.937
1065.51	436.947
1068.88	448.085
1072.26	458.035
1075.63	394.889
1079.01	204.223
1082.38	158.629
1085.76	68.8044
1089.13	50.1091
1092.51	61.2822
1095.88	17.2659
1099.26	50.7778
1102.63	30.7231
1106	53.5151
1109.38	11.4407
1112.75	14.3127
1116.13	14.5361
1119.5	31.6216
1122.88	32.3999
1126.25	21.8294
1129.63	39.0527
1133	34.8977
1136.38	1.08423
1139.75	38.5193
1143.13	30.8921
1146.5	5.77466
1149.88	9.79175
1153.25	33.9746
1156.63	20.344
1160	14.2253
1163.38	0.740234
1166.75	11.0361
1170.13	3.00049
1173.5	22.9922
1176.88	3.82617
1180.25	25.4368
1183.62	52.0747
1187	56.5801
1190.38	21.3335
1193.75	20.6267
1197.12	74.6797
1200.5	28.0403
1203.87	6.28491
1207.25	23.1064
1210.62	27.6128
1214	78.1609
1217.37	39.7991
1220.75	20.0034
1224.12	27.3181
1227.5	18.4812
1230.87	54.4707
1234.25	16.1597
1237.62	88.4077
1241	58.6521
1244.37	36.2063
1247.75	67.625
1251.12	54.8931
1254.5	17.1692
1257.87	71.1338
1261.25	19.8679
1264.62	5.82983
1267.99	34.1885
1271.37	46.739
1274.74	83.7029
1278.12	40.5984
1281.49	62.0625
1284.87	6.73804
1288.24	44.2412
1291.62	43.7419
1294.99	21.6616
1298.37	14.6228
