Measurement: Raman, 785 nm, unoriented, Raman Data Processed
Mineral: Nabalamprophyllite
Rruff sample: R060877
Ideal chemistry: Na_3_(BaNa)Ti^4+^_3_(Si_2_O_7_)_2_O_2_(OH)_2_
Locality: Slyuda (mica) quarry, Kovdor, Kola Peninsula, Russia
Source: Michael Scott
Description: Yellowish brown platy fragment. IS THIS A NEW MINERAL?
Measured chemistry: (Na_2.67_Mg_0.12_Mn^2+^_0.07_Ca_0.05_)(Ba_1.39_K_0.27_Sr_0.04_)(Ti_2.89_Fe_0.26_Al_0.01_)(Si_1.95_O_7_)_2_O_2_[(OH)_1.55_F_0.45_]_Î£=2_; light ring contains more Ba and Ti.
Raman shift (cm-1)	intensity
120.563	0
123.456	6.84386
126.349	39.366
129.241	82.3356
132.134	92.3177
135.027	45.7484
137.919	27.1589
140.812	44.3587
143.705	82.7331
146.597	132.462
149.49	147.244
152.383	146.371
155.276	149.111
158.168	180.11
161.061	210.994
163.954	204.393
166.846	174.905
169.739	130.265
172.632	98.5366
175.524	94.0699
178.417	95.2166
181.31	105.177
184.203	100.683
187.095	81.0921
189.988	74.5248
192.881	59.6247
195.773	61.9517
198.666	65.2673
201.559	52.6874
204.452	79.3232
207.344	91.3638
210.237	97.0127
213.13	103.918
216.022	94.8739
218.915	56.4235
221.808	49.3006
224.7	20.5137
227.593	8.48325
230.486	8.36743
233.379	19.5423
236.271	13.7878
239.164	4.41223
242.057	19.2796
244.949	18.7427
247.842	35.229
250.735	59.9589
253.627	85.9583
256.52	69.1181
259.413	70.3367
262.305	42.9871
265.198	38.2669
268.091	40.3485
270.984	62.8197
273.876	46.7918
276.769	64.631
279.662	71.3469
282.554	72.5528
285.447	87.5429
288.34	73.4142
291.233	89.4598
294.125	92.4325
297.018	87.514
299.911	103.847
302.803	138.419
305.696	174.227
308.589	221.529
311.481	234.248
314.374	265
317.267	264.154
320.159	238.619
323.052	211.113
325.945	165.024
328.838	150.736
331.73	136.26
334.623	146.272
337.516	140.627
340.408	121.79
343.301	121.576
346.194	98.5577
349.087	94.8487
351.979	77.609
354.872	56.7015
357.765	48.4829
360.657	41.9367
363.55	42.0742
366.443	5.1282
369.335	9.22183
372.228	9.11597
375.121	13.5871
378.014	4.77872
380.906	18.5138
383.799	7.5148
386.692	55.1004
389.584	105.484
392.477	199.179
395.37	272.324
398.262	347.286
401.155	402.422
404.048	417.778
406.941	441.078
409.833	429.548
412.726	415.133
415.619	410.128
418.511	433.829
421.404	402.704
424.297	376.01
427.19	285.814
430.082	177.555
432.975	132.403
435.868	85.6368
438.76	70.1118
441.653	90.1496
444.546	150.686
447.438	259.973
450.331	413.351
453.224	502.438
456.116	440.441
459.009	331.409
461.902	244.843
464.795	179.599
467.687	123.673
470.58	100.027
473.473	72.5613
476.365	47.9658
479.258	42.4447
482.151	30.3294
485.043	43.5697
487.936	60.3284
490.829	51.8131
493.722	33.0129
496.614	28.0241
499.507	10.9192
502.4	5.84534
505.292	4.40362
508.185	14.304
511.078	9.96178
513.971	5.13876
516.863	6.30476
519.756	8.25702
522.649	23.1873
525.541	26.6632
528.434	40.18
531.327	59.4209
534.219	59.0503
537.112	47.9856
540.005	43.054
542.898	41.6162
545.79	34.9383
548.683	43.4083
551.576	54.8987
554.468	67.3851
557.361	93.9074
560.254	128.485
563.146	159.501
566.039	230.6
568.932	346.852
571.824	488.976
574.717	617.906
577.61	638.806
580.503	541.207
583.395	450.166
586.288	377.893
589.181	339.957
592.073	294.428
594.966	294.133
597.859	227.024
600.751	180.016
603.644	102.418
606.537	60.1003
609.43	43.7335
612.322	36.1081
615.215	15.5289
618.108	12.4306
621	2.44156
623.893	4.31912
626.786	2.83101
629.678	5.26614
632.571	0.238098
635.464	0.009232
638.357	3.60342
641.249	0.219635
644.142	1.44488
647.035	12.3055
649.927	17.0594
652.82	16.7698
655.713	29.219
658.606	32.7593
661.498	77.3914
664.391	106.608
667.284	136.074
670.176	181.906
673.069	226.235
675.962	292.436
678.854	368.836
681.747	418.086
684.64	482.747
687.533	460.306
690.425	443.64
693.318	359.225
696.211	276.993
699.103	185.939
701.996	138.89
704.889	101.466
707.781	77.6401
710.674	53.2402
713.567	42.4796
716.46	41.9653
719.352	41.965
722.245	38.0761
725.138	45.945
728.03	32.7555
730.923	40.3771
733.816	43.0367
736.708	38.9308
739.601	28.5779
742.494	23.3238
745.386	24.1222
748.279	19.5894
751.172	10.4485
754.065	16.8187
756.957	16.2575
759.85	15.5161
762.743	13.0522
765.635	16.4023
768.528	0.816422
771.421	1.02649
774.313	0.990585
777.206	3.90537
780.099	2.60542
782.992	0.157257
785.884	5.33693
788.777	0.903259
791.67	18.0431
794.562	29.4587
797.455	31.3691
800.348	29.7899
803.24	24.3535
806.133	6.64746
809.026	0.06604
811.919	5.58923
814.811	23.386
817.704	14.303
820.597	19.8563
823.489	4.74945
826.382	19.7752
829.275	53.095
832.168	73.2052
835.06	100.259
837.953	143.448
840.846	191.295
843.738	229.294
846.631	278.191
849.524	306.89
852.416	337.303
855.309	386.449
858.202	427.3
861.095	515.492
863.987	613.54
866.88	795.847
869.773	982.429
872.665	1172.88
875.558	1398.49
878.451	1440.94
881.343	1480.88
884.236	1431.86
887.129	1355.84
890.021	1255.98
892.914	1135.47
895.807	981.098
898.7	845.165
901.592	724.573
904.485	636.777
907.378	551.754
910.27	472.546
913.163	378.314
916.056	295.934
918.949	235.475
921.841	205.33
924.734	185.216
927.627	231.661
930.519	250.027
933.412	302.811
936.305	352.817
939.197	456.589
942.09	549.503
944.983	586.376
947.876	541.89
950.768	455.664
953.661	354.647
956.554	288.961
959.446	257.761
962.339	199.464
965.232	126.064
968.125	69.9538
971.017	18.248
973.91	5.01856
976.803	10.689
979.695	5.4977
982.588	16.6373
985.481	16.6068
988.373	11.6488
991.266	12.8854
994.159	11.4311
997.052	1.05614
999.944	21.5895
1002.84	17.1193
1005.73	24.6904
1008.62	45.1101
1011.51	33.5433
1014.41	39.2258
1017.3	44.3432
1020.19	49.1355
1023.09	47.3219
1025.98	45.8665
1028.87	46.5971
1031.76	61.3899
1034.66	56.1018
1037.55	53.8588
1040.44	54.7634
1043.34	45.0954
1046.23	36.1954
1049.12	30.6182
1052.01	32.3093
1054.91	30.9932
1057.8	27.9457
1060.69	18.9638
1063.58	38.732
1066.48	30.851
1069.37	34.9628
1072.26	43.1296
1075.15	26.3768
1078.05	32.0966
1080.94	16.7436
1083.83	18.3475
1086.72	16.9699
1089.62	12.117
1092.51	7.73831
1095.4	10.7816
1098.3	10.6992
1101.19	3.31059
1104.08	12.7156
1106.97	0.502724
1109.87	13.6927
1112.76	9.16688
1115.65	2.82989
1118.55	3.08271
1121.44	3.52956
1124.33	3.90916
1127.22	1.88103
1130.12	7.11834
1133.01	4.6788
1135.9	0.146469
1138.79	11.1476
1141.69	6.85735
1144.58	9.17622
1147.47	2.82851
1150.37	4.4692
1153.26	18.7165
1156.15	4.90835
1159.04	3.03738
1161.93	3.97047
1164.83	12.8572
1167.72	8.6414
1170.61	0.286041
1173.51	6.79002
1176.4	4.49448
1179.29	0.027573
1182.18	14.1162
1185.08	7.134
1187.97	4.03932
1190.86	9.62252
1193.76	14.935
1196.65	3.89474
1199.54	5.3474
1202.43	13.755
1205.33	6.06583
1208.22	4.1055
1211.11	9.31248
1214	5.41772
1216.9	13.8818
1219.79	12.6025
1222.68	21.4106
1225.58	7.81341
1228.47	20.7651
1231.36	14.2409
1234.25	12.3443
1237.15	9.85405
1240.04	14.161
1242.93	17.3171
1245.82	8.45628
1248.72	12.544
1251.61	10.5402
1254.5	2.85897
1257.39	7.04213
1260.29	5.1963
1263.18	2.3076
1266.07	3.5359
