Measurement: Raman, 785 nm, unoriented, Raman Data Processed
Mineral: Nabokoite
Rruff sample: R070062
Ideal chemistry: Cu^2+^_7_Te^4+^O_4_(SO_4_)_5_KCl
Locality: Tolbachik Volcano, Kamchatka, Russia
Source: Michael Scott
Description: Brown thin tabular plates, co-type material
Measured chemistry: K_1.00_(Cu^2+^_6.78_Zn_0.22_)_Σ=7_(Te^4+^_0.72_V^5+^_0.14_Bi^3+^_0.05_Fe^3+^_0.05_V^3+^_0.04_)_Σ=1_O_4_(S_1.00_O_4_)_5_Cl_1.00_; V^5+^ and V^3+^ splitted by charge balance
Raman shift (cm-1)	intensity
155.058	0
157.951	17.6426
160.844	5.03979
163.736	67.3696
166.629	132.09
169.522	229.558
172.414	257.478
175.307	280.729
178.2	368.046
181.093	466.071
183.985	573.018
186.878	691.388
189.771	745.202
192.663	806.301
195.556	870.323
198.449	909.933
201.341	901.012
204.234	864.211
207.127	851.754
210.019	874.046
212.912	926.691
215.805	950.338
218.698	931.298
221.59	928.692
224.483	887.912
227.376	746.641
230.268	590.062
233.161	444.812
236.054	405.967
238.946	290.272
241.839	214.699
244.732	189.217
247.625	170.55
250.517	117.43
253.41	139.298
256.303	128.679
259.195	92.5411
262.088	122.061
264.981	96.949
267.873	68.7301
270.766	62.0265
273.659	40.9718
276.552	13.3256
279.444	12.6879
282.337	25.8574
285.23	8.25952
288.122	2.22412
291.015	6.53809
293.908	18.7473
296.8	17.5222
299.693	16.8383
302.586	0.760742
305.478	8.02271
308.371	12.6246
311.264	2.38196
314.157	22.826
317.049	1.23596
319.942	21.5504
322.835	7.3374
325.727	17.0537
328.62	36.5535
331.513	38.0868
334.406	21.183
337.298	56.522
340.191	28.2788
343.084	42.1484
345.976	51.1962
348.869	42.4077
351.762	51.7172
354.654	29.6145
357.547	16.3595
360.44	39.7565
363.333	18.9465
366.225	39.5491
369.118	26.0759
372.011	24.2029
374.903	17.6154
377.796	20.1747
380.689	17.6077
383.582	30.5581
386.474	18.5427
389.367	11.6901
392.26	12.4095
395.152	11.3852
398.045	6.82214
400.938	5.10998
403.83	2.88159
406.723	16.5101
409.616	5.93005
412.508	5.3938
415.401	14.2989
418.294	28.6925
421.187	13.2156
424.079	3.0918
426.972	40.6039
429.865	12.8309
432.757	60.7964
435.65	86.3427
438.543	71.5028
441.435	68.8453
444.328	85.4686
447.221	101.229
450.113	81.4469
453.006	115.077
455.899	56.2755
458.792	90.9786
461.684	114.588
464.577	87.1154
467.47	94.6498
470.362	100.219
473.255	92.0098
476.148	94.2014
479.041	129.807
481.933	143.167
484.826	131.773
487.719	104.7
490.611	136.78
493.504	162.806
496.397	158.581
499.289	180.472
502.182	160.773
505.075	215.823
507.967	239.972
510.86	238.474
513.753	203.405
516.646	187.891
519.538	151.559
522.431	130.388
525.324	80.9795
528.216	87.9369
531.109	40.902
534.002	12.9833
536.894	38.1268
539.787	5.80408
542.68	0.296753
545.573	0.614868
548.465	6.46899
551.358	15.3947
554.251	8.57703
557.143	13.1696
560.036	20.4664
562.929	2.11951
565.822	10.3645
568.714	4.83496
571.607	4.25708
574.5	8.97412
577.392	13.4225
580.285	17.2068
583.178	45.3496
586.07	43.4808
588.963	64.5825
591.856	78.0753
594.749	48.6965
597.641	53.1039
600.534	72.6724
603.427	79.2916
606.319	88.7671
609.212	83.1859
612.105	99.8225
614.997	112.667
617.89	92.7246
620.783	107.6
623.676	126.016
626.568	128.56
629.461	140.039
632.354	128.364
635.246	127.83
638.139	126.425
641.032	92.3268
643.924	113.811
646.817	140.205
649.71	148.67
652.602	184.473
655.495	175.059
658.388	221.761
661.281	262.45
664.173	245.952
667.066	325.182
669.959	343.616
672.851	444.57
675.744	415.367
678.637	375.885
681.529	272.26
684.422	226.494
687.315	126.542
690.208	84.0079
693.1	67.7584
695.993	28.3088
698.886	53.7739
701.778	53.7722
704.671	5.62366
707.564	23.0762
710.457	2.43176
713.349	10.527
716.242	9.81677
719.135	3.91931
722.027	0.105835
724.92	6.99536
727.813	16.1639
730.705	27.3665
733.598	6.95264
736.491	26.1581
739.384	28.2318
742.276	34.7963
745.169	13.2135
748.062	21.6681
750.954	16.3629
753.847	2.29468
756.74	11.0126
759.632	25.5712
762.525	41.7786
765.418	0.543213
768.31	39.0649
771.203	49.0807
774.096	15.1209
776.989	32.2039
779.881	6.68866
782.774	17.0408
785.667	32.5955
788.559	41.6708
791.452	29.7407
794.345	33.8182
797.237	26.304
800.13	0.467712
803.023	18.3473
805.915	5.71283
808.808	53.5727
811.701	32.6371
814.594	23.5372
817.486	14.9725
820.379	41.1022
823.272	43.365
826.164	35.2401
829.057	0.225281
831.95	26.4973
834.842	27.5186
837.735	41.7897
840.628	40.4905
843.521	46.1896
846.413	31.5862
849.306	47.3929
852.199	37.1881
855.091	25.9779
857.984	27.7596
860.877	37.2504
863.769	24.7568
866.662	28.015
869.555	30.1936
872.448	29.3268
875.34	17.2328
878.233	9.16742
881.126	59.6612
884.018	39.3002
886.911	40.1083
889.804	36.8096
892.697	23.8524
895.589	19.0484
898.482	26.1723
901.375	56.6294
904.267	41.2338
907.16	18.5642
910.053	47.2499
912.945	18.4142
915.838	19.0303
918.731	8.70764
921.624	4.82947
924.516	3.72955
927.409	5.60974
930.302	15.1956
933.194	1.88922
936.087	1.70691
938.98	0.329102
941.872	8.05542
944.765	8.9198
947.658	0.953735
950.551	13.6578
953.443	0.946594
956.336	4.70386
959.229	15.4035
962.121	18.7199
965.014	2.06042
967.907	36.4534
970.799	23.8538
973.692	61.7816
976.585	62.2728
979.477	62.1986
982.37	71.741
985.263	140.748
988.156	178.139
991.048	250.892
993.941	346.767
996.834	508.812
999.726	640.026
1002.62	833.025
1005.51	981.457
1008.4	925.646
1011.3	746.498
1014.19	468.324
1017.08	235.263
1019.98	179.001
1022.87	108.308
1025.76	40.3693
1028.65	35.4336
1031.55	25.5732
1034.44	52.139
1037.33	29.2189
1040.22	40.0177
1043.12	30.3312
1046.01	7.19519
1048.9	1.04614
1051.8	23.3245
1054.69	22.7345
1057.58	8.37585
1060.47	6.00659
1063.37	2.27661
1066.26	26.2776
1069.15	16.2574
1072.04	11.4932
1074.94	12.7258
1077.83	6.62781
1080.72	17.1261
1083.62	33.5505
1086.51	36.8638
1089.4	32.8949
1092.29	25.6096
1095.18	24.3848
1098.08	56.4011
1100.97	53.772
1103.86	56.822
1106.76	33.0111
1109.65	52.0405
1112.54	39.1114
1115.43	34.321
1118.33	65.9562
1121.22	44.2137
1124.11	2.88354
1127.01	11.5354
1129.9	13.489
1132.79	26.8666
1135.68	2.44751
1138.58	2.69775
1141.47	13.8816
1144.36	9.4596
1147.25	10.9842
1150.15	0.631104
1153.04	23.8408
1155.93	15.8737
1158.83	7.68622
1161.72	48.6082
1164.61	22.5304
1167.5	14.1484
1170.4	33.8027
1173.29	7.32074
1176.18	12.5535
1179.07	6.85492
1181.97	20.0968
1184.86	36.2228
1187.75	30.6422
1190.64	28.1959
1193.54	64.4299
1196.43	74.6573
1199.32	49.6186
1202.21	88.0586
1205.11	55.4995
1208	112.902
1210.89	76.1719
1213.79	45.6724
1216.68	49.9168
1219.57	68.925
1222.46	45.8992
1225.36	37.7384
1228.25	47.1495
1231.14	41.2299
1234.04	57.3129
1236.93	53.6896
1239.82	33.8094
1242.71	8.93024
