Measurement: Raman, 532 nm, unoriented, Raman Data Processed
Mineral: Nabokoite
Rruff sample: R070062
Ideal chemistry: Cu^2+^_7_Te^4+^O_4_(SO_4_)_5_KCl
Locality: Tolbachik Volcano, Kamchatka, Russia
Source: Michael Scott
Description: Brown thin tabular plates, co-type material
Measured chemistry: K_1.00_(Cu^2+^_6.78_Zn_0.22_)_Σ=7_(Te^4+^_0.72_V^5+^_0.14_Bi^3+^_0.05_Fe^3+^_0.05_V^3+^_0.04_)_Σ=1_O_4_(S_1.00_O_4_)_5_Cl_1.00_; V^5+^ and V^3+^ splitted by charge balance
Raman shift (cm-1)	intensity
150.182	0
153.075	112.28
155.967	50.0908
158.86	50.3105
161.753	223.39
164.645	390.893
167.538	529.386
170.431	726.616
173.323	959.421
176.216	1195.06
179.109	1577.1
182.002	2084.96
184.894	2569.52
187.787	2988.3
190.68	3401.83
193.572	3557.28
196.465	3631.68
199.358	3565.63
202.25	3539.31
205.143	3589.91
208.036	3732.47
210.929	3991.41
213.821	4191.7
216.714	4501.13
219.607	4419.71
222.499	4086.29
225.392	3676.82
228.285	3340.14
231.177	2557.67
234.07	2059.25
236.963	1493.87
239.856	1170.2
242.748	928.355
245.641	739.125
248.534	689.148
251.426	587.535
254.319	543.188
257.212	504.123
260.104	502.585
262.997	500.961
265.89	317.376
268.783	272.233
271.675	231.134
274.568	207.284
277.461	88.0801
280.353	85.9414
283.246	3.70117
286.139	45.0557
289.031	30.7734
291.924	19.4951
294.817	20.2256
297.709	36.0029
300.602	9.99121
303.495	19.998
306.387	3.91699
309.28	8.67188
312.173	11.3213
315.066	31.5742
317.958	53.4365
320.851	67.3418
323.744	46.8809
326.636	65.7822
329.529	135.879
332.422	137.655
335.315	103.097
338.207	30.7021
341.1	124.408
343.993	145.742
346.885	123.577
349.778	91.8711
352.671	133.205
355.563	182.815
358.456	115.08
361.349	103.927
364.241	181.366
367.134	110.544
370.027	153.95
372.92	54.0801
375.812	32.8516
378.705	36.0244
381.598	1.68945
384.49	64.4033
387.383	73.415
390.276	14.9707
393.168	104.103
396.061	101.735
398.954	38.2402
401.846	60.3867
404.739	98.5811
407.632	41.2383
410.525	41.7734
413.417	36.0879
416.31	77.1826
419.203	113.753
422.095	112.379
424.988	196.961
427.881	352.649
430.774	490.755
433.666	839.317
436.559	1225.32
439.452	1630.92
442.344	1638.38
445.237	1809.37
448.13	1923.61
451.022	1938.34
453.915	1532.73
456.808	1170.48
459.7	987.294
462.593	866.506
465.486	782.662
468.378	765.278
471.271	709.021
474.164	694.401
477.057	771.428
479.949	772.858
482.842	837.546
485.735	839.971
488.627	901.404
491.52	904.74
494.413	911.759
497.305	953.789
500.198	1005.8
503.091	1055.96
505.984	1031.89
508.876	953.896
511.769	960.292
514.662	778.622
517.554	584.722
520.447	528.284
523.34	355.06
526.232	257.387
529.125	123.103
532.018	36
534.911	29.29
537.803	63.5576
540.696	85.4502
543.589	79.4053
546.481	74.3818
549.374	24.7939
552.267	91.9394
555.159	130.608
558.052	188.169
560.945	112.196
563.837	370.329
566.73	450.741
569.623	483.856
572.516	635.658
575.408	773.92
578.301	766.043
581.194	850.047
584.086	878.981
586.979	936.675
589.872	871.195
592.764	927.346
595.657	1070.97
598.55	1132.96
601.443	1394.14
604.335	1568.55
607.228	1634.77
610.121	1635.37
613.013	1515.56
615.906	1482.54
618.799	1552.69
621.692	1555.59
624.584	1584.89
627.477	1689.31
630.37	1728.94
633.262	1614.94
636.155	1544.63
639.048	1235.75
641.94	1124.73
644.833	1050.32
647.726	1045.04
650.618	1096.9
653.511	1193.82
656.404	1360.79
659.297	1439.54
662.189	1780.79
665.082	2055.03
667.975	2359.81
670.867	2630
673.76	2716.35
676.653	2481.22
679.545	2171.5
682.438	1684.92
685.331	1087.11
688.223	718.26
691.116	525.846
694.009	383.853
696.902	211.624
699.794	168.82
702.687	50.1904
705.58	53.2578
708.472	22.2432
711.365	64.0635
714.258	14.8525
717.15	27.8945
720.043	76.207
722.936	21.708
725.829	49.1279
728.721	43.4902
731.614	40.7432
734.507	32.3691
737.399	29.2803
740.292	3.3916
743.185	60.6338
746.077	0.901367
748.97	85.0449
751.863	87.3144
754.755	78.875
757.648	90.3398
760.541	87.9434
763.434	146.252
766.326	130.908
769.219	146.356
772.112	127.95
775.004	177.695
777.897	241.605
780.79	109.182
783.683	139.246
786.575	67.6377
789.468	74.0488
792.361	35.125
795.253	90.2852
798.146	124.503
801.039	46.1826
803.931	115.244
806.824	112.262
809.717	183.25
812.609	89.2578
815.502	148.848
818.395	159.31
821.288	48.415
824.18	70.418
827.073	33.2188
829.966	158.672
832.858	172.448
835.751	177.139
838.644	137.365
841.536	45.2031
844.429	117.159
847.322	205.69
850.215	64.751
853.107	73.6436
856	108.578
858.893	171.098
861.785	117.606
864.678	240.782
867.571	223.969
870.463	120.013
873.356	179.314
876.249	202.292
879.141	207.492
882.034	218.47
884.927	246.825
887.82	221.273
890.712	261.509
893.605	179.516
896.498	241.518
899.39	126.946
902.283	169.653
905.176	101.949
908.068	111.003
910.961	95.0186
913.854	138.983
916.746	115.294
919.639	30.6475
922.532	104.231
925.425	104.115
928.317	62.5508
931.21	15.4033
934.103	41.3516
936.995	77.4228
939.888	76.5752
942.781	19.2109
945.673	51.7685
948.566	15.0322
951.459	4.42676
954.352	97.3486
957.244	165.649
960.137	454.999
963.03	577.423
965.922	1088.77
968.815	1910.41
971.708	2773.62
974.601	3672.12
977.493	3691.68
980.386	2899.69
983.279	2177.62
986.171	1938.32
989.064	2223.98
991.957	2789.6
994.849	3790.97
997.742	4866.17
1000.63	5764.82
1003.53	6323.04
1006.42	6357.35
1009.31	5118.12
1012.21	3352.05
1015.1	1724.25
1017.99	732.031
1020.88	240.231
1023.78	13.1768
1026.67	62.248
1029.56	76.4365
1032.45	115.997
1035.35	253.633
1038.24	560.153
1041.13	995.704
1044.03	1181.25
1046.92	1344.08
1049.81	1490.94
1052.7	1426.35
1055.6	1253.63
1058.49	1125.46
1061.38	1082.51
1064.27	858.674
1067.17	757.959
1070.06	692
1072.95	646.148
1075.85	708.193
1078.74	733.818
1081.63	675.482
1084.52	680.461
1087.42	710.234
1090.31	577.041
1093.2	421.002
1096.09	404.769
1098.99	252.264
1101.88	300.568
1104.77	196.361
1107.66	69.1484
1110.56	133.217
1113.45	0.921875
1116.34	79.0371
1119.23	37.1465
1122.13	26.4824
1125.02	1.63281
1127.91	13.2949
1130.81	46.8613
1133.7	153.406
1136.59	121.508
1139.48	124.43
1142.38	273.236
1145.27	303.15
1148.16	531.422
1151.06	551.859
1153.95	674.078
1156.84	675.334
1159.73	727.194
1162.63	691.414
1165.52	415.337
1168.41	320.264
1171.3	151.216
1174.2	195.591
1177.09	34.9902
1179.98	11.706
1182.88	11.1699
1185.77	76.8008
1188.66	41.9395
1191.55	76.5664
1194.44	193.846
1197.34	362.81
1200.23	603.502
1203.12	900.823
1206.02	1162.43
1208.91	1286.68
1211.8	1278.88
1214.69	1016.08
1217.59	832.168
1220.48	503.804
1223.37	306.992
1226.27	165.738
1229.16	106.696
1232.05	200.907
1234.94	225.846
1237.84	138.447
1240.73	147.624
1243.62	98.0254
1246.51	78.8955
1249.41	85.8711
1252.3	162.227
1255.19	78.3555
1258.09	160.853
1260.98	91.1328
1263.87	113.251
1266.76	56.7119
1269.66	104.843
1272.55	110.744
1275.44	179.812
1278.33	110.198
1281.23	41.0225
1284.12	150.806
1287.01	98.2676
1289.9	82.4033
