Measurement: Raman, 532 nm, unoriented, Raman Data Processed
Mineral: Nadorite
Rruff sample: R050525
Ideal chemistry: PbSb^3+^O_2_Cl
Locality: Langban, Filipstad, Varmland, Sweden
Source: University of Arizona Mineral Museum
Description: Pale yellow platy group
Raman shift (cm-1)	intensity
120.817	0
124.192	88.1361
127.567	138.13
130.942	366.758
134.317	686.195
137.691	1059.57
141.066	1373.04
144.441	1181.14
147.816	958.101
151.191	778.601
154.565	613.372
157.94	504.855
161.315	411.801
164.69	328.781
168.065	239.158
171.44	118.679
174.814	26.4331
178.189	19.8823
181.564	44.3722
184.939	26.121
188.314	33.7887
191.688	198.988
195.063	648.6
198.438	1780.84
201.813	2569.12
205.188	3422.74
208.562	4998.51
211.937	8506.58
215.312	11016.7
218.687	4468.36
222.062	1709.76
225.437	1004.25
228.811	692.64
232.186	599.56
235.561	622.981
238.936	690.267
242.311	714.302
245.685	650.937
249.06	533.375
252.435	424.984
255.81	329.58
259.185	231.416
262.56	155.965
265.934	102.163
269.309	57.7233
272.684	32.7842
276.059	17.0219
279.434	11.1048
282.808	0.946655
286.183	11.032
289.558	13.2339
292.933	8.80591
296.308	4.6369
299.683	7.92059
303.057	21.9203
306.432	33.1176
309.807	40.9302
313.182	50.9623
316.557	51.3256
319.932	58.3779
323.306	59.0332
326.681	61.654
330.056	63.1319
333.431	64.4207
336.805	70.7294
340.18	70.2239
343.555	64.6552
346.93	53.4883
350.305	40.0466
353.68	32.8608
357.054	26.8311
360.429	24.1867
363.804	21.396
367.179	25.5474
370.554	21.6888
373.928	27.743
377.303	31.7391
380.678	35.1364
384.053	43.1733
387.428	52.41
390.803	64.8303
394.177	76.7504
397.552	90.9665
400.927	104.743
404.302	112.187
407.677	119.062
411.051	110.671
414.426	97.5291
417.801	74.0851
421.176	49.9661
424.551	38.2908
427.926	31.5436
431.3	31.0187
434.675	22.134
438.05	21.5158
441.425	15.9686
444.8	10.4799
448.174	9.11346
451.549	11.035
454.924	7.73853
458.299	8.74963
461.674	7.34998
465.048	5.7962
468.423	2.2475
471.798	0.460144
475.173	2.46252
478.548	2.68274
481.923	7.1936
485.297	4.96472
488.672	6.30817
492.047	2.0484
495.422	1.25085
498.797	6.60455
502.171	12.6858
505.546	16.2258
508.921	26.5558
512.296	34.8862
515.671	49.5563
519.046	65.2776
522.42	93.7402
525.795	134.746
529.17	196.755
532.545	280.874
535.92	401.389
539.294	553.786
542.669	727.751
546.044	883.322
549.419	985.995
552.794	971.005
556.169	860.773
559.543	712.68
562.918	580.833
566.293	475.456
569.668	387.554
573.043	323.011
576.418	267.83
579.792	225.589
583.167	189.936
586.542	159.29
589.917	135.988
593.292	115.272
596.666	98.4562
600.041	81.8398
603.416	66.7321
606.791	53.1872
610.166	41.5955
613.54	32.9443
616.915	25.0607
620.29	18.5619
623.665	12.0926
627.04	7.30347
630.414	5.77896
633.789	4.33966
637.164	3.24371
640.539	0.092682
643.914	1.30307
647.289	1.31668
650.663	3.93512
654.038	1.26294
657.413	2.60413
660.788	0.02774
664.163	2.16467
667.538	1.08896
670.912	3.3313
674.287	4.82297
677.662	10.0409
681.037	11.9126
684.412	16.5731
687.786	23.1667
691.161	20.0431
694.536	26.2322
697.911	23.6787
701.286	24.1353
704.66	23.3135
708.035	18.9962
711.41	13.255
714.785	13.3237
718.16	13.527
721.534	11.7737
724.909	8.14728
728.284	6.64569
731.659	8.00983
735.034	6.36029
738.409	6.52017
741.783	2.14114
745.158	4.48471
748.533	4.42328
751.908	2.60284
755.283	3.34628
758.658	3.18381
762.032	1.58243
765.407	2.48727
768.782	3.51324
772.157	1.91531
775.532	1.71722
778.906	1.99948
782.281	3.4639
785.656	2.39929
789.031	0.726532
792.406	2.59613
795.78	2.34531
799.155	0.491882
802.53	1.60974
805.905	2.01666
809.28	3.69977
812.654	0.824524
816.029	0.268188
819.404	9.82678
822.779	1.7854
826.154	0.807922
829.529	1.72568
832.903	0.590302
836.278	0.039001
839.653	1.67673
843.028	3.69122
846.403	0.087982
849.778	5.82431
853.152	5.48709
856.527	6.25043
859.902	6.66461
863.277	4.56442
866.652	3.0087
870.026	6.33612
873.401	2.90772
876.776	2.77429
880.151	1.49863
883.526	3.91473
886.9	5.19608
890.275	5.03805
893.65	3.46646
897.025	5.99557
900.4	3.52814
903.775	4.48587
907.149	2.92908
910.524	1.87558
913.899	5.87994
917.274	6.20428
920.649	5.36932
924.024	4.11179
927.398	5.47031
930.773	4.23019
934.148	3.35211
937.523	3.69156
940.898	1.57294
944.272	5.49091
947.647	4.38715
951.022	3.73108
954.397	1.74988
957.772	5.22293
961.146	4.52649
964.521	1.08133
967.896	1.91891
971.271	0.636658
974.646	1.70779
978.021	1.60342
981.395	3.47128
984.77	1.05878
988.145	2.76709
991.52	2.84836
994.895	3.35086
998.269	1.6734
1001.64	2.94934
1005.02	0.309692
1008.39	1.9408
1011.77	1.24985
1015.14	0.230286
1018.52	0.833954
1021.89	0.668579
1025.27	1.34161
1028.64	1.51318
1032.02	0.215607
1035.39	1.88968
1038.77	3.56195
1042.14	0.301636
1045.52	0.418152
1048.89	0.298889
1052.27	2.21103
1055.64	0.313629
1059.02	0.599976
1062.39	2.42273
1065.77	2.17728
1069.14	5.8562
1072.52	4.15286
1075.89	8.23813
1079.27	8.05603
1082.64	10.4509
1086.02	13.7242
1089.39	13.661
1092.76	13.6204
1096.14	12.386
1099.51	14.0491
1102.89	14.9672
1106.26	15.9112
1109.64	15.5782
1113.01	13.7842
1116.39	13.3009
1119.76	12.384
1123.14	18.4824
1126.51	8.80487
1129.89	8.09543
1133.26	5.17984
1136.64	7.06226
1140.01	7.01584
1143.39	6.64444
1146.76	7.91464
1150.14	6.96341
1153.51	5.59262
1156.89	5.29459
1160.26	4.60376
1163.63	4.67667
1167.01	5.14215
1170.38	1.5282
1173.76	2.55798
1177.13	3.59189
1180.51	2.62112
1183.88	0.437286
1187.26	0.063782
1190.63	1.49737
1194.01	1.30499
1197.38	0.419464
1200.76	1.63208
1204.13	1.19043
1207.51	0.333557
1210.88	0.921082
1214.26	0.937286
1217.63	1.39551
1221.01	1.32422
1224.38	2.55099
1227.76	0.294556
1231.13	0.136932
1234.51	2.10642
1237.88	0.970154
1241.26	2.39886
1244.63	2.17477
1248.01	4.24737
1251.38	2.43546
1254.76	0.327881
1258.13	0.889526
1261.51	2.46594
1264.88	2.26999
1268.26	2.23837
1271.63	3.86575
1275	1.64478
1278.38	1.60199
1281.75	4.08255
1285.13	1.59845
1288.5	0.617737
1291.88	0.004761
1295.25	2.48288
1298.63	1.50565
1302	0.64151
