Measurement: Raman, 532 nm, unoriented, Raman Data Processed
Mineral: Nadorite
Rruff sample: R050523
Ideal chemistry: PbSb^3+^O_2_Cl
Locality: Constantine, Algeria
Source: University of Arizona Mineral Museum
Description: Brown adamantine fragments
Measured chemistry: Pb_1.00_Sb^3+^_1.00_O_2_Cl_1.00_
Raman shift (cm-1)	intensity
144.441	0
147.816	96.9912
151.191	113.15
154.565	72.8242
157.94	101.634
161.315	202.82
164.69	244.175
168.065	176.842
171.44	75.0044
174.814	9.12256
178.189	10.8501
181.564	23.4019
184.939	6.20239
188.314	30.6262
191.688	97.4004
195.063	351.197
198.438	1217.56
201.813	1852.6
205.188	2663.32
208.562	4008.46
211.937	7491.03
215.312	14130
218.687	6684.38
222.062	1905.27
225.437	954.831
228.811	604.126
232.186	429.946
235.561	324.738
238.936	270.44
242.311	202.171
245.685	180.575
249.06	154.978
252.435	136.978
255.81	135.956
259.185	117.427
262.56	99.1433
265.934	83.2419
269.309	70.9407
272.684	53.6709
276.059	49.0918
279.434	54.4866
282.808	42.1501
286.183	25.7788
289.558	16.877
292.933	9.67334
296.308	6.94263
299.683	9.97876
303.057	19.8181
306.432	24.4402
309.807	28.0371
313.182	38.6379
316.557	41.1416
319.932	32.2996
323.306	17.5444
326.681	13.2651
330.056	6.21436
333.431	6.78686
336.805	16.8699
340.18	18.2454
343.555	8.25659
346.93	6.56982
350.305	1.96802
353.68	4.63867
357.054	4.77881
360.429	7.27441
363.804	6.27368
367.179	3.23486
370.554	7.85498
373.928	2.85449
377.303	13.4939
380.678	27.5561
384.053	25.9885
387.428	34.8147
390.803	56.9641
394.177	74.7595
397.552	74.7698
400.927	94.9822
404.302	118.451
407.677	144.661
411.051	139.541
414.426	121.135
417.801	92.1453
421.176	72.0356
424.551	63.1951
427.926	52.25
431.3	47.5815
434.675	42.1782
438.05	28.2798
441.425	25.6689
444.8	18.2129
448.174	14.9351
451.549	29.2622
454.924	7.45825
458.299	11.6782
461.674	2.07397
465.048	3.5835
468.423	10.2839
471.798	5.64453
475.173	2.75317
478.548	8.95557
481.923	5.24634
485.297	1.27856
488.672	1.14673
492.047	4.1228
495.422	8.87476
498.797	13.3855
502.171	3.79419
505.546	9.2937
508.921	36.0891
512.296	50.6665
515.671	78.9734
519.046	111.861
522.42	156.443
525.795	217.999
529.17	318.951
532.545	463.805
535.92	682.257
539.294	960.414
542.669	1290.84
546.044	1637.05
549.419	1849.38
552.794	1786.88
556.169	1497.49
559.543	1173.62
562.918	928.533
566.293	736.206
569.668	611.702
573.043	499.039
576.418	408.028
579.792	332.586
583.167	276.315
586.542	240.849
589.917	206.628
593.292	167.461
596.666	140.732
600.041	123.352
603.416	85.4592
606.791	63.4685
610.166	68.5469
613.54	43.0383
616.915	37.6062
620.29	26.2134
623.665	14.5503
627.04	13.9907
630.414	0.491211
633.789	5.11743
637.164	3.88672
640.539	5.84204
643.914	5.96045
647.289	4.62988
650.663	2.82324
654.038	3.8103
657.413	7.89941
660.788	12.1704
664.163	3.56055
667.538	6.60303
670.912	13.616
674.287	14.511
677.662	11.4641
681.037	8.52588
684.412	21.377
687.786	19.8032
691.161	20.1467
694.536	16.4875
697.911	28.7192
701.286	29.1919
704.66	26.9661
708.035	34.2959
711.41	16.6177
714.785	18.5825
718.16	34.5947
721.534	30.1357
724.909	12.9878
728.284	4.90723
731.659	6.32471
735.034	18.2595
738.409	25.3892
741.783	12.7141
745.158	17.8774
748.533	4.07642
751.908	13.8674
755.283	9.70166
758.658	17.7319
762.032	9.82153
765.407	1.33667
768.782	16.1445
772.157	25.2952
775.532	12.8335
778.906	0.619385
782.281	2.10425
785.656	4.29175
789.031	0.412598
792.406	22.0916
795.78	10.7354
799.155	12.1043
802.53	18.7314
805.905	5.23096
809.28	27.3613
812.654	9.84009
816.029	13.2688
819.404	5.35815
822.779	9.11499
826.154	13.1086
829.529	6.18579
832.903	8.19312
836.278	0.072998
839.653	8.49194
843.028	9.41846
846.403	6.51269
849.778	5.13184
853.152	7.91626
856.527	19.5278
859.902	2.13867
863.277	12.8599
866.652	22.4846
870.026	15.1633
873.401	1.4541
876.776	8.30054
880.151	20.9192
883.526	11.7251
886.9	6.02612
890.275	18.1401
893.65	14.5466
897.025	12.6687
900.4	17.6909
903.775	24.2195
907.149	11.1089
910.524	14.1223
913.899	7.12549
917.274	28.3611
920.649	29.5061
924.024	18.0024
927.398	2.79102
930.773	4.9082
934.148	4.96655
937.523	14.0457
940.898	14.4387
944.272	13.9956
947.647	13.5464
951.022	8.01782
954.397	1.50952
957.772	5.28564
961.146	10.0759
964.521	14.667
967.896	1.70288
971.271	0.765137
974.646	7.28564
978.021	15.0947
981.395	6.65161
984.77	11.645
988.145	4.13696
991.52	7.62671
994.895	6.61304
998.269	8.0166
1001.64	13.127
1005.02	5.83838
1008.39	4.68164
1011.77	11.783
1015.14	14.8135
1018.52	11.0745
1021.89	7.06104
1025.27	15.9407
1028.64	10.9375
1032.02	6.41699
1035.39	17.2864
1038.77	11.8896
1042.14	2.76074
1045.52	7.97461
1048.89	9.46924
1052.27	4.71338
1055.64	1.12939
1059.02	4.85156
1062.39	2.76831
1065.77	13.7478
1069.14	1.02978
1072.52	4.21851
1075.89	12.9898
1079.27	10.9355
1082.64	6.81201
1086.02	11.7217
1089.39	10.4209
1092.76	4.10303
1096.14	15.8159
1099.51	11.5
1102.89	15.5254
1106.26	22.3318
1109.64	20.0007
1113.01	15.7886
1116.39	1.07446
1119.76	8.36548
1123.14	9.17969
1126.51	3.65552
1129.89	12.4819
1133.26	14.0134
1136.64	15.1721
1140.01	6.44019
1143.39	21.9565
1146.76	14.0603
1150.14	16.8648
1153.51	21.1577
1156.89	14.1392
1160.26	0.736816
1163.63	11.0784
1167.01	22.3496
1170.38	5.10083
1173.76	7.80859
1177.13	16.1619
1180.51	2.01538
1183.88	11.4895
1187.26	9.49731
1190.63	6.08789
1194.01	17.8606
1197.38	19.1951
1200.76	10.687
1204.13	3.1189
1207.51	0.705322
1210.88	4.92334
1214.26	17.4504
1217.63	7.95019
1221.01	5.36816
1224.38	17.2114
1227.76	7.25244
1231.13	5.28711
1234.51	8.90503
1237.88	10.7612
1241.26	17.3652
1244.63	7.8833
1248.01	8.17651
1251.38	6.73169
1254.76	4.30835
1258.13	10.0828
1261.51	0.065186
1264.88	12.9553
1268.26	16.9817
1271.63	12.9062
1275	5.29297
1278.38	9.30835
1281.75	14.1682
1285.13	0.891113
1288.5	8.86768
1291.88	14.1221
1295.25	2.28442
1298.63	11.6272
1302	1.95142
