Measurement: Raman, 780 nm, unoriented, Raman Data Processed
Mineral: Nadorite
Rruff sample: R050523
Ideal chemistry: PbSb^3+^O_2_Cl
Locality: Constantine, Algeria
Source: University of Arizona Mineral Museum
Description: Brown adamantine fragments
Measured chemistry: Pb_1.00_Sb^3+^_1.00_O_2_Cl_1.00_
Raman shift (cm-1)	intensity
144.446	0
147.338	54.0168
150.231	74.6509
153.124	31.9011
156.016	79.1047
158.909	178.257
161.802	254.854
164.694	261.378
167.587	189.481
170.48	100.12
173.373	37.1204
176.265	0.952026
179.158	18.1515
182.051	15.0884
184.943	0.707825
187.836	29.075
190.729	96.6659
193.621	323.793
196.514	932.033
199.407	1230.13
202.299	1480.14
205.192	2085.15
208.085	2913.53
210.978	4452.83
213.87	8204.45
216.763	8392.82
219.656	2754.98
222.548	1187.2
225.441	740.516
228.334	543.653
231.226	435.439
234.119	376.882
237.012	340.598
239.905	317.067
242.797	294.342
245.69	268.656
248.583	234.334
251.475	201.263
254.368	180.273
257.261	160.663
260.154	140.195
263.046	126.306
265.939	113.661
268.832	103.715
271.724	95.0303
274.617	80.6291
277.51	72.6456
280.402	63.8385
283.295	47.9614
286.188	30.5542
289.08	18.4826
291.973	9.40994
294.866	5.9173
297.759	5.96275
300.651	11.4888
303.544	14.4611
306.437	18.3527
309.329	21.2722
312.222	23.092
315.115	22.0546
318.007	21.3197
320.9	19.0499
323.793	15.8215
326.686	12.0421
329.578	10.6534
332.471	9.02225
335.364	7.72494
338.256	7.2442
341.149	6.12314
344.042	3.51163
346.935	1.18514
349.827	0.194809
352.72	3.15692
355.613	4.54906
358.505	4.97304
361.398	5.52089
364.291	3.00565
367.183	4.29774
370.076	0.313156
372.969	0.528885
375.861	9.43459
378.754	15.1445
381.647	26.4261
384.54	38.5441
387.432	52.8765
390.325	72.1059
393.218	98.2694
396.11	124.52
399.003	152.263
401.896	183.396
404.788	211.969
407.681	232.159
410.574	233.846
413.467	205.685
416.359	163.409
419.252	120.765
422.145	89.5796
425.037	66.2191
427.93	49.6173
430.823	39.1335
433.716	30.501
436.608	24.1859
439.501	19.0019
442.394	15.8688
445.286	12.073
448.179	7.60265
451.072	4.97372
453.964	3.63326
456.857	3.03423
459.75	1.8352
462.642	2.37215
465.535	0.413757
468.428	0.201416
471.321	0.087082
474.213	0.502457
477.106	1.16264
479.999	0.021103
482.891	2.85349
485.784	1.02057
488.677	1.89351
491.57	0.464935
494.462	0.774307
497.355	3.52725
500.248	6.57573
503.14	10.8048
506.033	17.6724
508.926	23.6257
511.818	31.9265
514.711	43.6544
517.604	58.2478
520.496	76.6934
523.389	105.336
526.282	145.082
529.175	199.988
532.067	272.121
534.96	365.216
537.853	482.774
540.745	618.366
543.638	773.938
546.531	918.114
549.423	1001.45
552.316	967.711
555.209	839.939
558.102	689.45
560.994	555.625
563.887	456.073
566.78	373.27
569.672	311.079
572.565	265.277
575.458	225.837
578.351	193.387
581.243	166.323
584.136	142.319
587.029	123.981
589.921	106.406
592.814	93.5834
595.707	79.6715
598.599	68.5952
601.492	56.6736
604.385	47.0846
607.278	35.8779
610.17	30.4145
613.063	23.2295
615.956	18.4828
618.848	11.6054
621.741	10.5354
624.634	6.23943
627.526	2.69698
630.419	1.62778
633.312	0.222717
636.205	1.25063
639.097	1.67679
641.99	1.70256
644.883	1.49023
647.775	0.444962
650.668	1.34105
653.561	1.21271
656.453	0.05162
659.346	2.27647
662.239	1.27669
665.131	0.490555
668.024	1.21896
670.917	3.09426
673.81	2.00221
676.702	3.4682
679.595	4.56335
682.488	3.40626
685.38	5.12923
688.273	7.61858
691.166	4.79382
694.058	9.19161
696.951	10.1279
699.844	10.5928
702.737	11.1627
705.629	11.3786
708.522	12.2895
711.415	11.3609
714.307	10.9061
717.2	10.9085
720.093	9.0414
722.986	8.91119
725.878	8.37036
728.771	7.21152
731.664	9.62231
734.556	7.10686
737.449	8.00462
740.342	6.3223
743.234	5.62419
746.127	4.60674
749.02	5.10137
751.913	6.60063
754.805	4.9504
757.698	3.42059
760.591	4.17839
763.483	3.59234
766.376	4.58818
769.269	3.01466
772.161	3.75058
775.054	3.70728
777.947	3.94289
780.84	1.06004
783.732	3.87187
786.625	2.38277
789.518	2.72083
792.41	1.51881
795.303	1.64532
798.196	3.50977
801.088	0.093803
803.981	0.109421
806.874	0.426559
809.766	0.548492
812.659	0.605133
815.552	0.890121
818.445	0.557961
821.337	0.35215
824.23	1.34666
827.123	0.386688
830.015	0.05584
832.908	0.068123
835.801	2.73606
838.693	0.871422
841.586	1.44182
844.479	2.56123
847.372	1.00607
850.264	1.39062
853.157	2.09341
856.05	1.64059
858.942	1.48792
861.835	1.44213
864.728	1.41249
867.62	6.41106
870.513	3.49192
873.406	2.12756
876.299	1.97047
879.191	2.22038
882.084	2.33363
884.977	2.05024
887.869	2.19124
890.762	0.392799
893.655	1.18978
896.548	0.995872
899.44	0.029152
902.333	1.76366
905.226	0.804176
908.118	1.34963
911.011	0.927269
913.904	0.426292
916.796	0.52755
919.689	0.735512
922.582	1.95898
925.474	0.667023
928.367	1.61565
931.26	1.44765
934.153	0.815338
937.045	0.635735
939.938	1.12215
942.831	0.790634
945.723	1.44224
948.616	0.835251
951.509	2.37225
954.401	1.45739
957.294	1.26357
960.187	0.687874
963.08	1.34734
965.972	0.930367
968.865	1.24531
971.758	0.823509
974.65	0.057343
977.543	0.942108
980.436	0.659172
983.328	0.786537
986.221	0.519623
989.114	0.131371
992.006	1.98308
994.899	0.834999
997.792	0.205902
1000.68	2.35346
1003.58	0.252609
1006.47	0.848595
1009.36	1.42181
1012.25	1.48634
1015.15	1.37682
1018.04	1.05277
1020.93	1.34685
1023.83	1.34347
1026.72	2.37387
1029.61	1.89403
1032.5	2.98387
1035.4	0.689751
1038.29	1.34167
1041.18	0.746582
1044.08	0.771713
1046.97	2.33453
1049.86	0.430847
1052.75	0.49984
1055.65	1.74947
1058.54	1.63091
1061.43	2.0243
1064.32	1.58635
1067.22	1.08045
1070.11	3.05981
1073	2.13876
1075.89	2.96694
1078.79	3.77872
1081.68	4.5987
1084.57	3.52634
1087.47	4.81014
1090.36	6.12851
1093.25	6.80442
1096.14	5.37797
1099.04	6.19289
1101.93	5.3544
1104.82	5.87067
1107.71	5.09612
1110.61	4.77097
1113.5	4.79977
1116.39	4.00346
1119.29	4.21883
1122.18	3.16653
1125.07	3.61729
1127.96	1.42541
1130.86	2.55721
1133.75	3.87969
1136.64	3.39343
1139.53	2.01793
1142.43	3.39593
1145.32	1.78069
1148.21	2.46427
1151.11	1.88493
1154	0.954803
1156.89	1.10355
1159.78	1.97511
1162.68	1.03321
1165.57	1.34335
1168.46	0.31263
1171.35	0.355408
1174.25	1.29487
1177.14	2.13767
1180.03	0.191589
1182.92	0.118431
1185.82	1.48715
1188.71	0.658997
1191.6	2.38798
1194.49	1.00294
1197.39	0.715286
1200.28	0.592369
1203.17	1.45585
1206.07	0.091888
1208.96	0.152908
1211.85	0.432114
1214.74	0.400574
1217.64	0.019638
1220.53	0.774849
1223.42	1.03541
1226.32	1.4613
1229.21	1.32268
1232.1	1.96323
1234.99	0.538895
1237.89	1.93873
1240.78	1.26633
1243.67	0.322548
1246.56	3.27198
1249.46	1.71901
1252.35	0.43087
1255.24	1.16873
1258.13	0.641983
1261.03	0.498993
1263.92	2.35568
1266.81	1.57851
1269.71	0.69252
1272.6	1.4204
1275.49	1.13345
1278.38	2.19158
1281.28	0.643814
1284.17	0.024399
