Measurement: Raman, 780 nm, unoriented, Raman Data Processed
Mineral: Nadorite
Rruff sample: R050525
Ideal chemistry: PbSb^3+^O_2_Cl
Locality: Langban, Filipstad, Varmland, Sweden
Source: University of Arizona Mineral Museum
Description: Pale yellow platy group
Raman shift (cm-1)	intensity
130.464	0.154778
133.357	5.77867
136.25	16.3112
139.142	28.2457
142.035	30.2962
144.928	23.0916
147.82	19.9856
150.713	18.3786
153.606	13.644
156.499	11.5513
159.391	8.10625
162.284	6.94039
165.177	4.53067
168.069	2.84517
170.962	0.953037
173.855	0.665688
176.747	1.70472
179.64	0.526691
182.533	2.14154
185.425	6.06955
188.318	11.3631
191.211	21.8039
194.104	48.1819
196.996	89.7585
199.889	107.266
202.782	129.904
205.674	169.814
208.567	221.703
211.46	300.172
214.352	382.886
217.245	250.925
220.138	99.9038
223.03	60.7771
225.923	49.1962
228.816	42.0816
231.709	41.8081
234.601	44.0656
237.494	46.3511
240.387	49.2922
243.279	49.884
246.172	45.0815
249.065	38.2647
251.958	31.5225
254.85	25.7464
257.743	20.9001
260.636	15.6898
263.528	11.7498
266.421	9.41114
269.314	7.3171
272.207	6.03942
275.099	4.05564
277.992	3.27814
280.885	2.13974
283.777	1.29128
286.67	0.544929
289.563	0.144682
292.455	0.182341
295.348	0.065007
298.241	0.264163
301.134	0.282549
304.026	0.173075
306.919	0.023993
309.812	0.165061
312.704	0.530256
315.597	0.860788
318.49	0.704535
321.382	0.195516
324.275	0.668011
327.168	0.55322
330.06	0.588302
332.953	0.478193
335.846	0.513053
338.739	0.310715
341.631	0.354178
344.524	0.434956
347.417	0.013925
350.309	0.3519
353.202	0.496002
356.095	0.034769
358.987	0.094154
361.88	0.161591
364.773	0.177238
367.666	0.146953
370.558	0.260695
373.451	0.038409
376.344	0.11585
379.236	0.160143
382.129	0.703215
385.022	0.982105
387.914	1.76161
390.807	2.23975
393.7	2.19143
396.592	2.92023
399.485	3.78621
402.378	4.48873
405.271	4.38307
408.163	4.66481
411.056	4.23067
413.949	3.40855
416.841	2.84048
419.734	2.07108
422.627	1.58359
425.519	1.13406
428.412	0.996501
431.305	0.755911
434.198	0.583838
437.09	0.845995
439.983	0.579541
442.876	0.30308
445.768	0.44584
448.661	0.374501
451.554	0.486443
454.447	0.389148
457.339	0.266527
460.232	0.145667
463.125	0.396537
466.017	0.483849
468.91	0.190864
471.803	0.120879
474.695	0.141859
477.588	0.196937
480.481	0.027067
483.373	0.057097
486.266	0.005928
489.159	0.100449
492.052	0.119911
494.944	0.36907
497.837	0.343801
500.73	0.530879
503.622	0.482921
506.515	0.618129
509.408	1.01534
512.301	1.058
515.193	1.56931
518.086	2.20612
520.979	2.93185
523.871	3.40387
526.764	4.66877
529.657	6.56907
532.549	8.60643
535.442	11.5821
538.335	14.9954
541.227	18.0588
544.12	21.5159
547.013	24.4868
549.906	25.9688
552.798	24.2824
555.691	21.0499
558.584	17.2178
561.476	14.2143
564.369	11.4067
567.262	9.72831
570.154	8.36548
573.047	7.04189
575.94	6.43071
578.833	5.25448
581.725	4.32037
584.618	3.82244
587.511	3.2061
590.403	2.82046
593.296	2.3705
596.189	2.08559
599.082	1.92103
601.974	1.58926
604.867	1.2013
607.76	1.31144
610.652	0.802593
613.545	0.594124
616.438	0.665161
619.33	0.123801
622.223	0.242878
625.116	0.053742
628.009	0.187435
630.901	0.301266
633.794	0.131657
636.687	0.230013
639.579	0.045562
642.472	0.133738
645.365	0.060727
648.257	0.169592
651.15	0.039402
654.043	0.040209
656.936	0.09444
659.828	0.129726
662.721	0.137523
665.614	0.067427
668.506	0.231442
671.399	0.007979
674.292	0.329197
677.184	0.414607
680.077	0.583292
682.97	0.841482
685.862	1.02006
688.755	1.0033
691.648	0.869092
694.541	0.640176
697.433	0.763644
700.326	0.621004
703.219	0.56142
706.111	0.599006
709.004	0.344038
711.897	0.49345
714.789	0.47257
717.682	0.317876
720.575	0.374585
723.468	0.058522
726.36	0.274583
729.253	0.142912
732.146	0.31351
735.038	0.437567
737.931	0.26124
740.824	0.057724
743.716	0.240026
746.609	0.233084
749.502	0.196302
752.395	0.555724
755.287	0.096499
758.18	0.448484
761.073	0.177901
763.965	0.217237
766.858	0.005507
769.751	0.093924
772.644	0.015794
775.536	0.171241
778.429	0.098927
781.322	0.030899
784.214	0.256844
787.107	0.014039
790	0.383746
792.892	0.514253
795.785	0.174044
798.678	0.311874
801.571	0.405375
804.463	0.424996
807.356	0.03828
810.249	0.397186
813.141	0.235456
816.034	0.155951
818.927	0.474689
821.819	0.420953
824.712	0.268086
827.605	0.184032
830.497	0.335291
833.39	0.277555
836.283	0.131961
839.176	0.126379
842.068	0.214085
844.961	0.300058
847.854	0.248062
850.746	0.517677
853.639	0.340087
856.532	0.454969
859.424	0.589401
862.317	0.329866
865.21	0.287267
868.103	0.046038
870.995	0.340946
873.888	0.282995
876.781	0.103888
879.673	0.048117
882.566	0.305763
885.459	0.166808
888.351	0.020306
891.244	0.354715
894.137	0.188257
897.03	0.204908
899.922	0.159598
902.815	0.042218
905.708	0.163306
908.6	0.348884
911.493	0.063301
914.386	0.290236
917.278	0.390985
920.171	0.047649
923.064	0.341533
925.957	0.079768
928.849	0.033393
931.742	0.061546
934.635	0.211905
937.527	0.161315
940.42	0.316514
943.313	0.018485
946.205	0.084714
949.098	0.026783
951.991	0.410322
954.884	0.203968
957.776	0.189378
960.669	0.20901
963.562	0.108974
966.454	0.634527
969.347	0.233205
972.24	0.20919
975.132	0.002661
978.025	0.332746
980.918	0.315935
983.811	0.09896
986.703	0.161297
989.596	0.179078
992.489	0.209781
995.381	0.23249
998.274	0.269779
1001.17	0.312683
1004.06	0.142143
1006.95	0.291464
1009.85	0.179689
1012.74	0.196491
1015.63	0.26064
1018.52	0.015013
1021.42	0.208723
1024.31	0.155874
1027.2	0.562011
1030.09	0.2477
1032.99	0.352204
1035.88	0.368806
1038.77	0.276922
1041.66	0.140428
1044.56	0.116016
1047.45	0.031137
1050.34	0.284772
1053.23	0.021904
1056.13	0.000818
1059.02	0.327409
1061.91	0.256221
1064.81	0.198409
1067.7	0.225821
1070.59	0.283947
1073.48	0.178197
1076.38	0.487469
1079.27	0.30361
1082.16	0.43808
1085.06	0.503883
1087.95	0.374902
1090.84	0.338194
1093.73	0.644331
1096.63	0.132419
1099.52	0.498201
1102.41	0.229205
1105.3	0.595351
1108.2	0.408839
1111.09	0.240431
1113.98	0.324433
1116.88	0.360189
1119.77	0.081095
1122.66	0.3636
1125.55	0.223406
1128.45	0.270219
1131.34	0.409123
1134.23	0.326756
1137.12	0.094083
1140.02	0.108783
1142.91	0.333868
1145.8	0.235204
1148.69	0.183118
1151.59	0.387316
1154.48	0.159615
1157.37	0.305164
1160.27	0.152289
1163.16	0.327157
1166.05	0.282933
1168.94	0.600002
1171.84	0.22171
1174.73	0.35926
1177.62	0.072867
1180.51	0.307986
1183.41	0.093971
1186.3	0.317639
1189.19	0.0192
1192.09	0.269534
1194.98	0.099438
1197.87	0.139366
1200.76	0.276802
1203.66	0.263896
1206.55	0.138342
1209.44	0.091852
1212.33	0.193736
1215.23	0.369336
1218.12	0.406919
1221.01	0.095177
1223.9	0.098138
1226.8	0.004941
1229.69	0.196867
1232.58	0.020841
1235.47	0.157432
1238.37	0.404754
1241.26	0.008767
1244.15	0.251528
1247.05	0.276258
1249.94	0.303082
1252.83	0.249392
1255.72	0.378634
1258.62	0.377421
1261.51	0.506917
1264.4	0.450249
1267.3	0.283318
1270.19	0.108926
1273.08	0.154616
1275.97	0.018484
1278.87	0.210795
1281.76	0.003359
1284.65	0.164014
