Measurement: Raman, 785 nm, unoriented, Raman Data Processed
Mineral: Nahcolite
Rruff sample: R070237
Ideal chemistry: NaHCO_3_
Locality: Bureau of Mines Oil Shale Mine, East Rifle Creek area, Garfield County, Colorado, USA
Source: Michael Scott
Description: Clear, colorless to brownish, massive
Measured chemistry: Na_1.00_HCO_3_ ; H and C not analyzed but assumed by stoichiometry
Raman shift (cm-1)	intensity
154.286	0
157.178	5.08301
160.071	470.098
162.964	1755.01
165.856	1857.63
168.749	737.808
171.642	247.491
174.534	52.8154
177.427	17.49
180.32	18.6941
183.212	13.2925
186.105	92.3979
188.998	370.377
191.891	747.039
194.783	1370.44
197.676	2316.52
200.569	3834.09
203.461	4874.11
206.354	5226.67
209.247	5001.43
212.139	3487.35
215.032	3008.05
217.925	3548.56
220.818	4808.19
223.71	6304.99
226.603	6437.69
229.496	4639.03
232.388	2902.87
235.281	1820.01
238.174	1191.43
241.066	860.42
243.959	579.069
246.852	428.644
249.745	307.477
252.637	220.288
255.53	206.075
258.423	178.117
261.315	155.663
264.208	118.564
267.101	119.78
269.993	73.5596
272.886	46.3845
275.779	73.2454
278.672	20.5083
281.564	47.373
284.457	53.8066
287.35	49.3054
290.242	53.2139
293.135	36.9397
296.028	16.48
298.921	22.6748
301.813	5.48047
304.706	27.5789
307.599	1.8103
310.491	51.8552
313.384	4.83228
316.277	6.70459
319.169	8.8877
322.062	7.80713
324.955	38.8298
327.847	3.69263
330.74	5.67969
333.633	37.0549
336.526	11.1938
339.418	6.51123
342.311	20.9041
345.204	5.53149
348.096	24.2109
350.989	21.1736
353.882	24.0742
356.774	8.8772
359.667	55.189
362.56	37.2034
365.452	35.5444
368.345	48.0017
371.238	28.5896
374.131	55.5237
377.023	53.8289
379.916	95.0791
382.809	55.3003
385.701	0.045654
388.594	36.8303
391.487	38.2913
394.38	6.31738
397.272	52.9214
400.165	68.8904
403.058	44.5059
405.95	10.5918
408.843	42.1394
411.736	5.06836
414.628	24.8901
417.521	57.3809
420.414	45.874
423.307	47.2805
426.199	72.5186
429.092	8.97559
431.985	52.1211
434.877	60.8298
437.77	37.321
440.663	16.1216
443.555	10.4185
446.448	47.7517
449.341	37.062
452.234	34.1338
455.126	56.9526
458.019	31.6951
460.912	48.0178
463.804	45.4639
466.697	19.177
469.59	27.8452
472.483	13.4395
475.375	71.1389
478.268	58.1316
481.161	70.6462
484.053	20.3289
486.946	33.7874
489.839	61.0276
492.731	34.7891
495.624	79.0344
498.517	32.2827
501.409	14.917
504.302	51.9565
507.195	29.2669
510.088	49.9111
512.98	63.8379
515.873	54.7607
518.766	13.0293
521.658	48.8489
524.551	18.8298
527.444	38.8181
530.337	3.30664
533.229	15.7468
536.122	43.6245
539.015	62.2275
541.907	28.6899
544.8	8.97803
547.693	48.9202
550.585	3.40503
553.478	13.8523
556.371	7.65625
559.263	58.9424
562.156	2.46313
565.049	8.92822
567.942	14.877
570.834	1.26074
573.727	2.55396
576.62	29.4463
579.512	12.6431
582.405	12.6509
585.298	62.4155
588.19	62.1123
591.083	40.9785
593.976	11.8113
596.869	26.9141
599.761	26.2119
602.654	30.4856
605.547	2.23828
608.439	26.5933
611.332	30.5615
614.225	35.4143
617.117	19.6668
620.01	37.7529
622.903	2.14648
625.795	68.9177
628.688	27.3645
631.581	13.0586
634.474	46.8152
637.366	50.9263
640.259	58.1494
643.152	92.7988
646.044	197.356
648.937	157.168
651.83	240.573
654.722	564.581
657.615	1453.7
660.508	1415.24
663.401	446.367
666.293	379.895
669.186	521.733
672.079	902.724
674.971	1600.55
677.864	2874.7
680.757	5036.56
683.649	8441.18
686.542	8525.81
689.435	4038.3
692.328	1559.63
695.22	808.278
698.113	603.217
701.006	295.455
703.898	207.779
706.791	114.454
709.684	84.678
712.577	83.5505
715.469	85.7532
718.362	18.6953
721.255	21.8965
724.147	13.2183
727.04	46.4822
729.933	24.9739
732.825	4.21265
735.718	14.9861
738.611	5.72632
741.504	2.91846
744.396	3.74438
747.289	11.4976
750.182	27.8057
753.074	25.8223
755.967	21.9705
758.86	15.321
761.752	10.5247
764.645	29.0877
767.538	37.4656
770.431	25.7847
773.323	15.9263
776.216	11.0877
779.109	6.10522
782.001	2.63477
784.894	15.3962
787.787	52.7043
790.679	41.46
793.572	20.2209
796.465	12.8508
799.357	35.8174
802.25	63.9998
805.143	17.1555
808.036	8.99438
810.928	42.9763
813.821	10.9062
816.714	59.3606
819.606	29.9133
822.499	58.7461
825.392	118.167
828.284	190.297
831.177	341.928
834.07	223.367
836.963	94.5862
839.855	56.3203
842.748	15.9907
845.641	39.687
848.533	28.6843
851.426	6.78271
854.319	20.9304
857.212	10.0796
860.104	32.6099
862.997	29.9058
865.89	57.4702
868.782	26.4099
871.675	46.0386
874.568	52.6997
877.46	24.6572
880.353	45.7644
883.246	38.0134
886.139	26.4377
889.031	65.8806
891.924	52.8957
894.817	7.00439
897.709	47.7607
900.602	33.6921
903.495	24.1074
906.388	36.335
909.28	35.0366
912.173	31.4185
915.066	58.2952
917.958	94.856
920.851	48.0793
923.744	12.147
926.636	10.0242
929.529	28.908
932.422	24.1143
935.314	44.1995
938.207	28.6939
941.1	30.4795
943.993	36.9402
946.885	13.1909
949.778	4.10669
952.671	34.189
955.563	1.54907
958.456	0.332275
961.349	17.0832
964.241	18.5593
967.134	11.2102
970.027	0.395752
972.92	18.3535
975.812	22.6502
978.705	41.4517
981.598	55.928
984.49	81.385
987.383	149.159
990.276	159.133
993.168	156.481
996.061	110.31
998.954	79.0259
1001.85	62.1665
1004.74	37.3743
1007.63	31.9497
1010.52	68.8374
1013.42	71.7715
1016.31	124.8
1019.2	124.628
1022.1	150.502
1024.99	279.829
1027.88	292.816
1030.77	451.331
1033.67	1003.1
1036.56	2441.26
1039.45	5448.64
1042.34	13081.9
1045.24	28794
1048.13	14033
1051.02	3499.08
1053.91	1230.95
1056.81	594.46
1059.7	337.425
1062.59	197.295
1065.49	127.364
1068.38	89.6516
1071.27	87.1887
1074.16	57.6318
1077.06	1.50659
1079.95	48.4016
1082.84	11.3982
1085.73	20.5098
1088.63	7.35181
1091.52	4.94019
1094.41	8.5
1097.31	10.1536
1100.2	22.2034
1103.09	18.1763
1105.98	78.7908
1108.88	58.3984
1111.77	65.4985
1114.66	78.2524
1117.56	110.444
1120.45	109.38
1123.34	91.9109
1126.23	79.5322
1129.12	127.19
1132.02	139.848
1134.91	142.314
1137.8	126.922
1140.7	98.5188
1143.59	120.688
1146.48	99.1055
1149.37	84.0476
1152.27	104.708
1155.16	81.2463
1158.05	122.233
1160.94	72.6331
1163.84	80.4268
1166.73	90.1135
1169.62	49.4609
1172.52	85.7219
1175.41	37.689
1178.3	23.2312
1181.19	36.228
1184.09	56.096
1186.98	18.7908
1189.87	33.209
1192.77	26.7827
1195.66	32.2573
1198.55	20.6431
1201.44	19.6616
1204.34	101.906
1207.23	30.603
1210.12	60.0996
1213.01	113.232
1215.91	63.1165
1218.8	103.962
1221.69	89.5918
1224.58	84.5754
1227.48	52.6887
1230.37	52.2703
1233.26	49.8254
1236.15	32.5693
1239.05	110.654
1241.94	0.01416
