Measurement: Raman, 532 nm, unoriented, Raman Data Processed
Mineral: Nahcolite
Rruff sample: R070237
Ideal chemistry: NaHCO_3_
Locality: Bureau of Mines Oil Shale Mine, East Rifle Creek area, Garfield County, Colorado, USA
Source: Michael Scott
Description: Clear, colorless to brownish, massive
Measured chemistry: Na_1.00_HCO_3_ ; H and C not analyzed but assumed by stoichiometry
Raman shift (cm-1)	intensity
153.519	0
156.411	25.1191
159.304	1025.01
162.197	4417.19
165.09	5848.74
167.982	2387
170.875	787.46
173.768	150.067
176.66	22.1279
179.553	15.5934
182.446	24.4032
185.339	174.374
188.231	549.617
191.124	1177.57
194.017	2225.42
196.909	4010.2
199.802	7012.66
202.695	9336.14
205.587	7992.28
208.48	7685.1
211.373	5988.87
214.266	5869.45
217.158	7643.03
220.051	10665.1
222.944	14678.5
225.836	16235.3
228.729	12328.2
231.622	7672.77
234.514	4708.93
237.407	3120.21
240.3	2055.65
243.192	1382.23
246.085	958.942
248.978	674.587
251.871	490.222
254.763	370.727
257.656	263.988
260.549	219.208
263.441	190.852
266.334	121.951
269.227	134.403
272.12	76.0531
275.012	71.6507
277.905	46.5171
280.798	27.2641
283.69	18.9785
286.583	3.27581
289.476	10.8799
292.368	15.1049
295.261	23.7413
298.154	14.0601
301.046	1.96858
303.939	4.21767
306.832	5.0888
309.725	2.81724
312.617	10.1966
315.51	11.5167
318.403	31.5732
321.295	20.6789
324.188	49.9712
327.081	24.5757
329.974	26.7085
332.866	8.86256
335.759	7.53861
338.652	10.8824
341.544	21.491
344.437	28.341
347.33	46.874
350.223	23.2678
353.115	32.0548
356.008	8.78034
358.901	6.30135
361.793	11.8178
364.686	37.1158
367.579	5.12523
370.471	36.5157
373.364	4.9474
376.257	7.83883
379.149	41.6853
382.042	20.0995
384.935	18.3236
387.828	36.3849
390.72	36.9757
393.613	8.87508
396.506	2.80476
399.398	43.693
402.291	34.6416
405.184	6.07445
408.077	31.0767
410.969	36.2044
413.862	3.72644
416.755	25.8756
419.647	32.0574
422.54	24.6684
425.433	14.43
428.325	8.41669
431.218	30.0312
434.111	5.18044
437.003	22.1576
439.896	21.2259
442.789	16.9102
445.682	27.1788
448.574	21.5768
451.467	30.947
454.36	22.8651
457.252	20.2153
460.145	16.3421
463.038	7.38382
465.93	52.2047
468.823	18.0229
471.716	26.2219
474.609	34.9706
477.501	20.7929
480.394	26.706
483.287	25.8717
486.179	19.3821
489.072	18.4349
491.965	6.31509
494.858	38.9596
497.75	33.4595
500.643	34.3513
503.536	2.93331
506.428	36.5568
509.321	9.06227
512.214	9.63095
515.106	7.91371
517.999	22.1291
520.892	16.3963
523.784	1.39783
526.677	28.017
529.57	1.39957
532.463	24.8413
535.355	15.3804
538.248	18.0846
541.141	18.0555
544.033	31.0377
546.926	23.5127
549.819	1.88555
552.712	7.51643
555.604	21.9577
558.497	35.5809
561.39	12.1204
564.282	23.7794
567.175	0.142344
570.068	18.7529
572.96	2.87577
575.853	9.82845
578.746	26.3141
581.639	14.5663
584.531	1.81286
587.424	2.24191
590.317	16.7295
593.209	3.08687
596.102	5.01781
598.995	4.70921
601.888	1.39302
604.78	14.1196
607.673	34.8127
610.566	29.2047
613.458	16.627
616.351	12.9413
619.244	30.1425
622.136	3.79252
625.029	28.9959
627.922	24.7298
630.814	27.7865
633.707	40.5093
636.6	62.4031
639.493	74.9939
642.385	154.242
645.278	384.144
648.171	317.584
651.063	347.18
653.956	623.141
656.849	1372.52
659.741	2619.55
662.634	613.357
665.527	498.558
668.42	665.88
671.312	1077.19
674.205	1978.78
677.098	3399.45
679.99	5889.22
682.883	10389.5
685.776	13392.9
688.668	6637.52
691.561	2571.26
694.454	1312.95
697.347	1083.36
700.239	523.896
703.132	314.909
706.025	176.716
708.917	133.561
711.81	71.654
714.703	59.9427
717.596	48.4969
720.488	22.2459
723.381	12.9986
726.274	22.6406
729.166	8.52446
732.059	4.66266
734.952	2.14621
737.844	3.36698
740.737	26.1785
743.63	5.26115
746.523	30.013
749.415	5.35539
752.308	4.60394
755.201	25.2838
758.093	3.1027
760.986	2.1539
763.879	6.73988
766.771	1.81949
769.664	3.78763
772.557	25.9446
775.45	12.5911
778.342	34.5694
781.235	54.9066
784.128	17.8099
787.02	25.7352
789.913	17.3367
792.806	6.15772
795.698	17.3938
798.591	38.2213
801.484	33.6087
804.377	16.6006
807.269	44.0697
810.162	37.9447
813.055	73.3331
815.947	69.6381
818.84	89.9966
821.733	149.275
824.625	205.418
827.518	412.839
830.411	760.656
833.304	796.456
836.196	276.477
839.089	93.9838
841.982	74.8146
844.874	43.8485
847.767	18.0089
850.66	10.7069
853.553	5.8555
856.445	30.1383
859.338	24.6704
862.231	16.5436
865.123	6.92722
868.016	33.9168
870.909	2.05378
873.801	14.9653
876.694	20.7035
879.587	21.9769
882.48	3.49284
885.372	39.4484
888.265	2.47196
891.158	30.232
894.05	46.72
896.943	6.99219
899.836	44.2586
902.729	52.7343
905.621	39.2257
908.514	53.7426
911.407	44.2945
914.299	50.2127
917.192	40.7395
920.085	37.542
922.977	39.5264
925.87	44.8241
928.763	67.1006
931.655	50.063
934.548	36.9382
937.441	38.6425
940.334	15.1972
943.226	12.3617
946.119	4.14141
949.012	26.9496
951.904	1.89712
954.797	6.15737
957.69	9.22617
960.582	10.175
963.475	6.42077
966.368	2.25094
969.261	1.10359
972.153	12.443
975.046	11.8344
977.939	42.6663
980.831	77.6751
983.724	116.084
986.617	246.255
989.51	298.438
992.402	318.99
995.295	247.651
998.188	190.557
1001.08	120.672
1003.97	98.8658
1006.87	87.7852
1009.76	101.499
1012.65	112.667
1015.54	99.5361
1018.44	176.819
1021.33	287.549
1024.22	268.701
1027.12	410.978
1030.01	678.988
1032.9	1361.16
1035.79	3393.36
1038.68	8169.65
1041.58	17735.2
1044.47	43023.4
1047.36	31094.1
1050.26	6398.33
1053.15	2084.69
1056.04	1002.74
1058.93	560.589
1061.83	263.958
1064.72	168.253
1067.61	61.1726
1070.51	45.1694
1073.4	17.2227
1076.29	5.23087
1079.18	15.8807
1082.08	16.8225
1084.97	4.35783
1087.86	5.39227
1090.75	17.464
1093.65	52.441
1096.54	80.397
1099.43	95.259
1102.33	82.0394
1105.22	106.331
1108.11	141.302
1111	145.779
1113.9	170.88
1116.79	212.226
1119.68	222.287
1122.57	263.914
1125.47	250.747
1128.36	263.1
1131.25	271.372
1134.14	312.591
1137.04	279.326
1139.93	279.139
1142.82	303.148
1145.71	299.737
1148.61	296.59
1151.5	311.399
1154.39	303.125
1157.29	310.735
1160.18	341.753
1163.07	327.794
1165.96	328.535
1168.86	331.146
1171.75	328.196
1174.64	314.613
1177.54	275.898
1180.43	254.279
1183.32	197.781
1186.21	141.769
1189.11	70.2527
1192	7.16721
1194.89	22.9908
1197.78	20.9605
1200.68	18.9203
1203.57	6.06622
1206.46	24.3414
1209.36	18.6461
1212.25	22.9424
1215.14	78.7737
1218.03	108.316
1220.93	77.0149
1223.82	92.5922
1226.71	21.6492
1229.6	9.33606
1232.5	3.422
1235.39	29.9911
1238.28	146.132
1241.17	139.551
1244.07	177.114
1246.96	52.1619
