Measurement: Raman, 532 nm, unoriented, Raman Data Processed
Mineral: Nakauriite
Rruff sample: R060842
Ideal chemistry: Cu_8_(SO_4_)_4_(CO_3_)(OH)_6_48H_2_O
Locality: Gabbs, Nevada, USA
Source: Bob Jenkins
Description: Spray of blue fibers
Raman shift (cm-1)	intensity
132.13	0
135.504	141.316
138.879	625.55
142.254	1027.12
145.629	1095.68
149.004	640.991
152.379	234.042
155.753	244.341
159.128	300.95
162.503	545.364
165.878	766.337
169.252	1149.45
172.627	1390.4
176.002	1489.92
179.377	1368.92
182.752	1264.66
186.127	1275.73
189.501	1015.77
192.876	916.618
196.251	879.826
199.626	749.245
203.001	697.494
206.375	637.39
209.75	570.186
213.125	582.151
216.5	438.034
219.875	279.141
223.25	160.188
226.624	99.5303
229.999	3.05176
233.374	4.11255
236.749	2.4165
240.124	83.658
243.498	10.8804
246.873	8.40967
250.248	101.616
253.623	112.686
256.998	186.001
260.373	267.217
263.747	538.19
267.122	711.747
270.497	835.26
273.872	863.452
277.247	755.739
280.621	643.591
283.996	617.801
287.371	740.989
290.746	1043.48
294.121	1316.83
297.495	1534.14
300.87	1480.05
304.245	1360.25
307.62	1321.64
310.995	1058.2
314.37	1190.3
317.744	1531.52
321.119	2238.37
324.494	3187.5
327.869	4001.26
331.244	4145.37
334.618	3055.02
337.993	1893.08
341.368	1250.39
344.743	854.937
348.118	526.355
351.493	322.82
354.867	135.668
358.242	106.12
361.617	21.9314
364.992	88.5273
368.366	86.7869
371.741	131.004
375.116	31.9561
378.491	12.0278
381.866	66.4397
385.241	207.429
388.615	395.358
391.99	526.437
395.365	755.506
398.74	951.96
402.115	1083.64
405.49	1356.54
408.864	1539.13
412.239	1868.87
415.614	2057.52
418.989	2432.91
422.364	3004.83
425.738	3485.16
429.113	3859.65
432.488	3807.16
435.863	3490.34
439.238	2892.05
442.612	2504.04
445.987	2262.48
449.362	1974.88
452.737	1946.31
456.112	1761.2
459.486	1534.03
462.861	1344.51
466.236	1152.34
469.611	1199.95
472.986	1285.3
476.361	1622.39
479.735	2205.29
483.11	3126.36
486.485	4346.72
489.86	5598.38
493.235	6571.21
496.61	6777.69
499.984	5990.29
503.359	4293.92
506.734	2875.32
510.109	1790.6
513.484	1069.13
516.858	650.952
520.233	361.551
523.608	230.362
526.983	62.272
530.358	38.6653
533.732	91.9482
537.107	79.1628
540.482	33.7439
543.857	8.67944
547.232	26.7722
550.606	23.0745
553.981	54.8723
557.356	8.88306
560.731	41.4529
564.106	74.0015
567.481	11.833
570.855	42.5044
574.23	125.507
577.605	150.911
580.98	136.957
584.355	159.264
587.729	131.95
591.104	176.028
594.479	234.29
597.854	151.21
601.229	132.686
604.604	105.446
607.978	158.658
611.353	226.944
614.728	156.514
618.103	222.608
621.477	206.277
624.852	233.174
628.227	291.759
631.602	270.21
634.977	268.428
638.352	258.969
641.726	246.727
645.101	231.756
648.476	161.145
651.851	163.641
655.226	263.703
658.601	186.947
661.975	203.751
665.35	224.318
668.725	229.03
672.1	212.992
675.475	177.358
678.849	234.385
682.224	255.761
685.599	272.183
688.974	220.547
692.349	296.188
695.723	234.472
699.098	209.339
702.473	144.465
705.848	173.545
709.223	53.0071
712.597	43.6802
715.972	82.7148
719.347	74.9622
722.722	78.3835
726.097	68.729
729.472	46.6316
732.846	27.2114
736.221	20.4145
739.596	6.39038
742.971	5.92041
746.346	58.2349
749.721	67.1694
753.095	42.2483
756.47	46.4822
759.845	39.5825
763.22	36.7107
766.595	59.8455
769.969	64.8794
773.344	18.6013
776.719	2.1333
780.094	55.8469
783.469	59.561
786.843	81.0671
790.218	57.0908
793.593	68.5083
796.968	137.103
800.343	149.836
803.717	118.921
807.092	179.302
810.467	201.286
813.842	211.141
817.217	212.566
820.592	271.73
823.966	325.659
827.341	348.382
830.716	435.539
834.091	412.214
837.466	395.474
840.841	414.773
844.215	480.491
847.59	353.471
850.965	285.941
854.34	234.569
857.715	292.763
861.089	201.841
864.464	191.758
867.839	139.772
871.214	144.117
874.589	137.818
877.963	194.066
881.338	0.61377
884.713	78.5969
888.088	23.3276
891.463	108.392
894.837	66.4646
898.212	57.4853
901.587	42.2815
904.962	38.7698
908.337	40.9795
911.712	1.28003
915.086	10.0652
918.461	17.1194
921.836	33.0059
925.211	105.166
928.586	80.5281
931.96	47.6597
935.335	34.825
938.71	79.8945
942.085	34.9121
945.46	56.7
948.835	43.8603
952.209	103.703
955.584	46.1506
958.959	43.0676
962.334	60.092
965.709	71.1357
969.083	33.0356
972.458	2.32373
975.833	34.2922
979.208	104.438
982.583	62.9275
985.957	58.5032
989.332	57.8206
992.707	140.23
996.082	78.5225
999.457	85.4392
1002.83	64.9282
1006.21	5.88672
1009.58	35.6655
1012.96	41.8188
1016.33	1.60742
1019.71	72.6914
1023.08	0.754639
1026.45	19.8196
1029.83	78.5781
1033.2	108.994
1036.58	143.365
1039.95	136.209
1043.33	130.01
1046.7	205.822
1050.08	192.394
1053.45	350.922
1056.83	452.392
1060.2	560.805
1063.58	758.627
1066.95	1416.52
1070.33	2514.99
1073.7	4400.23
1077.08	6598.54
1080.45	5504.91
1083.83	2257.15
1087.2	1004.69
1090.58	529.792
1093.95	332.989
1097.33	206.443
1100.7	137.057
1104.08	29.4729
1107.45	92.0801
1110.83	51.9797
1114.2	6.45483
1117.58	99.7478
1120.95	0.619385
1124.33	60.8992
1127.7	85.1802
1131.07	2.97388
1134.45	5.12598
1137.82	12.1614
1141.2	1.65356
1144.57	65.8709
1147.95	48.1382
1151.32	19.0471
1154.7	112.244
1158.07	78.6111
1161.45	22.3064
1164.82	6.17407
1168.2	53.4648
1171.57	45.1294
1174.95	36.5012
1178.32	15.1936
1181.7	89.7551
1185.07	114.847
1188.45	26.6838
1191.82	52.676
1195.2	64.9175
1198.57	19.8669
1201.94	47.4944
1205.32	56.5232
1208.69	66.2546
1212.07	29.063
1215.44	73.8765
1218.82	145.396
1222.19	53.9648
1225.57	52.6431
1228.94	37.8242
1232.32	117.746
1235.69	58.8411
1239.07	55.718
1242.44	96.3352
1245.82	112.669
1249.19	84.1006
1252.57	5.8335
1255.94	123.747
1259.32	92.6709
1262.69	43.4119
1266.07	87.1689
1269.44	118.13
1272.82	98.5854
1276.19	120.834
1279.57	37.2488
1282.94	73.3428
1286.32	62.9297
1289.69	88.0347
1293.07	118.082
1296.44	35.4216
1299.82	0.349854
