Measurement: Raman, 532 nm, unoriented, Raman Data Processed
Mineral: Nakauriite
Rruff sample: R060976
Ideal chemistry: Cu_8_(SO_4_)_4_(CO_3_)(OH)_6_48H_2_O
Locality: Nakauri mine, Aichi Prefecture, Japan
Source: Michael Scott
Description: Deep sky blue to white acicular crystals in serpentinite.
Raman shift (cm-1)	intensity
118.148	0
121.522	39.2291
124.897	147.375
128.272	180.797
131.647	165.839
135.022	50.9042
138.397	145.591
141.771	110.212
145.146	156.069
148.521	147.674
151.896	155.37
155.271	229.867
158.645	257.461
162.02	412.553
165.395	537.418
168.77	656.492
172.145	757.739
175.519	730.144
178.894	680.947
182.269	564.87
185.644	517.029
189.019	484.211
192.394	388.082
195.768	342.351
199.143	313.502
202.518	286.552
205.893	264.691
209.268	212.369
212.643	175.327
216.017	117.121
219.392	63.3035
222.767	46.645
226.142	39.2897
229.517	16.6631
232.891	0.385742
236.266	4.30138
239.641	-1.4426
243.016	6.35113
246.391	5.10059
249.765	23.9008
253.14	40.2939
256.515	80.7783
259.89	147.75
263.265	271.174
266.639	357.537
270.014	462.232
273.389	466.308
276.764	411.694
280.139	291.831
283.514	244.752
286.888	192.309
290.263	276.068
293.638	296.827
297.013	333.299
300.388	317.119
303.762	317.709
307.137	247.986
310.512	229.127
313.887	218.54
317.262	271.955
320.637	361.628
324.011	519.414
327.386	656.407
330.761	708.212
334.136	575.405
337.511	359.909
340.885	252.874
344.26	167.831
347.635	71.667
351.01	37.0925
354.385	23.3609
357.76	19.4095
361.134	0.771362
364.509	31.2349
367.884	38.4684
371.259	7.4375
374.634	4.68378
378.008	31.3381
381.383	53.3899
384.758	91.1761
388.133	164.332
391.508	218.631
394.882	226.636
398.257	298.928
401.632	397.158
405.007	501.378
408.382	597.453
411.757	675.558
415.131	785.339
418.506	918.749
421.881	1092.21
425.256	1176.47
428.631	1287.77
432.005	1341.97
435.38	1219.61
438.755	1062.52
442.13	953.18
445.505	889.613
448.88	767.848
452.254	679.187
455.629	657.09
459.004	535.654
462.379	482.765
465.754	417.581
469.128	406.519
472.503	462.169
475.878	557.845
479.253	716.117
482.628	995.748
486.002	1293.37
489.377	1586.11
492.752	1877.28
496.127	1943.34
499.502	1748.55
502.877	1316.21
506.251	914.511
509.626	556.929
513.001	319.063
516.376	212.615
519.751	116.455
523.125	51.5574
526.5	24.1435
529.875	30.6967
533.25	38.2242
536.625	19.9861
540	29.204
543.374	0.450439
546.749	22.1435
550.124	8.53546
553.499	8.4787
556.874	20.4938
560.248	1.26288
563.623	9.90063
566.998	19.7964
570.373	33.581
573.748	41.902
577.122	64.0412
580.497	45.0033
583.872	48.9534
587.247	65.0922
590.622	62.7197
593.997	57.2188
597.371	36.7064
600.746	50.3419
604.121	60.698
607.496	35.2831
610.871	59.7942
614.245	65.953
617.62	55.8896
620.995	62.2906
624.37	82.1641
627.745	61.2467
631.12	50.5174
634.494	57.1611
637.869	52.4582
641.244	50.2071
644.619	56.2694
647.994	49.8091
651.368	78.5648
654.743	86.1655
658.118	89.2809
661.493	81.4837
664.868	95.3958
668.242	116.888
671.617	127.857
674.992	121.468
678.367	124.199
681.742	156.279
685.117	147.075
688.491	142.804
691.866	171.301
695.241	135.273
698.616	117.784
701.991	112.009
705.365	32.885
708.74	55.7672
712.115	34.1501
715.49	46.6957
718.865	32.4315
722.24	32.8812
725.614	15.7025
728.989	2.22644
732.364	4.31244
735.739	12.8614
739.114	10.507
742.489	14.7479
745.863	4.7146
749.238	5.4184
752.613	0.162109
755.988	1.76849
759.362	2.14722
762.737	29.3698
766.112	5.69128
769.487	1.51129
772.862	12.7574
776.237	31.0469
779.611	10.5827
782.986	15.9756
786.361	12.1164
789.736	18.3847
793.111	24.5658
796.486	50.459
799.86	54.5276
803.235	55.2427
806.61	65.521
809.985	77.0866
813.36	74.2346
816.734	104.794
820.109	130.078
823.484	119.263
826.859	145.718
830.234	149.065
833.609	163.507
836.983	171.266
840.358	173.998
843.733	141.748
847.108	139.687
850.482	102.913
853.857	94.9163
857.232	93.4955
860.607	70.6773
863.982	33.7064
867.357	59.3566
870.731	51.4385
874.106	9.72809
877.481	22.2781
880.856	35.1547
884.231	18.4263
887.606	14.7347
890.98	30.3018
894.355	28.0836
897.73	30.6876
901.105	17.2642
904.48	7.77289
907.854	10.9484
911.229	25.583
914.604	17.3366
917.979	19.3981
921.354	2.35461
924.729	26.6941
928.103	6.1684
931.478	15.2754
934.853	33.0892
938.228	11.7817
941.602	13.154
944.977	27.5505
948.352	16.9823
951.727	20.5909
955.102	8.39209
958.477	29.0594
961.851	27.8812
965.226	23.4152
968.601	15.5486
971.976	17.5417
975.351	13.4576
978.726	25.2239
982.1	22.5032
985.475	21.4279
988.85	0.604553
992.225	25.8443
995.6	8.00732
998.974	2.34869
1002.35	36.2405
1005.72	10.9308
1009.1	8.05402
1012.47	18.2459
1015.85	37.5744
1019.22	19.5767
1022.6	19.7485
1025.97	33.7166
1029.35	28.0914
1032.72	53.1681
1036.1	21.4519
1039.47	67.2469
1042.85	79.2727
1046.22	79.8425
1049.6	109.711
1052.97	162.716
1056.35	221.575
1059.72	265.26
1063.1	416.489
1066.47	781.763
1069.85	1357.49
1073.22	2177.3
1076.6	3054.8
1079.97	3037.09
1083.35	1361.26
1086.72	557.773
1090.09	274.911
1093.47	131.745
1096.84	121.989
1100.22	64.1681
1103.59	37.2276
1106.97	53.9586
1110.34	42.5183
1113.72	6.01349
1117.09	14.2502
1120.47	32.0716
1123.84	8.94714
1127.22	11.4586
1130.59	3.73212
1133.97	7.07294
1137.34	11.327
1140.72	12.5105
1144.09	36.7093
1147.47	26.6173
1150.84	21.0659
1154.22	42.6716
1157.59	27.8081
1160.97	21.6623
1164.34	8.15454
1167.71	13.7697
1171.09	5.28967
1174.46	23.3135
1177.84	18.4238
1181.21	11.6777
1184.59	12.1729
1187.96	20.2166
1191.34	24.6059
1194.71	66.1717
1198.09	4.91516
1201.46	53.3928
1204.84	2.30554
1208.21	20.993
1211.59	25.6074
1214.96	24.0339
1218.34	44.024
1221.71	38.619
1225.09	36.8834
1228.46	15.4487
1231.84	31.4
1235.21	34.8454
1238.59	34.7944
1241.96	17.737
1245.34	40.8753
1248.71	40.1617
1252.09	18.9053
1255.46	53.0766
1258.84	42.9794
1262.21	21.5455
1265.59	11.5016
1268.96	64.3093
1272.33	49.7364
1275.71	26.9377
1279.08	39.8599
1282.46	46.4239
1285.83	3.56335
1289.21	27.0068
