Measurement: Raman, 532 nm, unoriented, Raman Data Processed
Mineral: Namansilite
Rruff sample: R070006
Ideal chemistry: NaMn^3+^Si_2_O_6_
Locality: Hoskins mine, near Grenfell, New South Wales, Australia
Source: Marcus Origlieri
Description: Dark red granular, associated with ungarettiite, R050244
Measured chemistry: Na_1.00_(Mn^3+^_0.91_Fe^3+^_0.09_)_Î£=1_Si_2.00_O_6_; trace amounts of Cr and Al
Raman shift (cm-1)	intensity
158.377	0
161.751	67.3069
165.126	335.611
168.501	826.496
171.876	1368.81
175.251	1953.59
178.625	2357.6
182	2433.72
185.375	1990
188.75	1343.27
192.125	678.202
195.5	384.425
198.874	237.402
202.249	130.725
205.624	52.6116
208.999	53.7419
212.374	28.7549
215.749	67.2319
219.123	33.5911
222.498	39.1418
225.873	0.685791
229.248	19.415
232.623	36.584
235.997	37.2632
239.372	23.2971
242.747	139.529
246.122	158.545
249.497	188.741
252.871	160.243
256.246	131.103
259.621	212.552
262.996	206.231
266.371	186.517
269.746	275.06
273.12	258.057
276.495	376.82
279.87	388.304
283.245	384.54
286.62	381.039
289.995	285.416
293.369	231.941
296.744	186.006
300.119	197.757
303.494	247.11
306.869	438.303
310.243	590.831
313.618	797.293
316.993	961.876
320.368	1245.32
323.743	1734.53
327.118	2310.9
330.492	2919.06
333.867	3369.86
337.242	3532.98
340.617	3216.37
343.992	2637.42
347.366	1966.53
350.741	1401.91
354.116	998.295
357.491	615.678
360.866	353.563
364.24	238.788
367.615	176.608
370.99	71.6387
374.365	44.9951
377.74	58.522
381.115	32.6123
384.489	16.3579
387.864	45.2378
391.239	151.214
394.614	205.921
397.989	383.822
401.363	472.125
404.738	542.528
408.113	548.144
411.488	658.506
414.863	633.356
418.238	559.533
421.613	405.644
424.987	368.08
428.362	174.21
431.737	135.995
435.112	79.2109
438.486	26.2451
441.861	84.3423
445.236	4.54248
448.611	9.47803
451.986	28.4736
455.361	75.1606
458.735	44.3799
462.11	41.544
465.485	19.7012
468.86	77.615
472.235	146.18
475.61	224.176
478.984	203.133
482.359	231.629
485.734	147.506
489.109	72.01
492.484	35.7722
495.858	37.8669
499.233	0.116943
502.608	47.783
505.983	28.5281
509.358	141.174
512.732	268.458
516.107	386.096
519.482	581.3
522.857	847.721
526.232	1165.51
529.607	1754.98
532.981	2108.44
536.356	2335.76
539.731	2284.89
543.106	2109.26
546.481	1986.88
549.856	1862.37
553.23	1835.99
556.605	1678.83
559.98	1445.88
563.355	1109.76
566.73	808.458
570.104	705.865
573.479	483.902
576.854	357.667
580.229	247.993
583.604	174.12
586.979	196.722
590.353	84.0911
593.728	108.21
597.103	19.541
600.478	144.035
603.853	83.5041
607.227	74.0764
610.602	11.9443
613.977	74.3276
617.352	29.8745
620.727	55.1282
624.102	43.928
627.476	34.3044
630.851	15.4944
634.226	31.8643
637.601	46.5964
640.976	18.103
644.351	40.6306
647.725	49.0994
651.1	63.1223
654.475	112.445
657.85	177.752
661.225	207.622
664.599	250.545
667.974	253.552
671.349	305.297
674.724	327.067
678.099	228.24
681.473	206.157
684.848	183.279
688.223	111.294
691.598	161.09
694.973	124.05
698.347	86.8369
701.722	88.6187
705.097	54.1323
708.472	25.2175
711.847	127.138
715.222	24.8901
718.596	83.4424
721.971	68.5352
725.346	42.4468
728.721	51.2256
732.096	36.9128
735.471	99.1379
738.845	32.2114
742.22	86.2471
745.595	38.5132
748.97	98.8005
752.345	85.5532
755.72	68.5911
759.094	5.521
762.469	57.3503
765.844	36.2825
769.219	6.43042
772.594	66.1843
775.968	64.4048
779.343	5.55737
782.718	18.8076
786.093	48.155
789.468	4.42798
792.842	82.2644
796.217	79.4099
799.592	93.4578
802.967	43.7107
806.342	131.702
809.717	170.083
813.091	202.539
816.466	238.402
819.841	345.031
823.216	460.449
826.591	450.918
829.966	544.582
833.34	722.549
836.715	744.353
840.09	791.963
843.465	719.523
846.84	532.75
850.214	442.021
853.589	371.328
856.964	243.072
860.339	150.679
863.714	159.549
867.088	122.604
870.463	8.84961
873.838	100.789
877.213	72.5962
880.588	2.86719
883.963	5.11035
887.337	20.3384
890.712	23.6265
894.087	24.0523
897.462	19.8906
900.837	55.4238
904.212	148.871
907.586	98.8872
910.961	214.856
914.336	341.815
917.711	471.644
921.086	575.14
924.46	734.006
927.835	862.706
931.21	934.004
934.585	922.158
937.96	857.596
941.335	864.166
944.709	720.58
948.084	584.433
951.459	509.959
954.834	356.964
958.209	277.495
961.583	237.254
964.958	196.752
968.333	113.641
971.708	91.8633
975.083	37.1807
978.457	8.021
981.832	102.581
985.207	69.2519
988.582	105.22
991.957	127.622
995.332	152.274
998.706	270.766
1002.08	389.567
1005.46	612.735
1008.83	729.818
1012.21	814.375
1015.58	813.427
1018.96	601.547
1022.33	502.439
1025.7	302.073
1029.08	141.714
1032.45	134.77
1035.83	32.0127
1039.2	81.3242
1042.58	83.7949
1045.95	58.0007
1049.33	13.6067
1052.7	17.2354
1056.08	16.583
1059.45	8.78198
1062.83	106.793
1066.2	124.374
1069.58	72.1282
1072.95	88.6021
1076.33	18.0508
1079.7	2.40552
1083.08	53.3948
1086.45	68.2488
1089.83	41.3935
1093.2	132.955
1096.58	136.165
1099.95	152.502
1103.33	121.182
1106.7	64.3928
1110.08	47.0698
1113.45	97.8767
1116.83	78.9988
1120.2	39.1543
1123.58	45.3611
1126.95	82.9238
1130.32	48.2324
1133.7	59.2305
1137.07	99.1296
1140.45	46.5286
1143.82	80.4377
1147.2	56.802
1150.57	21.3735
1153.95	78.8049
1157.32	33.1013
1160.7	44.3284
1164.07	40.1352
1167.45	121.933
1170.82	57.8623
1174.2	24.9168
1177.57	45.1794
1180.95	21.8787
1184.32	11.2148
1187.7	54.8325
1191.07	5.37842
1194.45	22.3201
1197.82	34.6555
1201.19	94.6445
1204.57	42.0962
1207.94	10.2244
1211.32	73.2817
1214.69	64.9016
1218.07	110.022
1221.44	58.5454
1224.82	2.0293
1228.19	45.7739
1231.57	84.2285
1234.94	63.1316
1238.32	4.6897
1241.69	114.345
1245.07	43.9014
1248.44	52.7151
1251.82	84.6929
1255.19	24.8455
1258.57	53.4055
1261.94	10.5715
1265.32	85.1992
1268.69	6.71143
1272.07	103.083
1275.44	28.7161
1278.82	25.5037
1282.19	107.539
1285.57	30.6904
1288.94	82.7141
1292.32	76.2686
1295.69	37.0359
1299.07	51.4028
1302.44	91.4448
1305.82	78.0508
1309.19	71.53
1312.56	10.9668
1315.94	30.3774
