Measurement: Raman, 785 nm, unoriented, Raman Data Processed
Mineral: Namansilite
Rruff sample: R070006
Ideal chemistry: NaMn^3+^Si_2_O_6_
Locality: Hoskins mine, near Grenfell, New South Wales, Australia
Source: Marcus Origlieri
Description: Dark red granular, associated with ungarettiite, R050244
Measured chemistry: Na_1.00_(Mn^3+^_0.91_Fe^3+^_0.09_)_Î£=1_Si_2.00_O_6_; trace amounts of Cr and Al
Raman shift (cm-1)	intensity
155.54	0
158.433	8.47681
161.326	123.483
164.218	425.86
167.111	736.928
170.004	1007.31
172.897	1265.82
175.789	1582.27
178.682	1832.83
181.575	1830.4
184.467	1612.58
187.36	1231.11
190.253	1043.17
193.145	910.199
196.038	656.093
198.931	512.163
201.823	422.787
204.716	339.252
207.609	383.388
210.502	385.029
213.394	411.034
216.287	351.619
219.18	295.03
222.072	193.443
224.965	112.48
227.858	109.341
230.75	16.606
233.643	35.4653
236.536	11.5005
239.429	38.5478
242.321	27.479
245.214	61.165
248.107	70.9932
250.999	66.3184
253.892	11.0898
256.785	38.1929
259.678	5.18066
262.57	9.5581
265.463	24.8481
268.356	13.8281
271.248	35.0478
274.141	52.3135
277.034	237.259
279.926	176.701
282.819	301.353
285.712	353.426
288.605	338.449
291.497	279.476
294.39	234.639
297.283	159.492
300.175	117.065
303.068	88.4785
305.961	73.8784
308.853	135.152
311.746	123.291
314.639	254.121
317.531	210.39
320.424	350.106
323.317	450.539
326.21	676.118
329.102	945.688
331.995	1278.75
334.888	1419.16
337.78	1616.96
340.673	1614.69
343.566	1414.21
346.459	1173.8
349.351	955.102
352.244	674.136
355.137	477.16
358.029	282.373
360.922	206.236
363.815	95.6265
366.707	87.5913
369.6	36.0654
372.493	61.54
375.385	3.11279
378.278	22.9404
381.171	38.4043
384.064	13.5654
386.956	16.3076
389.849	68.2671
392.742	89.5029
395.634	193.385
398.527	183.794
401.42	312.629
404.312	365.158
407.205	437.081
410.098	470.613
412.991	511.549
415.883	604.133
418.776	608.634
421.669	497.966
424.561	397.149
427.454	335.737
430.347	250.581
433.24	129.12
436.132	113.58
439.025	75.7104
441.918	74.0161
444.81	49.5894
447.703	51.5156
450.596	22.4126
453.488	10.0942
456.381	27.3828
459.274	90.5635
462.166	59.8867
465.059	12.3765
467.952	16.8852
470.845	17.4712
473.737	15.3965
476.63	50.6113
479.523	69.9048
482.415	0.355957
485.308	15.5942
488.201	50.0381
491.094	57.1919
493.986	76.0586
496.879	58.6025
499.772	50.5176
502.664	7.49121
505.557	71.3755
508.45	51.3916
511.342	172.236
514.235	145.503
517.128	272.806
520.021	382.405
522.913	497.892
525.806	613.445
528.699	815.386
531.591	1067.89
534.484	1366.42
537.377	1387.49
540.269	1452.43
543.162	1296.9
546.055	1220.54
548.948	1032.65
551.84	1053.64
554.733	962.49
557.626	950.05
560.518	838.41
563.411	688.255
566.304	533.958
569.196	475.09
572.089	281.59
574.982	256.271
577.875	125.653
580.767	168.231
583.66	49.0591
586.553	55.4902
589.445	1.01562
592.338	68.6216
595.231	9.31836
598.123	2.61426
601.016	54.9609
603.909	83.6152
606.802	100.537
609.694	54.9536
612.587	43.7925
615.48	5.96191
618.372	23.8877
621.265	48.2471
624.158	6.38769
627.05	79.1836
629.943	89.5181
632.836	7.62061
635.729	19.9922
638.621	83.3916
641.514	27.998
644.407	32.9961
647.299	2.67334
650.192	101.546
653.085	25.8355
655.977	55.2285
658.87	0.485352
661.763	48.6118
664.655	56.6758
667.548	52.8516
670.441	147.078
673.334	159.864
676.226	139.894
679.119	140.707
682.012	140.564
684.904	119.6
687.797	101.907
690.69	65.0947
693.582	118.731
696.475	139.194
699.368	125.609
702.261	49.377
705.153	120.903
708.046	83.2314
710.939	103.107
713.831	70.2939
716.724	3.80469
719.617	101.989
722.51	142.161
725.402	100.716
728.295	76.0312
731.188	65.4805
734.08	124.434
736.973	45.9766
739.866	57.0869
742.758	64.3447
745.651	44.9863
748.544	207.384
751.437	102.736
754.329	86.1894
757.222	0.412109
760.115	43.2685
763.007	34.4297
765.9	38.7178
768.793	99.0781
771.685	0.891602
774.578	15.3896
777.471	0.558594
780.364	4.94141
783.256	82.2041
786.149	3.36523
789.042	114.805
791.934	87.1269
794.827	43.0205
797.72	27.0039
800.612	14.2207
803.505	46.9658
806.398	90.0176
809.29	81.7051
812.183	136.16
815.076	197.606
817.969	202.421
820.861	234.53
823.754	280.772
826.647	302.998
829.539	368.029
832.432	467.677
835.325	547.453
838.217	573.483
841.11	580.319
844.003	589.562
846.896	501.82
849.788	430.594
852.681	383.665
855.574	277.712
858.466	229.846
861.359	151.39
864.252	192.643
867.144	156.066
870.037	49.8721
872.93	49.3213
875.823	30.8994
878.715	68.4453
881.608	3.91699
884.501	5.64746
887.393	28.5312
890.286	60.3945
893.179	11.7969
896.072	38.877
898.964	24.5469
901.857	100.056
904.75	5.80371
907.642	64.7353
910.535	46.7139
913.428	46.8086
916.32	146.232
919.213	100.811
922.106	177.29
924.999	308.63
927.891	272.063
930.784	322.721
933.677	334.964
936.569	426.934
939.462	452.268
942.355	514.724
945.247	498.733
948.14	440.97
951.033	387.94
953.926	276.362
956.818	272.354
959.711	204.784
962.604	129.844
965.496	44.9492
968.389	21.5723
971.282	47.1611
974.174	124.381
977.067	48.5273
979.96	47.5312
982.852	42.3486
985.745	99.7812
988.638	87.4356
991.531	12.8428
994.423	72.3184
997.316	159.94
1000.21	156.699
1003.1	257.604
1005.99	334.517
1008.89	405.217
1011.78	421.32
1014.67	468.477
1017.57	487.1
1020.46	422.481
1023.35	258.563
1026.24	231.378
1029.14	109.543
1032.03	67.3418
1034.92	81.0732
1037.81	6.29199
1040.71	41.916
1043.6	47.1191
1046.49	39.9853
1049.38	90.6221
1052.28	44.3135
1055.17	26.9434
1058.06	77.5801
1060.95	51.8193
1063.85	59.1816
1066.74	89.0488
1069.63	43.8535
1072.53	75.9209
1075.42	149.914
1078.31	63.9287
1081.2	56.8145
1084.1	134.834
1086.99	136.863
1089.88	64.2578
1092.78	29.25
1095.67	49.8379
1098.56	36.3809
1101.45	54.3145
1104.35	66.9785
1107.24	111.958
1110.13	160.876
1113.02	106.013
1115.92	46.5449
1118.81	84.6094
1121.7	22.7334
1124.6	75.2695
1127.49	73.0283
1130.38	75.3848
1133.27	89.5254
1136.17	96.46
1139.06	124.186
1141.95	102.653
1144.84	7.87402
1147.74	66.0498
1150.63	70.1318
1153.52	113.248
1156.41	145.267
1159.31	0.727539
1162.2	181.791
1165.09	38.9756
1167.98	17.293
1170.88	71.4316
1173.77	18.5918
1176.66	50.6074
1179.56	67.1943
1182.45	125.126
1185.34	85.6406
1188.23	20.2432
1191.13	71.0742
1194.02	95.5078
1196.91	43.4873
1199.81	58.498
1202.7	44.4922
1205.59	71.2012
1208.48	90.0176
1211.38	124.895
1214.27	162.765
1217.16	146.084
1220.05	81.6572
1222.95	130.331
1225.84	135.565
1228.73	95.8818
1231.62	108.892
1234.52	0.418945
1237.41	113.29
1240.3	74.4648
1243.2	7.94434
