Measurement: Raman, 532 nm, unoriented, Raman Data Processed
Mineral: Nambulite
Rruff sample: R060616
Ideal chemistry: LiMn^2+^_4_Si_5_O_14_(OH)
Locality: Kombat mine, Kombat, Grootfontein District, Otjozondjupa Region, Namibia
Source: Michael Scott
Description: Pink colored fragment of a single crystal associated with gypsum
Raman shift (cm-1)	intensity
167.692	0
170.584	6.63554
173.477	10.2479
176.37	25.4009
179.263	38.4985
182.155	52.8315
185.048	59.3961
187.941	74.9369
190.833	47.3253
193.726	21.4725
196.619	3.6862
199.512	4.14597
202.404	0.273544
205.297	3.34215
208.19	1.74292
211.082	9.94516
213.975	8.46536
216.868	14.1523
219.761	24.5709
222.653	22.7249
225.546	25.1147
228.439	25.7538
231.331	16.977
234.224	10.1292
237.117	0.535828
240.009	0.815491
242.902	0.730591
245.795	3.76468
248.688	6.28009
251.58	7.10962
254.473	12.9886
257.366	38.1893
260.258	70.8328
263.151	107.891
266.044	148.134
268.936	173.276
271.829	167.067
274.722	141.135
277.615	104.507
280.507	90.0538
283.4	73.5904
286.293	64.7017
289.185	80.3253
292.078	75.7445
294.971	79.9377
297.863	74.3409
300.756	70.7329
303.649	66.8387
306.541	58.0033
309.434	53.2002
312.327	54.0839
315.22	57.4392
318.112	70.8459
321.005	88.9984
323.898	115.199
326.791	142.296
329.683	139.694
332.576	121.616
335.469	86.1813
338.361	59.9076
341.254	46.5189
344.147	29.4355
347.039	15.8433
349.932	7.3613
352.825	2.83133
355.717	2.47821
358.61	6.01227
361.503	8.3009
364.396	28.7967
367.288	53.745
370.181	93.3775
373.074	130.332
375.966	156.276
378.859	168.054
381.752	164.162
384.644	142.836
387.537	103.714
390.43	69.9907
393.323	48.5074
396.215	37.9245
399.108	35.5376
402.001	33.8973
404.894	36.2507
407.786	22.237
410.679	17.1742
413.572	15.691
416.464	18.2494
419.357	17.0293
422.25	16.8221
425.142	14.5725
428.035	15.809
430.928	16.1107
433.82	20.8125
436.713	15.3417
439.606	13.1915
442.499	11.1375
445.391	2.61624
448.284	0.576141
451.177	2.04656
454.069	6.57304
456.962	4.12204
459.855	4.18065
462.748	2.6284
465.64	1.87291
468.533	9.54262
471.426	15.1005
474.318	19.6248
477.211	25.8071
480.104	34.4185
482.996	49.2744
485.889	62.2805
488.782	70.242
491.675	75.1088
494.567	75.7311
497.46	76.1365
500.353	78.2854
503.245	76.8004
506.138	81.8371
509.031	80.5714
511.923	76.0295
514.816	66.8652
517.709	58.4446
520.602	51.2493
523.494	58.0434
526.387	60.141
529.28	75.7974
532.172	89.5805
535.065	93.5894
537.958	85.7894
540.851	73.0446
543.743	69.9535
546.636	64.4127
549.529	53.5434
552.421	41.2977
555.314	36.3984
558.207	31.7727
561.099	32.3714
563.992	28.5141
566.885	22.1039
569.778	13.594
572.67	10.6953
575.563	9.73334
578.456	2.0797
581.348	0.45668
584.241	4.07716
587.134	4.58943
590.027	2.56767
592.919	4.17197
595.812	0.054596
598.705	1.66785
601.597	0.589203
604.49	0.650406
607.383	3.10257
610.275	2.06761
613.168	5.709
616.061	2.46245
618.953	8.04024
621.846	10.1611
624.739	20.3948
627.632	23.9279
630.524	35.7643
633.417	44.5908
636.31	57.61
639.202	82.7729
642.095	112.14
644.988	157.537
647.881	231.73
650.773	335.49
653.666	491.908
656.559	712.883
659.451	985.829
662.344	1234.5
665.237	1294.19
668.13	1082.57
671.022	772.898
673.915	516.596
676.808	358.307
679.7	269.559
682.593	231.668
685.486	217.281
688.378	198.082
691.271	158.592
694.164	112.55
697.057	76.2022
699.949	52.3792
702.842	37.7968
705.735	33.1317
708.627	33.2066
711.52	37.1726
714.413	35.8859
717.305	29.8643
720.198	32.6759
723.091	15.4284
725.984	16.3109
728.876	13.3261
731.769	18.144
734.662	18.8863
737.554	14.1892
740.447	13.2231
743.34	4.97435
746.232	2.18771
749.125	3.43767
752.018	2.48433
754.91	5.44881
757.803	0.608719
760.696	0.15242
763.589	1.66213
766.481	0.423172
769.374	1.701
772.267	1.82059
775.159	1.41664
778.052	3.13077
780.945	4.33075
783.838	6.80295
786.73	4.59958
789.623	7.97766
792.516	10.1071
795.408	8.41991
798.301	3.71721
801.194	12.2789
804.087	12.3094
806.979	7.91203
809.872	9.47096
812.765	7.1286
815.657	9.01503
818.55	8.91693
821.443	6.01372
824.335	7.62758
827.228	2.72214
830.121	9.44644
833.014	4.09938
835.906	2.36192
838.799	4.76659
841.692	5.66997
844.584	0.541367
847.477	3.14755
850.37	2.50946
853.263	3.35918
856.155	0.802383
859.048	4.06062
861.941	6.31956
864.833	5.6582
867.726	6.16095
870.619	6.99892
873.511	3.32881
876.404	10.0634
879.297	21.1569
882.189	22.035
885.082	24.3882
887.975	23.1151
890.868	20.4428
893.76	12.8864
896.653	14.11
899.546	8.67993
902.438	5.26935
905.331	3.52582
908.224	1.62683
911.116	1.80512
914.009	1.53308
916.902	6.13617
919.795	2.79926
922.687	2.11758
925.58	3.55631
928.473	0.954498
931.365	6.64313
934.258	9.33341
937.151	14.7374
940.044	20.4481
942.936	28.7145
945.829	41.2324
948.722	57.7582
951.614	76.8269
954.507	94.2744
957.4	116.046
960.293	145.832
963.185	176.636
966.078	215.716
968.971	256.077
971.863	309.998
974.756	387.067
977.649	475.23
980.541	554.467
983.434	600.808
986.327	620.966
989.22	609.241
992.112	602.864
995.005	608.62
997.898	639.811
1000.79	680.673
1003.68	711.432
1006.58	701.314
1009.47	620.256
1012.36	535.791
1015.25	453.703
1018.15	410.717
1021.04	389.882
1023.93	342.973
1026.83	285.449
1029.72	218.316
1032.61	160.357
1035.5	115.049
1038.4	74.0801
1041.29	50.2307
1044.18	34.615
1047.07	18.2713
1049.97	17.3022
1052.86	8.11368
1055.75	2.69647
1058.64	1.72479
1061.54	0.828278
1064.43	0.325317
1067.32	1.74866
1070.21	2.67908
1073.11	3.48697
1076	0.925659
1078.89	2.74469
1081.79	1.20999
1084.68	2.06558
1087.57	4.58707
1090.46	4.8335
1093.36	7.03952
1096.25	6.60602
1099.14	8.74094
1102.04	12.3306
1104.93	9.99976
1107.82	11.1129
1110.71	13.8056
1113.61	12.159
1116.5	8.8085
1119.39	7.439
1122.28	5.02921
1125.18	4.79581
1128.07	3.44818
1130.96	6.28757
1133.86	6.14505
1136.75	1.00137
1139.64	4.95837
1142.53	1.3215
1145.43	3.98599
1148.32	3.40149
1151.21	0.676422
1154.1	7.13971
1157	5.41614
1159.89	2.85095
1162.78	6.26202
1165.67	4.39688
1168.57	8.03244
1171.46	6.92957
1174.35	5.97372
1177.24	7.51712
1180.14	6.44046
1183.03	7.02921
1185.92	6.54526
1188.82	4.50617
1191.71	7.41425
1194.6	6.83469
1197.49	10.335
1200.39	6.28641
1203.28	3.74249
1206.17	9.07812
1209.07	3.7507
1211.96	7.34992
1214.85	9.22684
1217.74	7.5575
1220.64	0.355682
1223.53	4.69751
1226.42	6.27127
1229.31	1.35367
1232.21	2.35165
1235.1	0.922272
1237.99	1.84592
1240.88	3.74844
1243.78	4.41586
1246.67	4.87274
1249.56	5.29669
1252.45	5.20328
1255.35	0.102722
1258.24	4.7829
1261.13	2.87393
1264.03	4.87711
1266.92	5.24622
1269.81	5.60434
1272.7	5.30054
1275.6	4.48248
1278.49	3.74515
1281.38	1.74326
1284.28	3.01688
1287.17	0.458252
1290.06	3.68616
1292.95	6.10846
1295.85	2.7012
1298.74	4.76709
1301.63	0.87793
