Measurement: Raman, 780 nm, unoriented, Raman Data Processed
Mineral: Namibite
Rruff sample: R100182
Ideal chemistry: Cu(BiO)_2_VO_4_(OH)
Locality: Copperopolis, Yavapai County, Arizona, USA
Source: Joe Ruiz
Description: Clusters of dark green thin tabular crystals on matrix
Raman shift (cm-1)	intensity
98.8015	0
102.176	2.11733
105.551	13.9981
108.926	30.2481
112.301	32.0688
115.675	10.3343
119.05	6.29246
122.425	4.39873
125.8	12.0341
129.175	22.9045
132.55	42.2737
135.924	56.7123
139.299	57.5311
142.674	57.9412
146.049	64.3819
149.424	66.0793
152.798	58.3165
156.173	22.1697
159.548	6.51367
162.923	1.46844
166.298	0.541565
169.673	0.607582
173.047	1.52996
176.422	0.014732
179.797	2.53305
183.172	2.85429
186.547	2.30785
189.921	1.93198
193.296	2.33305
196.671	4.39191
200.046	3.76438
203.421	6.64189
206.796	7.86757
210.17	8.44961
213.545	8.52578
216.92	8.22762
220.295	7.1225
223.67	7.06998
227.044	8.91726
230.419	7.37445
233.794	6.83198
237.169	3.72808
240.544	4.71912
243.918	4.51444
247.293	3.59594
250.668	1.92716
254.043	0.517288
257.418	0.643135
260.793	0.224312
264.167	1.16795
267.542	2.91371
270.917	2.54437
274.292	5.59551
277.667	5.76785
281.041	10.4798
284.416	13.5012
287.791	14.6645
291.166	15.6019
294.541	18.1075
297.916	16.7749
301.29	15.2536
304.665	13.1268
308.04	15.4933
311.415	16.0269
314.79	16.2796
318.164	16.5185
321.539	16.331
324.914	15.1913
328.289	14.3753
331.664	10.5333
335.038	8.19109
338.413	8.10244
341.788	6.20171
345.163	7.55086
348.538	4.59631
351.913	7.27114
355.287	8.69946
358.662	9.84997
362.037	10.7342
365.412	15.6537
368.787	17.1421
372.161	11.9468
375.536	5.78645
378.911	4.00802
382.286	1.37767
385.661	0.005417
389.036	1.89844
392.41	0.766518
395.785	0.75436
399.16	0.007359
402.535	0.509224
405.909	1.62954
409.284	1.68088
412.659	2.24113
416.034	2.96382
419.409	2.2271
422.784	1.33601
426.158	5.74997
429.533	4.10795
432.908	4.06195
436.283	4.02056
439.658	1.98171
443.033	3.56022
446.407	3.2346
449.782	2.3151
453.157	0.005962
456.532	1.54009
459.907	1.20755
463.281	0.380249
466.656	2.78429
470.031	1.5501
473.406	0.591438
476.781	0.951527
480.156	1.62775
483.53	1.01585
486.905	1.66129
490.28	1.31834
493.655	1.79193
497.029	1.92487
500.404	1.13604
503.779	1.13135
507.154	0.506897
510.529	0.84573
513.904	1.27461
517.278	1.03365
520.653	0.306587
524.028	1.82069
527.403	1.36839
530.778	1.15066
534.153	1.91289
537.527	4.97443
540.902	5.88031
544.277	8.45919
547.652	7.26776
551.027	11.1234
554.401	13.3365
557.776	13.0879
561.151	11.2162
564.526	10.9421
567.901	6.87332
571.275	7.45278
574.65	3.85231
578.025	3.19038
581.4	2.33651
584.775	1.9966
588.149	0.056263
591.524	0.136204
594.899	0.166328
598.274	1.4168
601.649	2.24446
605.024	1.34349
608.398	1.96241
611.773	1.70345
615.148	0.135761
618.523	0.019207
621.898	2.0605
625.273	1.62617
628.647	0.699982
632.022	0.501705
635.397	3.4134
638.772	2.63855
642.146	2.78398
645.521	4.10692
648.896	1.6678
652.271	3.20277
655.646	3.76937
659.021	2.2784
662.395	4.19123
665.77	3.35625
669.145	4.26933
672.52	3.396
675.895	2.77427
679.269	0.011555
682.644	2.44964
686.019	2.23598
689.394	1.33607
692.769	1.18074
696.144	0.656448
699.518	1.01953
702.893	0.223709
706.268	1.72524
709.643	1.02542
713.018	1.33572
716.393	0.523918
719.767	2.21377
723.142	2.34423
726.517	1.61458
729.892	1.47106
733.266	1.00766
736.641	0.861141
740.016	0.411789
743.391	1.76745
746.766	1.16348
750.141	0.373199
753.515	0.95314
756.89	0.2369
760.265	0.234348
763.64	0.05497
767.015	0.431568
770.389	2.57274
773.764	2.5219
777.139	4.0502
780.514	6.59486
783.889	5.54279
787.264	8.40995
790.638	8.73951
794.013	9.12917
797.388	11.7952
800.763	12.2852
804.138	11.245
807.513	12.567
810.887	13.036
814.262	16.2441
817.637	16.6682
821.012	20.5313
824.386	24.3247
827.761	32.9187
831.136	41.0576
834.511	53.4051
837.886	65.1911
841.261	82.382
844.635	89.2646
848.01	65.8423
851.385	35.562
854.76	25.1519
858.135	22.5786
861.51	19.1182
864.884	16.5838
868.259	13.6599
871.634	11.6875
875.009	11.0931
878.384	10.2139
881.758	8.03714
885.133	6.05148
888.508	5.33645
891.883	4.28857
895.258	1.78773
898.632	2.49651
902.007	1.15867
905.382	0.045811
908.757	0.55682
912.132	1.18738
915.506	0.035988
918.881	0.39238
922.256	0.266869
925.631	1.59292
929.006	2.00332
932.381	0.716923
935.755	0.978249
939.13	0.261494
942.505	0.464626
945.88	0.021572
949.255	1.82176
952.63	1.24032
956.004	1.86993
959.379	1.03415
962.754	2.06224
966.129	2.64735
969.504	2.89031
972.878	4.13196
976.253	4.85393
979.628	1.95131
983.003	2.34632
986.378	2.77362
989.752	2.48094
993.127	2.26754
996.502	1.0088
999.877	0.995308
1003.25	1.83738
1006.63	0.18359
1010	1.8489
1013.38	1.33112
1016.75	2.48706
1020.13	1.71192
1023.5	0.467518
1026.88	2.83293
1030.25	1.19651
1033.62	0.567074
1037	1.47575
1040.38	1.92036
1043.75	1.47301
1047.12	2.18343
1050.5	0.79837
1053.87	2.39694
1057.25	2.34713
1060.62	2.78953
1064	1.19329
1067.37	1.59634
1070.75	1.73845
1074.12	2.3232
1077.5	1.97119
1080.87	1.26195
1084.25	2.35014
1087.62	1.54943
1091	3.36146
1094.37	2.32833
1097.75	1.53036
1101.12	1.81138
1104.5	0.903923
1107.87	1.37991
1111.25	0.859261
1114.62	0.58865
1117.99	1.56838
1121.37	3.33011
1124.74	1.26565
1128.12	0.582294
1131.49	1.34401
1134.87	0.392216
1138.24	0.379059
1141.62	2.41213
1144.99	1.56097
1148.37	1.06088
1151.74	0.816582
1155.12	1.89337
1158.49	1.61003
1161.87	1.34981
1165.24	0.975689
1168.62	0.210503
1171.99	2.22241
1175.37	3.37092
1178.74	3.25366
1182.12	1.43439
1185.49	3.41974
1188.87	4.97226
1192.24	1.21362
1195.62	0.504261
1198.99	3.1536
1202.37	2.02542
1205.74	1.76324
1209.12	1.188
1212.49	3.81106
1215.87	1.69484
1219.24	1.7849
1222.62	1.3522
1225.99	1.47805
1229.36	0.378075
1232.74	0.739365
1236.11	2.92669
1239.49	3.30306
1242.86	1.7573
1246.24	2.24142
1249.61	0.758224
1252.99	0.192894
1256.36	2.47676
1259.74	0.360081
1263.11	2.48827
1266.49	2.54744
1269.86	2.21367
1273.24	0.650333
1276.61	2.23783
1279.99	0.229763
1283.36	2.66482
