Measurement: Raman, 532 nm, unoriented, Raman Data Processed
Mineral: Namibite
Rruff sample: R060782
Ideal chemistry: Cu(BiO)_2_VO_4_(OH)
Locality: Khorixas, Darmaraland, Namibia
Source: Michael Scott
Description: Dark green irregularly formed crystals associated with quartz
Measured chemistry: (Cu_0.87_Fe_0.13_)_Σ=1_((Bi_0.93_Cr_0.05_Al_0.02_)_Σ=1_O)_2_V_1.00_O_4_(OH); OH estimated by charge balance
Raman shift (cm-1)	intensity
120.077	0
123.451	511.594
126.826	79.459
130.201	2757.38
133.576	6877.53
136.951	9611.52
140.326	11500.5
143.7	14843.3
147.075	24024.5
150.45	36083.8
153.825	42100.7
157.2	15445.6
160.574	6161.71
163.949	3955.7
167.324	2707.17
170.699	1257.64
174.074	254.521
177.449	243.221
180.823	284.25
184.198	206.012
187.573	1.0918
190.948	301.857
194.323	593.215
197.697	1012.84
201.072	1418.59
204.447	1902.56
207.822	2070.41
211.197	2107.19
214.572	2167.79
217.946	2189.55
221.321	2574.07
224.696	2964.89
228.071	3527.49
231.445	4107.25
234.82	4401.44
238.195	4335.89
241.57	3683.35
244.945	2680.9
248.32	1761.3
251.694	1062.04
255.069	580.059
258.444	275.83
261.819	137.358
265.194	13.4668
268.569	81.1953
271.943	178.707
275.318	561.264
278.693	1176.37
282.068	2068.24
285.443	3230.62
288.817	4270.23
292.192	4915.52
295.567	4586.25
298.942	3479.55
302.317	2509.25
305.691	1937.29
309.066	1832.84
312.441	1839.96
315.816	1889.71
319.191	1956.77
322.565	2070.85
325.94	2440.05
329.315	2875.28
332.69	3144.78
336.065	2934.24
339.44	2272.21
342.814	1419.74
346.189	766.864
349.564	563.055
352.939	733.803
356.314	1190.19
359.688	2176.04
363.063	3474.74
366.438	4904.83
369.813	6461.58
373.188	4083.31
376.562	954.631
379.937	55.6313
383.312	185.35
386.687	197.141
390.062	135.138
393.437	39.6548
396.811	161.602
400.186	249.302
403.561	392.58
406.936	526.495
410.311	662.94
413.685	870.581
417.06	1101.41
420.435	1452.4
423.81	1978.17
427.185	2581.41
430.56	3262.91
433.934	3410.3
437.309	3169.68
440.684	2642.89
444.059	1950.52
447.434	1379.7
450.808	963.532
454.183	730.196
457.558	512.572
460.933	383.403
464.308	341.809
467.682	280.982
471.057	270.913
474.432	256.549
477.807	261.164
481.182	240.266
484.556	245.75
487.931	192.967
491.306	101.697
494.681	48.7881
498.056	12.7654
501.431	69.6074
504.805	60.2283
508.18	16.2422
511.555	28.011
514.93	64.4761
518.305	205.879
521.68	270.832
525.054	510.696
528.429	807.628
531.804	1137.16
535.179	1646.36
538.554	2443.2
541.928	3542.86
545.303	5189.48
548.678	7262.28
552.053	9509.16
555.428	11316.9
558.802	11921.9
562.177	10614.1
565.552	8616.47
568.927	6916.43
572.302	5707.52
575.677	4758.65
579.051	3790.73
582.426	2877.76
585.801	2116.48
589.176	1469.4
592.551	1084.64
595.925	739.806
599.3	498.289
602.675	365.616
606.05	267.988
609.425	162.601
612.799	65.3897
616.174	37.6699
619.549	19.7029
622.924	22.5989
626.299	35.0269
629.674	13.9485
633.048	15.0215
636.423	6.83594
639.798	45.6003
643.173	33.7192
646.548	118.026
649.922	221.143
653.297	365.265
656.672	484.653
660.047	737.918
663.422	1337.46
666.797	1484.23
670.171	1814.64
673.546	1840.27
676.921	1450.08
680.296	901.289
683.67	466.543
687.045	214.164
690.42	79.562
693.795	23.866
697.17	3.37109
700.545	12.9304
703.919	133.407
707.294	274.647
710.669	494.048
714.044	774.093
717.419	1161.39
720.794	1547.56
724.168	1762.85
727.543	1561.11
730.918	1144.01
734.293	701.723
737.667	399.185
741.042	239.848
744.417	204.574
747.792	126.94
751.167	16.5137
754.542	1.84277
757.916	1.76318
761.291	4.87451
764.666	27.8145
768.041	35.0557
771.416	21.9434
774.791	0.713867
778.165	6.38672
781.54	1.51416
784.915	57.6992
788.29	118.73
791.665	224.3
795.039	345.863
798.414	464.12
801.789	625.439
805.164	846.544
808.539	1151.06
811.914	1532.65
815.288	2184.59
818.663	3243.73
822.038	5262.08
825.413	9172.3
828.787	15981.2
832.162	26663.9
835.537	42064.7
838.912	57381.4
842.287	54943
845.662	53197.2
849.036	40044
852.411	16182.4
855.786	7795.76
859.161	4693.61
862.536	3116.41
865.911	2221.06
869.285	1674.72
872.66	1292.46
876.035	1055.76
879.41	850.24
882.784	690.879
886.159	644.821
889.534	489.205
892.909	422.044
896.284	403.303
899.659	274.372
903.033	242.844
906.408	167.842
909.783	95.1326
913.158	52.9023
916.533	21.4111
919.907	0.445557
923.282	33.2864
926.657	10.9946
930.032	36.0808
933.407	62.1208
936.782	24.5852
940.156	22.7927
943.531	78.3257
946.906	48.2119
950.281	85.2454
953.656	72.5532
957.031	151.573
960.405	158.835
963.78	188.97
967.155	233.338
970.53	234.857
973.904	210.966
977.279	283.418
980.654	221.256
984.029	205.502
987.404	201.497
990.779	192.708
994.153	125.659
997.528	79.5979
1000.9	43.7361
1004.28	26.3733
1007.65	15.2019
1011.03	11.262
1014.4	9.54663
1017.78	11.6296
1021.15	9.2876
1024.53	56.8169
1027.9	9.61157
1031.28	86.0396
1034.65	11.1907
1038.03	84.1797
1041.4	127.004
1044.78	101.599
1048.15	180.349
1051.53	212.837
1054.9	269.043
1058.28	283.073
1061.65	315.214
1065.03	288.931
1068.4	307.775
1071.77	211.851
1075.15	180.284
1078.52	107.8
1081.9	59.5762
1085.27	48.2685
1088.65	24.3066
1092.02	5.34058
1095.4	21.5855
1098.77	35.7983
1102.15	39.116
1105.52	46.5735
1108.9	88.0286
1112.27	123.493
1115.65	201.756
1119.02	236.864
1122.4	299.866
1125.77	448.683
1129.15	554.794
1132.52	739.052
1135.9	880.579
1139.27	1051.25
1142.64	1225.24
1146.02	1333.35
1149.39	1451
1152.77	1545.32
1156.14	1487.26
1159.52	1382.96
1162.89	1262.52
1166.27	1095.72
1169.64	859.066
1173.02	693.93
1176.39	553.828
1179.77	423.65
1183.14	267.491
1186.52	228.849
1189.89	164.227
1193.27	107.708
1196.64	68.2493
1200.02	28.4666
1203.39	31.3318
1206.77	5.54346
1210.14	58.1003
1213.52	34.3062
1216.89	31.2014
1220.27	10.0403
1223.64	13.98
1227.02	6.59741
1230.39	28.8372
1233.77	4.15039
1237.14	32.2188
1240.52	6.47998
1243.89	39.3648
1247.26	19.6675
1250.64	41.2634
1254.01	89.6055
1257.39	89.3357
1260.76	61.1311
1264.14	103.488
1267.51	97.154
1270.89	75.8823
1274.26	48.1934
1277.64	67.4875
1281.01	45.353
1284.39	45.1704
1287.76	50.2145
1291.14	13.188
