Measurement: Raman, 785 nm, unoriented, Raman Data Processed
Mineral: Namibite
Rruff sample: R060782
Ideal chemistry: Cu(BiO)_2_VO_4_(OH)
Locality: Khorixas, Darmaraland, Namibia
Source: Michael Scott
Description: Dark green irregularly formed crystals associated with quartz
Measured chemistry: (Cu_0.87_Fe_0.13_)_Σ=1_((Bi_0.93_Cr_0.05_Al_0.02_)_Σ=1_O)_2_V_1.00_O_4_(OH); OH estimated by charge balance
Raman shift (cm-1)	intensity
109.475	0
112.85	31.6216
116.224	251.043
119.599	62.6339
122.974	10.6343
126.349	530.991
129.724	1545.29
133.098	2284.34
136.473	1885.86
139.848	2014.35
143.223	3701.83
146.598	8301.82
149.973	15033.7
153.347	16112.4
156.722	6323.59
160.097	3305.59
163.472	2952.04
166.847	2721.63
170.221	1897.97
173.596	1096.14
176.971	582.008
180.346	294.373
183.721	150.497
187.096	42.6093
190.47	11.0614
193.845	3.77539
197.22	9.56421
200.595	79.6322
203.97	108.791
207.344	77.6853
210.719	83.8826
214.094	5.89539
217.469	42.1211
220.844	107.747
224.219	195.874
227.593	416.842
230.968	663.877
234.343	884.263
237.718	1005.87
241.093	860.865
244.467	619.694
247.842	378.881
251.217	152.193
254.592	52.1035
257.967	12.5148
261.341	33.33
264.716	48.9866
268.091	6.76953
271.466	135.751
274.841	349.041
278.216	748.778
281.59	1322.03
284.965	2007.32
288.34	2742.28
291.715	3140.06
295.09	3066.36
298.465	2441.05
301.839	1869.68
305.214	1503.89
308.589	1386.19
311.964	1374.85
315.339	1431.15
318.713	1420.39
322.088	1504.39
325.463	1701.28
328.838	2069.99
332.213	2356.44
335.587	2381.69
338.962	1907.16
342.337	1400.57
345.712	865.605
349.087	588.348
352.462	524.995
355.836	544.355
359.211	777.815
362.586	1438.25
365.961	2468.87
369.336	3468.27
372.711	2303.58
376.085	624.096
379.46	155.424
382.835	31.771
386.21	65.1274
389.585	42.4434
392.959	4.77087
396.334	59.5498
399.709	129.245
403.084	158.676
406.459	196.239
409.833	232.992
413.208	274.007
416.583	313.889
419.958	410.897
423.333	519.738
426.708	696.697
430.082	864.865
433.457	957.635
436.832	901.248
440.207	746.275
443.582	531.748
446.957	350.259
450.331	222.074
453.706	132.134
457.081	106.343
460.456	57.5165
463.831	22.8615
467.205	41.083
470.58	38.2281
473.955	22.2422
477.33	8.39771
480.705	7.74939
484.079	23.4334
487.454	24.4959
490.829	13.3256
494.204	8.88464
497.579	11.2854
500.953	5.12189
504.328	9.11865
507.703	7.21619
511.078	17.5532
514.453	28.6324
517.828	39.2114
521.202	73.9831
524.577	137.467
527.952	210.162
531.327	280.031
534.702	372.528
538.076	577.216
541.451	828.619
544.826	1198.29
548.201	1744.67
551.576	2367.37
554.951	2970.88
558.325	3106.18
561.7	2753.2
565.075	2105
568.45	1551.17
571.825	1157.67
575.2	901.457
578.574	665.738
581.949	523.471
585.324	381.041
588.699	269.19
592.073	187.552
595.448	113.407
598.823	89.8364
602.198	75.6868
605.573	44.9145
608.948	17.0409
612.322	16.3623
615.697	16.7972
619.072	15.1103
622.447	13.4681
625.822	3.83453
629.196	11.3385
632.571	6.08032
635.946	3.09912
639.321	33.8774
642.696	9.5639
646.071	27.2884
649.445	99.5721
652.82	109.128
656.195	143.352
659.57	224.325
662.945	307.987
666.32	450.91
669.694	558.24
673.069	589.638
676.444	463.023
679.819	321.149
683.194	195.06
686.568	104.709
689.943	69.6331
693.318	49.8458
696.693	51.4302
700.068	65.8709
703.443	98.3444
706.817	131.277
710.192	193.306
713.567	267.553
716.942	417.96
720.317	483.83
723.691	504.243
727.066	418.354
730.441	264.508
733.816	154.155
737.191	87.6976
740.565	50.8943
743.94	25.196
747.315	13.0322
750.69	15.0285
754.065	5.38562
757.44	10.9862
760.814	2.30792
764.189	15.3881
767.564	1.2926
770.939	9.73859
774.314	28.7134
777.688	0.809326
781.063	25.2214
784.438	40.6023
787.813	90.8286
791.188	72.753
794.563	78.3475
797.937	104.384
801.312	164.427
804.687	221.868
808.062	291.243
811.437	405.119
814.812	485.202
818.186	676.984
821.561	931.173
824.936	1471.92
828.311	2469.25
831.685	4346.86
835.06	7667.52
838.435	11928.7
841.81	13691.4
845.185	16422.3
848.56	12836.1
851.934	5159.59
855.309	2365.7
858.684	1360.75
862.059	853.526
865.434	571.405
868.808	421.2
872.183	315.331
875.558	238.448
878.933	230.289
882.308	160.074
885.683	118.385
889.057	105.091
892.432	79.5109
895.807	77.0312
899.182	59.7915
902.557	66.5651
905.932	30.0609
909.306	23.8281
912.681	4.22876
916.056	18.6971
919.431	2.67407
922.805	23.1867
926.18	11.3242
929.555	4.98212
932.93	13.1119
936.305	0.070618
939.68	2.25757
943.054	19.7465
946.429	43.9523
949.804	14.5147
953.179	44.2898
956.554	14.9489
959.929	21.1799
963.303	43.7318
966.678	41.9199
970.053	34.3901
973.428	45.8073
976.803	47.0579
980.177	62.77
983.552	39.7446
986.927	19.694
990.302	5.10004
993.677	5.25964
997.052	26.1165
1000.43	2.99243
1003.8	45.1638
1007.18	44.0866
1010.55	42.6275
1013.93	52.7193
1017.3	27.2602
1020.67	18.9203
1024.05	14.068
1027.42	3.42169
1030.8	43.2559
1034.17	15.2172
1037.55	19.914
1040.92	1.09467
1044.3	37.1111
1047.67	38.0945
1051.05	39.9844
1054.42	50.469
1057.8	27.5235
1061.17	38.6061
1064.55	27.9649
1067.92	24.5308
1071.3	31.9671
1074.67	26.9655
1078.05	10.4254
1081.42	24.728
1084.8	34.6566
1088.17	11.5735
1091.55	23.6888
1094.92	14.6811
1098.3	5.73621
1101.67	9.74475
1105.05	29.0199
1108.42	22.8359
1111.8	28.7073
1115.17	15.1389
1118.55	32.2606
1121.92	29.4747
1125.3	26.6757
1128.67	15.129
1132.04	26.6517
1135.42	30.4344
1138.79	38.2712
1142.17	36.6661
1145.54	38.4193
1148.92	44.663
1152.29	39.8695
1155.67	50.8297
1159.04	42.7416
1162.42	44.6611
1165.79	68.9982
1169.17	36.4696
1172.54	38.1654
1175.92	64.3297
1179.29	10.6878
1182.67	31.1954
1186.04	23.6841
1189.42	22.6669
1192.79	11.6593
1196.17	38.9452
1199.54	35.7103
1202.91	13.9246
1206.29	58.7882
1209.66	42.5431
1213.04	40.932
1216.41	30.1406
1219.79	21.9413
1223.16	52.3323
1226.54	28.2418
1229.91	28.7862
1233.29	43.1008
1236.66	19.6558
1240.04	94.1906
1243.41	34.2738
1246.79	24.732
1250.16	15.6892
1253.54	43.4115
1256.91	32.5138
1260.29	33.9852
1263.66	18.0973
1267.04	22.684
1270.41	36.3967
