Measurement: Raman, 532 nm, unoriented, Raman Data Processed
Mineral: Namibite
Rruff sample: R100182
Ideal chemistry: Cu(BiO)_2_VO_4_(OH)
Locality: Copperopolis, Yavapai County, Arizona, USA
Source: Joe Ruiz
Description: Clusters of dark green thin tabular crystals on matrix
Raman shift (cm-1)	intensity
134.908	0
138.283	23.4357
141.657	195.392
145.032	483.088
148.407	798.077
151.782	1365.34
155.157	1675.3
158.532	742.874
161.906	344.029
165.281	244.31
168.656	262.961
172.031	264.632
175.406	238.666
178.78	203.309
182.155	163.652
185.53	130.861
188.905	119.023
192.28	91.0839
195.655	56.5301
199.029	24.1681
202.404	10.3247
205.779	6.54343
209.154	2.26819
212.529	3.69305
215.904	5.04047
219.278	9.02676
222.653	23.9203
226.028	56.6076
229.403	77.4806
232.778	73.6774
236.152	75.9171
239.527	102.531
242.902	129.195
246.277	113.363
249.652	51.6068
253.026	5.2908
256.401	17.3816
259.776	24.4549
263.151	14.9925
266.526	14.3493
269.901	47.3256
273.276	107.798
276.65	189.923
280.025	300.8
283.4	426.764
286.775	567.454
290.15	696.659
293.524	781.389
296.899	756.337
300.274	612.028
303.649	479.595
307.024	410.677
310.399	396.226
313.773	404.601
317.148	414.293
320.523	405.599
323.898	386.31
327.273	355.266
330.647	325.114
334.022	284.465
337.397	241.999
340.772	200.036
344.147	164.417
347.522	142.206
350.896	155.175
354.271	206.188
357.646	264.805
361.021	353.076
364.396	517.195
367.77	727.621
371.145	721.478
374.52	396.003
377.895	212.67
381.27	110.14
384.644	43.5076
388.019	5.87418
391.394	9.50442
394.769	9.83295
398.144	9.37997
401.519	0.429718
404.894	4.18896
408.268	9.84998
411.643	16.1522
415.018	29.2828
418.393	47.1444
421.767	68.7636
425.142	101.64
428.517	130.318
431.892	146.218
435.267	147.26
438.642	138.838
442.017	125.673
445.391	112.912
448.766	97.6899
452.141	71.4754
455.516	50.5437
458.891	34.2523
462.265	21.7785
465.64	16.4133
469.015	9.2256
472.39	9.35626
475.765	10.9873
479.139	13.5735
482.514	13.7101
485.889	11.689
489.264	7.75826
492.639	3.60182
496.014	0.897263
499.388	1.11507
502.763	4.78409
506.138	3.08458
509.513	2.76422
512.888	2.52434
516.263	6.69891
519.637	15.4698
523.012	23.8707
526.387	41.1093
529.762	60.1516
533.137	87.8663
536.511	125.835
539.886	185.806
543.261	271.522
546.636	378.065
550.011	517.074
553.386	662.598
556.76	781.713
560.135	812.726
563.51	705.424
566.885	533.873
570.26	380.721
573.635	278.48
577.009	210.822
580.384	160.967
583.759	118.603
587.134	88.1043
590.509	65.2778
593.883	45.6616
597.258	38.5966
600.633	26.3758
604.008	16.168
607.383	11.7952
610.758	8.33148
614.132	4.79234
617.507	6.12059
620.882	0.395584
624.257	0.888336
627.632	1.11667
631.006	2.02976
634.381	2.49028
637.756	0.197433
641.131	2.70541
644.506	3.78938
647.881	5.09415
651.255	6.88998
654.63	12.0511
658.005	21.0366
661.38	30.4265
664.755	46.775
668.13	62.7662
671.504	77.2352
674.879	78.9583
678.254	58.6185
681.629	34.7494
685.004	15.9232
688.378	7.49716
691.753	1.79858
695.128	1.11327
698.503	0.048126
701.878	2.76091
705.253	9.80766
708.627	19.8138
712.002	38.5345
715.377	63.7009
718.752	94.4206
722.127	129.907
725.501	146.577
728.876	130.183
732.251	90.6145
735.626	56.2148
739.001	33.4148
742.375	19.3513
745.75	13.0296
749.125	7.16844
752.5	3.28287
755.875	0.156158
759.25	3.20317
762.625	3.29323
765.999	1.2784
769.374	1.56558
772.749	0.60463
776.124	1.41911
779.499	0.654236
782.873	3.24706
786.248	4.53201
789.623	7.45299
792.998	14.0233
796.373	20.9993
799.747	37.1692
803.122	50.0151
806.497	70.8214
809.872	99.2119
813.247	134.808
816.621	193.919
819.996	274.797
823.371	404.477
826.746	623.202
830.121	1022.23
833.496	1652.56
836.87	2403.06
840.245	3642.22
843.62	5295.32
846.995	5728.04
850.37	2839.86
853.745	1180.22
857.119	639.431
860.494	409.156
863.869	293.806
867.244	218.573
870.619	165.634
873.994	125.952
877.368	93.5098
880.743	71.8367
884.118	57.3757
887.493	48.4453
890.868	40.5349
894.242	35.7628
897.617	31.8045
900.992	25.8395
904.367	18.367
907.742	11.9497
911.116	5.54437
914.491	2.63704
917.866	0.139938
921.241	0.762985
924.616	2.48341
927.991	3.10381
931.365	2.57256
934.74	3.05359
938.115	1.16554
941.49	1.29765
944.865	1.53812
948.24	3.63054
951.614	4.53978
954.989	9.39639
958.364	10.0224
961.739	13.9917
965.114	12.4465
968.489	17.3118
971.863	17.5286
975.238	16.4253
978.613	17.0043
981.988	17.0793
985.362	15.0271
988.737	13.4853
992.112	11.7458
995.487	8.07434
998.862	6.38086
1002.24	7.18671
1005.61	3.45083
1008.99	3.42236
1012.36	0.567055
1015.74	0.986649
1019.11	0.400269
1022.49	0.243729
1025.86	1.30689
1029.23	0.048058
1032.61	1.1082
1035.98	2.08382
1039.36	1.76584
1042.73	3.2599
1046.11	4.5318
1049.48	4.69756
1052.86	7.73856
1056.23	8.86676
1059.61	9.09724
1062.98	10.5442
1066.36	7.66751
1069.73	8.77945
1073.11	8.74644
1076.48	5.1193
1079.86	6.45695
1083.23	6.44414
1086.61	10.7537
1089.98	12.9017
1093.36	11.4598
1096.73	3.89149
1100.11	0.034309
1103.48	0.46328
1106.86	0.548767
1110.23	1.18478
1113.61	2.89272
1116.98	4.41693
1120.36	8.51177
1123.73	13.336
1127.11	14.5164
1130.48	22.0265
1133.86	25.6353
1137.23	32.8809
1140.6	39.7661
1143.98	47.249
1147.35	52.479
1150.73	57.8965
1154.1	57.2612
1157.48	57.5546
1160.85	53.6724
1164.23	46.9083
1167.6	37.3738
1170.98	30.2199
1174.35	21.8139
1177.73	16.912
1181.1	11.2208
1184.48	6.81735
1187.85	4.45475
1191.23	3.46198
1194.6	2.23085
1197.98	1.64469
1201.35	2.15914
1204.73	1.16125
1208.1	1.4352
1211.48	1.41981
1214.85	1.69228
1218.22	0.624107
1221.6	0.941582
1224.97	0.563812
1228.35	0.715492
1231.72	1.56541
1235.1	1.11738
1238.47	0.692848
1241.85	1.93378
1245.22	0.177071
1248.6	0.754211
1251.97	1.46522
1255.35	2.13576
1258.72	1.75157
1262.1	3.05199
1265.47	4.8105
1268.85	2.45294
1272.22	2.65795
1275.6	2.94697
1278.97	2.47271
1282.35	1.77407
1285.72	2.44162
1289.1	0.61504
1292.47	1.16529
1295.85	1.64182
1299.22	0.691463
1302.6	0
