Measurement: Raman, 532 nm, unoriented, Raman Data Processed
Mineral: Narsarsukite
Rruff sample: R060203
Ideal chemistry: Na_2_(Ti,Fe,Zr)Si_4_(O,F)_11_
Locality: Poudrette Quarry, Mont Saint-Hilaire, Rouville County, Quebec, Canada
Source: Royal Ontario Museum
Description: Light tan colored transparent fragment
Measured chemistry: (Na_1.24_[box]_0.76_)_Σ=2_(Ti_0.76_Fe^3+^_0.20_Al_0.04_)_Σ=1_Si_4.00_(O_10.00_F_1.00_)_Σ=11_ ; trace amounts of Zr and  K
Raman shift (cm-1)	intensity
135.469	0
138.843	549.116
142.218	292.852
145.593	488.257
148.968	1467.6
152.343	3139.14
155.718	6080.13
159.092	9111.81
162.467	10197.8
165.842	7327.02
169.217	2682.6
172.592	934.832
175.966	423.527
179.341	441.244
182.716	631.961
186.091	985.092
189.466	1373.44
192.84	1361.78
196.215	688.867
199.59	221.951
202.965	52.0419
206.34	0.495728
209.715	17.6602
213.089	41.6065
216.464	51.8325
219.839	78.4713
223.214	49.688
226.589	3.43164
229.964	69.2651
233.338	123.871
236.713	192.124
240.088	280.755
243.463	438.826
246.838	715.564
250.212	1148
253.587	1810.74
256.962	2668.45
260.337	3838.26
263.712	5264.67
267.086	6375.26
270.461	5980.66
273.836	4177.07
277.211	2478.07
280.586	1404.44
283.961	785.206
287.335	476.599
290.71	380.918
294.085	478.893
297.46	716.664
300.835	1132.72
304.209	1681.38
307.584	2347.57
310.959	2540.06
314.334	1799.18
317.709	939.715
321.084	440.128
324.458	190.777
327.833	64.5652
331.208	3.06641
334.583	11.088
337.958	17.536
341.332	21.9319
344.707	154.363
348.082	307.612
351.457	458.587
354.832	707.306
358.207	1091.37
361.581	1432.02
364.956	1362.56
368.331	1309.46
371.706	1572.47
375.08	1969.56
378.455	2184.07
381.83	1922.36
385.205	1351.52
388.58	804.432
391.955	382.436
395.329	91.0823
398.704	90.7986
402.079	141.135
405.454	27.6899
408.829	345.707
412.204	907.242
415.578	1722.3
418.953	3137.28
422.328	5213.12
425.703	6000.84
429.078	3946.71
432.452	2557.69
435.827	2111.63
439.202	2257.42
442.577	2605.6
445.952	2888.29
449.327	2854.8
452.701	2169.36
456.076	1123.38
459.451	323.422
462.826	39.1792
466.201	401.238
469.575	896.244
472.95	1570.54
476.325	3233.62
479.7	5861.7
483.075	7982.46
486.45	6624.84
489.824	4253.11
493.199	2953.08
496.574	2387.58
499.949	2249.2
503.324	2457.26
506.698	2900.2
510.073	3464.22
513.448	4061.77
516.823	4731.33
520.198	4862.69
523.572	3394.57
526.947	1555.38
530.322	674.875
533.697	324.141
537.072	167.18
540.447	85.8919
543.821	33.2106
547.196	1.34589
550.571	5.56427
553.946	3.43408
557.321	4.30322
560.695	28.7394
564.07	54.7071
567.445	43.2151
570.82	16.6381
574.195	19.4167
577.569	75.5125
580.944	130.94
584.319	182.176
587.694	216.337
591.069	219.444
594.443	201.673
597.818	175.742
601.193	151.718
604.568	142.939
607.943	150.766
611.318	171.35
614.692	203.163
618.067	229.184
621.442	256.602
624.817	287.153
628.192	331.728
631.567	359.411
634.941	371.346
638.316	340.103
641.691	290.012
645.066	235.651
648.441	193.893
651.815	144.273
655.19	113.95
658.565	74.822
661.94	41.4274
665.315	17.0483
668.689	4.04724
672.064	4.60663
675.439	12.377
678.814	12.4356
682.189	14.4655
685.564	11.7418
688.938	2.31042
692.313	22.6449
695.688	24.0017
699.063	45.5131
702.438	47.0442
705.812	26.9038
709.187	7.02203
712.562	15.3914
715.937	15.5657
719.312	63.762
722.687	134.229
726.061	262.32
729.436	453.861
732.811	717.357
736.186	1008.49
739.561	1154.8
742.936	1163.57
746.31	1218.21
749.685	1449.52
753.06	1911.97
756.435	2595.7
759.81	3454.66
763.184	4237.03
766.559	4879.6
769.934	5633.12
773.309	6105.01
776.684	5374.17
780.058	4690.4
783.433	4251.62
786.808	3857.54
790.183	3516.31
793.558	3272.11
796.933	3092.65
800.307	2891.74
803.682	2609.88
807.057	2160.27
810.432	1652.02
813.807	1228.73
817.181	962.042
820.556	784.693
823.931	702.171
827.306	593.051
830.681	262.264
834.056	82.6631
837.43	4.46509
840.805	35.2741
844.18	44.2589
847.555	30.7398
850.93	16.5997
854.304	8.25586
857.679	53.3261
861.054	119.677
864.429	209.198
867.804	334.772
871.178	537.662
874.553	850.241
877.928	1132.61
881.303	1254.79
884.678	1275.64
888.053	1149.16
891.427	959.21
894.802	972.766
898.177	1153.74
901.552	1376.17
904.927	1552.5
908.302	1576.55
911.676	1262.89
915.051	750.643
918.426	360.53
921.801	150.031
925.176	42.9532
928.55	3.85114
931.925	18.5723
935.3	14.3398
938.675	16.5803
942.05	3.15137
945.424	15.7628
948.799	49.9532
952.174	83.2562
955.549	142.383
958.924	217.796
962.298	312.699
965.673	438.539
969.048	595.823
972.423	793.775
975.798	1116.61
979.173	1558.26
982.547	2115.15
985.922	2845.04
989.297	3682.99
992.672	4416.22
996.047	5377.66
999.421	7101.17
1002.8	9896.31
1006.17	13357.1
1009.55	14676.6
1012.92	12199.3
1016.3	9645.33
1019.67	8110.4
1023.04	6432.12
1026.42	4494.06
1029.8	2659.13
1033.17	1437.47
1036.54	739.289
1039.92	389.39
1043.29	213.01
1046.67	113.902
1050.04	59.7747
1053.42	26.6906
1056.79	11.478
1060.17	17.7293
1063.54	32.2545
1066.92	36.3831
1070.29	9.52875
1073.67	101.755
1077.04	231.588
1080.42	262.817
1083.79	150.374
1087.17	80.3056
1090.54	83.9656
1093.92	110.943
1097.29	168.728
1100.67	242.428
1104.04	371.291
1107.42	568.996
1110.79	894.236
1114.16	1434.55
1117.54	2236.73
1120.91	3224.87
1124.29	4159.27
1127.66	4137.16
1131.04	2683.69
1134.41	1247.8
1137.79	561.712
1141.16	275.742
1144.54	141.883
1147.91	99.0605
1151.29	95.674
1154.66	112.788
1158.04	121.889
1161.41	107.233
1164.79	80.6623
1168.16	51.8319
1171.54	30.8372
1174.91	26.2174
1178.29	15.124
1181.66	5.75607
1185.04	0.10144
1188.41	2.47894
1191.79	4.39334
1195.16	3.35724
1198.54	6.05127
1201.91	6.15839
1205.29	7.44894
1208.66	0.443329
1212.04	2.02679
1215.41	4.56195
1218.79	10.0661
1222.16	12.681
1225.53	12.8477
1228.91	22.2485
1232.28	20.6385
1235.66	25.4817
1239.03	28.5442
1242.41	32.9147
1245.78	40.3722
1249.16	36.9014
1252.53	34.6119
1255.91	41.9224
1259.28	32.151
1262.66	30.4151
1266.03	22.4407
1269.41	23.9755
1272.78	22.2683
1276.16	13.0954
1279.53	15.4458
1282.91	12.2772
1286.28	12.0601
1289.66	4.64706
1293.03	5.90753
1296.4	4.29514
1299.78	3.4895
1303.15	0.431274
