Measurement: Raman, 514 nm, unoriented, Raman Data Processed
Mineral: Narsarsukite
Rruff sample: R060203
Ideal chemistry: Na_2_(Ti,Fe,Zr)Si_4_(O,F)_11_
Locality: Poudrette Quarry, Mont Saint-Hilaire, Rouville County, Quebec, Canada
Source: Royal Ontario Museum
Description: Light tan colored transparent fragment
Measured chemistry: (Na_1.24_[box]_0.76_)_Σ=2_(Ti_0.76_Fe^3+^_0.20_Al_0.04_)_Σ=1_Si_4.00_(O_10.00_F_1.00_)_Σ=11_ ; trace amounts of Zr and  K
Raman shift (cm-1)	intensity
64.758	0
68.952	22.09
73.144	26.635
77.333	197.694
81.521	577.167
85.706	2109.21
89.89	1403.64
94.071	1604.63
98.251	2255.78
102.428	2946.56
106.604	3749.49
110.777	4986.17
114.949	7432.45
119.119	9264.67
123.286	7439.94
127.452	3859.23
131.615	2628.01
135.777	2964.62
139.937	3476.29
144.094	2305.16
148.25	2454.56
152.403	3855.37
156.555	8651.17
160.705	16874.8
164.853	22029.7
168.998	11766
173.142	4515.49
177.284	2190.17
181.424	1526.02
185.562	1816.03
189.698	2678.17
193.831	2637.23
197.963	1469.13
202.093	735.856
206.221	495.404
210.347	327.774
214.472	142.967
218.594	148.031
222.714	207.241
226.832	225.986
230.948	173.484
235.063	168.666
239.175	148.048
243.286	12.357
247.394	190.52
251.501	616.647
255.605	1518.01
259.708	3744.33
263.808	7668.42
267.907	11881.2
272.004	10804.5
276.099	6368.09
280.192	3216.05
284.283	1561.51
288.372	809.672
292.459	415.625
296.544	435.402
300.627	962.969
304.709	1969.24
308.788	3331.65
312.865	3214.9
316.941	1976.33
321.015	1083.81
325.086	698.796
329.156	666.264
333.224	724.199
337.29	735.587
341.354	831.449
345.416	985.766
349.476	1211.85
353.534	1780.42
357.591	2781.46
361.645	4243.94
365.698	3849.8
369.748	3227.01
373.797	3841.54
377.844	5273.36
381.889	5445.65
385.932	4341.96
389.973	3081.21
394.012	2096.24
398.049	1559.47
402.084	1199.26
406.118	1248.81
410.15	1666.31
414.179	2723.29
418.207	5561.72
422.233	13421
426.257	17767.3
430.279	10703.8
434.299	6450.47
438.318	5533.66
442.334	5960.61
446.349	7477.67
450.361	8356.7
454.372	6702.79
458.381	3762.2
462.388	2101.5
466.394	1768.81
470.397	1615.86
474.398	2819.42
478.398	7876
482.396	16993.6
486.391	17131.2
490.385	10858.9
494.377	7326.58
498.368	5958.38
502.356	5637.08
506.342	6150.11
510.327	6833.19
514.31	8190
518.291	10692.4
522.27	10304.6
526.247	5339.28
530.222	2413.05
534.196	1485.97
538.167	1103.65
542.137	836.206
546.105	555.825
550.071	426.674
554.035	349.773
557.998	283.012
561.958	103.315
565.917	36.558
569.874	53.445
573.829	1.954
577.782	46.065
581.733	77.705
585.683	151.075
589.63	184.192
593.576	149.048
597.52	37.595
601.462	30.358
605.402	143.085
609.341	165.9
613.277	79.948
617.212	89.157
621.145	97.483
625.076	95.384
629.006	289.976
632.933	424.457
636.859	442.75
640.783	377.791
644.705	287.529
648.625	187.962
652.543	156.087
656.46	42.885
660.375	1.232
664.288	34.041
668.199	14.028
672.108	28.341
676.016	4.23
679.921	46.647
683.825	104.685
687.727	143.384
691.628	261.775
695.526	318.872
699.423	343.677
703.318	442.193
707.211	432.415
711.102	450.344
714.992	405.978
718.879	443.317
722.765	652.262
726.649	917.502
730.532	1374.62
734.412	2241.4
738.291	2917.4
742.168	3038.09
746.043	2762.54
749.916	3009.75
753.788	3566.37
757.658	4984.63
761.526	6874.02
765.392	8177.06
769.257	10309.8
773.119	13083.3
776.98	11653.5
780.839	9821
784.697	8761.26
788.552	8106.89
792.406	7287.72
796.258	6633.26
800.108	6268.73
803.957	5963.14
807.804	4966.8
811.649	3710.84
815.492	2663.11
819.333	2199.65
823.173	2013.57
827.011	2358.82
830.847	1195.8
834.681	530.067
838.514	198.016
842.345	56.988
846.174	46.479
850.001	30.399
853.827	19.706
857.651	73.445
861.473	176.278
865.293	274.213
869.112	527.257
872.928	972.417
876.744	1986.7
880.557	2555.17
884.369	2865.94
888.178	2552.95
891.987	1809.16
895.793	1709.55
899.598	2115.11
903.401	2771.85
907.202	3642.84
911.001	3542.2
914.799	2337.13
918.595	1009.73
922.389	362.057
926.182	25.87
929.972	62.121
933.761	153.091
937.549	130.141
941.334	32.253
945.118	25.736
948.9	60.981
952.681	215.551
956.459	265.377
960.236	662.469
964.012	852.832
967.785	1489.55
971.557	2086.72
975.327	3024.33
979.095	4250.32
982.862	6023.64
986.627	8939.28
990.39	11935.2
994.152	13671.4
997.912	15947.9
1001.67	22718
1005.43	36031.7
1009.18	48238.9
1012.93	41256.4
1016.68	31454.1
1020.43	27202.1
1024.18	21330.4
1027.93	13978.9
1031.67	7617.64
1035.42	4277.69
1039.16	2427.97
1042.9	1663.49
1046.63	1193.93
1050.37	907.89
1054.11	820.45
1057.84	787.956
1061.57	557.341
1065.3	627.226
1069.03	640.125
1072.75	806.312
1076.47	1327.14
1080.2	1751.31
1083.92	1288.04
1087.64	844.088
1091.36	760.463
1095.07	836.159
1098.79	870.374
1102.5	952.232
1106.21	1251.35
1109.92	1680.52
1113.62	2425.92
1117.33	4016.79
1121.04	6463.22
1124.74	9495.99
1128.44	10069.3
1132.14	5921.91
1135.83	2558.71
1139.53	1228.37
1143.22	658.625
1146.92	487.978
1150.61	440.427
1154.3	471.514
1157.98	439.535
1161.67	455.437
1165.35	339.049
1169.04	282.183
1172.72	241.258
1176.4	155.698
1180.07	126.733
1183.75	92.564
1187.42	6.741
1191.1	10.047
1194.77	12.293
1198.44	3.583
1202.1	45.501
1205.77	32.93
1209.43	23.199
1213.1	13.193
1216.76	35.875
1220.42	95.882
1224.07	63.659
1227.73	12.147
1231.38	51.128
1235.04	15.457
1238.69	32.793
1242.34	55.969
1245.99	53.854
1249.63	14.45
1253.28	10.397
1256.92	7.113
1260.56	94.561
1264.2	88.876
1267.84	108.092
1271.48	143.334
1275.11	131.9
1278.74	17.387
1282.38	23.312
1286.01	65.6
1289.63	47.377
1293.26	25.348
1296.89	163.374
1300.51	142.801
1304.13	82.949
1307.75	156.799
1311.37	51.426
1314.99	33.714
1318.6	3.276
1322.22	1.464
1325.83	37.612
1329.44	61.943
1333.05	65.765
1336.66	125.297
1340.26	83.857
1343.87	86.438
1347.47	36.113
1351.07	150.464
1354.67	96.864
1358.27	115.384
1361.86	95.667
1365.46	190.316
1369.05	125.341
1372.64	72.246
1376.23	136.913
1379.82	107.009
1383.41	122.359
1386.99	28.498
1390.57	115.324
1394.16	141.796
1397.74	115.215
1401.32	197.757
1404.89	199.24
1408.47	154.654
1412.04	106.541
1415.61	151.17
1419.18	88.696
1422.75	67.322
1426.32	153.567
1429.89	82.28
1433.45	102.674
1437.01	117.822
1440.58	113.92
1444.13	112.231
1447.69	116.802
1451.25	202.294
1454.81	136.271
1458.36	131.105
1461.91	66.431
1465.46	113.193
1469.01	139.271
1472.56	107.979
1476.1	237.901
1479.64	169.512
1483.19	179.289
1486.73	180.963
1490.27	126.655
1493.81	77.643
1497.34	154.706
1500.88	58.944
1504.41	109.53
1507.94	24.596
1511.47	114.97
1515	95.396
1518.53	133.598
1522.05	157.639
1525.57	159.511
1529.1	176.885
1532.62	97.422
1536.14	0
