Measurement: Raman, 780 nm, unoriented, Raman Data Processed
Mineral: Narsarsukite
Rruff sample: R060203
Ideal chemistry: Na_2_(Ti,Fe,Zr)Si_4_(O,F)_11_
Locality: Poudrette Quarry, Mont Saint-Hilaire, Rouville County, Quebec, Canada
Source: Royal Ontario Museum
Description: Light tan colored transparent fragment
Measured chemistry: (Na_1.24_[box]_0.76_)_Σ=2_(Ti_0.76_Fe^3+^_0.20_Al_0.04_)_Σ=1_Si_4.00_(O_10.00_F_1.00_)_Σ=11_ ; trace amounts of Zr and  K
Raman shift (cm-1)	intensity
135.218	0
138.11	219.326
141.003	111.105
143.896	6.36432
146.788	23.2517
149.681	141.196
152.574	395.894
155.466	918.629
158.359	1434.57
161.252	1627.32
164.145	1536.96
167.037	799.599
169.93	307.449
172.823	117.791
175.715	40.5534
178.608	23.753
181.501	36.0104
184.393	70.7029
187.286	116.696
190.179	159.49
193.072	132.219
195.964	65.8064
198.857	24.4824
201.75	3.79837
204.642	4.32602
207.535	2.19638
210.428	1.10236
213.321	3.36667
216.213	3.39249
219.106	4.15375
221.999	0.042725
224.891	4.30621
227.784	13.8317
230.677	21.4715
233.569	24.393
236.462	33.2771
239.355	37.6634
242.248	46.5232
245.14	67.3487
248.033	91.7631
250.926	127.172
253.818	180.347
256.711	259.344
259.604	383.424
262.496	557.039
265.389	743.1
268.282	828.189
271.175	718.241
274.067	497.844
276.96	314.254
279.853	196.343
282.745	121.55
285.638	79.3254
288.531	52.8376
291.423	50.5255
294.316	57.2095
297.209	76.7144
300.101	123.096
302.994	185.834
305.887	268.522
308.78	336.707
311.672	309.917
314.565	208.844
317.458	123.496
320.35	71.1171
323.243	37.1144
326.136	15.2431
329.029	6.07104
331.921	2.52701
334.814	3.78018
337.707	4.06046
340.599	0.839508
343.492	11.5877
346.385	26.5824
349.277	47.2817
352.17	63.1567
355.063	92.8056
357.955	147.173
360.848	200.888
363.741	196.019
366.634	165.346
369.526	167.132
372.419	203.777
375.312	251.634
378.204	287.013
381.097	270.29
383.99	209.774
386.882	146.961
389.775	92.5627
392.668	45.0714
395.561	16.5243
398.453	4.29568
401.346	15.2996
404.239	14.3366
407.131	0.986298
410.024	23.7932
412.917	60.8358
415.81	132.716
418.702	265.983
421.595	483.542
424.488	641.376
427.38	512.092
430.273	330.626
433.166	240.521
436.058	213.775
438.951	225.279
441.844	264.931
444.736	314.361
447.629	349.021
450.522	326.731
453.415	241.507
456.307	131.174
459.2	48.8723
462.093	18.996
464.985	50.8223
467.878	93.8822
470.771	66.2128
473.663	126.26
476.556	304.646
479.449	617.782
482.342	918.256
485.234	878.648
488.127	616.58
491.02	420.67
493.912	317.21
496.805	264.97
499.698	251.275
502.591	264.056
505.483	300.985
508.376	347.99
511.269	412.527
514.161	500.636
517.054	610.107
519.947	650.64
522.839	505.374
525.732	273.906
528.625	131.024
531.518	64.8799
534.41	35.5573
537.303	19.0605
540.196	10.7323
543.088	6.74139
545.981	0.075775
548.874	2.26218
551.766	1.33151
554.659	1.75937
557.552	1.06494
560.444	2.43829
563.337	5.63611
566.23	5.69315
569.123	3.07996
572.015	1.97128
574.908	2.80618
577.801	9.95511
580.693	13.1054
583.586	15.7529
586.479	21.1712
589.371	20.1249
592.264	21.2948
595.157	22.7866
598.05	18.4386
600.942	14.8574
603.835	17.0325
606.728	14.2734
609.62	16.5692
612.513	21.3217
615.406	18.9926
618.298	24.6715
621.191	22.3684
624.084	26.0053
626.977	28.0761
629.869	31.44
632.762	35.9388
635.655	34.9811
638.547	33.74
641.44	27.0516
644.333	27.1172
647.226	24.508
650.118	17.5557
653.011	13.7086
655.904	11.8129
658.796	7.84726
661.689	5.53119
664.582	2.42935
667.474	3.13364
670.367	2.43527
673.26	0.244843
676.153	0.008942
679.045	1.52048
681.938	1.45853
684.831	2.90424
687.723	0.914276
690.616	1.99243
693.509	3.17426
696.401	2.89438
699.294	5.33197
702.187	5.56763
705.08	1.62045
707.972	1.83432
710.865	2.83951
713.758	1.35718
716.65	1.40872
719.543	5.19547
722.436	8.97534
725.328	19.9402
728.221	34.0078
731.114	53.2154
734.006	78.8733
736.899	103.402
739.792	108.451
742.685	104.635
745.577	103.754
748.47	109.939
751.363	138.675
754.255	173.858
757.148	230.249
760.041	297.124
762.933	353.627
765.826	399.396
768.719	465.785
771.612	546.156
774.504	539.274
777.397	460.029
780.29	414.079
783.182	378.994
786.075	338.933
788.968	315.906
791.861	291.389
794.753	274.019
797.646	264.164
800.539	246.23
803.431	224.772
806.324	193.861
809.217	158.573
812.109	120.082
815.002	95.9987
817.895	85.6376
820.788	79.1732
823.68	100.081
826.573	105.345
829.466	56.8528
832.358	25.5065
835.251	7.57871
838.144	0.363495
841.036	0.538177
843.929	1.96805
846.822	1.26822
849.715	4.02869
852.607	1.29279
855.5	1.73428
858.393	5.54782
861.285	10.2908
864.178	17.2207
867.071	31.0599
869.963	40.8839
872.856	62.8882
875.749	95.9063
878.641	116.71
881.534	130.616
884.427	133.358
887.32	121.825
890.212	95.9716
893.105	79.454
895.998	82.5747
898.89	100.57
901.783	115.272
904.676	128.749
907.568	137.091
910.461	123.961
913.354	85.6137
916.247	48.7961
919.139	26.2962
922.032	8.75873
924.925	3.03165
927.817	0.806122
930.71	1.99124
933.603	1.62595
936.495	2.6568
939.388	1.08188
942.281	0.927521
945.174	1.04178
948.066	8.59982
950.959	8.05081
953.852	14.0577
956.744	16.8419
959.637	22.7673
962.53	34.1036
965.423	43.4023
968.315	57.8391
971.208	73.8848
974.101	98.7931
976.993	131.798
979.886	175.257
982.779	226.203
985.671	294.704
988.564	368.973
991.457	434.615
994.35	491.51
997.242	587.757
1000.13	755.035
1003.03	1031.37
1005.92	1360.5
1008.81	1513.78
1011.71	1344.81
1014.6	1071.19
1017.49	903.505
1020.38	768.355
1023.28	626.689
1026.17	458.267
1029.06	289.317
1031.95	174.871
1034.85	100.469
1037.74	56.7378
1040.63	37.5433
1043.53	21.0076
1046.42	10.5305
1049.31	5.62363
1052.2	5.44241
1055.1	0.717224
1057.99	1.63727
1060.88	3.25455
1063.77	0.247894
1066.67	4.34055
1069.56	3.11432
1072.45	4.59106
1075.35	13.5342
1078.24	22.9823
1081.13	23.1739
1084.02	10.3768
1086.92	6.68396
1089.81	8.37793
1092.7	11.6352
1095.59	9.31601
1098.49	18.1213
1101.38	22.7472
1104.27	34.9203
1107.16	48.1651
1110.06	74.1302
1112.95	109.621
1115.84	158.069
1118.74	235.862
1121.63	321.589
1124.52	406
1127.41	407.863
1130.31	285.97
1133.2	152.425
1136.09	72.8111
1138.98	34.9687
1141.88	21.4852
1144.77	8.23789
1147.66	7.8718
1150.56	8.28174
1153.45	8.79742
1156.34	8.99264
1159.23	10.0076
1162.13	6.32938
1165.02	4.31119
1167.91	0.299957
1170.8	4.55652
1173.7	2.52567
1176.59	3.09915
1179.48	3.14542
1182.38	5.54306
1185.27	2.24582
1188.16	0.556976
1191.05	2.63397
1193.95	1.1647
1196.84	0.669464
1199.73	0.185791
1202.62	0.152527
1205.52	0.770477
1208.41	0.42276
1211.3	1.54785
1214.19	0.192688
1217.09	0.42337
1219.98	0.937714
1222.87	6.59198
1225.77	7.13983
1228.66	3.00366
1231.55	4.62073
1234.44	2.20566
1237.34	3.39413
1240.23	4.22223
1243.12	3.35385
1246.01	8.1294
1248.91	3.5516
1251.8	0.239471
1254.69	7.42264
1257.59	1.69479
1260.48	5.15951
1263.37	3.52985
1266.26	5.25174
1269.16	5.33429
1272.05	2.51471
1274.94	3.37134
1277.83	0.196808
1280.73	3.56137
1283.62	0.756989
