Measurement: Raman, 532 nm, unoriented, Raman Data Processed
Mineral: Narsarsukite
Rruff sample: R060217
Ideal chemistry: Na_2_(Ti,Fe,Zr)Si_4_(O,F)_11_
Locality: Mont Saint-Hilaire, Rouville County, Quebec, Canada
Source: Royal Ontario Museum
Description: Tan to green tetragonal prisms
Raman shift (cm-1)	intensity
121.969	0
125.344	41.9069
128.719	539.136
132.094	755.807
135.469	1054.33
138.843	2177.76
142.218	3321.57
145.593	4212.2
148.968	5162.62
152.343	6691.4
155.718	9082.98
159.092	12591.2
162.467	16266
165.842	13248.8
169.217	7162.12
172.592	4840.21
175.966	3681.01
179.341	3525.55
182.716	3773.94
186.091	4417.89
189.466	5423.73
192.84	5306.5
196.215	3520.28
199.59	2341.24
202.965	1965.22
206.34	1682.07
209.715	1351.75
213.089	802.034
216.464	254.978
219.839	48.8154
223.214	76.6387
226.589	172.737
229.964	37.4512
233.338	160.163
236.713	34.3931
240.088	5.5459
243.463	232.53
246.838	665.733
250.212	1252.89
253.587	2030.36
256.962	2951.71
260.337	4475.74
263.712	6466.31
267.086	8283.13
270.461	8248.05
273.836	5939.1
277.211	3557.65
280.586	1917.12
283.961	1028.19
287.335	395.332
290.71	116.538
294.085	33.084
297.46	10.0889
300.835	353.114
304.209	1398.36
307.584	2606.18
310.959	3300.18
314.334	2836.7
317.709	2078.72
321.084	1762.08
324.458	1692.33
327.833	1656.09
331.208	1538.71
334.583	1604.73
337.958	1732.84
341.332	1728.32
344.707	1497.14
348.082	1320.55
351.457	1438.02
354.832	1619.6
358.207	1949.2
361.581	2247.56
364.956	1900.8
368.331	1735.36
371.706	2019.42
375.08	2520.21
378.455	2985.76
381.83	2706.23
385.205	1922.36
388.58	1291.28
391.955	1011.45
395.329	771.414
398.704	299.676
402.079	273.113
405.454	352.799
408.829	307.096
412.204	1124.39
415.578	2299.63
418.953	4415.54
422.328	7208.47
425.703	8756.8
429.078	6140.86
432.452	4078.75
435.827	3118.81
439.202	3037.63
442.577	3454.23
445.952	3974.28
449.327	3969.15
452.701	3154.96
456.076	1585.48
459.451	404.834
462.826	237.891
466.201	69.6899
469.575	740.863
472.95	1783.87
476.325	4093.51
479.7	7538.79
483.075	10488.6
486.45	8826.34
489.824	5443.27
493.199	3539.12
496.574	2725.51
499.949	2742.57
503.324	3161.24
506.698	4076.07
510.073	4800.69
513.448	5281.06
516.823	6112.25
520.198	6401.06
523.572	4916.18
526.947	2666.17
530.322	1417.24
533.697	878.349
537.072	628.788
540.447	375.596
543.821	288.894
547.196	238.829
550.571	254.904
553.946	194.593
557.321	133.895
560.695	45.5107
564.07	112.531
567.445	97.5239
570.82	63.4214
574.195	134.017
577.569	331.481
580.944	609.695
584.319	819.572
587.694	972.277
591.069	1019.12
594.443	923.608
597.818	568.778
601.193	321.065
604.568	200.632
607.943	159.251
611.318	310.906
614.692	418.323
618.067	542.586
621.442	819.946
624.817	1119.12
628.192	1444.14
631.567	1686.47
634.941	1625.36
638.316	1324.38
641.691	1109.33
645.066	813.918
648.441	524.471
651.815	327.326
655.19	178.323
658.565	95.395
661.94	13.9614
665.315	59.6045
668.689	23.7747
672.064	132.495
675.439	177.339
678.814	52.5125
682.189	67.7983
685.564	34.4482
688.938	95.5493
692.313	172.395
695.688	251.822
699.063	336.042
702.438	299.666
705.812	206.834
709.187	103.874
712.562	173.977
715.937	166.128
719.312	10.4702
722.687	203.558
726.061	877.485
729.436	1605.86
732.811	2716.81
736.186	4222.41
739.561	5490.85
742.936	6361.07
746.31	7104.31
749.685	8443.69
753.06	10859.1
756.435	14252.5
759.81	18413.1
763.184	22107.3
766.559	24650.1
769.934	26867
773.309	28988.2
776.684	29266.3
780.058	28663.3
783.433	27093.5
786.808	25077.2
790.183	22885.1
793.558	21342.6
796.933	20099.2
800.307	19003
803.682	17187.2
807.057	14339.8
810.432	10709.9
813.807	7446.5
817.181	5130.16
820.556	3554.93
823.931	2369.93
827.306	1346.33
830.681	648.811
834.056	194.815
837.43	92.3064
840.805	218.587
844.18	201.958
847.555	101.968
850.93	138.747
854.304	583.932
857.679	1332.32
861.054	2511.23
864.429	4193.56
867.804	6168.16
871.178	8330.91
874.553	11361.4
877.928	14108.7
881.303	14473.4
884.678	13528.8
888.053	11020.4
891.427	7676.23
894.802	6214.26
898.177	6240.85
901.552	6503.05
904.927	6315.11
908.302	5664.32
911.676	4344.95
915.051	2517.44
918.426	1111.82
921.801	493.728
925.176	186.526
928.55	1.79724
931.925	76.0101
935.3	55.561
938.675	56.038
942.05	67.1478
945.424	25.7208
948.799	106.439
952.174	268.813
955.549	402.666
958.924	568.154
962.298	815.113
965.673	1169.99
969.048	1481.37
972.423	1886.33
975.798	2597.23
979.173	3660.71
982.547	5046.68
985.922	6688.47
989.297	8546.46
992.672	9894.78
996.047	11395.4
999.421	14097.9
1002.8	18581.6
1006.17	24115.4
1009.55	26778
1012.92	23159.7
1016.3	18350.8
1019.67	15136.9
1023.04	11757.5
1026.42	8241.98
1029.8	4909.97
1033.17	2591
1036.54	1326.48
1039.92	682.587
1043.29	362.973
1046.67	213.841
1050.04	143.784
1053.42	43.6292
1056.79	68.6687
1060.17	25.679
1063.54	112.552
1066.92	46.5107
1070.29	1.71631
1073.67	196.598
1077.04	453.637
1080.42	598.261
1083.79	444.711
1087.17	295.667
1090.54	262.199
1093.92	367.741
1097.29	609.431
1100.67	870.509
1104.04	1030.15
1107.42	1023.43
1110.79	1203.07
1114.16	1637.63
1117.54	2385.52
1120.91	3375.6
1124.29	4245.53
1127.66	4323.86
1131.04	2841.44
1134.41	1269.18
1137.79	462.393
1141.16	112.777
1144.54	1.44263
1147.91	0.522339
1151.29	12.8188
1154.66	93.2771
1158.04	211.8
1161.41	134.594
1164.79	93.5684
1168.16	109.717
1171.54	86.5901
1174.91	71.801
1178.29	32.8785
1181.66	55.3442
1185.04	23.9835
1188.41	35.324
1191.79	49.8813
1195.16	35.4849
1198.54	79.0938
1201.91	19.0232
1205.29	7.0835
1208.66	32.9213
1212.04	56.8318
1215.41	32.2051
1218.79	1.81897
1222.16	78.9017
1225.53	93.0682
1228.91	105.316
1232.28	101.006
1235.66	92.9646
1239.03	87.6168
1242.41	122.574
1245.78	108.176
1249.16	124.115
1252.53	86.6479
1255.91	103.736
1259.28	113.743
1262.66	67.1958
1266.03	119.822
1269.41	52.4606
1272.78	41.7919
1276.16	108.086
1279.53	29.5812
1282.91	1.44922
1286.28	71.7515
1289.66	43.1334
1293.03	55.8815
1296.4	117.82
1299.78	92.8634
1303.15	4.57312
