Measurement: Raman, 532 nm, unoriented, Raman Data Processed
Mineral: Natanite
Rruff sample: R100016
Ideal chemistry: Fe^2+^Sn^4+^(OH)_6_
Locality: Level 10 silicate body, El Potosi mine, Santa Eulalia, Chihuahua, Mexico
Source: William Pinch
Description: Orange octahedron, associated with black ilvaite, colorless fluorite, calcite
Raman shift (cm-1)	intensity
126.727	0
130.101	0.427834
133.476	1.14537
136.851	9.17763
140.226	18.3854
143.601	33.5485
146.975	58.2127
150.35	76.378
153.725	87.7055
157.1	92.101
160.475	95.7854
163.85	97.5996
167.224	95.4884
170.599	94.4791
173.974	99.8723
177.349	96.3914
180.724	86.2694
184.098	97.1316
187.473	77.1423
190.848	69.9806
194.223	64.576
197.598	59.2845
200.972	55.4412
204.347	51.7705
207.722	44.2812
211.097	35.7732
214.472	32.6128
217.846	29.4237
221.221	26.5678
224.596	22.697
227.971	21.7965
231.346	22.6475
234.721	18.1885
238.095	17.2037
241.47	16.2206
244.845	10.8429
248.22	6.17001
251.595	5.29442
254.97	0.4655
258.344	6.53122
261.719	9.17537
265.094	1.36058
268.469	21.227
271.844	55.2674
275.218	99.864
278.593	159.947
281.968	238.368
285.343	346.231
288.718	459.854
292.092	479.074
295.467	387.284
298.842	263.382
302.217	174.745
305.592	113.267
308.967	80.0695
312.341	53.9365
315.716	35.4152
319.091	21.7071
322.466	11.7578
325.841	8.01871
329.216	10.517
332.59	5.8432
335.965	9.91266
339.34	14.9368
342.715	24.2838
346.09	39.9504
349.464	66.0391
352.839	92.8837
356.214	135.302
359.589	174.662
362.964	220.291
366.339	259.464
369.713	284.498
373.088	282.783
376.463	252.506
379.838	206.838
383.213	156.266
386.587	114.692
389.962	80.9541
393.337	56.9745
396.712	39.2878
400.087	26.3975
403.462	15.2919
406.836	8.34972
410.211	3.7832
413.586	1.05977
416.961	3.74254
420.336	1.33379
423.71	0.001282
427.085	0.244278
430.46	2.83325
433.835	5.45068
437.21	10.0313
440.584	14.3661
443.959	16.2276
447.334	17.1449
450.709	17.4736
454.084	17.1393
457.459	16.0902
460.833	16.3843
464.208	14.5792
467.583	13.3324
470.958	11.1405
474.333	9.77075
477.707	6.1015
481.082	2.09984
484.457	0.578674
487.832	1.69347
491.207	4.55296
494.582	3.73453
497.956	5.59103
501.331	1.85397
504.706	0.641388
508.081	0.01535
511.456	0.72406
514.83	6.49176
518.205	8.50961
521.58	10.2841
524.955	13.7285
528.33	16.8537
531.705	20.4184
535.079	30.9117
538.454	31.5134
541.829	40.7582
545.204	52.4412
548.579	65.0601
551.953	78.3252
555.328	93.403
558.703	118.727
562.078	147.837
565.453	189.635
568.827	259.142
572.202	358.307
575.577	522.459
578.952	771.213
582.327	1129.82
585.702	1582.71
589.076	2096.72
592.451	2489.16
595.826	2452.55
599.201	1947.71
602.576	1328.65
605.95	878.493
609.325	588.876
612.7	399.373
616.075	276.319
619.45	195.874
622.824	141.545
626.199	104.522
629.574	76.7306
632.949	57.1395
636.324	42.3167
639.699	30.5651
643.073	22.4066
646.448	18.329
649.823	13.1292
653.198	8.51761
656.573	5.7691
659.947	2.44455
663.322	0.314011
666.697	1.9442
670.072	2.46014
673.447	3.19406
676.822	2.28362
680.196	3.01019
683.571	2.54042
686.946	1.66402
690.321	0.807968
693.696	0.356918
697.071	0.130142
700.445	2.06659
703.82	3.78677
707.195	5.48749
710.57	7.48119
713.945	9.61111
717.319	13.8049
720.694	13.8876
724.069	14.1335
727.444	16.0763
730.819	17.6236
734.193	14.432
737.568	13.6353
740.943	16.0802
744.318	15.8521
747.693	13.538
751.068	11.2574
754.442	10.0677
757.817	8.01886
761.192	6.35686
764.567	6.53029
767.942	6.72275
771.317	4.00687
774.691	6.04854
778.066	3.5453
781.441	2.73494
784.816	2.68274
788.191	2.15028
791.565	0.976974
794.94	1.75803
798.315	1.04755
801.69	0.252151
805.065	2.46579
808.439	3.51044
811.814	3.43631
815.189	2.15375
818.564	1.70093
821.939	1.20068
825.313	2.33829
828.688	0.932129
832.063	1.07565
835.438	2.10442
838.813	5.92749
842.188	5.07803
845.562	10.3368
848.937	13.6186
852.312	20.045
855.687	23.7865
859.062	23.8268
862.437	23.4621
865.811	25.8895
869.186	26.473
872.561	33.4798
875.936	37.7999
879.311	44.5493
882.685	53.1493
886.06	60.0862
889.435	67.6816
892.81	73.7856
896.185	73.8924
899.559	66.0944
902.934	54.0755
906.309	40.2911
909.684	23.3463
913.059	15.1157
916.434	9.98177
919.808	6.53712
923.183	3.84511
926.558	2.38017
929.933	1.22156
933.308	0.856171
936.683	0.200653
940.057	0.550308
943.432	1.54308
946.807	0.241791
950.182	0.240311
953.557	1.20503
956.931	1.32761
960.306	1.70178
963.681	0.362015
967.056	3.34912
970.431	2.72732
973.806	4.42853
977.18	3.32599
980.555	4.50784
983.93	4.7887
987.305	5.64459
990.68	4.10841
994.054	5.05185
997.429	3.92578
1000.8	3.72043
1004.18	3.38478
1007.55	0.215118
1010.93	0.819565
1014.3	0.010574
1017.68	0.00914
1021.05	1.12784
1024.43	1.68646
1027.8	0.420013
1031.18	1.03842
1034.55	0.691589
1037.93	0.019287
1041.3	0.897842
1044.68	3.32509
1048.05	3.47967
1051.43	1.91894
1054.8	3.8118
1058.18	5.46281
1061.55	4.68556
1064.93	3.13553
1068.3	5.15648
1071.67	5.53163
1075.05	8.18643
1078.42	9.37862
1081.8	9.81154
1085.17	11.6632
1088.55	11.8665
1091.92	13.0389
1095.3	14.2066
1098.67	14.0434
1102.05	13.993
1105.42	12.3688
1108.8	9.95711
1112.17	12.7371
1115.55	14.6106
1118.92	14.4359
1122.3	14.1665
1125.67	15.5649
1129.05	12.8381
1132.42	13.8312
1135.8	15.2336
1139.17	13.0464
1142.55	12.9458
1145.92	14.4444
1149.3	14.1913
1152.67	14.9787
1156.05	11.4993
1159.42	9.96639
1162.8	6.72771
1166.17	6.66618
1169.55	2.68536
1172.92	2.09817
1176.29	1.05472
1179.67	1.59741
1183.04	0.719574
1186.42	1.4749
1189.79	0.796356
1193.17	0.531448
1196.54	0.104279
1199.92	0.141495
1203.29	0.401535
1206.67	0.450439
1210.04	1.11032
1213.42	0.02124
1216.79	1.44571
1220.17	0.134399
1223.54	1.76288
1226.92	1.88118
1230.29	4.01247
1233.67	1.86447
1237.04	4.13008
1240.42	0.361374
1243.79	3.87097
1247.17	2.61723
1250.54	4.18959
1253.91	2.8446
1257.29	5.99435
1260.66	4.74628
1264.04	4.36725
1267.41	3.07802
1270.79	5.65146
1274.16	4.58023
1277.54	3.6486
1280.91	3.43108
1284.29	1.00655
1287.66	1.7175
1291.04	1.62367
1294.41	1.21632
1297.79	2.08839
1301.16	1.65878
