Measurement: Raman, 780 nm, unoriented, Raman Data Processed
Mineral: Natanite
Rruff sample: R100016
Ideal chemistry: Fe^2+^Sn^4+^(OH)_6_
Locality: Level 10 silicate body, El Potosi mine, Santa Eulalia, Chihuahua, Mexico
Source: William Pinch
Description: Orange octahedron, associated with black ilvaite, colorless fluorite, calcite
Raman shift (cm-1)	intensity
91.6631	0
95.0379	10.1259
98.4127	10.225
101.787	9.84361
105.162	7.79437
108.537	0.861237
111.912	0.757339
115.287	2.42818
118.662	4.57507
122.036	5.76877
125.411	2.93919
128.786	0.229797
132.161	2.11597
135.536	2.97993
138.911	7.35851
142.285	8.36012
145.66	10.04
149.035	15.0081
152.41	19.5998
155.785	20.4801
159.159	19.618
162.534	19.4076
165.909	15.769
169.284	16.1511
172.659	14.7196
176.034	16.5101
179.408	13.4651
182.783	14.8599
186.158	14.7455
189.533	11.4232
192.908	11.2354
196.282	9.24643
199.657	11.7765
203.032	7.74942
206.407	8.03693
209.782	4.76723
213.156	0.143829
216.531	3.23796
219.906	4.89162
223.281	4.22124
226.656	3.16122
230.031	5.69724
233.405	6.3013
236.78	4.80409
240.155	4.31067
243.53	4.24988
246.905	2.18381
250.28	1.11476
253.654	0.180298
257.029	2.15639
260.404	3.85178
263.779	0.209778
267.154	10.1695
270.528	30.4086
273.903	59.2773
277.278	93.4408
280.653	136.986
284.028	180.964
287.402	239.402
290.777	292.319
294.152	288.173
297.527	215.902
300.902	145.358
304.277	96.3282
307.651	65.3635
311.026	44.9923
314.401	32.1
317.776	21.5514
321.151	17.4583
324.526	12.656
327.9	9.99223
331.275	9.3436
334.65	8.27574
338.025	11.4056
341.399	14.3859
344.774	20.7372
348.149	33.6635
351.524	48.3618
354.899	67.7558
358.274	90.1416
361.648	113.168
365.023	134.588
368.398	156.869
371.773	166.211
375.148	157.478
378.522	136.845
381.897	113.391
385.272	84.4995
388.647	61.3442
392.022	42.5373
395.397	30.185
398.771	19.8135
402.146	14.3767
405.521	7.21158
408.896	3.70474
412.271	1.16155
415.646	0.823608
419.02	2.84564
422.395	1.02829
425.77	1.05513
429.145	0.493027
432.52	0.525665
435.894	1.53305
439.269	4.21083
442.644	6.68832
446.019	8.32132
449.394	6.87964
452.769	8.08865
456.143	7.78714
459.518	7.29648
462.893	6.47995
466.268	7.56248
469.643	6.64632
473.017	5.49291
476.392	4.92213
479.767	2.48317
483.142	2.3239
486.517	1.23639
489.892	0.787003
493.266	1.43523
496.641	1.83865
500.016	0.858673
503.391	1.45949
506.766	0.069122
510.14	0.564545
513.515	0.430222
516.89	0.372437
520.265	3.54958
523.64	4.36841
527.014	4.4671
530.389	8.58981
533.764	5.73149
537.139	7.60767
540.514	10.2763
543.889	13.1267
547.263	19.748
550.638	27.0845
554.013	32.4924
557.388	41.3053
560.763	52.7942
564.138	68.7695
567.512	95.3328
570.887	134.536
574.262	197.103
577.637	298.269
581.011	435.577
584.386	593.06
587.761	768.133
591.136	957.13
594.511	1083.88
597.886	988.67
601.26	715.538
604.635	466.377
608.01	303.509
611.385	202.215
614.76	136.53
618.135	94.033
621.509	66.2406
624.884	48.4921
628.259	33.4261
631.634	24.0002
635.009	20.0009
638.383	14.409
641.758	13.4636
645.133	9.26881
648.508	6.19495
651.883	4.48096
655.258	2.07718
658.632	2.8775
662.007	2.04344
665.382	0.139786
668.757	0.901581
672.132	0.875595
675.506	0.084198
678.881	2.01898
682.256	0.191666
685.631	3.01848
689.006	0.198608
692.38	1.6557
695.755	0.678497
699.13	0.352203
702.505	2.31581
705.88	4.12227
709.255	3.33186
712.629	4.11832
716.004	5.69752
719.379	5.59047
722.754	6.02015
726.129	5.27332
729.504	6.78833
732.878	6.56532
736.253	7.21669
739.628	5.84746
743.003	7.11032
746.378	5.82817
749.752	7.97349
753.127	4.05765
756.502	2.92304
759.877	2.82642
763.252	2.69026
766.626	2.80012
770.001	1.52039
773.376	1.7854
776.751	2.22979
780.126	2.88256
783.5	2.16748
786.875	1.57684
790.25	2.99857
793.625	1.39085
797	1.10863
800.375	0.954559
803.75	0.737244
807.124	1.34854
810.499	1.91203
813.874	2.36153
817.249	0.960693
820.624	0.242004
823.998	0.197296
827.373	1.05859
830.748	1.58193
834.123	0.932358
837.498	5.63985
840.872	1.6058
844.247	2.21953
847.622	1.89469
850.997	4.41955
854.372	3.59509
857.746	4.64175
861.121	4.61455
864.496	6.94056
867.871	6.0278
871.246	7.18728
874.621	7.80668
877.995	11.7091
881.37	14.688
884.745	17.5128
888.12	19.7401
891.495	21.5394
894.87	21.7453
898.244	20.9484
901.619	17.0113
904.994	10.5751
908.369	8.13938
911.744	6.0341
915.118	3.82555
918.493	2.80129
921.868	1.34498
925.243	0.397247
928.618	0.013603
931.992	1.59296
935.367	1.50682
938.742	0.785873
942.117	0.197807
945.492	1.78624
948.867	0.554535
952.241	1.50613
955.616	1.90086
958.991	0.40126
962.366	1.50629
965.741	2.40453
969.115	2.33436
972.49	3.0602
975.865	2.14751
979.24	2.87331
982.615	4.67449
985.99	2.51218
989.364	2.75579
992.739	1.30772
996.114	1.53074
999.489	1.92657
1002.86	1.27951
1006.24	0.605675
1009.61	1.04401
1012.99	1.49869
1016.36	1.29999
1019.74	0.112793
1023.11	0.841248
1026.49	0.274605
1029.86	0.075249
1033.24	0.147087
1036.61	2.01164
1039.99	0.450401
1043.36	1.96224
1046.74	1.07853
1050.11	2.95906
1053.49	2.50633
1056.86	0.584267
1060.24	2.50905
1063.61	2.7111
1066.98	3.80552
1070.36	3.71679
1073.73	4.00896
1077.11	4.39506
1080.48	5.41373
1083.86	5.5154
1087.23	5.49139
1090.61	5.96493
1093.98	5.4097
1097.36	6.03265
1100.73	5.58125
1104.11	5.5855
1107.48	2.96199
1110.86	5.36971
1114.23	4.81195
1117.61	3.73917
1120.98	3.605
1124.36	5.07855
1127.73	2.82097
1131.11	3.53659
1134.48	4.92056
1137.86	4.48678
1141.23	4.51404
1144.61	4.42632
1147.98	4.5721
1151.36	4.7599
1154.73	4.98937
1158.11	3.03477
1161.48	2.0834
1164.86	1.23694
1168.23	2.21378
1171.6	0.81884
1174.98	1.76874
1178.35	0.371536
1181.73	1.2148
1185.1	0.177315
1188.48	0.27626
1191.85	0.425926
1195.23	1.97517
1198.6	0.986412
1201.98	0.959114
1205.35	0.415138
1208.73	1.03223
1212.1	0.706383
1215.48	0.612198
1218.85	0.27169
1222.23	1.36494
1225.6	0.873749
1228.98	0.474701
1232.35	2.27094
1235.73	1.4789
1239.1	0.868996
1242.48	1.88457
1245.85	1.95318
1249.22	3.57992
1252.6	1.21425
1255.97	2.13967
1259.35	0.300636
1262.72	1.81374
1266.1	2.27605
1269.47	0.276421
1272.85	1.90039
1276.22	2.7356
1279.6	1.41406
1282.97	0.989571
