Measurement: Raman, 780 nm, unoriented, Raman Data Processed
Mineral: Natrolite
Rruff sample: R060561
Ideal chemistry: Na_2_(Si_3_Al_2_)O_10_2H_2_O
Locality: California, USA
Source: Gemological Institute of America
Description: White fragment
Measured chemistry: Na_2.00_(Si_3.00_Al_2.00_)O_10_Â·2H_2_O
Raman shift (cm-1)	intensity
90.5957	0
93.9705	42.3315
97.3453	17.6197
100.72	6.88568
104.095	99.8239
107.47	241.254
110.845	465.786
114.219	1053.68
117.594	690.84
120.969	1013.99
124.344	1634.42
127.719	280.423
131.094	34.199
134.468	49.5232
137.843	148.865
141.218	327.286
144.593	387.369
147.968	150.778
151.342	4.63669
154.717	14.8373
158.092	108.039
161.467	290.055
164.842	352.462
168.216	146.904
171.591	25.7111
174.966	9.38812
178.341	6.7785
181.716	33.5002
185.09	114.642
188.465	56.8485
191.84	17.0217
195.215	33.2821
198.59	83.9073
201.965	132.632
205.339	243.95
208.714	349.458
212.089	234.936
215.464	166.639
218.839	179.901
222.214	106.883
225.588	41.8241
228.963	22.6862
232.338	26.3225
235.713	47.7974
239.088	121.448
242.462	239.742
245.837	121.434
249.212	18.4898
252.587	5.10547
255.962	7.07021
259.336	0.155792
262.711	11.543
266.086	37.5855
269.461	73.0849
272.836	105.173
276.211	69.3083
279.585	28.892
282.96	19.8207
286.335	29.5648
289.71	48.9025
293.085	44.8111
296.459	43.2039
299.834	67.6432
303.209	129.986
306.584	263.498
309.959	270.758
313.334	75.73
316.708	22.228
320.083	15.6394
323.458	26.3112
326.833	54.0707
330.207	110.87
333.582	162.273
336.957	78.9026
340.332	27.5218
343.707	16.2353
347.082	15.0956
350.456	18.1015
353.831	25.8464
357.206	48.3676
360.581	70.025
363.956	56.97
367.33	25.8776
370.705	7.66119
374.08	1.15635
377.455	1.01097
380.83	2.6771
384.205	2.68127
387.579	3.08535
390.954	0.105072
394.329	2.64957
397.704	5.01701
401.079	9.33538
404.453	16.0798
407.828	26.7745
411.203	41.3086
414.578	56.3397
417.953	56.4786
421.327	59.0469
424.702	82.7218
428.077	135.579
431.452	200.581
434.827	320.261
438.202	572.512
441.576	1064.46
444.951	1163.37
448.326	477.24
451.701	183.16
455.076	82.394
458.45	40.6864
461.825	19.261
465.2	10.3952
468.575	2.53439
471.95	0.317307
475.325	1.91865
478.699	1.70419
482.074	0.570877
485.449	1.54501
488.824	5.03704
492.199	10.0522
495.573	17.0938
498.948	26.6669
502.323	40.396
505.698	60.3569
509.073	87.057
512.447	117.198
515.822	147.285
519.197	174.447
522.572	200.16
525.947	239.571
529.322	352.204
532.696	561.99
536.071	659.458
539.446	399.815
542.821	190.083
546.196	97.0881
549.57	54.2183
552.945	31.3701
556.32	17.7943
559.695	10.0844
563.07	4.33268
566.444	3.19067
569.819	3.49748
573.194	3.87093
576.569	4.1115
579.944	1.08001
583.319	0.098854
586.693	2.44647
590.068	7.02558
593.443	16.2729
596.818	27.3734
600.193	29.1454
603.567	17.8796
606.942	6.95133
610.317	4.84004
613.692	3.5928
617.067	5.06699
620.442	4.10771
623.816	1.32007
627.191	0.0494
630.566	1.53856
633.941	1.33219
637.316	0.847435
640.69	0.209373
644.065	0.126305
647.44	1.867
650.815	3.59937
654.19	5.06674
657.564	6.61496
660.939	6.23789
664.314	6.71084
667.689	8.00884
671.064	10.2713
674.439	12.7345
677.813	16.0424
681.188	17.7054
684.563	22.8023
687.938	29.6022
691.313	37.4024
694.688	48.2858
698.062	62.8284
701.437	81.6377
704.812	91.4841
708.187	75.7494
711.562	56.0237
714.936	43.3719
718.311	37.5224
721.686	37.1707
725.061	39.5929
728.436	41.1589
731.81	32.524
735.185	19.5865
738.56	9.64994
741.935	4.33298
745.31	1.55296
748.684	0.356209
752.059	0.459114
755.434	0.165726
758.809	0.542328
762.184	0.049622
765.559	0.148361
768.933	0.349205
772.308	0.095268
775.683	0.062477
779.058	0.142227
782.433	0.312256
785.808	0.403755
789.182	0.634117
792.557	1.37447
795.932	1.91077
799.307	2.31381
802.682	3.29558
806.056	4.3815
809.431	4.58938
812.806	4.67785
816.181	5.15545
819.556	4.87747
822.93	4.95589
826.305	5.3169
829.68	5.75962
833.055	5.98125
836.43	6.33525
839.804	6.5796
843.179	6.52082
846.554	6.10474
849.929	6.66122
853.304	6.23106
856.679	15.1067
860.053	5.91226
863.428	6.87363
866.803	6.54599
870.178	7.11861
873.553	6.44396
876.927	6.36912
880.302	5.25297
883.677	4.53521
887.052	4.13725
890.427	2.96235
893.802	2.6854
897.176	2.34782
900.551	1.34742
903.926	1.49427
907.301	1.06604
910.676	0.779961
914.05	0.055824
917.425	0.078613
920.8	0.660835
924.175	0.509315
927.55	0.125786
930.924	0.005653
934.299	0.076256
937.674	1.89555
941.049	1.78369
944.424	2.75115
947.799	4.38248
951.173	8.97244
954.548	19.8043
957.923	36.7017
961.298	68.4689
964.673	120.092
968.047	126.034
971.422	65.7446
974.797	32.4747
978.172	17.7086
981.547	13.8564
984.922	6.59557
988.296	4.56141
991.671	5.96578
995.046	12.3181
998.421	23.1514
1001.8	22.0185
1005.17	6.70737
1008.54	3.37048
1011.92	2.65829
1015.29	1.40536
1018.67	0.65921
1022.04	0.412666
1025.42	3.7578
1028.79	7.33626
1032.17	16.1096
1035.54	33.7894
1038.92	70.3642
1042.29	84.359
1045.67	38.0523
1049.04	16.4304
1052.42	7.87308
1055.79	5.08438
1059.17	3.59792
1062.54	3.4558
1065.92	5.27477
1069.29	6.00723
1072.67	9.82122
1076.04	15.1321
1079.42	23.0381
1082.79	30.3125
1086.17	29.7997
1089.54	20.3877
1092.92	13.612
1096.29	8.1722
1099.66	4.49055
1103.04	2.61727
1106.41	1.07077
1109.79	1.17131
1113.16	0.53904
1116.54	0.194397
1119.91	0.25116
1123.29	1.26423
1126.66	0.282536
1130.04	0.495419
1133.41	0.219872
1136.79	0.553425
1140.16	0.491215
1143.54	0.645603
1146.91	0.254436
1150.29	0.793674
1153.66	1.48277
1157.04	2.08024
1160.41	1.2156
1163.79	0.969032
1167.16	1.24083
1170.54	2.27407
1173.91	1.91865
1177.29	1.43921
1180.66	2.03678
1184.04	1.44224
1187.41	1.28878
1190.79	1.37226
1194.16	1.83627
1197.54	1.63762
1200.91	1.14463
1204.28	0.912952
1207.66	1.68499
1211.03	1.58477
1214.41	1.29338
1217.78	1.77626
1221.16	1.11119
1224.53	0.663269
1227.91	0.834515
1231.28	1.25508
1234.66	0.927895
1238.03	2.87016
1241.41	0.391361
1244.78	0.549873
1248.16	0.819065
1251.53	0.280102
1254.91	3.13455
1258.28	1.06133
1261.66	0.559277
1265.03	0.303627
1268.41	0.501144
1271.78	0.637112
1275.16	0.434669
1278.53	0.211586
1281.9	1.05541
