Measurement: Raman, 785 nm, unoriented, Raman Data Processed
Mineral: Natrolite
Rruff sample: R040112
Ideal chemistry: Na_2_(Si_3_Al_2_)O_10_2H_2_O
Locality: Ice River Alkaline Complex, Moose Creek Valley, Yoho National Park, British Columbia, Canada
Source: National Museums of Canada
Description: Colorless pseudohexagonal prism
Measured chemistry: Na_2.00_(Si_3.00_Al_2.00_)O_10_Â·2H_2_O
Raman shift (cm-1)	intensity
150.429	0
153.321	103.93
156.214	970.259
159.107	2713.64
161.999	3994.94
164.892	2856.19
167.785	1321.29
170.677	802.911
173.57	772.204
176.463	230.017
179.356	70.946
182.248	144.921
185.141	723.854
188.034	767.227
190.926	240.62
193.819	64.2169
196.712	220.859
199.604	533.315
202.497	1191.44
205.39	2125.62
208.282	1901.02
211.175	1052.09
214.068	572.32
216.961	389.026
219.853	317.758
222.746	227.256
225.639	39.2172
228.531	83.5844
231.424	67.4606
234.317	29.8678
237.209	177.423
240.102	400.705
242.995	338.791
245.888	84.8296
248.78	6.15338
251.673	2.34332
254.566	30.6921
257.458	98.755
260.351	176.997
263.244	252.16
266.137	357.307
269.029	440.617
271.922	559.021
274.815	591.585
277.707	545.447
280.6	418.192
283.493	414.877
286.385	448.742
289.278	514.548
292.171	488.175
295.063	522.307
297.956	621.695
300.849	860.597
303.742	1368.89
306.634	1751.62
309.527	1006.79
312.42	341.908
315.312	200.245
318.205	160.089
321.098	174.463
323.99	237.167
326.883	393.646
329.776	665.296
332.669	732.616
335.561	497.264
338.454	339.053
341.347	296.42
344.239	295.783
347.132	330.193
350.025	362.11
352.918	476.779
355.81	651.139
358.703	863.204
361.596	825.892
364.488	510.599
367.381	339.333
370.274	230.131
373.166	144.194
376.059	59.535
378.952	4.40741
381.844	1.87585
384.737	27.2984
387.63	35.861
390.523	45.0876
393.415	24.6634
396.308	7.66278
399.201	53.184
402.093	119.594
404.986	223.685
407.879	400.001
410.772	587.182
413.664	611.658
416.557	535.213
419.45	419.681
422.342	426.303
425.235	597.819
428.128	958.899
431.02	1632.37
433.913	2628.28
436.806	4460.25
439.699	7530.04
442.591	8485.16
445.484	4550.75
448.377	1877.79
451.269	823.717
454.162	370.454
457.055	136.551
459.947	53.3278
462.84	7.98779
465.733	18.827
468.625	3.4411
471.518	31.1191
474.411	85.9226
477.304	222.005
480.196	367.599
483.089	431.622
485.982	446.488
488.874	481.378
491.767	527.008
494.66	518.908
497.553	504.91
500.445	538.043
503.338	599.693
506.231	772.999
509.123	1016.25
512.016	1327.84
514.909	1595.88
517.802	1995.44
520.694	2465.59
523.587	3351.81
526.48	4945.26
529.372	7669.77
532.265	10559.8
535.158	9313.97
538.05	5332.91
540.943	2753.83
543.836	1484.5
546.729	880.584
549.621	531.113
552.514	333.698
555.407	202.842
558.299	108.863
561.192	74.2819
564.085	31.2504
566.977	20.2402
569.87	17.8672
572.763	11.9282
575.655	5.3042
578.548	19.1707
581.441	18.4421
584.333	22.3532
587.226	43.89
590.119	85.6193
593.012	82.4979
595.904	138.686
598.797	126.318
601.69	61.813
604.582	29.1437
607.475	23.1371
610.368	2.95129
613.26	10.0143
616.153	6.9516
619.046	12.7061
621.939	17.5476
624.831	28.0294
627.724	35.2256
630.617	22.655
633.509	35.785
636.402	60.1848
639.295	21.2196
642.188	30.9645
645.08	19.0484
647.973	19.0447
650.866	12.6108
653.758	25.2454
656.651	14.9394
659.544	30.0573
662.436	22.8886
665.329	40.4887
668.222	48.1232
671.115	63.5762
674.007	76.2264
676.9	87.0742
679.793	100.697
682.685	148.537
685.578	215.003
688.471	256.281
691.363	330.999
694.256	443.174
697.149	534.302
700.042	649.01
702.934	662.947
705.827	618.857
708.72	519.67
711.612	464.431
714.505	433.045
717.398	450.59
720.29	474.279
723.183	543.575
726.076	542.248
728.968	456.665
731.861	333.954
734.754	197.294
737.647	90.1908
740.539	71.8574
743.432	47.7553
746.325	27.8424
749.217	32.038
752.11	22.9652
755.003	14.2771
757.895	13.3585
760.788	2.52045
763.681	2.04968
766.574	6.72284
769.466	23.9651
772.359	17.1783
775.252	10.1503
778.144	15.7585
781.037	12.7065
783.93	3.94043
786.822	4.62338
789.715	14.8811
792.608	28.0572
795.501	16.3644
798.393	33.0784
801.286	41.6216
804.179	35.908
807.071	30.4886
809.964	40.8166
812.857	25.4189
815.75	54.1187
818.642	38.9892
821.535	50.5864
824.428	62.9366
827.32	55.7724
830.213	52.4057
833.106	48.1348
835.998	47.711
838.891	26.7354
841.784	30.2465
844.677	36.5676
847.569	27.852
850.462	21.7105
853.355	21.5923
856.247	41.7578
859.14	54.9721
862.033	44.9799
864.925	29.2018
867.818	49.4629
870.711	50.4082
873.604	58.0237
876.496	38.4574
879.389	26.4735
882.282	24.4498
885.174	27.1188
888.067	21.6694
890.96	41.2463
893.852	34.6636
896.745	12.3066
899.638	22.2634
902.53	16.8895
905.423	30.4262
908.316	17.1143
911.209	20.7597
914.101	5.2117
916.994	2.85696
919.887	5.40497
922.779	4.73386
925.672	12.8945
928.565	10.7232
931.457	2.39743
934.35	0.277313
937.243	3.83395
940.136	7.35965
943.028	11.3315
945.921	5.45151
948.814	12.1037
951.706	15.2313
954.599	58.3383
957.492	90.3123
960.385	170.916
963.277	245.986
966.17	223.424
969.063	149.622
971.955	96.9866
974.848	131.43
977.741	113.279
980.633	71.3895
983.526	36.8586
986.419	18.5308
989.312	7.34512
992.204	15.0081
995.097	12.2363
997.99	43.4101
1000.88	60.3105
1003.77	118.373
1006.67	170.211
1009.56	141.728
1012.45	109.721
1015.35	69.4259
1018.24	73.8253
1021.13	66.2605
1024.02	105.139
1026.92	203.983
1029.81	431.135
1032.7	768.395
1035.6	1420.82
1038.49	1984.73
1041.38	1511.77
1044.27	702.472
1047.17	335.282
1050.06	177.849
1052.95	90.0925
1055.84	77.9027
1058.74	71.7812
1061.63	57.4391
1064.52	67.2503
1067.41	71.4335
1070.31	126.661
1073.2	197.943
1076.09	239.854
1078.98	331.79
1081.88	361.365
1084.77	386.975
1087.66	411.701
1090.56	422.084
1093.45	330.638
1096.34	196.837
1099.23	112.029
1102.13	55.6531
1105.02	22.0376
1107.91	2.17746
1110.81	6.07043
1113.7	6.58695
1116.59	8.84256
1119.48	1.7529
1122.38	2.28903
1125.27	0.140869
1128.16	3.9715
1131.05	6.69553
1133.95	10.7513
1136.84	10.1707
1139.73	1.29495
1142.62	3.02118
1145.52	12.2751
1148.41	22.0712
1151.3	13.7685
1154.19	3.38083
1157.09	2.13501
1159.98	23.8459
1162.87	16.8767
1165.77	14.905
1168.66	14.7218
1171.55	14.3323
1174.44	33.055
1177.34	20.5939
1180.23	19.5826
1183.12	19.2106
1186.02	8.90997
1188.91	35.266
1191.8	15.4884
1194.69	5.15909
1197.59	24.2283
1200.48	21.8926
1203.37	20.8683
1206.26	10.6454
1209.16	29.8504
1212.05	37.9766
1214.94	8.10611
1217.84	13.972
1220.73	20.4515
1223.62	30.5849
1226.51	27.3785
1229.41	2.3859
1232.3	6.68109
1235.19	7.65985
1238.08	1.95718
1240.98	8.10547
