Measurement: Raman, 780 nm, unoriented, Raman Data Processed
Mineral: Natrojarosite
Rruff sample: R050289
Ideal chemistry: NaFe^3+^_3_(SO_4_)_2_(OH)_6_
Locality: Bristol mine, Pioche, Lincoln County, Nevada, USA
Source: Marcus Origlieri
Description: Mustard-colored massive
Measured chemistry: (Na_0.99_K_0.01_)_Î£=1_Fe^3+^_3.00_(S_1.00_O_4_)_2_(OH)_6_
Raman shift (cm-1)	intensity
99.2731	0
102.648	0.261391
106.023	1.11411
109.397	0.223007
112.772	2.43517
116.147	6.30283
119.522	11.1104
122.897	14.2963
126.272	20.9269
129.646	26.538
133.021	37.5912
136.396	57.2223
139.771	51.295
143.146	15.186
146.52	5.90583
149.895	3.25991
153.27	1.04006
156.645	0.332199
160.02	0.036503
163.395	0.077065
166.769	0.396557
170.144	0.294926
173.519	0.049267
176.894	0.653191
180.269	2.61993
183.643	3.07147
187.018	4.31851
190.393	6.08494
193.768	8.45916
197.143	13.1584
200.518	22.0265
203.892	35.2302
207.267	51.9039
210.642	66.0642
214.017	85.1862
217.392	108.678
220.766	133.563
224.141	134.702
227.516	94.9921
230.891	48.9518
234.266	25.6997
237.641	15.1144
241.015	8.95243
244.39	7.13094
247.765	4.44611
251.14	2.40781
254.515	1.85634
257.889	1.84494
261.264	2.86691
264.639	3.16394
268.014	6.03058
271.389	10.6083
274.764	15.5676
278.138	21.7707
281.513	28.612
284.888	34.146
288.263	40.8806
291.638	47.2306
295.012	41.2902
298.387	33.926
301.762	23.3217
305.137	13.9453
308.512	7.98884
311.887	4.1989
315.261	2.35796
318.636	0.350498
322.011	0.102753
325.386	0.825661
328.761	1.24789
332.135	0.644169
335.51	0.176849
338.885	0.116333
342.26	2.23455
345.635	3.55586
349.01	5.53683
352.384	7.65997
355.759	10.6226
359.134	12.7688
362.509	13.8352
365.884	10.8215
369.258	7.61823
372.633	3.2574
376.008	1.18884
379.383	1.34414
382.758	0.808945
386.132	1.2718
389.507	1.77744
392.882	1.99997
396.257	3.86826
399.632	4.93713
403.007	5.87181
406.381	8.74133
409.756	9.48879
413.131	7.99614
416.506	10.5081
419.881	13.8683
423.255	21.5828
426.63	32.7856
430.005	45.3883
433.38	59.1056
436.755	73.8887
440.13	88.4662
443.504	88.6644
446.879	73.229
450.254	58.3754
453.629	43.5089
457.004	25.2412
460.378	14.5144
463.753	6.81246
467.128	4.11003
470.503	3.3881
473.878	2.53616
477.252	0.720932
480.627	0.813684
484.002	0.125437
487.377	0.124495
490.752	0.469915
494.127	0.1684
497.501	0.165115
500.876	0.615398
504.251	0.377369
507.626	0.068069
511.001	0.416224
514.375	0.056517
517.75	0.008598
521.125	0.841402
524.5	0.804287
527.875	1.09054
531.25	2.62778
534.624	3.09246
537.999	4.25471
541.374	6.20537
544.749	8.24527
548.124	11.3508
551.498	13.2358
554.873	16.3159
558.248	18.2672
561.623	18.4447
564.998	17.565
568.372	15.1388
571.747	11.2215
575.122	8.85306
578.497	5.29238
581.872	4.18356
585.247	2.24677
588.621	2.4898
591.996	1.68796
595.371	1.88952
598.746	2.88899
602.121	3.91917
605.495	7.93127
608.87	14.2197
612.245	17.3938
615.62	24.3533
618.995	37.1315
622.37	50.2476
625.744	25.6822
629.119	8.40731
632.494	4.55609
635.869	4.23128
639.244	4.28184
642.619	4.47513
645.993	5.52308
649.368	4.61296
652.743	2.971
656.118	1.72571
659.493	0.816484
662.867	0.563992
666.242	0.083431
669.617	0.067219
672.992	0.077932
676.367	0.453827
679.741	0.193693
683.116	0.136368
686.491	0.483242
689.866	0.218843
693.241	0.311014
696.615	0.107965
699.99	0.057127
703.365	0.614655
706.74	0.229185
710.115	1.08588
713.49	0.833088
716.864	0.269588
720.239	1.15313
723.614	0.091042
726.989	0.748117
730.364	0.916838
733.739	0.001272
737.113	0.789442
740.488	0.072231
743.863	0.482546
747.238	0.119854
750.612	0.496614
753.987	0.77796
757.362	0.977158
760.737	0.02862
764.112	0.925217
767.487	0.451931
770.861	0.193422
774.236	0.645742
777.611	0.516233
780.986	0.856108
784.361	0.597147
787.736	0.291084
791.11	0.590624
794.485	0.816637
797.86	0.644171
801.235	0.624607
804.61	0.942789
807.984	0.778687
811.359	0.040558
814.734	0.060221
818.109	0.053362
821.484	0.512657
824.859	0.295622
828.233	0.762526
831.608	0.822964
834.983	0.992334
838.358	0.382498
841.733	0.82093
845.107	0.390739
848.482	0.734774
851.857	1.08992
855.232	0.68071
858.607	0.730762
861.981	0.415319
865.356	0.88763
868.731	0.648684
872.106	0.212471
875.481	0.299494
878.856	0.821594
882.23	0.501675
885.605	0.537516
888.98	0.648113
892.355	0.298998
895.73	0.495209
899.105	0.315315
902.479	0.27063
905.854	0.517145
909.229	0.115761
912.604	1.0099
915.979	0.664787
919.353	0.592548
922.728	0.546358
926.103	0.772617
929.478	0.949068
932.853	0.070244
936.227	0.611023
939.602	0.430803
942.977	0.446135
946.352	0.233351
949.727	0.525354
953.102	0.250074
956.476	0.031593
959.851	0.520905
963.226	0.340117
966.601	0.111984
969.976	0.593044
973.35	0.314051
976.725	0.394712
980.1	0.340298
983.475	0.434761
986.85	0.876333
990.225	2.71078
993.599	5.05503
996.974	10.9516
1000.35	20.7945
1003.72	32.8357
1007.1	53.3492
1010.47	69.6571
1013.85	33.1598
1017.22	13.9734
1020.6	12.2125
1023.97	9.6773
1027.35	7.11803
1030.72	4.56743
1034.1	2.68246
1037.47	1.58054
1040.85	0.817179
1044.22	0.5285
1047.6	0.208735
1050.97	0.018127
1054.35	0.208479
1057.72	0.212118
1061.1	0.30722
1064.47	0.290691
1067.85	0.069975
1071.22	0.856255
1074.6	1.13649
1077.97	1.79333
1081.34	2.56132
1084.72	5.07582
1088.09	7.42241
1091.47	12.8463
1094.84	20.6997
1098.22	32.4667
1101.59	43.4583
1104.97	56.4088
1108.34	61.3631
1111.72	45.1639
1115.09	23.9238
1118.47	12.9033
1121.84	8.20546
1125.22	5.65724
1128.59	5.59727
1131.97	5.3669
1135.34	6.89991
1138.72	8.04451
1142.09	10.2741
1145.47	12.9469
1148.84	15.9058
1152.22	16.2626
1155.59	14.3941
1158.96	11.2689
1162.34	8.34733
1165.71	5.28316
1169.09	3.88478
1172.46	2.81793
1175.84	2.03909
1179.21	1.83241
1182.59	0.94029
1185.96	0.40184
1189.34	0.152172
1192.71	0.438894
1196.09	0.073591
1199.46	0.120825
1202.84	0.010836
1206.21	0.149342
1209.59	0.18261
1212.96	0.496851
1216.34	0.34297
1219.71	0.079201
1223.09	0.015181
1226.46	0.267111
1229.84	0.434961
1233.21	0.323416
1236.59	1.00954
1239.96	1.13336
1243.34	1.13521
1246.71	1.15832
1250.09	0.369215
1253.46	0.698931
1256.84	0.245914
1260.21	0.379425
1263.59	0.065195
1266.96	0.659174
1270.33	0.835316
1273.71	0.204641
1277.08	0.307062
1280.46	0.01775
1283.83	0.54834
