Measurement: Raman, 532 nm, unoriented, Raman Data Processed
Mineral: Natrodufrenite
Rruff sample: R070599
Ideal chemistry: NaFe^2+^Fe^3+^_5_(PO_4_)_4_(OH)_6_2H_2_O
Locality: Hout Bay, Cape of Good Hope Province, South Africa
Source: James Shigley
Description: Sheaflike, dark brown to red-brown aggregates
Measured chemistry: (Na_0.62_[box]_0.19_Mn_0.10_Ca_0.09_)_Σ=1_Fe^2+^_1.00_(Fe^3+^_4.95_Al_0.05_)_Σ=5_(P_1.00_O_4_)_4_((OH)_4.76_F_0.24_)_Σ=6_·2H_2_O ; H not measured but estimated by difference and charge balance
Raman shift (cm-1)	intensity
172.511	0
175.404	26.8662
178.297	96.4731
181.189	21.2168
184.082	57.4492
186.975	63.3804
189.867	7.00732
192.76	22.3032
195.653	16.2002
198.546	63.7422
201.438	121.103
204.331	322.119
207.224	502.072
210.116	722.793
213.009	922.532
215.902	1058.86
218.794	1232.48
221.687	1340.84
224.58	1310.65
227.472	1217.97
230.365	966.906
233.258	857.004
236.15	550.935
239.043	530.877
241.936	509.2
244.829	521.534
247.721	518.7
250.614	601.475
253.507	762.73
256.399	845.537
259.292	1072.42
262.185	1289.27
265.077	1578.91
267.97	1963.48
270.863	2178.5
273.756	2649.42
276.648	3042.77
279.541	3371.01
282.434	3562.7
285.326	3808.1
288.219	3828.81
291.112	3704.63
294.005	3459.9
296.897	3130.94
299.79	2819.14
302.683	2355.59
305.575	1913.27
308.468	1438.52
311.361	1027.07
314.253	647.377
317.146	337.263
320.039	180.125
322.932	61.9946
325.824	42.0918
328.717	47.0337
331.61	121.587
334.502	14.0029
337.395	142.52
340.288	287.543
343.18	531.347
346.073	720.128
348.966	925.535
351.858	1159.76
354.751	1351.07
357.644	1415.58
360.537	1524.58
363.429	1554.09
366.322	1534.08
369.215	1537.78
372.107	1417.63
375	1246.7
377.893	1031.99
380.785	822.704
383.678	677.294
386.571	470.428
389.464	282.53
392.356	137.039
395.249	75.6343
398.142	153.751
401.034	75.0054
403.927	60.4243
406.82	269.404
409.712	543.255
412.605	886.959
415.498	1083.25
418.39	1233.19
421.283	1262.77
424.176	1252.69
427.069	1069.1
429.961	913.209
432.854	736.207
435.747	531.488
438.639	516.62
441.532	548.7
444.425	569.185
447.317	798.216
450.21	1149.75
453.103	1512.91
455.996	2041.34
458.888	2535.87
461.781	3299.01
464.674	4021.69
467.566	4645.9
470.459	5152.53
473.352	5450.45
476.245	5369.71
479.137	5100.01
482.03	4571.46
484.923	3975.48
487.815	3359.02
490.708	2928.44
493.601	2537.17
496.493	2283.23
499.386	2049.06
502.279	1936.2
505.171	1686.92
508.064	1390.51
510.957	1255.46
513.85	1013.53
516.742	777.881
519.635	511.495
522.528	274.054
525.42	185.914
528.313	47.9961
531.206	99.5991
534.098	135.224
536.991	122.794
539.884	124.101
542.777	413.002
545.669	876.811
548.562	1419.85
551.455	2022.66
554.347	2557.2
557.24	2786.67
560.133	2452.26
563.025	1876.6
565.918	1421.91
568.811	1285.72
571.703	1250.57
574.596	1295.15
577.489	1407.94
580.382	1366.62
583.274	1144.48
586.167	964.817
589.06	884.47
591.952	559.135
594.845	353.779
597.738	178.267
600.63	27.3652
603.523	13.8645
606.416	23.0261
609.309	51.6065
612.201	24.1743
615.094	150.544
617.987	203.663
620.879	227.952
623.772	347.198
626.665	443.406
629.558	546.239
632.45	703.125
635.343	941.466
638.236	1121.77
641.128	1324.8
644.021	1603.29
646.914	1744.74
649.806	1845.08
652.699	2031.97
655.592	2217.71
658.485	2218.6
661.377	2283.98
664.27	2138.1
667.163	1970.18
670.055	1667.62
672.948	1404.31
675.841	1199.1
678.733	857.46
681.626	668.948
684.519	497.259
687.411	311.399
690.304	239.395
693.197	109.418
696.09	132.069
698.982	44.7517
701.875	9.80957
704.768	20.4099
707.66	12.6929
710.553	39.7415
713.446	20.2053
716.338	11.9385
719.231	33.6216
722.124	4.10498
725.016	29.7793
727.909	12.2271
730.802	28.4841
733.695	24.5032
736.587	102.127
739.48	104.024
742.373	85.721
745.265	69.2129
748.158	157.3
751.051	124.044
753.943	221.091
756.836	216.467
759.729	202.158
762.622	199.127
765.514	172.826
768.407	170.053
771.3	221.946
774.192	207.29
777.085	261.959
779.978	239.925
782.87	215.376
785.763	201.641
788.656	259.855
791.549	219.382
794.441	169.74
797.334	263.524
800.227	232.151
803.119	288.018
806.012	250.844
808.905	264.257
811.798	274.878
814.69	299.82
817.583	236.81
820.476	335.702
823.368	280.245
826.261	299.981
829.154	243.51
832.046	214.903
834.939	202.253
837.832	205.249
840.724	211.838
843.617	188.428
846.51	155.921
849.403	130.341
852.295	125.627
855.188	126.207
858.081	109.307
860.973	80.78
863.866	2.92481
866.759	6.88818
869.651	9.86255
872.544	2.07275
875.437	12.4712
878.33	10.8413
881.222	28.3447
884.115	26.7019
887.008	15.4885
889.9	98.2163
892.793	162.407
895.686	299.414
898.578	360.583
901.471	370.134
904.364	444.864
907.256	459.233
910.149	505.026
913.042	434.787
915.935	422.455
918.827	274.863
921.72	230.361
924.613	213.938
927.505	171.659
930.398	139.532
933.291	46.427
936.183	54.2432
939.076	57.2605
941.969	34.5759
944.862	45.8787
947.754	94.6946
950.647	52.1941
953.54	98.7947
956.432	22.2554
959.325	33.5835
962.218	53.9019
965.111	33.821
968.003	4.54736
970.896	121.683
973.789	246.449
976.681	444.272
979.574	770.833
982.467	1074.43
985.359	1478.84
988.252	1819.95
991.145	2097.03
994.038	2190.04
996.93	2196.19
999.823	1970.11
1002.72	1774.77
1005.61	1535.14
1008.5	1284.77
1011.39	1167.78
1014.29	994.32
1017.18	812.944
1020.07	638.826
1022.96	563.014
1025.86	485.03
1028.75	457.031
1031.64	391.071
1034.54	421.586
1037.43	456.353
1040.32	489.084
1043.21	556.199
1046.11	659.429
1049	757.91
1051.89	808.25
1054.78	792.777
1057.68	754.011
1060.57	675.335
1063.46	639.915
1066.36	542.529
1069.25	458.308
1072.14	349.109
1075.03	330.448
1077.93	344.342
1080.82	317.64
1083.71	343.128
1086.6	301.543
1089.5	311.44
1092.39	220.857
1095.28	197.255
1098.17	121.789
1101.07	129.238
1103.96	96.8982
1106.85	54.05
1109.74	16.7239
1112.64	5.22314
1115.53	63.7017
1118.42	40.7649
1121.32	42.01
1124.21	40.7319
1127.1	16.5461
1129.99	16.0488
1132.89	17.3914
1135.78	84.363
1138.67	61.2898
1141.57	120.233
1144.46	86.5584
1147.35	106.655
1150.24	154.416
1153.14	176.249
1156.03	190.321
1158.92	214.589
1161.81	214.715
1164.71	210.016
1167.6	248.671
1170.49	316.172
1173.38	321.695
1176.28	394.328
1179.17	505.802
1182.06	523.136
1184.96	615.931
1187.85	571.532
1190.74	465.554
1193.63	290.923
1196.53	212.657
1199.42	116.035
1202.31	79.3701
1205.2	73.9724
1208.1	16.3498
1210.99	11.0081
1213.88	13.6126
1216.78	15.7053
1219.67	0.815796
1222.56	38.6958
1225.45	35.3261
1228.35	71.0757
1231.24	58.9586
1234.13	25.6581
1237.02	48.1046
1239.92	97.5554
1242.81	60.8043
1245.7	110.745
1248.6	136.785
1251.49	109.499
1254.38	76.7363
1257.27	108.468
1260.17	65.0059
1263.06	79.3158
1265.95	70.6378
1268.84	68.1763
1271.74	64.6975
1274.63	0.768066
1277.52	60.0618
1280.41	59.9576
1283.31	36.4691
1286.2	30.7734
1289.09	41.8385
1291.98	35.0732
1294.88	10.303
1297.77	9.49829
