Measurement: Raman, 532 nm, unoriented, Raman Data Processed
Mineral: Natrolemoynite
Rruff sample: R060958
Ideal chemistry: Na_4_Zr_2_Si_10_O_26_9H_2_O
Locality: Mont St. Hilaire, Quebec, Canada
Source: Michael Scott
Description: Radial aggregates of colorless bladed crystals
Measured chemistry: (Na_3.25_K_0.38_Ca_0.23_[box]_0.14_)_Σ=4_(Zr_1.91_Fe^3+^_0.05_Nb^5+^_0.02_Ti_0.02_)_Σ=2_Si_10_O_26_·9H_2_O
Raman shift (cm-1)	intensity
124.416	0
127.79	178.688
131.165	230.371
134.54	86.5391
137.915	92.4277
141.29	170.84
144.665	155.007
148.039	230.045
151.414	130.494
154.789	172.666
158.164	381.052
161.539	722.202
164.913	1136.19
168.288	1428.55
171.663	1537.09
175.038	1664.34
178.413	1799.52
181.788	1869.98
185.162	1775.15
188.537	1694.37
191.912	1825.03
195.287	2011.89
198.662	2315.68
202.036	2468.66
205.411	2360.09
208.786	2151.37
212.161	1759.1
215.536	1358.95
218.911	1082.68
222.285	848.334
225.66	607.528
229.035	468.836
232.41	364.873
235.785	192.506
239.159	22.7153
242.534	22.9311
245.909	0.374512
249.284	27.7607
252.659	107.338
256.033	58.1636
259.408	5.55273
262.783	120.498
266.158	230.098
269.533	251.622
272.908	353.294
276.282	602.631
279.657	844.849
283.032	1152.79
286.407	1455.93
289.782	1438.47
293.156	1105.38
296.531	794.557
299.906	630.806
303.281	679.652
306.656	898.168
310.031	1170.56
313.405	1568.55
316.78	1853.32
320.155	1943.37
323.53	1773.86
326.904	1430.35
330.279	1087.25
333.654	820.599
337.029	627.04
340.404	644.51
343.779	585.258
347.153	617.509
350.528	546.585
353.903	652.239
357.278	665.708
360.653	586.232
364.027	309.728
367.402	130.953
370.777	48.2065
374.152	132.517
377.527	50.5161
380.902	35.2895
384.276	73.3677
387.651	81.8648
391.026	130.727
394.401	72.9346
397.776	179.199
401.151	328.67
404.525	525.797
407.9	839.493
411.275	1202.94
414.65	1657.21
418.024	2070.65
421.399	2305.53
424.774	2441.4
428.149	2387.3
431.524	2164.33
434.899	1671.35
438.273	1289.7
441.648	877.783
445.023	601.386
448.398	411.553
451.773	290.683
455.147	184.5
458.522	65.6499
461.897	93.1143
465.272	33.2402
468.647	166.807
472.022	212.027
475.396	218.802
478.771	271.122
482.146	314.163
485.521	501.175
488.896	582.074
492.27	657.772
495.645	864.393
499.02	1130.99
502.395	1466.01
505.77	1902.49
509.144	2346.95
512.519	2478.52
515.894	2616.86
519.269	2576.36
522.644	2600.18
526.019	2709.04
529.393	2813.95
532.768	2913.86
536.143	2869.99
539.518	2779.58
542.893	2438.82
546.268	1991.56
549.642	1566.76
553.017	991.178
556.392	689.085
559.767	355.793
563.141	216.891
566.516	48.9609
569.891	46.5332
573.266	73.9668
576.641	93.2065
580.016	21.0205
583.39	58.2861
586.765	236.101
590.14	496.984
593.515	756.938
596.89	1211.37
600.264	1651.78
603.639	2138.32
607.014	2589.72
610.389	2783.87
613.764	2657.34
617.139	2017.39
620.513	1367.42
623.888	839.544
627.263	537.569
630.638	299.175
634.013	154.018
637.387	54.8398
640.762	18.2759
644.137	13.0825
647.512	10.6953
650.887	32.4883
654.261	12.4463
657.636	69.4023
661.011	20.6304
664.386	85.8066
667.761	197.055
671.135	155.535
674.51	174.228
677.885	150.873
681.26	177.7
684.635	91.4248
688.01	92.2773
691.384	86.9829
694.759	112.353
698.134	72.333
701.509	50.498
704.884	30.9722
708.259	46.6611
711.633	66.3494
715.008	46.6074
718.383	78.812
721.758	67.9946
725.133	54.332
728.507	94.7729
731.882	74.833
735.257	166.667
738.632	219.461
742.007	247.822
745.381	346.728
748.756	444.216
752.131	296.264
755.506	429.613
758.881	377.047
762.255	365.147
765.63	322.392
769.005	300.351
772.38	278.947
775.755	245.793
779.13	168.832
782.504	108.055
785.879	78.6021
789.254	90.4067
792.629	65.8818
796.004	53.9487
799.378	68.8633
802.753	117.941
806.128	83.3516
809.503	153.917
812.878	108.712
816.253	58.5112
819.627	77.4375
823.002	119.983
826.377	133.027
829.752	75.043
833.127	109.197
836.501	92.2065
839.876	70.2314
843.251	16.6304
846.626	27.3589
850.001	56.2627
853.375	5.56885
856.75	4.76269
860.125	37.5693
863.5	1.04199
866.875	36.5151
870.25	63.2993
873.624	14.123
876.999	34.7578
880.374	131.102
883.749	238.393
887.124	329.143
890.498	383.022
893.873	470.613
897.248	518.12
900.623	484.564
903.998	484.987
907.372	539.316
910.747	438.95
914.122	459.693
917.497	485.13
920.872	491.603
924.246	653.599
927.621	839.335
930.996	1031.97
934.371	1401.91
937.746	1663.28
941.121	2197.62
944.495	2862.45
947.87	3656.86
951.245	4700.88
954.62	5702.72
957.995	6689.64
961.37	7573.07
964.744	8765.41
968.119	9845.8
971.494	10489.3
974.869	10351
978.244	9500.97
981.618	7924.67
984.993	6316.13
988.368	4906.62
991.743	3752.3
995.118	2857.71
998.492	2160.45
1001.87	1546.12
1005.24	1083
1008.62	752.002
1011.99	446.078
1015.37	229.448
1018.74	108.154
1022.12	64.8174
1025.49	38.9224
1028.87	76.7549
1032.24	63.2324
1035.62	41.7476
1038.99	113.202
1042.37	193.197
1045.74	309.26
1049.12	432.699
1052.49	634.73
1055.86	795.006
1059.24	977.092
1062.61	960.207
1065.99	857.467
1069.36	739.03
1072.74	605.722
1076.11	472.477
1079.49	413.936
1082.86	353.612
1086.24	330.861
1089.61	387.079
1092.99	358.806
1096.36	412.286
1099.74	471.212
1103.11	585.609
1106.49	585.988
1109.86	635.584
1113.24	667.696
1116.61	596.578
1119.99	541.906
1123.36	336.239
1126.73	259.03
1130.11	170.826
1133.48	135.664
1136.86	58.0718
1140.23	48.3203
1143.61	23.0835
1146.98	44.8765
1150.36	8.5835
1153.73	83.4522
1157.11	187.427
1160.48	210.648
1163.86	259.704
1167.23	226.473
1170.61	262.123
1173.98	259.056
1177.36	171.969
1180.73	141.502
1184.11	130.552
1187.48	94.457
1190.86	58.6509
1194.23	17.0698
1197.61	25.3452
1200.98	5.03223
1204.36	17.2744
1207.73	21.2617
1211.11	87.728
1214.48	54.853
1217.86	3.55127
1221.23	56.4522
1224.61	12.3472
1227.98	15.1304
1231.36	19.9277
1234.73	71.8057
1238.1	82.3354
1241.48	86.5396
1244.85	76.5977
1248.23	125.41
1251.6	99.3599
1254.98	61.1938
1258.35	112.593
1261.73	44.3662
1265.1	67.0786
1268.48	66.6382
1271.85	98.4404
1275.23	62.2612
1278.6	37.3935
1281.98	36.4087
1285.35	51.8071
1288.73	29.3862
1292.1	53.8491
