Measurement: Raman, 780 nm, unoriented, Raman Data Processed
Mineral: Natrolite
Rruff sample: R040022
Ideal chemistry: Na_2_(Si_3_Al_2_)O_10_2H_2_O
Locality: Patterson, Passaic County, New Jersey, USA
Source: University of Arizona Mineral Museum
Description: White fine fibrous mass
Measured chemistry: (Na_1.87_Ca_0.08_[box]_0.05_)_Σ=2_(Si_2.97_Al_2.03_)O_10_·1.95H_2_O; H_2_O estimated by difference
Raman shift (cm-1)	intensity
130.187	0
133.079	0.88028
135.972	8.39728
138.865	15.7163
141.757	25.1028
144.65	29.9348
147.543	14.0501
150.436	4.01753
153.328	9.54501
156.221	20.7479
159.114	34.9529
162.006	47.9322
164.899	34.86
167.792	15.3804
170.685	6.92432
173.577	3.10389
176.47	1.40235
179.363	1.84734
182.255	3.10929
185.148	5.52474
188.041	0.185345
190.933	1.07439
193.826	2.3626
196.719	1.88977
199.612	3.04376
202.504	8.22046
205.397	12.0053
208.29	10.9617
211.182	10.9224
214.075	7.86253
216.968	8.66073
219.86	8.19763
222.753	6.01649
225.646	2.84632
228.538	1.97133
231.431	2.10156
234.324	3.85132
237.217	4.75943
240.109	6.42957
243.002	5.44463
245.895	1.9589
248.787	0.364563
251.68	0.274769
254.573	1.2404
257.466	0.552898
260.358	2.65413
263.251	4.22839
266.144	6.23832
269.036	6.987
271.929	8.94971
274.822	10.3784
277.714	9.2801
280.607	7.21158
283.5	4.99334
286.392	8.2052
289.285	9.3501
292.178	9.11955
295.071	9.30888
297.963	8.41244
300.856	12.2309
303.749	13.5607
306.641	15.1791
309.534	8.54557
312.427	4.83916
315.32	3.7795
318.212	4.29415
321.105	5.45157
323.998	8.39669
326.89	11.2048
329.783	12.738
332.676	13.0907
335.568	8.06334
338.461	7.14734
341.354	6.89699
344.247	8.23425
347.139	7.8983
350.032	8.19402
352.925	10.313
355.817	10.4219
358.71	12.298
361.603	10.9481
364.495	6.30056
367.388	3.15934
370.281	1.8717
373.173	1.00606
376.066	0.330269
378.959	0.306271
381.852	1.23089
384.744	0.008053
387.637	0.571159
390.53	1.71133
393.422	0.936264
396.315	1.80834
399.208	3.0965
402.1	4.00907
404.993	7.52373
407.886	9.63208
410.779	13.0968
413.671	13.8679
416.564	14.6529
419.457	13.1332
422.349	15.841
425.242	21.1617
428.135	24.1049
431.027	28.4974
433.92	36.0535
436.813	46.4925
439.705	56.2578
442.598	57.4465
445.491	35.3374
448.384	19.1458
451.276	10.2885
454.169	4.61527
457.062	2.68014
459.954	0.955864
462.847	0.444939
465.74	0.264622
468.632	0.072334
471.525	0.976994
474.418	0.45813
477.311	1.82879
480.203	3.60305
483.096	4.9818
485.989	5.2629
488.881	5.48583
491.774	5.34213
494.667	7.78408
497.56	10.6387
500.452	11.3355
503.345	14.5397
506.238	19.1055
509.13	24.4387
512.023	31.734
514.916	43.5712
517.808	57.6916
520.701	68.032
523.594	81.7045
526.486	101.779
529.379	130.932
532.272	148.944
535.165	123.673
538.057	71.6425
540.95	37.6283
543.843	21.0638
546.735	12.6321
549.628	8.91957
552.521	6.24158
555.413	4.94238
558.306	3.3091
561.199	3.50395
564.092	0.127655
566.984	1.71882
569.877	0.517389
572.77	1.33332
575.662	0.186033
578.555	0.164358
581.448	0.566236
584.341	1.25306
587.233	0.04196
590.126	0.161669
593.019	0.777983
595.911	1.35184
598.804	0.929287
601.697	0.360811
604.589	0.151243
607.482	0.448694
610.375	1.56413
613.268	0.171541
616.16	0.607077
619.053	0.926107
621.946	0.253105
624.838	1.13385
627.731	0.69281
630.624	0.897951
633.516	0.123299
636.409	2.20693
639.302	0.437458
642.194	0.932495
645.087	0.992596
647.98	0.401499
650.873	1.2157
653.765	0.203733
656.658	1.02473
659.551	0.769766
662.443	1.35352
665.336	0.49045
668.229	1.97172
671.121	1.35311
674.014	2.3975
676.907	2.80128
679.8	3.18887
682.692	3.23551
685.585	3.01755
688.478	4.76481
691.37	5.59388
694.263	5.77719
697.156	6.61921
700.048	6.31192
702.941	6.32872
705.834	6.82648
708.727	6.77351
711.619	6.02205
714.512	5.6919
717.405	5.08718
720.297	4.44854
723.19	3.58861
726.083	4.95208
728.976	4.13532
731.868	2.59303
734.761	2.09504
737.654	1.01336
740.546	0.080212
743.439	0.733185
746.332	0.532074
749.224	0.611197
752.117	0.252228
755.01	0.69338
757.903	0.94216
760.795	0.23826
763.688	0.368607
766.581	1.66403
769.473	0.821253
772.366	0.966608
775.259	0.417622
778.151	0.076225
781.044	0.825594
783.937	0.791872
786.83	0.185076
789.722	1.10267
792.615	1.04751
795.508	1.1537
798.4	2.22929
801.293	3.41502
804.186	1.67833
807.078	1.78054
809.971	1.96485
812.864	1.17528
815.756	2.46095
818.649	2.04709
821.542	2.73998
824.435	3.11176
827.327	2.10103
830.22	2.45113
833.113	1.05273
836.005	1.93842
838.898	2.33062
841.791	2.6428
844.683	2.85593
847.576	3.32833
850.469	2.86531
853.362	3.07601
856.254	3.83075
859.147	3.4186
862.04	2.21229
864.932	3.26827
867.825	3.33056
870.718	2.34413
873.611	1.7398
876.503	2.74367
879.396	1.44762
882.289	0.958862
885.181	1.23076
888.074	2.19668
890.967	1.73145
893.859	1.0739
896.752	0.945332
899.645	1.2987
902.538	0.413515
905.43	1.05482
908.323	1.02382
911.216	1.18325
914.108	0.466965
917.001	0.163036
919.894	0.961727
922.786	0.204775
925.679	0.404058
928.572	0.817747
931.465	0.927908
934.357	0.517006
937.25	0.958532
940.143	0.296743
943.035	1.12996
945.928	0.330225
948.821	0.93614
951.713	1.0629
954.606	0.828016
957.499	0.154135
960.391	1.25977
963.284	2.53572
966.177	2.47618
969.069	2.17943
971.962	2.09109
974.855	2.04178
977.748	2.34954
980.64	0.539804
983.533	0.713091
986.426	0.121758
989.318	1.80208
992.211	2.05817
995.104	1.85325
997.996	1.07048
1000.89	1.81122
1003.78	2.29421
1006.67	3.10957
1009.57	2.92908
1012.46	2.16604
1015.35	2.62119
1018.25	1.82809
1021.14	2.41351
1024.03	3.04672
1026.92	4.82486
1029.82	7.1521
1032.71	9.61239
1035.6	12.4035
1038.49	14.1053
1041.39	12.2916
1044.28	8.56584
1047.17	5.1275
1050.07	3.04456
1052.96	1.93622
1055.85	1.30516
1058.74	0.465527
1061.64	0.599752
1064.53	0.85704
1067.42	0.45042
1070.31	1.52647
1073.21	0.746046
1076.1	1.83914
1078.99	2.21902
1081.88	2.01521
1084.78	1.49548
1087.67	1.04497
1090.56	2.31674
1093.46	1.39011
1096.35	1.62453
1099.24	0.195261
1102.13	1.41071
1105.03	0.837465
1107.92	0.023502
1110.81	0.275181
1113.7	0.845444
1116.6	0.880625
1119.49	0.629032
1122.38	0.472292
1125.28	0.736801
1128.17	0.162004
1131.06	0.090565
1133.95	1.38402
1136.85	1.29668
1139.74	0.701775
1142.63	0.154696
1145.52	1.31589
1148.42	0.604118
1151.31	0.160892
1154.2	0.585258
1157.1	0.818052
1159.99	0.395912
1162.88	0.941109
1165.77	0.731745
1168.67	0.231194
1171.56	0.735735
1174.45	1.31351
1177.34	0.40975
1180.24	1.0797
1183.13	1.7367
1186.02	0.949402
1188.91	0.866383
1191.81	1.38474
1194.7	1.94733
1197.59	1.53228
1200.48	1.12373
1203.38	1.16147
1206.27	1.37796
1209.16	1.03515
1212.06	1.14071
1214.95	0.9858
1217.84	0.572144
1220.73	0.869291
1223.63	1.97626
1226.52	0.739462
1229.41	1.15706
1232.31	0.997417
1235.2	0.967958
1238.09	0.876371
1240.98	0.996368
1243.88	1.24552
1246.77	1.6413
1249.66	0.710981
1252.55	2.05844
1255.45	1.20931
1258.34	0.453756
1261.23	0.734163
1264.12	1.18311
1267.02	0.308323
1269.91	0.811279
1272.8	0.213291
