Measurement: Raman, 532 nm, unoriented, Raman Data Processed
Mineral: Natrochalcite
Rruff sample: R050152
Ideal chemistry: NaCu_2_(SO_4_)_2_(OH)H_2_O
Locality: Fortuna mine, Baquedano, Chile
Source: Jim McGlasson
Description: Bright emerald green pyramidal crystals
Measured chemistry: Na_1.00_Cu_2.00_(S_1.00_O_4_)_2_(OH)Â·H_2_O
Raman shift (cm-1)	intensity
122.33	0
125.704	62.3954
129.079	99.1989
132.454	97.565
135.829	146.005
139.204	294.087
142.578	96.601
145.953	18.0569
149.328	1.71443
152.703	4.37839
156.078	1.71584
159.453	0.078857
162.827	14.1913
166.202	27.2939
169.577	43.7785
172.952	53.1284
176.327	95.1335
179.702	186.852
183.076	208.053
186.451	92.9461
189.826	88.4946
193.201	130.425
196.576	195.869
199.95	259.976
203.325	349.428
206.7	469.239
210.075	663.348
213.45	778.493
216.825	586.773
220.199	347.48
223.574	210.154
226.949	136.33
230.324	87.4167
233.699	58.5321
237.073	41.182
240.448	27.6398
243.823	19.4139
247.198	11.4603
250.573	6.87576
253.947	7.11559
257.322	4.62909
260.697	7.59271
264.072	4.6913
267.447	1.49599
270.822	5.02235
274.196	8.91148
277.571	6.84497
280.946	4.98128
284.321	5.1324
287.696	7.99309
291.07	4.72922
294.445	4.00114
297.82	6.43036
301.195	3.82175
304.57	1.5611
307.945	0.316956
311.319	0.978958
314.694	0.547729
318.069	1.53868
321.444	1.95581
324.819	1.97685
328.193	3.52585
331.568	0.097504
334.943	3.19266
338.318	0.860687
341.693	0.243301
345.067	1.64957
348.442	0.780914
351.817	2.23689
355.192	1.66116
358.567	0.839172
361.942	5.026
365.316	5.78162
368.691	9.58166
372.066	12.1922
375.441	19.4977
378.816	32.1142
382.19	53.6217
385.565	79.3127
388.94	122.453
392.315	174.725
395.69	240.876
399.065	316.89
402.439	392.449
405.814	385.645
409.189	291.953
412.564	207.256
415.939	182.068
419.313	199.716
422.688	248.18
426.063	349.035
429.438	476.176
432.813	444.547
436.188	276.637
439.562	214.593
442.937	253.81
446.312	310.884
449.687	217.361
453.062	119.646
456.436	107.684
459.811	138.959
463.186	213.737
466.561	286.734
469.936	244.838
473.31	135.905
476.685	70.2006
480.06	39.1193
483.435	24.664
486.81	14.6166
490.185	5.62909
493.559	4.24043
496.934	0.733749
500.309	0.1772
503.684	3.61954
507.059	3.13721
510.433	1.75768
513.808	0.795212
517.183	0.834579
520.558	1.01573
523.933	2.19423
527.308	1.65179
530.682	3.67705
534.057	4.35081
537.432	5.32272
540.807	4.43335
544.182	7.49748
547.557	9.46295
550.931	10.5852
554.306	12.0837
557.681	13.2781
561.056	10.7614
564.431	13.7561
567.805	13.1764
571.18	12.7274
574.555	7.14346
577.93	8.23512
581.305	13.1025
584.679	14.4011
588.054	22.51
591.429	39.4548
594.804	75.017
598.179	112.253
601.553	169.764
604.928	280.709
608.303	379.908
611.678	283.166
615.053	126.993
618.428	102.63
621.802	125.095
625.177	184.085
628.552	263.679
631.927	387.124
635.302	549.638
638.677	609.106
642.051	373.374
645.426	132.797
648.801	53.8729
652.176	25.8683
655.551	14.3888
658.925	7.10158
662.3	5.84888
665.675	1.84102
669.05	1.54239
672.425	1.72781
675.799	0.519455
679.174	1.31227
682.549	2.2769
685.924	2.71968
689.299	1.0733
692.673	0.825623
696.048	0.763138
699.423	2.0732
702.798	1.34338
706.173	3.40376
709.548	3.33713
712.922	1.56944
716.297	1.87056
719.672	3.28833
723.047	3.1609
726.422	4.0885
729.797	1.96107
733.171	3.28851
736.546	3.50627
739.921	4.42055
743.296	0.424683
746.671	3.34024
750.045	4.00269
753.42	4.22943
756.795	3.54257
760.17	6.37839
763.545	1.10951
766.919	3.84975
770.294	3.02611
773.669	1.6162
777.044	2.09288
780.419	2.09981
783.794	5.13834
787.168	1.8593
790.543	1.22542
793.918	0.415543
797.293	0.48764
800.668	2.01746
804.042	2.7719
807.417	3.47926
810.792	0.185623
814.167	0.089828
817.542	2.2345
820.917	3.38409
824.291	3.64522
827.666	2.90431
831.041	0.384186
834.416	0.004303
837.791	4.48567
841.165	5.13525
844.54	1.8727
847.915	1.09703
851.29	1.00108
854.665	0.334702
858.039	0.894913
861.414	3.52458
864.789	1.40448
868.164	2.66214
871.539	2.86154
874.914	0.710983
878.288	0.486145
881.663	0.173462
885.038	2.55644
888.413	0.647217
891.788	1.47406
895.163	6.15704
898.537	7.52795
901.912	6.82335
905.287	7.52559
908.662	7.67046
912.037	9.44688
915.411	10.9492
918.786	12.5697
922.161	12.7995
925.536	15.2208
928.911	14.2946
932.285	11.7857
935.66	5.48106
939.035	5.93199
942.41	3.04231
945.785	1.4846
949.159	3.83153
952.534	3.92618
955.909	1.24994
959.284	0.455002
962.659	5.99184
966.034	18.6602
969.408	30.6197
972.783	39.2519
976.158	48.7249
979.533	82.2882
982.908	165.412
986.283	500.927
989.657	861.113
993.032	1416.82
996.407	3086.16
999.782	3971.79
1003.16	940.995
1006.53	304.761
1009.91	165.369
1013.28	132.342
1016.66	144.934
1020.03	186.504
1023.4	247.911
1026.78	295.974
1030.15	337.493
1033.53	448.094
1036.9	670.196
1040.28	1010.92
1043.65	1548.23
1047.03	2067.72
1050.4	1893.06
1053.78	850.632
1057.15	310.262
1060.53	149.711
1063.9	82.1017
1067.28	48.2277
1070.65	29.5653
1074.03	15.9581
1077.4	12.8155
1080.78	5.45973
1084.15	2.69791
1087.53	1.2758
1090.9	1.21182
1094.28	2.90135
1097.65	2.10684
1101.03	0.531769
1104.4	0.105484
1107.78	0.303467
1111.15	0.321869
1114.53	2.28984
1117.9	1.11501
1121.28	0.077347
1124.65	3.31839
1128.03	1.97473
1131.4	0.415756
1134.77	3.45612
1138.15	5.85016
1141.52	4.26837
1144.9	2.36935
1148.27	3.89789
1151.65	4.1324
1155.02	6.90045
1158.4	9.79514
1161.77	9.54091
1165.15	15.491
1168.52	17.5369
1171.9	21.2148
1175.27	26.7096
1178.65	32.3914
1182.02	39.0525
1185.4	57.1649
1188.77	82.0358
1192.15	123.295
1195.52	212.136
1198.9	380.274
1202.27	608.847
1205.65	994.973
1209.02	1457.83
1212.39	886.717
1215.77	338.088
1219.14	155.455
1222.52	88.889
1225.89	58.2347
1229.27	37.9323
1232.64	25.0847
1236.02	20.1377
1239.39	10.8981
1242.77	7.46443
1246.14	5.4593
1249.52	2.66743
1252.89	3.10541
1256.27	0.541122
1259.64	0.544388
1263.02	3.78565
1266.39	2.26028
1269.77	0.869446
1273.14	1.63919
1276.52	3.05991
1279.89	3.73515
1283.27	0.526382
1286.64	3.68112
1290.02	0.065018
1293.39	2.49538
1296.77	1.61171
