Measurement: Raman, 532 nm, unoriented, Raman Data Processed
Mineral: Natrolite
Rruff sample: R040112
Ideal chemistry: Na_2_(Si_3_Al_2_)O_10_2H_2_O
Locality: Ice River Alkaline Complex, Moose Creek Valley, Yoho National Park, British Columbia, Canada
Source: National Museums of Canada
Description: Colorless pseudohexagonal prism
Measured chemistry: Na_2.00_(Si_3.00_Al_2.00_)O_10_Â·2H_2_O
Raman shift (cm-1)	intensity
153.519	0
156.894	1894.24
160.268	6222.66
163.643	5992.87
167.018	2168.48
170.393	733.889
173.768	901.324
177.143	11.77
180.517	149.253
183.892	1440.01
187.267	1934.52
190.642	141.76
194.017	165.185
197.391	134.648
200.766	900.33
204.141	2532.69
207.516	3108.98
210.891	1576.2
214.266	1220.55
217.64	1365.24
221.015	1274.42
224.39	737.961
227.765	116.633
231.14	79.8397
234.514	108.122
237.889	454.06
241.264	930.632
244.639	310.233
248.014	77.0493
251.388	55.0286
254.763	21.1094
258.138	126.614
261.513	332.91
264.888	549.29
268.263	898.739
271.637	1212.66
275.012	1469.19
278.387	1160.29
281.762	807.52
285.137	877.473
288.512	1139.69
291.886	1026.36
295.261	911.272
298.636	1058.27
302.011	1665.93
305.386	2942.8
308.76	1851.73
312.135	455.776
315.51	220.472
318.885	258.841
322.26	457.373
325.635	1018.72
329.009	1921.29
332.384	2300.55
335.759	1114.3
339.134	663.545
342.509	588.069
345.883	570.86
349.258	636.076
352.633	919.111
356.008	1305.81
359.383	1675.95
362.757	1319.16
366.132	759.44
369.507	637.663
372.882	428.429
376.257	129.861
379.632	13.7817
383.006	45.5516
386.381	49.7866
389.756	59.7213
393.131	7.20801
396.506	33.5116
399.88	128.619
403.255	352.095
406.63	735.222
410.005	1263.44
413.38	1555.7
416.755	1168.84
420.129	883.22
423.504	941.203
426.879	1424.07
430.254	2539.89
433.629	4759.23
437.003	8652.99
440.378	15245.4
443.753	12195.6
447.128	4540.4
450.503	1725.5
453.878	686.442
457.252	253.547
460.627	60.499
464.002	45.0471
467.377	42.4133
470.752	27.9482
474.127	156.922
477.501	376.313
480.876	590.176
484.251	790.666
487.626	809.039
491.001	927.519
494.375	1008.19
497.75	1101.05
501.125	1251.87
504.5	1654.32
507.875	2246.12
511.25	2985.92
514.624	3746.32
517.999	4556.08
521.374	5799.78
524.749	8594.81
528.124	13519.1
531.498	20991.2
534.873	19669.1
538.248	9555.29
541.623	4515.11
544.998	2346.49
548.372	1368.36
551.747	813.837
555.122	534.493
558.497	333.643
561.872	207.644
565.247	109.593
568.621	15.663
571.996	14.6633
575.371	27.0101
578.746	17.9225
582.121	11.4282
585.495	19.9923
588.87	61.7636
592.245	85.0309
595.62	181.152
598.995	169.679
602.37	46.5038
605.744	3.54785
609.119	7.11157
612.494	25.349
615.869	30.3885
619.244	5.28027
622.619	47.1536
625.993	49.453
629.368	73.0415
632.743	135.275
636.118	178.48
639.493	159.781
642.867	130.884
646.242	98.03
649.617	117.999
652.992	84.7236
656.367	90.511
659.741	90.0601
663.116	109.688
666.491	135.482
669.866	154.814
673.241	211.342
676.616	229.947
679.99	333.718
683.365	429.642
686.74	560.323
690.115	739.065
693.49	926.197
696.865	1201.06
700.239	1382.34
703.614	1416.79
706.989	1255.26
710.364	1056.07
713.739	957.38
717.113	939.374
720.488	1043.64
723.863	1153.45
727.238	1059.09
730.613	744.987
733.987	407.01
737.362	190.811
740.737	107.949
744.112	32.5201
747.487	41.8102
750.862	1.10144
754.236	9.85852
757.611	15.8868
760.986	10.6411
764.361	15.9105
767.736	12.3539
771.111	9.0011
774.485	0.881348
777.86	26.0913
781.235	22.8359
784.61	1.33814
787.985	13.3372
791.359	37.5449
794.734	35.3451
798.109	64.3023
801.484	87.2929
804.859	90.8919
808.234	76.0411
811.608	81.2241
814.983	95.0912
818.358	114.737
821.733	117.175
825.108	97.1859
828.482	80.8418
831.857	105.667
835.232	65.731
838.607	89.3842
841.982	95.4844
845.356	64.9392
848.731	65.0981
852.106	92.2434
855.481	74.7969
858.856	79.1073
862.231	98.0283
865.605	69.9053
868.98	106.226
872.355	99.7749
875.73	98.0934
879.105	73.7087
882.48	86.3843
885.854	63.176
889.229	83.4364
892.604	82.7727
895.979	73.6731
899.354	40.2986
902.729	51.8511
906.103	35.5664
909.478	25.8682
912.853	33.729
916.228	24.8372
919.602	6.62244
922.977	19.9022
926.352	0.178955
929.727	5.20508
933.102	11.4939
936.477	2.48657
939.851	19.0568
943.226	40.4832
946.601	14.5665
949.976	26.9967
953.351	71.374
956.726	173.343
960.1	381.715
963.475	553.459
966.85	472.084
970.225	331.217
973.6	313.084
976.974	351.72
980.349	270.536
983.724	137.969
987.099	71.0819
990.474	23.7883
993.848	78.884
997.223	186.939
1000.6	372.433
1003.97	586.46
1007.35	749.984
1010.72	622.289
1014.1	396.589
1017.47	291.265
1020.85	263.454
1024.22	340.959
1027.6	632.823
1030.97	1411.16
1034.35	2808.48
1037.72	4782.85
1041.1	3701.03
1044.47	1455.98
1047.85	631.797
1051.22	369.457
1054.6	301.047
1057.97	285.599
1061.35	193.653
1064.72	194.416
1068.09	217.573
1071.47	380.296
1074.84	552.344
1078.22	752.362
1081.59	905.244
1084.97	943.845
1088.34	944.451
1091.72	868.314
1095.09	558.535
1098.47	290.039
1101.84	122.012
1105.22	39.712
1108.59	1.75232
1111.97	13.1821
1115.34	0.699707
1118.72	33.5573
1122.09	17.9993
1125.47	2.48035
1128.84	10.3839
1132.22	11.8084
1135.59	29.8048
1138.97	25.0275
1142.34	6.92285
1145.71	17.0085
1149.09	22.6379
1152.46	29.303
1155.84	29.2541
1159.21	29.5356
1162.59	42.1335
1165.96	45.3956
1169.34	37.892
1172.71	68.7997
1176.09	58.9471
1179.46	90.9689
1182.84	63.444
1186.21	54.5961
1189.59	60.6383
1192.96	52.4036
1196.34	60.1129
1199.71	64.5161
1203.09	54.886
1206.46	56.5684
1209.84	41.892
1213.21	45.8127
1216.59	29.0159
1219.96	36.109
1223.34	43.3447
1226.71	51.5523
1230.09	41.9077
1233.46	20.5209
1236.84	22.1929
1240.21	34.843
1243.59	35.6267
1246.96	20.1483
1250.34	46.9834
1253.71	21.3931
1257.08	43.7395
1260.46	30.7186
1263.83	33.1551
1267.21	12.5446
1270.58	27.396
1273.96	22.0414
1277.33	15.1193
1280.71	30.1237
1284.08	33.3491
1287.46	28.765
1290.83	34.5142
1294.21	22.9385
1297.58	21.3872
1300.96	31.2128
1304.33	16.2125
1307.71	38.4202
1311.08	4.00574
1314.46	0.024414
