Measurement: Raman, 532 nm, unoriented, Raman Data Processed
Mineral: Natrolite
Rruff sample: R040102
Ideal chemistry: Na_2_(Si_3_Al_2_)O_10_2H_2_O
Locality: Ross' Quarry, Northland, New Zealand
Source: University of Arizona Mineral Museum
Description: Mass of colorless acicular crystals
Measured chemistry: (Na_0.92_Ca_0.02_)_2_(Si_3.03_Al_1.99_)O_10_Â·2H_2_O
Raman shift (cm-1)	intensity
128.797	0
132.171	64.4988
135.546	335.524
138.921	532.207
142.296	594.063
145.671	278.596
149.045	111.79
152.42	418.228
155.795	1039.57
159.17	1606.22
162.545	1557.31
165.919	837.422
169.294	365.736
172.669	207.727
176.044	72.0825
179.419	98.6567
182.794	160.342
186.168	70.3769
189.543	36.9939
192.918	28.5953
196.293	121.563
199.668	249.291
203.042	437.248
206.417	426.184
209.792	268.611
213.167	219.038
216.542	215.003
219.917	150.153
223.291	77.6669
226.666	6.30835
230.041	0.418457
233.416	80.7714
236.791	148.718
240.165	214.159
243.54	62.339
246.915	20.657
250.29	21.6
253.665	10.0457
257.039	16.4911
260.414	80.5181
263.789	132.787
267.164	189.488
270.539	207.055
273.913	230.414
277.288	196.89
280.663	133.93
284.038	155.77
287.413	161.031
290.788	195.768
294.162	196.736
297.537	309.692
300.912	399.892
304.287	463.826
307.662	341.903
311.036	143.619
314.411	94.9356
317.786	87.5319
321.161	153.195
324.536	234.263
327.911	306.795
331.285	366.927
334.66	268.454
338.035	229.087
341.41	218.373
344.785	251.057
348.159	283.389
351.534	323.582
354.909	353.531
358.284	362.68
361.659	302.491
365.034	132.326
368.408	103.211
371.783	51.8146
375.158	10.8428
378.533	6.92248
381.908	19.5913
385.282	1.50024
388.657	11.493
392.032	4.8645
395.407	1.19836
398.782	23.4624
402.156	64.0182
405.531	117.015
408.906	201.852
412.281	235.701
415.656	221.333
419.031	206.229
422.405	249.467
425.78	381.014
429.155	670.196
432.53	1134.63
435.905	1722.28
439.279	2226.79
442.654	2114.34
446.029	1235.92
449.404	657.623
452.779	326.193
456.154	97.5633
459.528	38.8157
462.903	21.1044
466.278	2.71082
469.653	3.8147
473.028	39.527
476.402	67.6742
479.777	127.472
483.152	169.317
486.527	158.097
489.902	158.217
493.276	167.481
496.651	164.281
500.026	216.217
503.401	292.639
506.776	435.657
510.151	547.187
513.525	722.226
516.9	1066.99
520.275	1594.12
523.65	2309.76
527.025	3257.8
530.399	4201.72
533.774	4077.17
537.149	2366.15
540.524	1147.13
543.899	592.145
547.274	305.529
550.648	192.658
554.023	90.0419
557.398	79.9358
560.773	47.1596
564.148	24.6873
567.522	21.25
570.897	26.3816
574.272	20.1537
577.647	7.03394
581.022	14.5474
584.396	8.72424
587.771	44.55
591.146	61.5247
594.521	47.6185
597.896	68.2729
601.271	54.613
604.645	47.0327
608.02	42.8488
611.395	45.1019
614.77	37.2853
618.145	16.8335
621.519	20.9298
624.894	34.3113
628.269	17.9922
631.644	39.9069
635.019	9.52624
638.394	1.18335
641.768	2.4812
645.143	4.96826
648.518	4.06494
651.893	0.608154
655.268	7.27832
658.642	24.6357
662.017	9.37134
665.392	21.189
668.767	52.0143
672.142	58.0614
675.516	66.5878
678.891	65.4623
682.266	87.0021
685.641	110.961
689.016	150.423
692.391	169.665
695.765	201.099
699.14	247.848
702.515	251.596
705.89	249.539
709.265	228.333
712.639	217.327
716.014	182.329
719.389	217.753
722.764	202.927
726.139	176.823
729.514	160.695
732.888	103.746
736.263	38.9545
739.638	46.9318
743.013	36.5951
746.388	39.4823
749.762	49.5418
753.137	38.2556
756.512	29.562
759.887	38.9933
763.262	50.0933
766.636	45.1821
770.011	38.984
773.386	37.0625
776.761	31.9797
780.136	24.5356
783.51	1.73865
786.885	5.27637
790.26	26.2484
793.635	30.8651
797.01	7.84192
800.385	3.53125
803.759	43.8998
807.134	0.442871
810.509	6.39563
813.884	49.7446
817.259	12.6818
820.634	29.0123
824.008	67.1769
827.383	84.4901
830.758	79.7675
834.133	81.172
837.508	103.79
840.882	67.3434
844.257	66.1221
847.632	43.0071
851.007	57.1266
854.382	38.0358
857.756	54.7393
861.131	84.1432
864.506	60.2168
867.881	58.5962
871.256	57.116
874.63	62.1327
878.005	42.228
881.38	52.6686
884.755	56.4793
888.13	64.7502
891.505	39.3628
894.879	41.254
898.254	13.3805
901.629	36.8712
905.004	38.6973
908.379	26.2537
911.754	13.8092
915.128	5.07068
918.503	2.72266
921.878	12.2836
925.253	10.9622
928.628	16.1279
932.002	5.33264
935.377	15.4841
938.752	12.9073
942.127	28.203
945.502	0.357666
948.876	17.3373
952.251	57.1344
955.626	68.666
959.001	102.444
962.376	90.8072
965.75	102.28
969.125	95.391
972.5	76.4324
975.875	59.2996
979.25	63.6776
982.625	65.7164
985.999	37.4988
989.374	14.8765
992.749	75.1465
996.124	29.3696
999.499	89.4691
1002.87	73.3875
1006.25	109.418
1009.62	93.7889
1013	55.6656
1016.37	55.3496
1019.75	40.6103
1023.12	85.4138
1026.5	185.494
1029.87	295.789
1033.25	437.424
1036.62	619.299
1040	559.059
1043.37	297.735
1046.75	121.24
1050.12	69.0477
1053.5	39.97
1056.87	10.282
1060.24	3.76343
1063.62	22.8075
1066.99	44.5855
1070.37	70.3102
1073.74	71.8926
1077.12	102.6
1080.49	135.315
1083.87	138.973
1087.24	133.03
1090.62	110.31
1093.99	87.2749
1097.37	62.5222
1100.74	51.2006
1104.12	60.746
1107.49	21.6193
1110.87	17.2008
1114.24	39.1298
1117.62	35.9425
1120.99	45.9074
1124.37	10.9367
1127.74	12.6262
1131.12	10.1418
1134.49	23.6481
1137.87	34.6926
1141.24	4.4574
1144.62	12.9542
1147.99	11.8407
1151.37	31.1254
1154.74	20.9917
1158.12	7.46228
1161.49	39.7022
1164.87	24.2985
1168.24	13.5763
1171.61	25.4334
1174.99	40.4387
1178.36	33.6578
1181.74	44.5754
1185.11	33.856
1188.49	30.9168
1191.86	19.6166
1195.24	13.8486
1198.61	24.9829
1201.99	33.7223
1205.36	26.2118
1208.74	38.9774
1212.11	34.427
1215.49	5.61975
1218.86	2.37659
1222.24	42.4139
1225.61	27.9952
1228.99	28.7162
1232.36	37.0778
1235.74	41.4011
1239.11	25.5173
1242.48	25.087
1245.86	34.6659
1249.23	1.75769
1252.61	43.3431
1255.98	44.3235
1259.36	15.387
1262.73	11.486
1266.11	1.36414
1269.48	48.4445
1272.86	25.0665
1276.23	32.4714
1279.61	30.1185
1282.98	35.6173
1286.36	12.8096
1289.73	16.5102
1293.11	3.65784
1296.48	0.067505
