Measurement: Raman, 532 nm, unoriented, Raman Data Processed
Mineral: Natrojarosite
Rruff sample: R050471
Ideal chemistry: NaFe^3+^_3_(SO_4_)_2_(OH)_6_
Locality: Bristol mine, Pioche, Lincoln County, Nevada, USA
Source: Marcus Origlieri
Description: Tan colored, fine-grained massive
Measured chemistry: (Na_0.60_K_0.30_Pb_0.10_)_Σ=1_(Fe^3+^_2.98_Al_0.02_)_Σ=3_((S_0.95_As_0.05_)_Σ=1_O_4_)_2_(OH)_6_
Raman shift (cm-1)	intensity
113.667	0
117.042	12.5885
120.417	64.0439
123.792	111.446
127.167	146.119
130.541	228.161
133.916	369.32
137.291	519.29
140.666	281.659
144.041	114.924
147.416	65.8452
150.79	42.5513
154.165	28.1851
157.54	15.0359
160.915	2.02415
164.29	4.16911
167.664	4.28078
171.039	4.06882
174.414	0.33374
177.789	12.4857
181.164	32.8914
184.538	65.5611
187.913	110.34
191.288	162.15
194.663	224.729
198.038	307.925
201.412	408.125
204.787	533.195
208.162	665.627
211.537	809.94
214.912	1010.17
218.287	1149.84
221.661	1043.92
225.036	714.044
228.411	412.811
231.786	232.316
235.161	137.303
238.536	82.1737
241.91	52.261
245.285	33.0779
248.66	19.2778
252.035	8.43378
255.41	3.10202
258.784	1.51443
262.159	1.23621
265.534	2.26324
268.909	5.59729
272.284	18.6747
275.659	40.8492
279.033	71.6724
282.408	109.361
285.783	154.052
289.158	199.498
292.533	239.47
295.907	260.762
299.282	231.856
302.657	158.194
306.032	93.4919
309.407	52.5181
312.781	26.0997
316.156	12.1624
319.531	3.19626
322.906	0.276779
326.281	0.739746
329.656	2.79794
333.03	5.48822
336.405	10.0868
339.78	21.2217
343.155	32.6849
346.53	58.3661
349.904	78.2582
353.279	86.2917
356.654	88.079
360.029	81.1009
363.404	63.5857
366.779	39.7439
370.153	18.8661
373.528	8.00816
376.903	0.729584
380.278	3.54431
383.653	5.4089
387.027	1.99358
390.402	3.77994
393.777	15.1817
397.152	26.3485
400.527	41.6372
403.901	62.9351
407.276	94.1464
410.651	138.085
414.026	204.271
417.401	299.748
420.776	427.474
424.15	603.487
427.525	821.55
430.9	1029.14
434.275	1126.09
437.65	1123.19
441.024	1047.37
444.399	904.884
447.774	755.477
451.149	632.923
454.524	474.266
457.899	326.76
461.273	241.842
464.648	210.433
468.023	197.882
471.398	185.572
474.773	162.134
478.147	128.512
481.522	87.8034
484.897	55.2565
488.272	31.6317
491.647	19.7083
495.022	9.08234
498.396	3.08652
501.771	1.72812
505.146	4.45608
508.521	3.60552
511.896	2.5788
515.27	0.600891
518.645	3.12859
522.02	9.62657
525.395	17.9987
528.77	26.3055
532.145	36.4084
535.519	50.8499
538.894	69.3189
542.269	85.8983
545.644	108.793
549.019	137.451
552.394	165.853
555.768	192.793
559.143	206.839
562.518	206.619
565.893	192.797
569.268	157.536
572.642	123.114
576.017	89.1423
579.392	59.9896
582.767	43.6422
586.142	21.8786
589.516	12.3091
592.891	4.15979
596.266	2.67726
599.641	2.8486
603.016	12.5683
606.39	47.5566
609.765	119.994
613.14	204.127
616.515	361.139
619.89	536.01
623.265	557.441
626.639	230.404
630.014	89.2753
633.389	55.7108
636.764	48.9488
640.139	50.0477
643.514	44.604
646.888	34.8655
650.263	22.8803
653.638	13.8509
657.013	7.60787
660.388	3.95068
663.762	2.13798
667.137	0.33773
670.512	0.045639
673.887	1.16831
677.262	1.06993
680.636	1.33202
684.011	0.081337
687.386	0.472977
690.761	0.357346
694.136	1.30827
697.511	4.74992
700.885	5.97595
704.26	6.17812
707.635	7.93036
711.01	8.79216
714.385	8.72056
717.76	9.2063
721.134	10.6977
724.509	9.36211
727.884	8.66808
731.259	6.36597
734.634	3.95144
738.008	5.3617
741.383	1.90704
744.758	1.61242
748.133	0.096596
751.508	0.101738
754.882	0.561607
758.257	0.124512
761.632	0.591827
765.007	0.453049
768.382	1.23344
771.756	1.91817
775.131	1.71207
778.506	2.42036
781.881	4.94222
785.256	7.89038
788.631	10.0078
792.005	15.0359
795.38	20.9176
798.755	23.2818
802.13	27.4285
805.505	31.2062
808.88	33.0129
812.254	33.5566
815.629	36.0421
819.004	37.5554
822.379	39.8378
825.754	41.4065
829.128	44.0297
832.503	46.949
835.878	49.8521
839.253	52.6319
842.628	53.4157
846.003	54.033
849.377	51.1491
852.752	46.8001
856.127	40.2076
859.502	34.4296
862.877	27.9495
866.251	22.6527
869.626	18.4338
873.001	15.2563
876.376	11.5679
879.751	7.19532
883.125	4.9378
886.5	2.95416
889.875	1.63447
893.25	0.276558
896.625	0.403931
900	0.233223
903.374	0.408211
906.749	1.24707
910.124	1.26161
913.499	5.13556
916.874	4.4643
920.249	5.71744
923.623	5.41531
926.998	4.47858
930.373	4.39407
933.748	4.45962
937.123	3.0358
940.497	3.05972
943.872	2.47296
947.247	2.3345
950.622	2.34347
953.997	1.59217
957.371	0.443527
960.746	0.552216
964.121	0.455063
967.496	0.803848
970.871	0.487869
974.245	2.22015
977.62	4.47096
980.995	12.5615
984.37	23.4687
987.745	43.1595
991.12	78.1655
994.494	136.002
997.869	223.078
1001.24	347.366
1004.62	497.729
1007.99	544.143
1011.37	394.631
1014.74	190.808
1018.12	122.558
1021.49	90.4435
1024.87	61.7286
1028.24	35.4183
1031.62	19.2527
1034.99	9.41901
1038.37	3.0987
1041.74	0.768242
1045.12	3.79015
1048.49	4.81311
1051.87	3.85052
1055.24	0.998894
1058.62	1.53889
1061.99	6.4204
1065.37	14.6159
1068.74	23.3612
1072.12	38.4743
1075.49	57.2846
1078.87	87.8766
1082.24	136.769
1085.62	210.09
1088.99	315.799
1092.36	457.138
1095.74	608.525
1099.11	709.441
1102.49	741.645
1105.86	662.922
1109.24	476.357
1112.61	291.916
1115.99	177.33
1119.36	120.18
1122.74	91.1477
1126.11	76.042
1129.49	72.5753
1132.86	82.9572
1136.24	99.9287
1139.61	135.972
1142.99	179.534
1146.36	235.26
1149.74	280.661
1153.11	302.403
1156.49	283.662
1159.86	232.17
1163.23	171.779
1166.61	127.53
1169.98	93.0615
1173.36	67.04
1176.73	47.8416
1180.11	35.2958
1183.48	24.3349
1186.86	15.1824
1190.23	9.25583
1193.61	4.80584
1196.98	1.35687
1200.36	0.60379
1203.73	2.20137
1207.11	1.80629
1210.48	1.04552
1213.86	1.67507
1217.23	0.636436
1220.61	1.35208
1223.98	1.35548
1227.36	0.615448
1230.73	0.427216
1234.11	2.15736
1237.48	4.64633
1240.86	5.93943
1244.23	7.78378
1247.61	9.66278
1250.98	10.1628
1254.36	10.0094
1257.73	8.07651
1261.11	6.33497
1264.48	5.66268
1267.86	3.95934
1271.23	3.5825
1274.6	2.05202
1277.98	1.17434
1281.35	0.759029
1284.73	0.764091
