Measurement: Raman, 780 nm, unoriented, Raman Data Processed
Mineral: Natrolite
Rruff sample: R120124
Ideal chemistry: Na_2_(Si_3_Al_2_)O_10_2H_2_O
Locality: Sagasen, Telemark, Norway
Source: Marcus Origlieri
Description: Colorless transparent prisms associated with b√∂hmite R120123
Raman shift (cm-1)	intensity
102.288	0
105.663	21.7733
109.038	1.11212
112.413	23.7003
115.787	35.7708
119.162	86.6019
122.537	166.273
125.912	69.0312
129.287	22.285
132.662	32.8738
136.036	40.5828
139.411	57.2902
142.786	106.585
146.161	84.3497
149.536	68.3913
152.911	102.055
156.285	174.005
159.66	272.893
163.035	244.693
166.41	106.923
169.785	43.8257
173.159	19.4974
176.534	3.4469
179.909	0.379395
183.284	6.80234
186.659	9.27182
190.033	3.02563
193.408	1.32468
196.783	4.48496
200.158	18.7599
203.533	45.454
206.907	50.9157
210.282	24.5097
213.657	14.4888
217.032	14.3646
220.407	16.1752
223.782	7.08267
227.156	0.534424
230.531	1.95795
233.906	5.43918
237.281	7.58508
240.656	13.2071
244.03	6.65182
247.405	3.47342
250.78	0.712616
254.155	1.44864
257.53	3.56357
260.904	6.68329
264.279	7.98746
267.654	14.3702
271.029	22.3102
274.404	25.3466
277.779	16.3324
281.153	10.6277
284.528	5.00534
287.903	5.76404
291.278	6.34665
294.653	6.742
298.027	6.61975
301.402	8.85663
304.777	15.5325
308.152	12.191
311.527	1.53497
314.902	0.937256
318.276	3.81641
321.651	9.06677
325.026	7.55728
328.401	8.3346
331.776	11.2129
335.151	11.3687
338.525	16.4365
341.9	22.6099
345.275	27.4965
348.65	35.5705
352.024	47.7616
355.399	52.9112
358.774	54.5005
362.149	43.1629
365.524	26.8297
368.899	20.5965
372.273	13.9255
375.648	8.61282
379.023	1.33524
382.398	1.1777
385.773	1.05093
389.147	2.9415
392.522	1.08469
395.897	1.41415
399.272	0.055481
402.647	0.841827
406.022	2.72378
409.396	6.70749
412.771	8.83731
416.146	8.39404
419.521	12.9848
422.896	16.6726
426.27	31.4732
429.645	43.9583
433.02	64.1534
436.395	97.4253
439.77	146.615
443.144	135.239
446.519	63.5941
449.894	25.7893
453.269	9.8826
456.644	3.61032
460.019	1.70422
463.393	5.57333
466.768	10.0508
470.143	12.6895
473.518	21.4457
476.893	35.2137
480.267	46.5668
483.642	56.6186
487.017	53.7152
490.392	41.2009
493.767	34.4497
497.142	31.4517
500.516	26.0978
503.891	27.1476
507.266	25.7784
510.641	32.6591
514.016	42.4688
517.39	62.2107
520.765	81.0657
524.14	115.742
527.515	178.946
530.89	257.882
534.264	240.061
537.639	123.16
541.014	56.0425
544.389	28.9713
547.764	14.0591
551.139	9.20181
554.513	4.91989
557.888	1.74356
561.263	0.745758
564.638	2.21793
568.013	2.48779
571.388	0.389435
574.762	0.475555
578.137	1.68405
581.512	1.85312
584.887	5.08481
588.261	7.38647
591.636	9.0365
595.011	9.90503
598.386	12.5906
601.761	12.3001
605.136	11.662
608.51	10.8933
611.885	9.89133
615.26	8.34064
618.635	6.9111
622.01	5.55701
625.385	4.37311
628.759	3.29001
632.134	2.84479
635.509	0.10025
638.884	3.18466
642.259	2.47684
645.633	2.09491
649.008	1.69153
652.383	2.24808
655.758	2.16913
659.133	2.46518
662.507	2.55359
665.882	1.45349
669.257	0.627869
672.632	2.35922
676.007	0.550537
679.381	0.138855
682.756	0.53363
686.131	2.79663
689.506	3.64731
692.881	4.23025
696.256	6.16467
699.63	6.85947
703.005	7.45999
706.38	7.14004
709.755	8.5665
713.13	8.43161
716.505	10.7592
719.879	11.9789
723.254	12.9571
726.629	16.0435
730.004	12.6694
733.379	7.86612
736.753	3.69083
740.128	0.76889
743.503	0.881195
746.878	0.100937
750.253	0.139603
753.627	0.520172
757.002	1.48026
760.377	0.575455
763.752	0.802551
767.127	1.50328
770.501	1.95308
773.876	1.51675
777.251	1.56708
780.626	3.1832
784.001	3.6593
787.376	3.75816
790.75	3.45386
794.125	4.99197
797.5	6.54646
800.875	6.72148
804.25	9.54913
807.625	13.0068
810.999	14.9269
814.374	12.4893
817.749	11.2845
821.124	9.12306
824.499	7.23137
827.873	7.78799
831.248	8.63556
834.623	7.73831
837.998	9.16248
841.373	12.2299
844.747	17.245
848.122	22.354
851.497	30.1441
854.872	34.7182
858.247	35.9071
861.621	31.2883
864.996	21.1025
868.371	13.9518
871.746	10.964
875.121	9.1852
878.495	8.36812
881.87	8.35548
885.245	6.85199
888.62	4.97888
891.995	2.96034
895.37	2.69264
898.744	2.72792
902.119	1.22604
905.494	1.51762
908.869	2.00453
912.244	0.878067
915.619	0.385559
918.993	1.67371
922.368	1.14487
925.743	1.08026
929.118	0.18808
932.493	0.574112
935.867	0.785202
939.242	0.190964
942.617	0.63295
945.992	0.562119
949.367	2.3196
952.741	2.38843
956.116	3.75316
959.491	6.94276
962.866	8.79123
966.241	11.0765
969.615	11.1052
972.99	14.7853
976.365	13.5966
979.74	10.4827
983.115	8.45477
986.49	6.38228
989.864	9.14786
993.239	11.8249
996.614	12.2905
999.989	15.1343
1003.36	15.5693
1006.74	14.7694
1010.11	14.7057
1013.49	14.3422
1016.86	15.6782
1020.24	16.1724
1023.61	18.2168
1026.99	22.0243
1030.36	29.7092
1033.74	43.4425
1037.11	67.1555
1040.49	69.1484
1043.86	35.6243
1047.24	16.7102
1050.61	6.5517
1053.99	4.00128
1057.36	2.7999
1060.74	0.887863
1064.11	0.267288
1067.48	0.43721
1070.86	0.331726
1074.23	2.71831
1077.61	3.1134
1080.98	4.14795
1084.36	3.70889
1087.73	5.11998
1091.11	5.63882
1094.48	4.94958
1097.86	3.78583
1101.23	4.9528
1104.61	3.75221
1107.98	7.06699
1111.36	8.34326
1114.73	10.0119
1118.11	6.13536
1121.48	2.86292
1124.86	0.588303
1128.23	1.52063
1131.61	0.160355
1134.98	1.14265
1138.36	1.11627
1141.73	1.10889
1145.11	1.91898
1148.48	3.5293
1151.86	4.82068
1155.23	7.58504
1158.61	7.18593
1161.98	7.93716
1165.36	6.44273
1168.73	4.84686
1172.1	6.5842
1175.48	5.52025
1178.85	4.50568
1182.23	2.38574
1185.6	2.40086
1188.98	3.41711
1192.35	1.85379
1195.73	1.04172
1199.1	1.32259
1202.48	1.42204
1205.85	0.599518
1209.23	1.17635
1212.6	0.614395
1215.98	0.80983
1219.35	0.178833
1222.73	0.84613
1226.1	1.93028
1229.48	1.3394
1232.85	3.3961
1236.23	3.58136
1239.6	2.13654
1242.97	3.7
1246.35	4.03273
1249.72	1.26691
1253.1	2.34085
1256.47	1.49959
1259.85	2.76884
1263.22	2.31203
1266.6	2.05026
1269.97	3.40006
1273.35	3.28616
1276.72	2.90762
1280.1	0.670624
1283.47	0.09259
