Measurement: Raman, 785 nm, unoriented, Raman Data Processed
Mineral: Natroboltwoodite
Rruff sample: R060880
Ideal chemistry: Na(UO_2_)(SiO_3_OH)H_2_O
Locality: Alluaiv Mountain, Lovozero, Russia
Source: Michael Scott
Description: Pale yellow massive, X-ray diffraction indicates that this is amorphous
Raman shift (cm-1)	intensity
166.846	0
169.739	29.0399
172.632	32.8956
175.524	19.9082
178.417	1.40478
181.31	3.21899
184.203	30.426
187.095	77.2153
189.988	113.37
192.881	136.458
195.773	173.19
198.666	242.434
201.559	286.421
204.452	341.011
207.344	377.034
210.237	382.275
213.13	365.97
216.022	363.561
218.915	317.173
221.808	278.869
224.7	210.112
227.593	157.756
230.486	95.1323
233.379	94.677
236.271	53.9543
239.164	24.1539
242.057	3.36426
244.949	7.01392
247.842	10.256
250.735	6.604
253.627	27.5665
256.52	34.2312
259.413	60.7931
262.305	49.0444
265.198	90.5823
268.091	90.986
270.984	98.5905
273.876	119.602
276.769	126.71
279.662	131.601
282.554	156.146
285.447	132.077
288.34	140.512
291.233	140.594
294.125	151.294
297.018	176.118
299.911	195.509
302.803	240.99
305.696	263.923
308.589	279.865
311.481	267.13
314.374	226.256
317.267	185.069
320.159	137.964
323.052	140
325.945	107.587
328.838	95.2766
331.73	92.697
334.623	64.2244
337.516	34.3695
340.408	5.72003
343.301	0.957458
346.194	3.90131
349.087	3.25372
351.979	7.22839
354.872	2.66083
357.765	2.85809
360.657	4.93457
363.55	8.16632
366.443	23.3208
369.335	31.434
372.228	54.1968
375.121	73.2701
378.014	93.1577
380.906	116.071
383.799	128.488
386.692	132.121
389.584	125.523
392.477	125
395.37	135.582
398.262	124.952
401.155	90.6257
404.048	102.394
406.941	80.6685
409.833	69.0323
412.726	61.6673
415.619	64.9658
418.511	43.8096
421.404	29.1826
424.297	31.8693
427.19	1.17566
430.082	14.2587
432.975	3.79236
435.868	0.568481
438.76	11.8072
441.653	6.78449
444.546	0.716797
447.438	0.009338
450.331	9.98023
453.224	17.2321
456.116	2.7829
459.009	34.599
461.902	33.3515
464.795	50.029
467.687	36.8532
470.58	58.8588
473.473	54.6907
476.365	39.1904
479.258	47.8828
482.151	23.0085
485.043	25.592
487.936	21.0698
490.829	23.0066
493.722	29.8205
496.614	18.0789
499.507	18.7563
502.4	13.8507
505.292	4.38397
508.185	6.52631
511.078	20.9713
513.971	4.54712
516.863	3.19458
519.756	6.49139
522.649	26.082
525.541	25.1384
528.434	45.6758
531.327	62.2681
534.219	104.064
537.112	135.692
540.005	145.756
542.898	148.634
545.79	138.046
548.683	81.1231
551.576	95.3744
554.468	58.4614
557.361	64.3208
560.254	27.0809
563.146	35.8486
566.039	16.3055
568.932	19.2223
571.824	38.3909
574.717	7.71118
577.61	19.0008
580.503	22.3242
583.395	25.2936
586.288	20.9801
589.181	44.6208
592.073	37.8821
594.966	44.4584
597.859	45.7228
600.751	43.4578
603.644	39.2523
606.537	44.413
609.43	44.0579
612.322	42.0874
615.215	30.9776
618.108	19.6858
621	14.5882
623.893	18.3716
626.786	11.9078
629.678	9.98694
632.571	8.16266
635.464	5.02567
638.357	13.3266
641.249	10.3826
644.142	0.16861
647.035	24.7278
649.927	10.3832
652.82	3.55783
655.713	21.17
658.606	6.5412
661.498	12.6515
664.391	5.6488
667.284	13.148
670.176	7.86093
673.069	13.0198
675.962	10.9847
678.854	3.04462
681.747	10.9315
684.64	6.03635
687.533	9.12051
690.425	0.677795
693.318	4.15582
696.211	3.48593
699.103	0.474609
701.996	0.664795
704.889	8.69251
707.781	3.71838
710.674	14.2995
713.567	7.35864
716.46	5.96924
719.352	14.0126
722.245	29.4056
725.138	48.9133
728.03	85.0923
730.923	107.938
733.816	151.392
736.708	194.985
739.601	214.86
742.494	274.132
745.386	352.798
748.279	464.827
751.172	580.116
754.065	710.986
756.957	881.832
759.85	1072.08
762.743	1345.41
765.635	1661.06
768.528	2043.61
771.421	2440.12
774.313	2944.08
777.206	3369.46
780.099	3721.94
782.992	3878.63
785.884	3861.75
788.777	3515.85
791.67	3092.38
794.562	2504.56
797.455	2017.82
800.348	1591.1
803.24	1298.67
806.133	1045.87
809.026	795.924
811.919	590.032
814.811	430.255
817.704	341.682
820.597	266.699
823.489	186.974
826.382	151.772
829.275	152.439
832.168	101.818
835.06	97.2769
837.953	74.568
840.846	43.3779
843.738	29.5453
846.631	21.8156
849.524	14.7823
852.416	9.3855
855.309	4.13965
858.202	23.3864
861.095	5.04086
863.987	17.1469
866.88	4.70456
869.773	6.00095
872.665	13.1406
875.558	2.71616
878.451	4.72369
881.343	12.8752
884.236	35.9437
887.129	39.2057
890.021	59.4955
892.914	73.2472
895.807	94.0458
898.7	83.1506
901.592	77.4124
904.485	89.7266
907.378	74.8329
910.27	107.818
913.163	117.184
916.056	137.792
918.949	152.311
921.841	188.267
924.734	220.145
927.627	218.91
930.519	279.625
933.412	314.942
936.305	332.864
939.197	371.773
942.09	359.48
944.983	377.985
947.876	395.847
950.768	402.166
953.661	428.309
956.554	447.036
959.446	473.18
962.339	487.536
965.232	422.589
968.125	421.308
971.017	354.237
973.91	304.009
976.803	244.815
979.695	191.989
982.588	173.923
985.481	123.956
988.373	116.518
991.266	80.7966
994.159	76.2429
997.052	71.7003
999.944	50.0142
1002.84	42.7637
1005.73	25.981
1008.62	30.9217
1011.51	15.8799
1014.41	2.21353
1017.3	0.793793
1020.19	3.23724
1023.09	3.47711
1025.98	0.136688
1028.87	2.76999
1031.76	2.15723
1034.66	1.82346
1037.55	0.151978
1040.44	9.5571
1043.34	11.2126
1046.23	0.495575
1049.12	18.8362
1052.01	42.5214
1054.91	39.8706
1057.8	33.9229
1060.69	55.272
1063.58	37.2364
1066.48	46.3716
1069.37	58.0228
1072.26	47.2076
1075.15	55.5149
1078.05	47.7432
1080.94	37.9454
1083.83	19.4828
1086.72	39.0258
1089.62	35.3852
1092.51	23.7052
1095.4	22.6312
1098.3	14.8976
1101.19	17.8087
1104.08	10.0645
1106.97	11.5056
1109.87	13.1285
1112.76	20.3363
1115.65	16.0836
1118.55	7.42712
1121.44	1.8916
1124.33	12.5799
1127.22	8.4956
1130.12	2.02179
1133.01	10.6773
1135.9	11.6532
1138.79	8.62164
1141.69	3.69855
1144.58	8.0788
1147.47	6.61566
1150.37	0.505005
1153.26	15.427
1156.15	24.1836
1159.04	26.585
1161.93	29.5236
1164.83	45.5174
1167.72	60.8782
1170.61	62.0317
1173.51	86.5815
1176.4	103.559
1179.29	122.548
1182.18	164.816
1185.08	193.032
1187.97	213.238
1190.86	231.838
1193.76	261.096
1196.65	289.733
1199.54	346.844
1202.43	334.573
1205.33	382.2
1208.22	403.351
1211.11	425.322
1214	453.926
1216.9	456.013
1219.79	445.416
1222.68	437.448
1225.58	409.598
1228.47	390.676
1231.36	331.065
1234.25	298.935
1237.15	260.074
1240.04	213.078
1242.93	177.461
1245.82	161.414
1248.72	122.028
1251.61	68.994
1254.5	81.8784
1257.39	38.0552
1260.29	33.2562
1263.18	24.1379
1266.07	6.05713
1268.96	4.62415
1271.86	0
