Measurement: Raman, 785 nm, unoriented, Raman Data Processed
Mineral: Natrolemoynite
Rruff sample: R060958
Ideal chemistry: Na_4_Zr_2_Si_10_O_26_9H_2_O
Locality: Mont St. Hilaire, Quebec, Canada
Source: Michael Scott
Description: Radial aggregates of colorless bladed crystals
Measured chemistry: (Na_3.25_K_0.38_Ca_0.23_[box]_0.14_)_Σ=4_(Zr_1.91_Fe^3+^_0.05_Nb^5+^_0.02_Ti_0.02_)_Σ=2_Si_10_O_26_·9H_2_O
Raman shift (cm-1)	intensity
125.385	0
128.278	155.976
131.17	324.448
134.063	249.771
136.956	6.61536
139.849	35.2328
142.741	297.716
145.634	629.899
148.527	822.913
151.419	795.121
154.312	673.2
157.205	575.179
160.097	674.989
162.99	835.689
165.883	1037.35
168.775	1239.27
171.668	1283.11
174.561	1335.06
177.454	1302.44
180.346	1364.59
183.239	1314.37
186.132	1226.51
189.024	1130.97
191.917	1050.88
194.81	1139.23
197.702	1209.85
200.595	1326.29
203.488	1342.29
206.381	1249.3
209.273	1049.92
212.166	851.28
215.059	660.422
217.951	552.829
220.844	400.989
223.737	317.241
226.629	188.223
229.522	92.5598
232.415	85.5232
235.308	49.1702
238.2	30.3294
241.093	1.68066
243.986	32.3372
246.878	36.2871
249.771	14.406
252.664	3.69922
255.556	32.2793
258.449	55.4883
261.342	26.759
264.235	65.8879
267.127	57.4038
270.02	64.8179
272.913	84.5449
275.805	153.151
278.698	235.194
281.591	360.298
284.483	514.631
287.376	506.332
290.269	490.675
293.161	413.536
296.054	199.567
298.947	65.346
301.84	18.375
304.732	1.11377
307.625	62.1047
310.518	91.1372
313.41	187.392
316.303	231.036
319.196	252.43
322.089	282.019
324.981	258.788
327.874	199.674
330.767	161.615
333.659	151.368
336.552	124.401
339.445	128.578
342.337	206.726
345.23	222.019
348.123	324.138
351.015	277.559
353.908	392.501
356.801	438.616
359.693	412.834
362.586	334.575
365.479	197.83
368.372	101.815
371.264	45.3953
374.157	13.3694
377.05	2.03052
379.942	27.2166
382.835	27.3115
385.728	21.8176
388.62	17.1101
391.513	35.9097
394.406	2.24219
397.299	4.32324
400.191	43.7454
403.084	122.659
405.977	210.584
408.869	319.168
411.762	444.139
414.655	625.808
417.548	760.158
420.44	845.371
423.333	888.223
426.226	907.774
429.118	841.693
432.011	751.58
434.904	572.549
437.796	507.707
440.689	342.207
443.582	356.287
446.474	237.689
449.367	173.811
452.26	89.7459
455.153	41.4678
458.045	47.6577
460.938	42.4971
463.831	13.2217
466.723	16.4062
469.616	49.8135
472.509	63.8887
475.401	54.8655
478.294	87.4394
481.187	73.7759
484.08	95.1809
486.972	134.124
489.865	141.055
492.758	177.077
495.65	175.86
498.543	228.252
501.436	289.197
504.329	364.245
507.221	442.182
510.114	516.063
513.006	591.074
515.899	663.205
518.792	666.039
521.685	702.938
524.577	782.871
527.47	895.696
530.363	986.58
533.255	1001.19
536.148	1113.82
539.041	1109.65
541.933	1072.55
544.826	954.369
547.719	759.245
550.612	598.535
553.504	421.588
556.397	298.888
559.29	238.259
562.182	133.79
565.075	22.8589
567.968	13.6045
570.861	3.15918
573.753	4.62476
576.646	2.02515
579.539	29.4436
582.431	29.1204
585.324	53.9106
588.217	135.727
591.109	174.129
594.002	313.349
596.895	418.019
599.788	546.758
602.68	702.924
605.573	913.185
608.466	1047.45
611.358	1105.03
614.251	1021.48
617.144	772.463
620.036	522.314
622.929	355.047
625.822	207.039
628.715	136.205
631.607	61.0095
634.5	38.8117
637.393	35.9185
640.285	10.8392
643.178	22.1532
646.071	26.197
648.963	6.71521
651.856	29.0742
654.749	25.1388
657.641	16.9281
660.534	25.4985
663.427	33.7499
666.32	50.5558
669.212	26.3093
672.105	136.239
674.998	77.4334
677.89	53.2443
680.783	83.9893
683.676	36.3892
686.568	34.287
689.461	27.4008
692.354	26.4828
695.246	33.1422
698.139	39.0919
701.032	36.45
703.925	1.35156
706.817	2.24255
709.71	13.4691
712.603	15.1564
715.495	20.4768
718.388	32.9646
721.281	49.6562
724.173	27.8506
727.066	25.1112
729.959	26.4385
732.852	24.3459
735.744	74.391
738.637	127.217
741.53	122.46
744.422	150.987
747.315	139.077
750.208	201.965
753.101	192.072
755.993	153.987
758.886	163.503
761.779	176.838
764.671	135.698
767.564	121.783
770.457	110.094
773.349	106.043
776.242	110.657
779.135	82.67
782.028	114.826
784.92	79.1854
787.813	75.7761
790.706	47.9006
793.598	41.5231
796.491	29.7188
799.384	13.8395
802.276	6.55798
805.169	3.40857
808.062	57.8923
810.955	33.7975
813.847	37.3003
816.74	53.9659
819.633	4.27075
822.525	35.4392
825.418	25.0658
828.311	17.363
831.203	12.6675
834.096	14.6921
836.989	4.7467
839.881	27.0051
842.774	16.653
845.667	25.0271
848.56	24.9138
851.452	30.4769
854.345	10.6727
857.238	1.14587
860.13	25.7435
863.023	3.70837
865.916	20.0594
868.808	7.66321
871.701	24.4462
874.594	11.0787
877.486	22.8468
880.379	12.9114
883.272	50.7898
886.165	52.6052
889.057	84.5113
891.95	92.4204
894.843	99.3064
897.735	103.36
900.628	76.8361
903.521	91.2483
906.413	82.4292
909.306	80.6123
912.199	56.2356
915.092	56.6299
917.984	47.9568
920.877	52.5825
923.77	86.3754
926.662	106.387
929.555	145.092
932.448	211.973
935.341	265.372
938.233	311.322
941.126	376.968
944.019	494.622
946.911	654.66
949.804	916.356
952.697	1077.66
955.589	1286.38
958.482	1496.41
961.375	1726
964.268	2015.16
967.16	2258.55
970.053	2544.67
972.946	2648.06
975.838	2564.3
978.731	2343.45
981.624	2020.29
984.516	1615.94
987.409	1300.75
990.302	1020.4
993.194	741.339
996.087	634.626
998.98	470.382
1001.87	368.26
1004.76	266.58
1007.66	175.862
1010.55	128.017
1013.44	75.0075
1016.34	5.5697
1019.23	20.0461
1022.12	5.52136
1025.01	5.79492
1027.91	44.0808
1030.8	1.27368
1033.69	71.6649
1036.59	82.3218
1039.48	217.444
1042.37	272.514
1045.26	382.358
1048.16	496.076
1051.05	581.709
1053.94	716.459
1056.83	813.953
1059.73	854.174
1062.62	855.312
1065.51	857.465
1068.4	764.933
1071.3	649.749
1074.19	568.052
1077.08	462.56
1079.97	435.18
1082.87	359.056
1085.76	335.158
1088.65	281.182
1091.55	302.196
1094.44	361.825
1097.33	359.446
1100.22	399.129
1103.12	390.563
1106.01	400.597
1108.9	400.848
1111.8	465.197
1114.69	450.455
1117.58	357.428
1120.47	372.235
1123.37	258.829
1126.26	221.258
1129.15	208.336
1132.04	120.286
1134.94	66.7322
1137.83	20.3845
1140.72	26.8423
1143.62	23.4341
1146.51	31.6226
1149.4	50.605
1152.29	44.2783
1155.19	10.7847
1158.08	26.5532
1160.97	38.043
1163.86	67.9014
1166.76	194.814
1169.65	330.347
1172.54	461.903
1175.43	641.57
1178.33	837.15
1181.22	1087.93
1184.11	1360.95
1187.01	1657.83
1189.9	1841.68
1192.79	2017
1195.68	2012.82
1198.58	2139.43
1201.47	2115.43
1204.36	2198.71
1207.25	2286.65
1210.15	2439.59
1213.04	2672.83
1215.93	2783.7
1218.83	2695.45
1221.72	2766.54
1224.61	2451.05
1227.5	1992.9
1230.4	1570.96
1233.29	930.448
1236.18	444.589
1239.07	46.835
1241.97	0
