Measurement: Raman, 514 nm, unoriented, Raman Data Processed
Mineral: Natrojarosite
Rruff sample: R050471
Ideal chemistry: NaFe^3+^_3_(SO_4_)_2_(OH)_6_
Locality: Bristol mine, Pioche, Lincoln County, Nevada, USA
Source: Marcus Origlieri
Description: Tan colored, fine-grained massive
Measured chemistry: (Na_0.60_K_0.30_Pb_0.10_)_Σ=1_(Fe^3+^_2.98_Al_0.02_)_Σ=3_((S_0.95_As_0.05_)_Σ=1_O_4_)_2_(OH)_6_
Raman shift (cm-1)	intensity
64.059	0
68.253	6.581
72.445	249.623
76.635	686.001
80.823	887.654
85.009	1309.78
89.193	1199.42
93.375	1365.07
97.554	1146.94
101.732	928.375
105.908	904.366
110.082	806.775
114.254	806.381
118.424	1055.21
122.592	1032.41
126.758	901.008
130.922	1711.06
135.083	4436.36
139.243	5034.44
143.401	1573.36
147.557	618.237
151.711	335.36
155.863	224.701
160.013	68.464
164.161	10.729
168.308	13.486
172.452	77.176
176.594	88.359
180.734	21.084
184.872	195.641
189.008	449.808
193.143	833.405
197.275	1334.42
201.405	1879.62
205.534	2495.55
209.66	3436.84
213.784	5111.43
217.907	9098.65
222.027	12156.2
226.146	9267.37
230.263	4601.48
234.377	2250.61
238.49	1266.26
242.601	852.98
246.709	639.689
250.816	538.287
254.921	417.599
259.024	363.487
263.125	372.808
267.224	326.525
271.321	306.609
275.416	416.035
279.51	569.781
283.601	911.758
287.69	1470.47
291.778	2381.36
295.863	3289.57
299.947	3241.06
304.029	2018.8
308.108	1123.78
312.186	622.992
316.262	361.426
320.336	201.08
324.408	104.95
328.478	42.032
332.546	44.023
336.612	84.157
340.677	102.381
344.739	14.902
348.799	308.538
352.858	642.708
356.915	829.059
360.969	898.409
365.022	810.718
369.073	447.902
373.122	159.222
377.169	27.726
381.215	8.572
385.258	4.274
389.299	0.537
393.339	18.265
397.376	94.538
401.412	144.041
405.446	271.75
409.478	497.644
413.508	769.714
417.536	1060.96
421.562	1757.4
425.586	3133.01
429.609	5939.8
433.629	9293.8
437.648	10448
441.665	10777.3
445.68	9256.85
449.693	7780.55
453.704	6204.4
457.713	3392.36
461.721	2300.46
465.726	1628.67
469.73	1637.98
473.731	2431.38
477.731	1516.84
481.729	1038.36
485.725	583.927
489.72	388.544
493.712	184.207
497.703	98.729
501.691	6.847
505.678	17.521
509.663	72.588
513.646	34.847
517.627	5.199
521.607	51.587
525.584	124.866
529.56	211.075
533.534	355.085
537.506	516.556
541.476	694.496
545.444	991.446
549.41	1196.1
553.375	1498.54
557.337	1890.68
561.298	2353.74
565.257	2524.65
569.214	2356.98
573.17	2026.41
577.123	1532.16
581.075	1156.73
585.024	1225.05
588.972	588.38
592.918	395.907
596.863	340.736
600.805	278.293
604.746	311.159
608.685	410.216
612.621	683.461
616.557	1774.05
620.49	6151.03
624.421	7166.29
628.351	2179.89
632.279	827.592
636.205	544.889
640.129	651.839
644.051	652.639
647.972	962.314
651.89	954.88
655.807	356.423
659.722	589.11
663.636	386.476
667.547	185.915
671.457	52.918
675.365	83.299
679.271	91.928
683.175	62.706
687.077	18.305
690.978	11.695
694.877	45.83
698.774	7.72
702.669	40.396
706.562	21.887
710.454	34.187
714.344	50.277
718.232	61.153
722.118	36.814
726.002	47.254
729.885	4.535
733.766	30.396
737.645	28.046
741.522	23.595
745.397	11.408
749.271	19.909
753.143	7.572
757.013	4.589
760.881	5.927
764.748	19.394
768.613	14.452
772.476	3.515
776.337	1.807
780.196	46.09
784.054	51.158
787.91	51.276
791.764	85.397
795.616	154.665
799.467	252.723
803.316	357.49
807.163	412.855
811.008	432.221
814.851	560.657
818.693	479.221
822.533	579.65
826.371	566.325
830.208	651.622
834.042	621.589
837.875	732.921
841.706	750.504
845.536	736.635
849.363	699.025
853.189	670.601
857.013	623.784
860.836	514.93
864.656	469.405
868.475	322.873
872.292	301.292
876.108	255.255
879.922	212.143
883.733	179.204
887.544	123.394
891.352	105.407
895.159	91.252
898.964	93.198
902.767	41.169
906.568	57.172
910.368	16.715
914.166	37.537
917.962	18.129
921.757	44.25
925.55	47.667
929.341	48.815
933.13	30.282
936.918	4.914
940.703	11.033
944.488	6.484
948.27	11.999
952.051	0.538
955.83	30.789
959.607	28.758
963.383	12.19
967.156	0.759
970.928	6.978
974.699	28.715
978.468	27.516
982.234	102.774
986	368.168
989.763	404.438
993.525	687.859
997.285	1347.38
1001.04	2324.01
1004.8	5269.73
1008.55	8667.53
1012.31	7975.43
1016.06	2913.41
1019.81	1877.49
1023.56	1709.65
1027.31	1382.91
1031.05	951.277
1034.79	649.755
1038.53	483.368
1042.27	475.665
1046.01	411.91
1049.75	392.641
1053.48	384.878
1057.22	431.832
1060.95	461.465
1064.68	600.291
1068.4	712.346
1072.13	838.57
1075.86	1013.98
1079.58	1219.58
1083.3	1477.38
1087.02	2061.56
1090.74	2798.8
1094.45	4433.69
1098.17	7384.97
1101.88	10007.6
1105.59	12017.5
1109.3	12630.2
1113.01	9224.25
1116.71	5259.98
1120.42	3237.06
1124.12	2640.64
1127.82	2161.83
1131.52	1990.78
1135.22	2147.1
1138.91	2415.47
1142.61	2921.7
1146.3	3905.74
1149.99	5034.69
1153.68	5808.5
1157.37	5557.05
1161.06	4157.72
1164.74	3108.51
1168.42	2365.42
1172.1	1760.44
1175.78	1435.58
1179.46	1146.83
1183.14	916.179
1186.81	754.639
1190.48	629.204
1194.15	484.866
1197.83	429.625
1201.49	352.965
1205.16	298.917
1208.82	192.953
1212.49	225.353
1216.15	162.3
1219.81	171.724
1223.46	123.54
1227.12	135.803
1230.78	125.756
1234.43	163.454
1238.08	104.571
1241.73	96.092
1245.38	72.686
1249.03	97.242
1252.67	40.96
1256.31	41.122
1259.95	80.35
1263.6	54.114
1267.23	60.456
1270.87	0.822
1274.51	16.346
1278.14	13.661
1281.77	15.568
1285.4	1.458
1289.03	21.388
1292.66	7.514
1296.28	9.712
1299.91	16.588
1303.53	42.221
1307.15	55.758
1310.77	45.779
1314.38	42.414
1318	99.604
1321.61	58.772
1325.23	26.911
1328.84	53.007
1332.45	20.01
1336.06	37.907
1339.66	27.722
1343.27	6.534
1346.87	4.137
1350.47	30.729
1354.07	16.765
1357.67	17.197
1361.26	0.112
1364.86	12.769
1368.45	5.655
1372.04	9.455
1375.63	4.824
1379.22	5.934
1382.81	4.035
1386.39	2.76
1389.98	2.301
1393.56	12.735
1397.14	29.104
1400.72	37.931
1404.3	30.845
1407.87	51.593
1411.45	36.287
1415.02	65.231
1418.59	42.162
1422.16	34.248
1425.73	36.032
1429.29	68.985
1432.86	49.974
1436.42	95.191
1439.98	94.873
1443.54	79.392
1447.1	100.426
1450.66	98.254
1454.21	51.467
1457.77	75.693
1461.32	53.343
1464.87	74.354
1468.42	61.248
1471.96	57.135
1475.51	43.179
1479.06	63.907
1482.6	21.064
1486.14	18.712
1489.68	21.14
1493.22	54.06
1496.75	59.137
1500.29	53.759
1503.82	26.548
1507.35	2.255
1510.88	28.804
1514.41	25.96
1517.94	24.274
1521.46	0
