Measurement: Raman, 514 nm, unoriented, Raman Data Processed
Mineral: Natrolite
Rruff sample: R040022
Ideal chemistry: Na_2_(Si_3_Al_2_)O_10_2H_2_O
Locality: Patterson, Passaic County, New Jersey, USA
Source: University of Arizona Mineral Museum
Description: White fine fibrous mass
Measured chemistry: (Na_1.87_Ca_0.08_[box]_0.05_)_Σ=2_(Si_2.97_Al_2.03_)O_10_·1.95H_2_O; H_2_O estimated by difference
Raman shift (cm-1)	intensity
121.203	0
125.369	662.072
129.534	37.124
133.696	310.69
137.857	1663.36
142.016	2315.38
146.172	2091.13
150.327	1673.13
154.48	3515.17
158.63	6454.82
162.779	7952.76
166.926	5653.72
171.07	3457.01
175.213	2506.74
179.354	1830.62
183.493	1828.89
187.63	1965.85
191.765	1578.8
195.898	1551.33
200.029	2305.16
204.158	3384.9
208.285	3817.94
212.41	1901.51
216.533	793.975
220.654	420.572
224.773	106.344
228.891	154.634
233.006	215.971
237.119	768.999
241.231	954.15
245.34	475.15
249.448	69.8223
253.553	227.986
257.657	132.354
261.758	97.9014
265.858	315.494
269.956	378.521
274.052	401.007
278.146	115.862
282.237	11.0151
286.327	72.2686
290.416	27.7398
294.502	195.398
298.586	642.563
302.668	1404.42
306.749	1587.77
310.827	1020.22
314.903	343.889
318.978	157.597
323.051	221.141
327.121	375.571
331.19	474.074
335.257	460.715
339.322	348.816
343.385	396.444
347.446	531.732
351.505	659.552
355.563	922.262
359.618	1182.27
363.672	1065.39
367.723	644.899
371.773	430.109
375.821	382.691
379.866	419.692
383.91	284.821
387.952	255.206
391.992	292.222
396.031	300.127
400.067	374.497
404.101	555.977
408.134	750.374
412.165	1049.18
416.193	1039.35
420.22	984.03
424.245	1072.83
428.268	1813.67
432.289	3484.87
436.309	6282.71
440.326	10397.8
444.342	9647.03
448.355	4972.72
452.367	2672.01
456.377	1289.87
460.385	966.055
464.391	769.183
468.395	772.027
472.398	875.101
476.398	1106.57
480.397	1651.86
484.394	1953.05
488.389	2035.43
492.382	1791.79
496.373	1590.86
500.362	1314.31
504.349	1316.26
508.335	1389.97
512.319	1749.21
516.3	2230.72
520.28	3036.98
524.259	4918.03
528.235	9265.36
532.209	14338.9
536.182	11877.1
540.152	5955.76
544.121	3030.36
548.088	1628.3
552.053	1079.13
556.017	648.63
559.978	512.55
563.938	431.957
567.895	247.683
571.851	316.511
575.805	203.858
579.758	206.956
583.708	119.542
587.657	185.595
591.603	301.373
595.548	202.337
599.491	234.508
603.432	160.335
607.372	45.8594
611.309	28.2539
615.245	34.6357
619.179	78.7822
623.111	1.51172
627.041	12.2842
630.97	8.5293
634.896	13.7695
638.821	65.8496
642.744	2.78711
646.665	8.80762
650.584	40.8359
654.502	184.63
658.418	105.635
662.331	15.248
666.244	96.9971
670.154	80.4248
674.062	141.406
677.969	208.576
681.874	141.831
685.777	319.081
689.678	527.631
693.577	676.764
697.475	834.78
701.371	1130.71
705.265	1007.73
709.157	1149.74
713.047	866.707
716.936	870.971
720.823	918.328
724.708	973.93
728.591	946.761
732.472	669.383
736.352	323.164
740.23	183.005
744.106	5.66699
747.98	136.177
751.853	135.766
755.723	97.8066
759.592	132.398
763.459	134.852
767.325	60.7764
771.188	78.7412
775.05	49.3789
778.91	27.4795
782.768	9.02441
786.625	0.472656
790.479	60.5283
794.332	7.60742
798.183	6.63769
802.033	55.5596
805.88	154.085
809.726	106.44
813.57	54.9736
817.413	39.8145
821.253	77.4326
825.092	170.852
828.929	126.337
832.764	109.579
836.598	13.3096
840.429	97.6592
844.259	118.48
848.088	0.141602
851.914	114.577
855.739	0.171875
859.562	71.8574
863.383	117.725
867.203	109.382
871.02	191.856
874.836	144.167
878.65	116.385
882.463	166.432
886.274	127.329
890.083	209.977
893.89	140.4
897.695	49.3935
901.499	154.469
905.301	131.232
909.102	260.511
912.9	79.4883
916.697	282.84
920.492	206.413
924.285	180.885
928.077	180.57
931.867	195.003
935.655	420.231
939.442	388.383
943.226	240.049
947.009	238.656
950.791	278.446
954.57	388.881
958.348	667.783
962.124	1053.77
965.899	1505.69
969.671	1180.43
973.442	938.386
977.211	845.105
980.979	715.926
984.745	760.023
988.509	641.146
992.271	642.852
996.032	692.051
999.791	974.499
1003.55	620.018
1007.3	704.461
1011.06	800.529
1014.81	644.311
1018.56	804.557
1022.31	1036.31
1026.06	1334.05
1029.8	1450.08
1033.55	1934.48
1037.29	3362.12
1041.03	4290.02
1044.77	2959.98
1048.5	1757.58
1052.24	1207.13
1055.97	946.079
1059.7	768.857
1063.43	768.626
1067.16	815.052
1070.89	819.099
1074.61	1096.59
1078.34	1082.56
1082.06	1293.95
1085.78	1411.54
1089.5	1558.4
1093.21	1453.61
1096.93	1134.74
1100.64	653.121
1104.35	656.302
1108.06	329.218
1111.77	280.956
1115.48	233.913
1119.18	277.945
1122.89	540.324
1126.59	359.453
1130.29	17.5635
1133.99	131.856
1137.68	240.788
1141.38	17.5391
1145.07	2.9082
1148.76	1.66797
1152.45	33.8252
1156.14	6.3457
1159.83	7.28711
1163.51	45.3291
1167.19	174.568
1170.88	38.8672
1174.56	9.45117
1178.23	73.1699
1181.91	6.53613
1185.59	232.335
1189.26	198.764
1192.93	143.595
1196.6	228.676
1200.27	15.1025
1203.94	223.663
1207.6	311.171
1211.27	8.75
1214.93	65.6016
1218.59	220.7
1222.25	149.233
1225.9	183.723
1229.56	114.641
1233.21	105.324
1236.86	35.9453
1240.51	43.1504
1244.16	203.508
1247.81	156.168
1251.45	138.26
1255.1	206.867
1258.74	46.9297
1262.38	13.1602
1266.02	108.452
1269.66	28.3701
1273.29	199.906
1276.93	50.6504
1280.56	41.8721
1284.19	39.6826
1287.82	32.6572
1291.45	13.4863
1295.07	149.884
1298.7	28.3545
1302.32	1.86133
1305.94	62.8916
1309.56	139.043
1313.18	48.252
1316.8	2.17773
1320.41	19.2422
1324.02	10.4717
1327.63	256.836
1331.24	56.4668
1334.85	111.439
1338.46	174.393
1342.06	142.629
1345.67	117.697
1349.27	335.086
1352.87	228.365
1356.47	258.182
1360.07	354.473
1363.66	166.803
1367.25	219.773
1370.85	312.727
1374.44	238.785
1378.03	181.463
1381.61	154.34
1385.2	165.049
1388.78	102.291
1392.37	211.022
1395.95	419.023
1399.53	350.652
1403.1	463.756
1406.68	138.269
1410.26	256.031
1413.83	227.147
1417.4	229.283
1420.97	391.984
1424.54	318.006
1428.1	238.805
1431.67	277.256
1435.23	380.008
1438.8	372.529
1442.36	419.783
1445.91	536.594
1449.47	293.857
1453.03	368.633
1456.58	404.769
1460.13	362.158
1463.68	212.883
1467.23	215.916
1470.78	420.977
1474.33	266.711
1477.87	336.853
1481.42	266.262
1484.96	233.863
1488.5	135.795
1492.04	137.803
1495.57	355.039
1499.11	71.7617
1502.64	106.049
1506.17	79.7344
1509.71	199.242
1513.23	195.647
1516.76	493.074
1520.29	286.736
