Measurement: Raman, 514 nm, unoriented, Raman Data Processed
Mineral: Natrolite
Rruff sample: R040022
Ideal chemistry: Na_2_(Si_3_Al_2_)O_10_2H_2_O
Locality: Patterson, Passaic County, New Jersey, USA
Source: University of Arizona Mineral Museum
Description: White fine fibrous mass
Measured chemistry: (Na_1.87_Ca_0.08_[box]_0.05_)_Σ=2_(Si_2.97_Al_2.03_)O_10_·1.95H_2_O; H_2_O estimated by difference
Raman shift (cm-1)	intensity
78.139	0
82.351	70.749
86.563	0
90.769	266.923
94.975	83.311
99.18	99.79
103.38	279.62
107.58	1411.58
111.776	4108.43
115.971	3483.36
120.163	2150.75
124.352	1357.61
128.541	197.8
132.727	93.185
136.91	698.819
141.091	1747.22
145.27	1710.02
149.447	371.77
153.621	851.488
157.794	2805.15
161.964	4580.41
166.132	3108.59
170.296	1437.92
174.46	855.316
178.621	190.673
182.781	262.931
186.938	456.826
191.091	4.852
195.244	0
199.395	301.231
203.542	1022.02
207.688	1707.43
211.832	930.145
215.973	395.02
220.113	120.08
224.251	0
228.384	0
232.518	34.594
236.649	423.989
240.776	1105.53
244.903	577.581
249.026	183.368
253.149	13.904
257.269	0
261.385	135.842
265.502	282.053
269.614	482.914
273.726	400.588
277.834	259.432
281.941	29.729
286.045	25.674
290.148	45.562
294.247	175.127
298.346	267.299
302.441	692.388
306.536	1428.79
310.627	695.22
314.717	196.523
318.803	6.325
322.889	11.374
326.971	199.645
331.053	307.543
335.131	197.021
339.208	59.079
343.282	55.304
347.355	67.231
351.424	122.431
355.493	419.349
359.558	543.124
363.622	499.686
367.683	189.316
371.743	92.114
375.8	55.264
379.856	45.532
383.91	0
387.96	19.385
392.01	0
396.056	39.189
400.101	0
404.143	78.693
408.183	178.713
412.221	369.202
416.257	227.852
420.291	227.377
424.324	399.451
428.354	765.107
432.381	1326.71
436.407	2732.79
440.431	5642.16
444.453	6300.34
448.471	3300.34
452.489	1366.27
456.505	457.103
460.518	137.823
464.528	0
468.537	0
472.544	0
476.549	86.556
480.552	244.325
484.552	441.66
488.55	463.151
492.546	448.394
496.541	286.434
500.533	43.69
504.523	5.446
508.511	93.468
512.497	369.071
516.481	613.099
520.463	925.162
524.443	1825.24
528.421	4233.41
532.396	8119.15
536.37	7402.98
540.343	3387.82
544.312	1341.58
548.28	614.728
552.244	298.551
556.208	0
560.169	0
564.129	21.377
568.085	44.348
572.041	63.171
575.994	76.406
579.945	0
583.893	221.642
587.841	174.669
591.786	137.223
595.729	178.138
599.669	226.827
603.609	99.694
607.546	53.508
611.479	12.811
615.413	57.136
619.343	60.709
623.271	93.017
627.198	104.197
631.124	50.401
635.046	83.444
638.966	125.739
642.885	138.028
646.802	38.848
650.716	0
654.629	131.627
658.539	146.711
662.447	186.192
666.354	53.335
670.257	73.119
674.161	0
678.06	94.257
681.96	126.342
685.856	68.758
689.75	122.178
693.643	227.757
697.533	518.4
701.421	628.336
705.307	611.524
709.192	458.168
713.075	378.15
716.955	351.785
720.833	449.537
724.71	540.64
728.583	517.286
732.456	336.625
736.327	125.402
740.195	68.569
744.062	0.917
747.927	62.909
751.789	91.39
755.65	0
759.508	129.623
763.364	75.218
767.219	225.562
771.072	125.094
774.922	0
778.771	30.142
782.619	149.536
786.463	126.813
790.306	75.298
794.146	79.416
797.986	62.907
801.822	165.389
805.658	247.88
809.491	121.475
813.322	54.86
817.151	9.185
820.978	94.414
824.802	110.535
828.627	47.404
832.447	64.878
836.267	22.691
840.085	190.705
843.9	128.901
847.713	325.748
851.525	132.822
855.335	279.15
859.143	185.51
862.947	109.65
866.752	322.389
870.554	142.813
874.354	192.215
878.151	230.307
881.947	157.829
885.742	64.589
889.534	200.615
893.325	66.098
897.112	107.881
900.9	192.056
904.684	6.653
908.466	4.759
912.247	360.837
916.026	144.806
919.802	0
923.578	0
927.351	104.082
931.122	86.555
934.89	210.238
938.658	312.589
942.424	62.331
946.187	0
949.948	11.239
953.708	24.098
957.466	257.208
961.221	610.853
964.976	925.318
968.729	688.186
972.479	513.276
976.226	268.743
979.973	314.43
983.718	350.049
987.46	184.66
991.2	128.132
994.94	145.634
998.677	19.763
1002.41	113.099
1006.14	276.289
1009.88	80.56
1013.61	0
1017.33	221.078
1021.06	378.22
1024.78	377.562
1028.51	570.166
1032.22	842.671
1035.94	1507.95
1039.66	2009.04
1043.37	1074.34
1047.09	482.244
1050.8	122.095
1054.51	5.335
1058.21	61.72
1061.92	100.953
1065.62	182.767
1069.32	87.421
1073.02	134.978
1076.72	234.853
1080.41	356.39
1084.11	580.839
1087.8	628.896
1091.49	590.048
1095.18	382.755
1098.87	0
1102.55	84.193
1106.23	114.257
1109.91	161.228
1113.59	95.423
1117.27	141.658
1120.95	125.013
1124.62	0
1128.29	27.222
1131.96	82.753
1135.63	166.275
1139.3	324
1142.96	186.234
1146.62	41.037
1150.28	217.705
1153.94	0
1157.6	0
1161.25	80.189
1164.91	292.271
1168.56	176.839
1172.21	217.578
1175.86	173.183
1179.5	109.525
1183.15	157.376
1186.79	298.054
1190.43	93.841
1194.07	219.236
1197.71	454.361
1201.34	310.916
1204.97	280.343
1208.61	223.845
1212.23	227.273
1215.86	140.728
1219.49	0
1223.11	93.962
1226.74	159.636
1230.36	234.662
1233.97	190.41
1237.59	176.966
1241.21	202.478
1244.82	161.791
1248.43	101.949
1252.04	123.017
1255.65	184.929
1259.26	294.853
1262.86	287.167
1266.46	131.294
1270.07	115.591
1273.67	139.861
1277.26	0
1280.86	109.279
1284.45	133.142
1288.05	284.587
1291.63	144.908
1295.22	88.015
1298.81	55.587
1302.39	209.757
1305.98	213.455
1309.56	196.927
1313.14	0
1316.72	63.13
1320.29	60.14
1323.87	115.812
1327.44	318.187
1331.01	167.447
1334.58	102.542
1338.15	177.984
1341.71	212.042
1345.28	42.082
1348.84	91.412
1352.4	25.074
1355.96	117.994
1359.51	260.634
1363.07	283.693
1366.62	368.824
1370.17	203.007
1373.72	87.126
1377.27	241.447
1380.82	285.91
1384.36	0
1387.9	157.373
1391.44	169.966
1394.98	176.96
1398.52	267.8
1402.06	287.486
1405.59	423.755
1409.12	210.208
1412.65	0
1416.18	149.636
1419.71	241.568
1423.23	278.828
1426.76	160.037
1430.28	97.99
1433.8	205.134
1437.32	455.683
1440.83	276.779
1444.35	359.246
1447.86	91.855
1451.37	148.167
1454.88	286.777
1458.39	264.343
1461.9	308.242
1465.4	175.873
1468.9	185.181
1472.41	278.32
1475.9	264.931
1479.4	55.08
1482.9	427.828
1486.39	83.029
1489.88	272.81
1493.38	289.218
1496.86	347.648
1500.35	78.357
1503.84	260.283
1507.32	0
1510.81	0
1514.29	156.679
1517.76	153.789
1521.24	401.365
