Measurement: Raman, 532 nm, unoriented, Raman Data Processed
Mineral: Natrolite
Rruff sample: R060561
Ideal chemistry: Na_2_(Si_3_Al_2_)O_10_2H_2_O
Locality: California, USA
Source: Gemological Institute of America
Description: White fragment
Measured chemistry: Na_2.00_(Si_3.00_Al_2.00_)O_10_Â·2H_2_O
Raman shift (cm-1)	intensity
89.7832	0
93.158	18.5106
96.5328	24.5984
99.9077	45.1852
103.282	223.055
106.657	672.263
110.032	1383.33
113.407	3138.4
116.782	2370.08
120.157	2825.73
123.531	5904.41
126.906	1314.23
130.281	415.068
133.656	474.339
137.031	974.509
140.405	1953.49
143.78	2489.26
147.155	1340.49
150.53	388.848
153.905	343.728
157.28	759.886
160.654	1710.06
164.029	2176.4
167.404	1084.93
170.779	339.78
174.154	54.6427
177.528	47.6345
180.903	8.18835
184.278	184.252
187.653	112.618
191.028	41.7102
194.403	211.938
197.777	516.002
201.152	800.237
204.527	1477.44
207.902	2238.02
211.277	1419.43
214.651	664.936
218.026	467.374
221.401	237.173
224.776	59.8162
228.151	34.7725
231.525	80.087
234.9	259.554
238.275	750.243
241.65	1629.19
245.025	933.144
248.4	144.702
251.774	23.0044
255.149	41.7185
258.524	16.4436
261.899	53.5947
265.274	177.194
268.649	418.179
272.023	694.77
275.398	469.165
278.773	152.626
282.148	52.1917
285.523	56.199
288.897	119.355
292.272	172.206
295.647	235.346
299.022	398.273
302.397	808.962
305.772	1734.75
309.146	2063.81
312.521	580.762
315.896	127.794
319.271	25.8119
322.646	13.0586
326.02	63.4265
329.395	182.121
332.77	317.018
336.145	157.726
339.52	47.0903
342.894	37.7091
346.269	60.286
349.644	83.0215
353.019	135.029
356.394	234.76
359.769	383.728
363.143	372.347
366.518	176.968
369.893	61.0825
373.268	12.2722
376.643	0.812378
380.017	8.15271
383.392	9.6217
386.767	6.28674
390.142	0.514526
393.517	8.8147
396.892	25.9879
400.266	51.7828
403.641	94.2227
407.016	148.949
410.391	229.533
413.766	302.542
417.14	308.97
420.515	315.733
423.89	427.776
427.265	746.009
430.64	1263.03
434.014	2081.38
437.389	3909.81
440.764	7415.55
444.139	8956.75
447.514	3662.08
450.889	1356.04
454.263	619.521
457.638	321.554
461.013	163.567
464.388	81.6155
467.763	34.1733
471.137	7.52112
474.512	12.3494
477.887	12.1096
481.262	0.60376
484.637	26.1237
488.012	10.3427
491.386	28.2079
494.761	55.1824
498.136	105.256
501.511	168.636
504.886	271.262
508.26	412.325
511.635	594.021
515.01	797.756
518.385	1012.87
521.76	1228.75
525.135	1543.24
528.509	2298.68
531.884	3752.46
535.259	4657.72
538.634	2858.59
542.009	1329.78
545.384	661.019
548.758	353.367
552.133	193.352
555.508	94.3791
558.883	47.6329
562.258	23.6916
565.632	5.98755
569.007	0.699951
572.382	8.11096
575.757	12.9291
579.132	12.4457
582.506	20.3059
585.881	52.7549
589.256	95.8687
592.631	177.488
596.006	274.439
599.381	299.239
602.755	189.567
606.13	90.3473
609.505	41.2162
612.88	19.057
616.255	9.56909
619.63	4.05762
623.004	0.121948
626.379	3.41711
629.754	4.55676
633.129	3.22888
636.504	1.55444
639.878	2.25928
643.253	9.9082
646.628	24.1494
650.003	38.509
653.378	47.2059
656.752	52.8702
660.127	56.5891
663.502	61.7364
666.877	65.6471
670.252	70.9488
673.626	86.3082
677.001	96.7566
680.376	125.629
683.751	160.477
687.126	213.362
690.501	295.163
693.875	393.204
697.25	540.195
700.625	701.712
704	782.212
707.375	681.799
710.75	499.95
714.124	382.52
717.499	335.044
720.874	331.175
724.249	367.514
727.624	379.843
730.998	310.08
734.373	190.512
737.748	104.16
741.123	55.6644
744.498	36.8248
747.872	17.9062
751.247	18.4059
754.622	14.3485
757.997	4.604
761.372	3.04431
764.747	3.46265
768.121	3.21728
771.496	4.55273
774.871	6.0846
778.246	0.230957
781.621	2.4646
784.995	2.73498
788.37	3.71704
791.745	4.43616
795.12	5.85974
798.495	9.74121
801.87	13.8962
805.244	20.4904
808.619	30.5137
811.994	26.11
815.369	32.4739
818.744	35.0287
822.119	35.0125
825.493	37.5122
828.868	36.6987
832.243	38.5161
835.618	35.5713
838.993	37.8389
842.367	38.5486
845.742	46.8732
849.117	39.9784
852.492	37.572
855.867	39.7225
859.241	49.9116
862.616	48.3247
865.991	44.7327
869.366	41.6033
872.741	45.9708
876.115	39.973
879.49	36.7623
882.865	24.3398
886.24	18.7531
889.615	14.9829
892.99	20.4436
896.364	15.5149
899.739	6.96533
903.114	3.13843
906.489	4.07544
909.864	1.4491
913.239	1.01587
916.613	1.3269
919.988	0.702637
923.363	8.29236
926.738	4.0083
930.113	3.79529
933.487	4.18347
936.862	8.33594
940.237	15.0736
943.612	29.5917
946.987	46.9175
950.361	90.0968
953.736	178.904
957.111	344.981
960.486	663.151
963.861	1195.28
967.236	1339.16
970.61	714.154
973.985	350.695
977.36	190.244
980.735	100.751
984.11	60.5911
987.485	51.1066
990.859	70.9362
994.234	126.645
997.609	244.707
1000.98	249.861
1004.36	87.1105
1007.73	22.332
1011.11	12.0034
1014.48	1.82336
1017.86	2.27441
1021.23	1.93665
1024.61	22.5024
1027.98	63.3132
1031.36	132.038
1034.73	293.211
1038.11	624.64
1041.48	810.406
1044.86	402.85
1048.23	164.088
1051.61	83.6078
1054.98	51.9415
1058.36	31.1741
1061.73	35.6266
1065.11	35.6681
1068.48	51.186
1071.86	86.5361
1075.23	142.599
1078.6	220.06
1081.98	295.185
1085.35	297.945
1088.73	219.795
1092.1	145.761
1095.48	88.9164
1098.85	43.9049
1102.23	28.6901
1105.6	18.054
1108.98	9.80151
1112.35	7.36133
1115.73	6.89807
1119.1	0.676636
1122.48	3.81116
1125.85	3.66675
1129.23	0.638428
1132.6	3.12732
1135.98	0.258789
1139.35	1.12488
1142.73	6.97107
1146.1	5.86108
1149.48	4.57446
1152.85	4.58667
1156.22	9.21094
1159.6	12.2477
1162.97	10.18
1166.35	9.70288
1169.72	19.3317
1173.1	13.2057
1176.47	18.167
1179.85	18.273
1183.22	16.2272
1186.6	17.1471
1189.97	19.6584
1193.35	17.5303
1196.72	14.9294
1200.1	11.7919
1203.47	15.583
1206.85	17.1785
1210.22	18.4298
1213.6	13.6868
1216.97	8.11609
1220.35	18.6342
1223.72	16.7474
1227.1	7.38623
1230.47	6.93457
1233.85	14.3906
1237.22	12.6376
1240.6	6.89917
1243.97	6.93372
1247.35	12.4752
1250.72	18.4296
1254.1	14.184
1257.47	14.2852
1260.85	7.84814
1264.22	5.81702
1267.59	2.4491
1270.97	1.24634
1274.34	2.43445
1277.72	7.17773
1281.09	3.52539
1284.47	3.18298
1287.84	1.82727
1291.22	4.12573
1294.59	3.77332
1297.97	0.24646
1301.34	0.529785
