Measurement: Raman, 780 nm, unoriented, Raman Data Processed
Mineral: Natrolite
Rruff sample: R050589
Ideal chemistry: Na_2_(Si_3_Al_2_)O_10_2H_2_O
Locality: Mont Saint-Hilaire, Rouville County, Quebec, Canada
Source: Bob Downs
Description: White to colorless prismatic crystals associated with aegirine
Measured chemistry: Na_2.00_(Si_3.00_Al_2.00_)O_10_Â·2H_2_O
Raman shift (cm-1)	intensity
131.599	0
134.492	1.22629
137.384	25.261
140.277	64.3207
143.17	111.823
146.062	99.8067
148.955	90.0299
151.848	130.054
154.741	215.441
157.633	348.178
160.526	477.606
163.419	421.493
166.311	252.958
169.204	162.561
172.097	136.932
174.989	103.222
177.882	58.5456
180.775	58.6818
183.667	85.6778
186.56	98.0389
189.453	62.1495
192.346	39.5102
195.238	43.9337
198.131	64.7276
201.024	98.6406
203.916	143.026
206.809	151.092
209.702	92.9509
212.595	48.032
215.487	24.2928
218.38	12.2504
221.273	6.46983
224.165	1.55614
227.058	7.21487
229.951	6.77882
232.843	4.05124
235.736	2.96223
238.629	13.0834
241.522	15.0775
244.414	5.97051
247.307	0.590637
250.2	1.08315
253.092	0.252502
255.985	3.29437
258.878	6.08714
261.77	10.7403
264.663	13.3204
267.556	17.6329
270.449	24.3883
273.341	26.5964
276.234	24.5974
279.127	21.6329
282.019	20.2445
284.912	22.975
287.805	24.0298
290.697	26.8136
293.59	27.9072
296.483	33.9736
299.375	46.1252
302.268	62.2629
305.161	75.2272
308.054	58.5992
310.946	26.6309
313.839	13.8138
316.732	9.90503
319.624	9.09793
322.517	12.4175
325.41	13.4935
328.302	19.2836
331.195	24.9334
334.088	23.9984
336.981	21.2275
339.873	21.0281
342.766	20.1709
345.659	22.5141
348.551	26.0952
351.444	29.6246
354.337	35.1561
357.229	42.551
360.122	41.3371
363.015	29.5742
365.908	17.1675
368.8	10.2452
371.693	5.02786
374.586	2.34918
377.478	0.740051
380.371	0.687515
383.264	2.77063
386.156	2.05771
389.049	2.07349
391.942	2.45422
394.834	0.431488
397.727	0.600708
400.62	3.07665
403.513	3.45404
406.405	8.58461
409.298	15.5268
412.191	18.7379
415.083	17.0968
417.976	20.2824
420.869	30.0802
423.762	52.3811
426.654	81.2507
429.547	114.999
432.44	163.106
435.332	239.357
438.225	348.236
441.118	430.435
444.01	339.446
446.903	196.911
449.796	107.92
452.688	56.1571
455.581	32.8758
458.474	17.2756
461.366	9.60286
464.259	3.89696
467.152	3.68556
470.045	4.19113
472.937	10.0599
475.83	16.7196
478.723	27.7821
481.615	33.8633
484.508	37.0486
487.401	35.7115
490.293	31.3282
493.186	28.6502
496.079	21.9587
498.972	16.4194
501.864	16.8641
504.757	19.8767
507.65	28.8952
510.542	43.1265
513.435	61.95
516.328	93.8408
519.221	128.732
522.113	167.491
525.006	224.503
527.899	320.29
530.791	444.386
533.684	484.204
536.577	332.161
539.469	174.125
542.362	90.9333
545.255	50.5167
548.148	29.2163
551.04	16.1062
553.933	8.17595
556.826	3.91994
559.718	1.1822
562.611	0.806107
565.504	1.59964
568.396	1.59369
571.289	0.382996
574.182	0.735291
577.074	0.348831
579.967	0.99733
582.86	3.23486
585.753	2.38417
588.645	6.34524
591.538	6.47039
594.431	8.20922
597.323	8.50829
600.216	7.36774
603.109	4.11455
606.001	3.26331
608.894	2.06896
611.787	2.36232
614.68	1.29609
617.572	1.16335
620.465	1.90396
623.358	0.201073
626.25	1.71626
629.143	1.16498
632.036	1.52812
634.928	1.01271
637.821	1.22661
640.714	0.847076
643.606	0.405357
646.499	0.013229
649.392	0.028221
652.285	0.59008
655.177	1.19862
658.07	1.74497
660.963	1.79879
663.855	1.71415
666.748	4.03331
669.641	5.10093
672.534	4.09013
675.426	4.30266
678.319	5.88322
681.212	7.81726
684.104	8.63806
686.997	12.2727
689.89	14.6176
692.782	18.4725
695.675	24.1618
698.568	28.0436
701.461	30.1888
704.353	30.5769
707.246	31.0417
710.139	26.9005
713.031	26.42
715.924	27.3262
718.817	27.5215
721.709	29.5756
724.602	30.463
727.495	31.5033
730.388	25.0569
733.28	16.4658
736.173	11.5713
739.066	7.15028
741.958	5.51387
744.851	3.12628
747.744	2.04211
750.636	2.23359
753.529	0.37944
756.422	1.26022
759.314	0.997543
762.207	0.428276
765.1	0.638504
767.993	0.905121
770.885	0.543571
773.778	0.82798
776.671	0.503967
779.563	0.788857
782.456	0.282318
785.349	0.467293
788.241	0.509064
791.134	0.599838
794.027	1.83736
796.919	0.346741
799.812	2.77526
802.705	2.31438
805.598	3.16126
808.49	1.66238
811.383	2.19702
814.276	3.29719
817.168	3.41818
820.061	3.9094
822.954	3.3327
825.846	2.9033
828.739	3.69888
831.632	4.12727
834.525	3.35782
837.417	5.04638
840.31	4.78588
843.203	4.2468
846.095	4.08641
848.988	4.06433
851.881	4.03796
854.774	4.02682
857.666	4.36347
860.559	3.96049
863.452	4.22939
866.344	4.39869
869.237	3.51749
872.13	3.21573
875.022	3.22948
877.915	3.96541
880.808	2.92062
883.7	3.93998
886.593	2.41833
889.486	2.89939
892.379	2.24835
895.271	2.0633
898.164	1.54063
901.057	0.302498
903.949	1.30702
906.842	0.134438
909.735	1.43556
912.627	0.297035
915.52	1.23299
918.413	0.382698
921.306	0.053406
924.198	0.231674
927.091	0.43013
929.984	0.051666
932.876	0.054123
935.769	0.459503
938.662	1.22992
941.554	0.533226
944.447	1.28243
947.34	1.00223
950.232	1.65396
953.125	2.44708
956.018	3.29685
958.911	5.30562
961.803	10.8872
964.696	11.8966
967.589	9.78754
970.481	7.84596
973.374	5.85747
976.267	5.53497
979.159	4.97206
982.052	2.19039
984.945	0.210663
987.838	1.13425
990.73	0.21376
993.623	0.886032
996.516	1.92356
999.408	2.32774
1002.3	4.72291
1005.19	5.29511
1008.09	5.37977
1010.98	4.61389
1013.87	4.39022
1016.76	3.68031
1019.66	8.28339
1022.55	10.534
1025.44	15.8963
1028.34	26.6015
1031.23	36.4261
1034.12	52.897
1037.01	78.3058
1039.91	89.0677
1042.8	62.5088
1045.69	34.615
1048.58	20.3463
1051.48	13.0847
1054.37	9.97481
1057.26	8.31124
1060.15	6.46909
1063.05	7.66115
1065.94	8.4608
1068.83	11.8605
1071.73	14.8904
1074.62	17.2035
1077.51	21.7242
1080.4	24.1009
1083.3	27.0544
1086.19	27.9473
1089.08	28.9539
1091.97	28.8197
1094.87	20.9845
1097.76	12.0052
1100.65	7.13405
1103.55	4.93711
1106.44	2.47751
1109.33	1.89136
1112.22	0.982887
1115.12	1.00131
1118.01	0.249634
1120.9	0.136482
1123.79	0.725746
1126.69	1.32079
1129.58	0.653038
1132.47	0.227226
1135.37	0.060799
1138.26	0.423027
1141.15	0.565697
1144.04	0.384117
1146.94	0.051666
1149.83	0.629463
1152.72	0.001152
1155.61	0.128227
1158.51	1.29438
1161.4	0.490395
1164.29	1.52087
1167.18	1.50369
1170.08	1.38233
1172.97	1.80218
1175.86	1.63179
1178.76	1.66631
1181.65	2.034
1184.54	1.85949
1187.43	1.74834
1190.33	1.78633
1193.22	1.88751
1196.11	1.96194
1199.01	1.86552
1201.9	2.45972
1204.79	1.2341
1207.68	2.45722
1210.58	0.348083
1213.47	1.86398
1216.36	1.29184
1219.25	1.36746
1222.15	0.527832
1225.04	0.829643
1227.93	1.22648
1230.82	1.70047
1233.72	0.123795
1236.61	2.07857
1239.5	1.2683
1242.39	1.23677
1245.29	0.916199
1248.18	0.957001
1251.07	0.326248
1253.97	1.12865
1256.86	1.26961
1259.75	1.0197
1262.64	1.28978
1265.54	1.71875
1268.43	1.22374
1271.32	0.41111
1274.21	0.823753
1277.11	0.082512
1280	0.925102
1282.89	0.693825
1285.79	0.157066
