Measurement: Raman, 780 nm, unoriented, Raman Data Processed
Mineral: Natroalunite
Rruff sample: R060406
Ideal chemistry: NaAl_3_(SO_4_)_2_(OH)_6_
Locality: Sugar Loaf Butte, Arizona, USA
Source: American Museum of Natural History
Description: Tan colored consolidated powder
Raman shift (cm-1)	intensity
165.333	0
168.226	0.096924
171.119	5.79517
174.012	1.09021
176.904	5.64502
179.797	1.99243
182.69	2.74292
185.582	10.1168
188.475	1.88953
191.368	5.20398
194.261	7.41736
197.153	8.87195
200.046	6.54431
202.939	12.5101
205.831	18.9115
208.724	15.415
211.617	19.9264
214.509	42.1658
217.402	57.6649
220.295	63.3933
223.188	83.0664
226.08	100.793
228.973	143.82
231.866	196.279
234.758	225.343
237.651	151.002
240.544	77.4875
243.436	40.6836
246.329	34.2941
249.222	25.955
252.114	26.2858
255.007	18.6355
257.9	22.5154
260.793	21.8511
263.685	14.5281
266.578	14.5041
269.471	14.7489
272.363	7.81946
275.256	12.3226
278.149	10.5331
281.041	15.3942
283.934	2.35339
286.827	3.68347
289.719	0.706055
292.612	4.37
295.505	5.14429
298.398	7.4801
301.29	0.593994
304.183	2.00708
307.076	4.37183
309.968	5.53674
312.861	2.77271
315.754	7.77551
318.647	6.06299
321.539	7.90808
324.432	9.61499
327.325	14.9806
330.217	21.8793
333.11	14.9796
336.003	33.6351
338.895	35.0713
341.788	42.7764
344.681	40.3323
347.574	31.6263
350.466	23.0979
353.359	10.861
356.252	20.4425
359.144	12.8312
362.037	21.0061
364.93	23.9993
367.822	30.4733
370.715	41.624
373.608	46.7639
376.5	59.9628
379.393	73.05
382.286	70.5588
385.179	49.0139
388.071	26.4524
390.964	17.1578
393.857	4.26721
396.749	10.4479
399.642	6.87659
402.535	2.04773
405.427	7.77173
408.32	0.674805
411.213	3.00098
414.106	6.3313
416.998	5.20398
419.891	8.18091
422.784	7.91345
425.676	2.96484
428.569	7.39734
431.462	11.0765
434.354	9.95715
437.247	6.17932
440.14	7.41516
443.033	11.5595
445.925	10.1251
448.818	8.50793
451.711	10.5049
454.603	15.3145
457.496	17.684
460.389	12.8932
463.281	27.106
466.174	27.0917
469.067	38.2098
471.959	44.1301
474.852	53.8729
477.745	70.222
480.638	86.3043
483.53	112.239
486.423	84.7749
489.316	45.5594
492.208	28.7341
495.101	18.8278
497.994	24.0099
500.887	27.6185
503.779	40.243
506.672	47.0781
509.565	42.4025
512.457	16.8826
515.35	10.9518
518.243	1.28845
521.135	1.37329
524.028	1.89893
526.921	0.69812
529.813	0.263428
532.706	0.277344
535.599	1.61084
538.492	5.06043
541.384	4.00195
544.277	9.82605
547.17	14.5314
550.062	17.9053
552.955	27.9851
555.848	22.3933
558.74	26.2029
561.633	25.5253
564.526	21.0742
567.418	16.3843
570.311	19.764
573.204	11.6167
576.097	6.72522
578.989	8.21155
581.882	1.65723
584.775	0.504272
587.667	1.02978
590.56	5.00403
593.453	0.950439
596.346	3.09399
599.238	3.67493
602.131	5.85925
605.024	6.63025
607.916	4.7417
610.809	5.16431
613.702	7.8103
616.594	3.97083
619.487	1.98181
622.38	5.98914
625.273	0.322388
628.165	5.6156
631.058	7.6012
633.951	10.5914
636.843	16.3927
639.736	34.7981
642.629	39.4862
645.521	56.5231
648.414	83.9274
651.307	114.851
654.199	107.629
657.092	57.0244
659.985	24.4081
662.878	7.26575
665.77	3.72333
668.663	8.12134
671.556	3.16132
674.448	2.32013
677.341	4.0011
680.234	3.64374
683.126	5.0177
686.019	1.59967
688.912	6.58545
691.805	1.49536
694.697	0.173462
697.59	3.44989
700.483	0.91449
703.375	6.09686
706.268	7.49469
709.161	9.65271
712.053	8.34387
714.946	7.77368
717.839	8.90509
720.731	6.12128
723.624	3.40289
726.517	2.74011
729.41	8.56738
732.302	7.9801
735.195	4.72089
738.088	5.28717
740.98	6.79755
743.873	4.5354
746.766	8.44409
749.659	8.06476
752.551	1.69897
755.444	2.45624
758.337	0.166931
761.229	2.6593
764.122	2.685
767.015	3.89795
769.907	9.1571
772.8	6.74292
775.693	0.129578
778.586	1.0545
781.478	10.9815
784.371	3.7912
787.264	4.61847
790.156	8.6355
793.049	9.74554
795.942	7.30737
798.834	1.75971
801.727	6.12457
804.62	7.61102
807.513	12.0886
810.405	6.22968
813.298	2.32263
816.191	5.66125
819.083	7.52173
821.976	7.29883
824.869	6.8031
827.761	5.68549
830.654	3.49585
833.547	0.553467
836.439	6.43164
839.332	3.89899
842.225	6.67542
845.118	4.63269
848.01	2.36536
850.903	1.15546
853.796	5.19934
856.688	5.36285
859.581	5.78345
862.474	6.28009
865.366	11.0624
868.259	1.58038
871.152	4.08484
874.044	8.435
876.937	8.28833
879.83	5.56323
882.723	0.553589
885.615	15.0991
888.508	7.26343
891.401	4.66327
894.293	5.31451
897.186	1.987
900.079	5.10223
902.971	1.65595
905.864	1.58661
908.757	2.23303
911.65	5.25018
914.542	1.37488
917.435	9.77417
920.328	4.82245
923.22	0.632507
926.113	9.1911
929.006	3.13666
931.899	3.31635
934.791	3.67212
937.684	6.67389
940.577	4.53271
943.469	5.52087
946.362	2.23645
949.255	4.45624
952.147	4.64282
955.04	1.64197
957.933	0.189209
960.825	5.23126
963.718	0.932251
966.611	3.67859
969.504	1.37634
972.396	1.92627
975.289	2.94824
978.182	2.12085
981.074	8.27093
983.967	6.18426
986.86	0.977966
989.752	4.21027
992.645	6.72241
995.538	5.84613
998.431	10.5962
1001.32	11.1381
1004.22	17.477
1007.11	21.8138
1010	47.2024
1012.89	75.8705
1015.79	115.432
1018.68	160.563
1021.57	244.117
1024.46	346.348
1027.36	232.814
1030.25	94.4556
1033.14	38.4088
1036.04	24.079
1038.93	10.2589
1041.82	5.32617
1044.71	5.81714
1047.61	8.82221
1050.5	1.9184
1053.39	4.12592
1056.29	5.58893
1059.18	6.00983
1062.07	4.388
1064.96	8.61371
1067.86	17.0338
1070.75	22.1944
1073.64	38.5936
1076.53	43.5636
1079.43	41.4698
1082.32	25.7843
1085.21	14.6261
1088.1	14.2858
1091	10.9771
1093.89	11.0508
1096.78	2.49127
1099.67	0.153015
1102.57	3.07916
1105.46	0.181091
1108.35	2.53815
1111.25	1.98993
1114.14	0.646973
1117.03	0.513672
1119.92	1.52753
1122.82	1.95959
1125.71	2.41608
1128.6	0.817017
1131.49	1.43365
1134.39	0.567688
1137.28	8.30585
1140.17	3.07275
1143.07	3.75421
1145.96	6.17835
1148.85	13.3508
1151.74	13.1814
1154.64	14.0388
1157.53	12.8882
1160.42	11.7805
1163.31	9.23846
1166.21	12.4208
1169.1	16.0472
1171.99	18.7915
1174.88	20.2061
1177.78	25.3142
1180.67	31.5996
1183.56	33.9924
1186.46	36.7914
1189.35	31.4878
1192.24	27.4072
1195.13	22.7629
1198.03	14.9012
1200.92	14.7127
1203.81	13.2515
1206.7	8.55218
1209.6	6.44159
1212.49	4.32867
1215.38	1.31238
1218.28	4.92377
1221.17	4.21765
1224.06	6.22681
1226.95	9.43384
1229.85	1.08728
1232.74	1.84595
1235.63	6.80402
1238.53	4.48444
1241.42	2.4223
1244.31	4.77002
1247.2	1.14661
1250.1	0.384583
1252.99	4.1878
1255.88	8.04633
1258.77	7.20404
1261.67	4.28778
1264.56	4.25452
1267.45	4.98553
1270.34	0.933044
1273.24	7.86084
1276.13	1.91901
1279.02	0.000305
1281.91	3.40045
1284.81	0
