Measurement: Raman, 514 nm, unoriented, Raman Data Processed
Mineral: Natrolite
Rruff sample: R040112
Ideal chemistry: Na_2_(Si_3_Al_2_)O_10_2H_2_O
Locality: Ice River Alkaline Complex, Moose Creek Valley, Yoho National Park, British Columbia, Canada
Source: National Museums of Canada
Description: Colorless pseudohexagonal prism
Measured chemistry: Na_2.00_(Si_3.00_Al_2.00_)O_10_Â·2H_2_O
Raman shift (cm-1)	intensity
97.554	0
101.732	4.869
105.908	391.556
110.082	315.053
114.254	818.029
118.424	1413.08
122.592	1449.99
126.758	713.647
130.922	1530.72
135.083	4816.28
139.243	8573.09
143.401	7743.26
147.557	3135.11
151.711	2774.65
155.863	6751.98
160.013	10429.8
164.161	8081.35
168.308	3705.14
172.452	1726.35
176.594	1042.86
180.734	937.604
184.872	638.733
189.008	731.705
193.143	1159.62
197.275	1387.68
201.405	1713.35
205.534	2040.51
209.66	1297.33
213.784	572.336
217.907	368.381
222.027	189.539
226.146	31.61
230.263	48.562
234.377	671.4
238.49	1188.34
242.601	755.567
246.709	44.473
250.816	61.954
254.921	181.439
259.024	170.756
263.125	138.886
267.224	49.898
271.321	66.964
275.416	81.94
279.51	69.903
283.601	183.503
287.69	134.429
291.778	279.469
295.863	811.505
299.947	1954.47
304.029	3434.23
308.108	2397.55
312.186	584.458
316.262	79.021
320.336	99.272
324.408	235.246
328.478	470.852
332.546	476.236
336.612	726.398
340.677	843.163
344.739	870.401
348.799	769.291
352.858	1375.09
356.915	2204.87
360.969	2262.63
365.022	955.366
369.073	362.074
373.122	95.74
377.169	374.291
381.215	120.282
385.258	64.858
389.299	32.697
393.339	48.34
397.376	264.973
401.412	465.491
405.446	1356.66
409.478	2457.21
413.508	2881.76
417.536	1889.92
421.562	1271.13
425.586	1239.17
429.609	1864.92
433.629	4036.04
437.648	9823.9
441.665	12740.6
445.68	5682.27
449.693	2343.2
453.704	1144.09
457.713	832.085
461.721	688.125
465.726	579.249
469.73	576.451
473.731	734.583
477.731	904.712
481.729	963.881
485.725	1196.94
489.72	1537.08
493.712	1831.21
497.703	2321.39
501.691	3213.16
505.678	3965.88
509.663	5462.04
513.646	6919.8
517.627	7525.01
521.607	9054.24
525.584	16605.5
529.56	32272.8
533.534	36040
537.506	17869.8
541.476	7344.99
545.444	3553.93
549.41	2082.91
553.375	1443.65
557.337	997.236
561.298	813.448
565.257	576.522
569.214	293.236
573.17	247.18
577.123	240.544
581.075	166.449
585.024	194.878
588.972	175.205
592.918	253.037
596.863	284.066
600.805	241.455
604.746	165.644
608.685	115.876
612.621	48.877
616.557	74.473
620.49	158.172
624.421	194.651
628.351	40.529
632.279	62.361
636.205	214.988
640.129	119.828
644.051	78.057
647.972	111.554
651.89	0.657
655.807	8.04
659.722	75.3
663.636	130.508
667.547	21.061
671.457	143.138
675.365	271.333
679.271	235.13
683.175	344.269
687.077	631.056
690.978	1048.22
694.877	946.581
698.774	1658.51
702.669	1774.54
706.562	1428.7
710.454	1006.92
714.344	916.214
718.232	729.352
722.118	902.46
726.002	840.608
729.885	568.634
733.766	367.563
737.645	177.612
741.522	151.813
745.397	30.838
749.271	102.786
753.143	5.607
757.013	88.963
760.881	539.32
764.748	48.239
768.613	158.107
772.476	73.063
776.337	190.768
780.196	145.168
784.054	80.22
787.91	101.382
791.764	74.338
795.616	21.504
799.467	291.157
803.316	164.809
807.163	20.882
811.008	138.292
814.851	8.229
818.693	65.127
822.533	53.371
826.371	111.055
830.208	148.619
834.042	3.911
837.875	153.417
841.706	40.729
845.536	42.971
849.363	176.104
853.189	330.129
857.013	255.051
860.836	159.812
864.656	121.467
868.475	194.008
872.292	140.429
876.108	117.738
879.922	275.927
883.733	140.996
887.544	138.946
891.352	90.763
895.159	146.447
898.964	27.231
902.767	79.867
906.568	123.833
910.368	64.866
914.166	115.054
917.962	193.798
921.757	80.771
925.55	210.287
929.341	95.887
933.13	249.187
936.918	212.649
940.703	100.295
944.488	228.841
948.27	173.955
952.051	51.911
955.83	131.895
959.607	207.293
963.383	219.097
967.156	384.602
970.928	418.18
974.699	607.628
978.468	773.034
982.234	412.987
986	282.548
989.763	265.646
993.525	357.804
997.285	545.018
1001.04	261.728
1004.8	615.918
1008.55	586.161
1012.31	456.345
1016.06	416.209
1019.81	625.303
1023.56	835.871
1027.31	897.409
1031.05	1512.17
1034.79	3127.6
1038.53	6468.54
1042.27	4893.73
1046.01	2067.36
1049.75	975.02
1053.48	994.782
1057.22	649.146
1060.95	591.208
1064.68	553.853
1068.4	509.84
1072.13	465.925
1075.86	766.95
1079.58	836.788
1083.3	1035.25
1087.02	999.577
1090.74	523.155
1094.45	277.954
1098.17	753.546
1101.88	318.221
1105.59	165.633
1109.3	148.141
1113.01	94.949
1116.71	114.533
1120.42	63.886
1124.12	336.576
1127.82	45.98
1131.52	144.191
1135.22	7.218
1138.91	108.339
1142.61	69.497
1146.3	49.238
1149.99	90.232
1153.68	62.14
1157.37	160.347
1161.06	53.778
1164.74	67.864
1168.42	157.631
1172.1	93.031
1175.78	165.358
1179.46	38.384
1183.14	142.57
1186.81	207.764
1190.48	1.754
1194.15	231.872
1197.83	170.682
1201.49	185.549
1205.16	45.461
1208.82	283.824
1212.49	213.6
1216.15	137.156
1219.81	231.215
1223.46	190.816
1227.12	304.088
1230.78	287.076
1234.43	40.744
1238.08	38.572
1241.73	58.748
1245.38	144.742
1249.03	184.92
1252.67	239.561
1256.31	161.762
1259.95	132.211
1263.6	26.607
1267.23	120.32
1270.87	139.541
1274.51	12.344
1278.14	222.457
1281.77	218.895
1285.4	125.861
1289.03	118.447
1292.66	164.332
1296.28	40.803
1299.91	2.988
1303.53	328.408
1307.15	358.564
1310.77	451.955
1314.38	493.041
1318	38.531
1321.61	205.936
1325.23	62.912
1328.84	47.428
1332.45	85.74
1336.06	176.824
1339.66	124.195
1343.27	132.715
1346.87	61.373
1350.47	107.977
1354.07	173.807
1357.67	111.238
1361.26	146.109
1364.86	296.057
1368.45	334.295
1372.04	163.502
1375.63	197.85
1379.22	157.021
1382.81	110.924
1386.39	368.434
1389.98	267.592
1393.56	176.953
1397.14	188.129
1400.72	334.221
1404.3	302.512
1407.87	257.691
1411.45	413.424
1415.02	131.748
1418.59	455.154
1422.16	238.48
1425.73	480.203
1429.29	480.18
1432.86	202.137
1436.42	342.977
1439.98	412.889
1443.54	500.396
1447.1	363.574
1450.66	453.625
1454.21	410.131
1457.77	263.318
1461.32	294.451
1464.87	211.27
1468.42	400.936
1471.96	253.023
1475.51	359.623
1479.06	254.57
1482.6	532.371
1486.14	241.582
1489.68	454.258
1493.22	21.594
1496.75	274.166
1500.29	173.961
1503.82	526.293
1507.35	98.416
1510.88	172.418
