Measurement: Raman, 785 nm, unoriented, Raman Data Processed
Mineral: Natrolite
Rruff sample: R040102
Ideal chemistry: Na_2_(Si_3_Al_2_)O_10_2H_2_O
Locality: Ross' Quarry, Northland, New Zealand
Source: University of Arizona Mineral Museum
Description: Mass of colorless acicular crystals
Measured chemistry: (Na_0.92_Ca_0.02_)_2_(Si_3.03_Al_1.99_)O_10_Â·2H_2_O
Raman shift (cm-1)	intensity
123.558	0
126.451	41.9165
129.343	575.785
132.236	879.305
135.129	589.337
138.021	594.202
140.914	1123.16
143.807	2249.13
146.699	2612.74
149.592	2459.43
152.485	2866.58
155.377	3912.76
158.27	5055.18
161.163	5728.03
164.056	4490.32
166.948	2998.65
169.841	2160.2
172.734	1653.51
175.626	1225.52
178.519	1047.32
181.412	1052.46
184.304	1018.4
187.197	773.646
190.09	306.76
192.983	392.343
195.875	647.652
198.768	1012.54
201.661	1561.6
204.553	1850.14
207.446	1531.56
210.339	895.6
213.232	534.962
216.124	395.803
219.017	287.907
221.91	168.032
224.802	6.75537
227.695	8.79004
230.588	21.3037
233.48	142.127
236.373	372.842
239.266	587.36
242.159	368.267
245.051	66.5625
247.944	40.1594
250.837	89.0371
253.729	66.9673
256.622	12.5146
259.515	27.2505
262.407	116.952
265.3	220.676
268.193	318.05
271.086	386.211
273.978	397.886
276.871	240.969
279.764	218.2
282.656	154.773
285.549	198.734
288.442	148.446
291.334	310.297
294.227	357.589
297.12	495.091
300.012	756.678
302.905	986.998
305.798	1183.92
308.691	642.223
311.583	317.737
314.476	122.105
317.369	122.018
320.261	85.2606
323.154	207.428
326.047	339.241
328.94	491.523
331.832	485.322
334.725	395.229
337.618	272.329
340.51	311.134
343.403	310.388
346.296	327.236
349.188	345.648
352.081	442.644
354.974	505.862
357.866	579.59
360.759	532.05
363.652	364.554
366.545	200.17
369.437	67.891
372.33	62.801
375.223	19.3826
378.115	19.3861
381.008	3.0697
383.901	23.1853
386.793	17.5276
389.686	57.0033
392.579	14.5935
395.472	34.7042
398.364	22.4898
401.257	16.8153
404.15	142.407
407.042	211.023
409.935	322.042
412.828	291.297
415.72	254.5
418.613	264.519
421.506	295.445
424.399	427.34
427.291	651.818
430.184	1149.78
433.077	2076.84
435.969	3491.31
438.862	4955.24
441.755	5316.09
444.647	3757.83
447.54	2152.81
450.433	1135.35
453.325	630.166
456.218	318.075
459.111	172.101
462.004	67.5478
464.896	37.6985
467.789	27.1331
470.682	40.6875
473.574	76.2283
476.467	183.047
479.36	327.75
482.252	388.668
485.145	334.84
488.038	375.556
490.931	305.754
493.823	277.377
496.716	252.939
499.609	210.147
502.501	292.424
505.394	340.947
508.287	439.278
511.18	577.479
514.072	836.62
516.965	1022.14
519.858	1476.46
522.75	2257.62
525.643	3641.89
528.536	5328.73
531.428	6731.5
534.321	5946.35
537.214	3675.27
540.106	1945.78
542.999	1177.53
545.892	672.273
548.785	461.843
551.677	236.053
554.57	137.097
557.463	79.8463
560.355	47.2607
563.248	84.1178
566.141	48.2211
569.034	38.8445
571.926	2.93506
574.819	40.7493
577.712	34.5006
580.604	51.5858
583.497	31.3512
586.39	106.35
589.282	121.088
592.175	163.559
595.068	112.879
597.96	193.334
600.853	116.943
603.746	142.499
606.639	81.1112
609.531	61.4354
612.424	50.4271
615.317	44.3988
618.209	55.3608
621.102	62.2755
623.995	45.3356
626.888	36.7462
629.78	27.301
632.673	2.34985
635.566	65.5724
638.458	34.4188
641.351	35.3726
644.244	3.36914
647.136	7.50098
650.029	28.2136
652.922	13.9359
655.814	47.709
658.707	13.9357
661.6	58.1017
664.493	66.4563
667.385	74.8447
670.278	42.4279
673.171	9.45203
676.063	78.2659
678.956	82.4742
681.849	90.968
684.741	134.121
687.634	165.908
690.527	228.476
693.42	270.616
696.312	322.957
699.205	387.258
702.098	394.358
704.99	400.311
707.883	367.817
710.776	289.33
713.668	289.489
716.561	303.54
719.454	312.628
722.346	372.098
725.239	353.618
728.132	320.919
731.025	241.979
733.917	179.141
736.81	127.036
739.703	161.222
742.595	143.265
745.488	116.18
748.381	96.9611
751.274	79.0149
754.166	57.3362
757.059	61.6102
759.952	43.6091
762.844	62.327
765.737	6.21399
768.63	38.3534
771.522	110.529
774.415	72.6157
777.308	26.8189
780.201	90.6918
783.093	71.4879
785.986	3.22803
788.879	27.0946
791.771	57.911
794.664	72.4795
797.557	46.0105
800.449	32.9346
803.342	51.1034
806.235	71.9371
809.128	65.8442
812.02	118.395
814.913	90.538
817.806	75.8883
820.698	77.8046
823.591	73.4684
826.484	56.0073
829.376	56.7391
832.269	73.4888
835.162	83.7385
838.054	57.4288
840.947	55.8717
843.84	93.457
846.733	55.5695
849.625	100.169
852.518	62.5253
855.411	31.675
858.303	32.4053
861.196	74.35
864.089	49.5221
866.981	87.7875
869.874	42.5074
872.767	18.5259
875.659	65.4556
878.552	40.4502
881.445	21.4587
884.338	49.5142
887.23	47.8625
890.123	46.7703
893.016	81.74
895.908	86.2474
898.801	33.1661
901.694	16.6249
904.587	39.969
907.479	53.0619
910.372	34.1508
913.265	19.1108
916.157	31.213
919.05	25.0219
921.943	22.0432
924.835	27.5311
927.728	53.4273
930.621	2.01038
933.514	40.5841
936.406	32.369
939.299	27.4779
942.192	22.0635
945.084	31.9196
947.977	18.3016
950.87	43.4187
953.763	23.7096
956.655	188.588
959.548	196.292
962.441	285.19
965.333	334.431
968.226	232.181
971.119	171.091
974.011	125.179
976.904	126.191
979.797	52.683
982.689	44.4199
985.582	86.6019
988.475	27.797
991.368	15.7683
994.26	14.4902
997.153	97.3191
1000.05	122.245
1002.94	96.4945
1005.83	156.11
1008.72	134.659
1011.62	136.655
1014.51	110.643
1017.4	129.643
1020.29	27.198
1023.19	5.01367
1026.08	131.875
1028.97	251.784
1031.87	373.488
1034.76	762.831
1037.65	914.324
1040.54	777.726
1043.44	494.263
1046.33	290.763
1049.22	129.711
1052.11	108.59
1055.01	91.3635
1057.9	121.052
1060.79	74.3062
1063.68	136.854
1066.58	119.65
1069.47	124.592
1072.36	195.481
1075.26	191.576
1078.15	254.742
1081.04	227.367
1083.93	262.795
1086.83	226.5
1089.72	262.576
1092.61	184.042
1095.51	165.431
1098.4	105.568
1101.29	71.0287
1104.18	77.8535
1107.08	3.07752
1109.97	4.17749
1112.86	53.9241
1115.75	74.2521
1118.65	32.5294
1121.54	25.6924
1124.43	42.9945
1127.32	12.5448
1130.22	56.7777
1133.11	108.136
1136	7.81738
1138.89	71.1333
1141.79	16.0574
1144.68	68.0311
1147.57	74.3375
1150.47	49.0476
1153.36	26.407
1156.25	14.5466
1159.14	57.5166
1162.04	42.5399
1164.93	44.6991
1167.82	32.8337
1170.71	17.5129
1173.61	70.8752
1176.5	49.7267
1179.39	44.8237
1182.29	108.57
1185.18	87.8665
1188.07	115.604
1190.96	53.0977
1193.86	45.7717
1196.75	99.2825
1199.64	106.84
1202.54	20.4954
1205.43	44.4795
1208.32	80.3525
1211.21	64.7937
1214.11	44.7418
1217	61.7346
1219.89	57.4423
1222.78	72.0913
1225.68	53.7964
1228.57	49.2391
1231.46	97.7014
1234.35	84.8405
1237.25	21.2739
1240.14	39.1499
1243.03	64.9884
1245.92	41.2498
1248.82	183.984
1251.71	48.9175
1254.6	60.3729
1257.5	63.0316
1260.39	44.5418
1263.28	66.6583
1266.17	78.8136
1269.07	51.9253
