Measurement: Raman, 532 nm, unoriented, Raman Data Processed
Mineral: Natrolite
Rruff sample: R050589
Ideal chemistry: Na_2_(Si_3_Al_2_)O_10_2H_2_O
Locality: Mont Saint-Hilaire, Rouville County, Quebec, Canada
Source: Bob Downs
Description: White to colorless prismatic crystals associated with aegirine
Measured chemistry: Na_2.00_(Si_3.00_Al_2.00_)O_10_Â·2H_2_O
Raman shift (cm-1)	intensity
130.167	0
133.542	13.0877
136.916	83.6888
140.291	155.676
143.666	258.772
147.041	251.042
150.416	198.291
153.791	240.43
157.165	373.166
160.54	553.199
163.915	501.596
167.29	262.468
170.665	146.989
174.039	99.2818
177.414	50.8944
180.789	46.3033
184.164	76.0956
187.539	67.4255
190.913	20.9138
194.288	21.7738
197.663	44.627
201.038	76.7473
204.413	125.093
207.788	123.743
211.162	67.1381
214.537	44.1765
217.912	40.1126
221.287	36.9861
224.662	19.5649
228.036	1.63174
231.411	8.17084
234.786	2.54181
238.161	13.3584
241.536	23.1251
244.911	2.89271
248.286	7.02714
251.66	6.50284
255.035	0.451935
258.41	7.38165
261.785	16.4627
265.16	27.8532
268.534	38.6677
271.909	51.2153
275.284	56.1148
278.659	50.3619
282.034	41.8749
285.409	46.0132
288.783	54.1447
292.158	60.8497
295.533	63.2378
298.908	74.2604
302.283	102.534
305.657	127.811
309.032	83.732
312.407	32.5648
315.782	23.9862
319.157	23.5086
322.531	41.6255
325.906	49.2985
329.281	72.2214
332.656	80.1626
336.031	62.089
339.406	52.1301
342.781	56.1484
346.155	62.2897
349.53	67.7036
352.905	76.9983
356.28	92.4307
359.655	94.2957
363.029	68.0081
366.404	36.2901
369.779	20.306
373.154	12.0051
376.529	3.29785
379.904	0.123322
383.278	0.537827
386.653	4.08255
390.028	3.24506
393.403	0.186966
396.778	4.69534
400.152	12.9419
403.527	23.06
406.902	39.2656
410.277	60.2339
413.652	70.0697
417.026	63.4363
420.401	56.969
423.776	75.0619
427.151	126.4
430.526	194.639
433.901	290.287
437.276	442.66
440.65	571.827
444.025	472.481
447.4	252.587
450.775	119.365
454.15	56.8015
457.524	26.7829
460.899	9.26685
464.274	1.13817
467.649	0.729767
471.024	0.283539
474.399	9.92395
477.773	19.7549
481.148	31.9757
484.523	39.0284
487.898	41.9914
491.273	42.675
494.647	47.276
498.022	56.4906
501.397	69.5384
504.772	91.1657
508.147	120.564
511.522	159.313
514.896	219.544
518.271	312.667
521.646	443.336
525.021	626.092
528.396	904.586
531.77	1162.9
535.145	999.744
538.52	512.345
541.895	241.646
545.27	124.741
548.644	68.9634
552.019	37.831
555.394	20.5784
558.769	10.4702
562.144	7.07907
565.519	2.33011
568.894	0.804321
572.268	1.50383
575.643	3.28896
579.018	1.38606
582.393	0.476944
585.768	1.08487
589.142	3.28781
592.517	4.24005
595.892	6.71591
599.267	7.33859
602.642	4.42129
606.016	4.46071
609.391	0.029724
612.766	0.543884
616.141	0.089752
619.516	1.62825
622.891	2.0887
626.265	1.92444
629.64	2.40643
633.015	2.57523
636.39	2.77451
639.765	4.62868
643.139	4.43562
646.514	5.68185
649.889	3.08653
653.264	4.67328
656.639	5.94969
660.014	7.54112
663.389	6.54479
666.763	7.54188
670.138	10.1992
673.513	12.9144
676.888	20.6359
680.263	32.5915
683.637	43.342
687.012	44.0005
690.387	46.4652
693.762	44.507
697.137	54.6796
700.511	58.3528
703.886	58.0615
707.261	54.5353
710.636	46.1338
714.011	43.4562
717.386	44.1205
720.76	47.7244
724.135	48.0246
727.51	42.2216
730.885	30.7447
734.26	18.8545
737.635	10.468
741.009	6.47446
744.384	3.14856
747.759	0.928528
751.134	0.194321
754.509	0.84581
757.884	1.05042
761.258	0.349792
764.633	0.196411
768.008	0.191742
771.383	0.771652
774.758	1.00273
778.132	0.563812
781.507	1.11717
784.882	0.241898
788.257	0.58287
791.632	0.907181
795.006	1.84033
798.381	1.19745
801.756	1.11363
805.131	2.38806
808.506	3.8799
811.881	2.11894
815.255	3.94348
818.63	4.65485
822.005	4.51302
825.38	5.43352
828.755	4.07556
832.13	5.4442
835.504	4.58214
838.879	3.4978
842.254	3.71669
845.629	5.01468
849.004	3.35159
852.378	3.41412
855.753	4.15526
859.128	4.93787
862.503	3.52866
865.878	4.63274
869.253	5.30187
872.627	5.68469
876.002	6.04382
879.377	5.06474
882.752	5.60567
886.127	4.44867
889.501	4.20543
892.876	3.22655
896.251	2.89412
899.626	3.43149
903.001	1.45532
906.376	0.956589
909.75	2.17206
913.125	1.3665
916.5	1.86363
919.875	1.66419
923.25	2.21632
926.625	0.27739
929.999	0.527802
933.374	0.103027
936.749	0.63623
940.124	0.371445
943.499	1.11699
946.873	1.91287
950.248	0.42746
953.623	2.2711
956.998	9.92271
960.373	10.3446
963.748	14.1971
967.122	12.6451
970.497	10.3604
973.872	11.935
977.247	11.5387
980.622	6.83142
983.996	2.09328
987.371	3.53903
990.746	0.633408
994.121	3.55476
997.496	8.21916
1000.87	12.1516
1004.25	18.4622
1007.62	19.0337
1011	16.9992
1014.37	13.2263
1017.75	11.2487
1021.12	14.4255
1024.49	22.563
1027.87	40.9287
1031.24	71.5688
1034.62	121.062
1037.99	176.527
1041.37	180.95
1044.74	163.791
1048.12	70.6049
1051.49	24.7465
1054.87	14.7418
1058.24	17.2777
1061.62	10.285
1064.99	5.17213
1068.37	7.05717
1071.74	14.2929
1075.12	20.0568
1078.49	26.689
1081.87	29.7678
1085.24	33.2719
1088.62	32.2303
1091.99	26.8359
1095.37	19.5061
1098.74	11.5298
1102.12	7.54678
1105.49	4.66974
1108.87	2.59679
1112.24	2.56406
1115.62	2.43869
1118.99	0.544296
1122.36	1.28732
1125.74	0.308319
1129.11	0.983276
1132.49	0.21199
1135.86	0.490067
1139.24	0.550034
1142.61	1.15575
1145.99	0.01088
1149.36	0.330887
1152.74	1.00563
1156.11	0.324783
1159.49	0.301926
1162.86	1.10701
1166.24	0.096542
1169.61	0.082886
1172.99	1.34128
1176.36	1.85185
1179.74	1.83293
1183.11	1.93108
1186.49	1.55916
1189.86	2.03175
1193.23	2.54097
1196.61	3.65126
1199.98	3.78087
1203.36	4.26856
1206.73	3.392
1210.11	3.42366
1213.48	4.33696
1216.86	3.56914
1220.23	4.10329
1223.61	4.29494
1226.98	2.74002
1230.36	3.65881
1233.73	2.19571
1237.11	3.92261
1240.48	3.79601
1243.86	6.4659
1247.23	9.19293
1250.61	13.0468
1253.98	13.7973
1257.36	18.1946
1260.73	19.7738
1264.11	23.4112
1267.48	23.6125
1270.86	20.6768
1274.23	17.8272
1277.61	12.7308
1280.98	7.56728
1284.36	4.87328
1287.73	2.43312
1291.11	1.49876
1294.48	0.528625
1297.86	0.851334
1301.23	2.51387
