Measurement: Raman, 532 nm, unoriented, Raman Data Processed
Mineral: Natrolite
Rruff sample: R040022
Ideal chemistry: Na_2_(Si_3_Al_2_)O_10_2H_2_O
Locality: Patterson, Passaic County, New Jersey, USA
Source: University of Arizona Mineral Museum
Description: White fine fibrous mass
Measured chemistry: (Na_1.87_Ca_0.08_[box]_0.05_)_Σ=2_(Si_2.97_Al_2.03_)O_10_·1.95H_2_O; H_2_O estimated by difference
Raman shift (cm-1)	intensity
129.083	0
132.458	0.683685
135.833	21.952
139.207	60.3362
142.582	105.388
145.957	97.9423
149.332	45.205
152.707	41.424
156.081	82.9451
159.456	151.693
162.831	179.041
166.206	103.082
169.581	44.0232
172.956	22.8315
176.33	4.1138
179.705	2.08484
183.08	13.6574
186.455	19.2362
189.83	3.64505
193.204	3.87938
196.579	5.79579
199.954	15.5579
203.329	31.0976
206.704	45.307
210.078	29.1048
213.453	17.6285
216.828	17.387
220.203	10.2867
223.578	6.10599
226.952	2.72792
230.327	0.239304
233.702	0.780365
237.077	10.5589
240.452	25.6215
243.827	15.685
247.201	0.788101
250.576	4.02705
253.951	0.228867
257.326	2.75188
260.701	6.9404
264.075	10.8938
267.45	15.2531
270.825	23.8276
274.2	29.3771
277.575	26.8324
280.95	19.0128
284.324	21.5338
287.699	24.1345
291.074	31.1085
294.449	34.2274
297.824	34.5549
301.199	41.2158
304.573	60.2378
307.948	57.3288
311.323	25.8315
314.698	11.9339
318.073	14.5821
321.447	17.3844
324.822	20.1098
328.197	28.2739
331.572	37.589
334.947	27.4829
338.322	21.0375
341.696	21.3972
345.071	25.013
348.446	26.6131
351.821	33.5324
355.195	38.5546
358.57	43.679
361.945	34.9325
365.32	21.124
368.695	10.5705
372.07	5.16402
375.444	3.64456
378.819	1.02928
382.194	0.347794
385.569	2.50072
388.944	0.537933
392.318	1.39592
395.693	4.43524
399.068	7.56848
402.443	13.6743
405.818	18.4598
409.193	28.5581
412.567	36.4804
415.942	37.7415
419.317	34.8936
422.692	47.0016
426.067	63.0052
429.442	85.8054
432.816	112.926
436.191	160.052
439.566	226.965
442.941	234.747
446.316	130.674
449.69	59.5484
453.065	25.7017
456.44	11.1126
459.815	4.24136
463.19	0.106567
466.565	1.41458
469.939	3.31302
473.314	2.56442
476.689	6.54184
480.064	14.7153
483.438	19.9762
486.813	19.694
490.188	22.8909
493.563	26.7908
496.938	30.9931
500.313	37.1063
503.687	47.6499
507.062	62.5619
510.437	78.9122
513.812	108.74
517.187	158.675
520.562	211.484
523.936	275.197
527.311	379.846
530.686	514.62
534.061	527.657
537.436	321.895
540.81	151.341
544.185	77.7164
547.56	40.7466
550.935	24.364
554.31	16.1008
557.684	8.88571
561.059	8.18665
564.434	2.30615
567.809	2.81812
571.184	1.36112
574.559	1.11884
577.933	1.91107
581.308	0.825653
584.683	1.36969
588.058	4.24802
591.433	2.78714
594.807	4.89792
598.182	3.58749
601.557	3.04245
604.932	1.9751
608.307	1.21286
611.682	2.15619
615.056	1.4902
618.431	0.225708
621.806	1.12894
625.181	0.066315
628.556	0.179718
631.93	1.60104
635.305	0.067749
638.68	0.041138
642.055	2.6741
645.43	2.19754
648.804	2.99255
652.179	1.64688
655.554	0.966095
658.929	4.58875
662.304	3.76453
665.679	3.27942
669.053	5.69562
672.428	5.0509
675.803	7.10968
679.178	7.92548
682.553	9.75635
685.928	10.6452
689.302	15.6651
692.677	22.0648
696.052	25.4202
699.427	27.4888
702.802	29.4053
706.176	29.1064
709.551	26.3467
712.926	24.7431
716.301	22.9926
719.676	20.5723
723.051	23.8123
726.425	23.2282
729.8	15.9344
733.175	12.9842
736.55	7.1058
739.925	4.49496
743.299	1.51144
746.674	1.80914
750.049	2.58646
753.424	0.826416
756.799	2.50671
760.173	0.052856
763.548	1.9043
766.923	0.325165
770.298	3.14282
773.673	1.55759
777.048	0.893799
780.422	1.65533
783.797	0.26358
787.172	3.0029
790.547	0.330933
793.922	1.8317
797.296	1.26059
800.671	1.86768
804.046	0.675934
807.421	1.68253
810.796	3.39127
814.17	3.50397
817.545	2.62463
820.92	0.947052
824.295	3.39249
827.67	1.47
831.045	1.38263
834.419	1.58542
837.794	1.45612
841.169	4.6741
844.544	4.28772
847.919	2.60098
851.293	0.467072
854.668	0.733948
858.043	4.93314
861.418	3.8114
864.793	6.78491
868.168	4.91086
871.542	5.70944
874.917	1.63489
878.292	2.8551
881.667	3.93356
885.042	2.42438
888.416	1.50436
891.791	5.34409
895.166	3.44003
898.541	2.44348
901.916	1.37824
905.29	0.390808
908.665	1.23923
912.04	1.65219
915.415	3.04028
918.79	2.84522
922.165	2.8443
925.539	0.171753
928.914	0.167725
932.289	0.974701
935.664	0.887817
939.039	0.455597
942.413	2.55896
945.788	3.75003
949.163	3.41953
952.538	3.05487
955.913	0.975739
959.288	3.66766
962.662	9.7099
966.037	12.2059
969.412	9.17493
972.787	5.901
976.162	7.26294
979.537	6.56961
982.911	2.66559
986.286	0.035004
989.661	4.45285
993.036	5.02362
996.41	3.67786
999.785	3.42459
1003.16	6.25995
1006.53	5.53436
1009.91	5.66721
1013.28	7.53909
1016.66	6.42023
1020.03	8.06479
1023.41	13.3126
1026.78	20.5067
1030.16	27.8127
1033.53	42.6534
1036.91	62.7673
1040.28	72.6124
1043.66	46.2121
1047.03	21.6143
1050.41	11.7132
1053.78	4.263
1057.16	1.4675
1060.53	0.615265
1063.91	1.59549
1067.28	1.90845
1070.66	6.27371
1074.03	7.49466
1077.41	11.7373
1080.78	12.785
1084.16	14.8519
1087.53	16.0237
1090.9	13.3507
1094.28	10.6442
1097.65	4.034
1101.03	2.90018
1104.4	1.36151
1107.78	2.16724
1111.15	0.886414
1114.53	3.76834
1117.9	0.620331
1121.28	0.613251
1124.65	4.19159
1128.03	0.687439
1131.4	0.357941
1134.78	2.13928
1138.15	1.92734
1141.53	3.38513
1144.9	2.40524
1148.28	1.04526
1151.65	0.251892
1155.03	0.700165
1158.4	0.150055
1161.78	2.02673
1165.15	0.589508
1168.53	1.58774
1171.9	1.06787
1175.28	1.46445
1178.65	2.68359
1182.03	2.72815
1185.4	1.95016
1188.78	1.76184
1192.15	2.16458
1195.53	2.30243
1198.9	1.88394
1202.27	1.59875
1205.65	0.695282
1209.02	2.79382
1212.4	3.82715
1215.77	3.0975
1219.15	5.6907
1222.52	3.19647
1225.9	5.21744
1229.27	3.31168
1232.65	3.69592
1236.02	2.83774
1239.4	2.64206
1242.77	0.66217
1246.15	4.28357
1249.52	2.7016
1252.9	3.8772
1256.27	3.03616
1259.65	3.40976
1263.02	3.25366
1266.4	2.27618
1269.77	0.730988
1273.15	3.67175
1276.52	3.98541
1279.89	1.47613
1283.27	0.21698
1286.64	0.115295
