Measurement: Raman, 532 nm, unoriented, Raman Data Processed
Mineral: Natrobistantite
Rruff sample: R070058
Ideal chemistry: NaBi(Ta,Nb,Sb)_4_(O,OH)_12_
Locality: Kyoktogai pegmatite field, Altai, Xinjinag Province, China
Source: Michael Scott
Description: Bluish-green fragments embedded in epoxy, co-type material
Raman shift (cm-1)	intensity
169.465	0
172.358	98.1445
175.251	209.307
178.143	277.418
181.036	175.166
183.929	275.74
186.821	299.934
189.714	209.389
192.607	61.4121
195.5	44.2441
198.392	20.8594
201.285	44.5547
204.178	36.7891
207.07	210.289
209.963	309.242
212.856	334.996
215.749	500.273
218.641	552.096
221.534	664.021
224.427	695.721
227.319	915.049
230.212	1115.2
233.105	1258.97
235.997	1645.74
238.89	2128.2
241.783	2713.92
244.675	3451.3
247.568	4420.02
250.461	5638.39
253.354	6403.92
256.246	6856.1
259.139	6685.13
262.032	6193.69
264.924	5100.85
267.817	4302.31
270.71	3599.76
273.603	3014.28
276.495	2529.93
279.388	2379.36
282.281	1988.25
285.173	1711.19
288.066	1438.6
290.959	1157.95
293.851	854.592
296.744	678.693
299.637	512.15
302.53	323.789
305.422	227.486
308.315	126.764
311.208	0.548828
314.1	88.8516
316.993	65.0606
319.886	34.6348
322.779	55.0039
325.671	25.5176
328.564	20.8828
331.457	3.39258
334.349	127.672
337.242	257.617
340.135	180.324
343.027	214.109
345.92	294.291
348.813	180.541
351.705	325.068
354.598	345.881
357.491	311.406
360.384	397.215
363.276	417.393
366.169	473.57
369.062	552.941
371.954	636.574
374.847	779.135
377.74	766.236
380.632	943.193
383.525	1006.43
386.418	1014.54
389.311	893.484
392.203	813.475
395.096	690.578
397.989	498.797
400.881	482.35
403.774	374.158
406.667	246.176
409.56	245.205
412.452	102.486
415.345	58.3125
418.238	79.6777
421.13	55.2109
424.023	115.965
426.916	180.494
429.808	126.182
432.701	77.0449
435.594	151.744
438.486	260.508
441.379	165.004
444.272	48.7188
447.165	57.9082
450.057	91.0137
452.95	43.2422
455.843	31.9121
458.735	35.7168
461.628	33.9316
464.521	9.19336
467.413	24.1035
470.306	120.439
473.199	164.188
476.092	254.996
478.984	526.123
481.877	606.781
484.77	597.24
487.662	654.93
490.555	630.178
493.448	512.023
496.341	613.699
499.233	446.103
502.126	409.361
505.019	363.397
507.911	327.168
510.804	324.891
513.697	252.92
516.59	116.582
519.482	145.438
522.375	31.9043
525.268	4.07617
528.16	127.826
531.053	38.2852
533.946	28.9707
536.838	110.344
539.731	37.7422
542.624	26.459
545.516	70.8848
548.409	47.5957
551.302	62.3945
554.195	174.477
557.087	211.627
559.98	306.057
562.873	293.404
565.765	328.053
568.658	382.559
571.551	428.293
574.443	472.553
577.336	465.543
580.229	483.248
583.122	583.574
586.014	561.135
588.907	619.627
591.8	622.148
594.692	583.227
597.585	555.672
600.478	633.799
603.37	627.961
606.263	659.971
609.156	751.314
612.049	831.059
614.941	933.609
617.834	975.32
620.727	1153.56
623.619	1055.06
626.512	928.688
629.405	914.854
632.298	895.008
635.19	974.4
638.083	957.488
640.976	987.269
643.868	947.191
646.761	965.4
649.654	893.076
652.546	887.34
655.439	916.469
658.332	848.434
661.225	830.777
664.117	739.009
667.01	711.737
669.903	668.018
672.795	561.832
675.688	475.404
678.581	379.413
681.473	389.969
684.366	323.724
687.259	164.814
690.152	181.718
693.044	142.226
695.937	194.074
698.83	158.292
701.722	37.8721
704.615	54.3613
707.508	56.9805
710.4	6.92578
713.293	7.80664
716.186	28.8916
719.079	52.0898
721.971	17.3779
724.864	51.0518
727.757	21.3955
730.649	43.456
733.542	22.1797
736.435	79.125
739.327	73.0772
742.22	0.955078
745.113	43.5693
748.006	3.93066
750.898	94.8936
753.791	105.376
756.684	198.483
759.576	239.203
762.469	261.726
765.362	315.164
768.255	336.235
771.147	339.063
774.04	341.077
776.933	313.694
779.825	327.013
782.718	262.332
785.611	318.78
788.503	334.659
791.396	298.709
794.289	300.927
797.182	260
800.074	226.128
802.967	95.6885
805.86	105.306
808.752	144.711
811.645	132.084
814.538	95.2519
817.43	83.1904
820.323	46.0381
823.216	100.818
826.109	71.2939
829.001	38.0215
831.894	124.949
834.787	148.807
837.679	163.894
840.572	160.957
843.465	230.42
846.357	92.5752
849.25	103.058
852.143	71.5381
855.035	40.708
857.928	164.157
860.821	117.07
863.714	77.835
866.606	162.658
869.499	49.8838
872.392	124.901
875.284	130.808
878.177	100.608
881.07	137.178
883.963	155.076
886.855	88.9365
889.748	125.696
892.641	124.081
895.533	107.109
898.426	95.1397
901.319	127.375
904.212	91.75
907.104	90.9424
909.997	132.794
912.89	86.7861
915.782	59.6826
918.675	10.3418
921.568	33.1094
924.46	71.541
927.353	16.415
930.246	94.3281
933.139	40.8838
936.031	151.594
938.924	54.3711
941.817	27.5693
944.709	28.0137
947.602	106.774
950.495	47.8389
953.387	83.4502
956.28	70.2412
959.173	57.2373
962.066	58.7129
964.958	35.166
967.851	27.4072
970.744	37.624
973.636	4.48438
976.529	34.1006
979.422	0.960938
982.314	6.95215
985.207	51.9746
988.1	149.791
990.992	213.406
993.885	500.258
996.778	746.852
999.671	1133.68
1002.56	1123.63
1005.46	613.747
1008.35	241.31
1011.24	111.957
1014.13	91.1924
1017.03	82.6621
1019.92	162.503
1022.81	141.787
1025.7	341.863
1028.6	311.688
1031.49	342.169
1034.38	308.152
1037.28	207.242
1040.17	38.25
1043.06	92.1152
1045.95	98.5156
1048.85	71.2266
1051.74	35.9629
1054.63	73.1064
1057.53	165.77
1060.42	63.3984
1063.31	87.3486
1066.2	81.5791
1069.1	125.809
1071.99	63.3389
1074.88	41.2695
1077.77	110.737
1080.67	104.113
1083.56	108.698
1086.45	127.502
1089.34	111.346
1092.24	71.0518
1095.13	59.1416
1098.02	139.584
1100.91	102.853
1103.81	75.6738
1106.7	6.14062
1109.59	57.7178
1112.49	8.12402
1115.38	23.375
1118.27	24.5029
1121.16	57.126
1124.06	14.1309
1126.95	38.3565
1129.84	2.29199
1132.73	12.831
1135.63	78.6269
1138.52	40.001
1141.41	48.5625
1144.31	68.876
1147.2	110.32
1150.09	63.6094
1152.98	124.029
1155.88	147.598
1158.77	181.142
1161.66	112.384
1164.56	80.5625
1167.45	96.1348
1170.34	100.736
1173.23	149.177
1176.12	174.134
1179.02	189.413
1181.91	240.965
1184.8	194.644
1187.7	162.775
1190.59	149.087
1193.48	169.519
1196.37	149.965
1199.27	232.268
1202.16	215.107
1205.05	174.801
1207.94	107.852
1210.84	109.201
1213.73	99.9102
1216.62	79.1719
1219.52	58.6523
1222.41	59.5918
1225.3	23.6289
1228.19	79.9893
1231.09	3.57422
1233.98	62.3789
1236.87	34.208
1239.77	7.5166
1242.66	74.5508
1245.55	65.3115
1248.44	116.939
1251.34	2.25684
1254.23	20.8037
1257.12	56.21
1260.01	43.0156
1262.91	66.3115
1265.8	40.2022
1268.69	40.1094
1271.59	75.4004
1274.48	108.974
1277.37	57.3779
1280.26	100.666
1283.15	98.668
1286.05	105.43
1288.94	60.9141
1291.83	94.4443
1294.73	113.802
1297.62	75.5337
1300.51	67.6894
1303.4	67.0913
1306.3	108.324
1309.19	78.811
1312.08	82.9746
1314.97	72.3877
