Measurement: Raman, 780 nm, unoriented, Raman Data Processed
Mineral: Natropalermoite
Rruff sample: R130092
Ideal chemistry: Na_2_SrAl_4_(PO_4_)_4_(OH)_4_
Locality: Palermo No. 1 mine, Groton, New Hampshire, USA
Source: Benjamin N. Schumer
Description: This is the new Na-palermoite, ideally Na2SrAl4(PO4)4(OH)4
Measured chemistry: (Na_1.70_Li_0.30_)_2.00_(Sr_0.96_Ca_0.02_Ba_0.01_)(Al_3.83_Mg_0.04_Mn_0.03_Fe_0.03_)(PO_4_)_4.06_(OH)_4.00_
Raman shift (cm-1)	intensity
102.77	0
106.145	1.55939
109.52	1.09183
112.895	0.888947
116.27	2.5105
119.644	4.75494
123.019	6.08551
126.394	1.22794
129.769	1.99206
133.144	0.54541
136.518	0.612228
139.893	4.47456
143.268	7.82252
146.643	9.04489
150.018	12.3157
153.393	7.66731
156.767	6.68935
160.142	4.12534
163.517	2.79129
166.892	1.17067
170.267	0.47052
173.642	0.676559
177.016	1.04448
180.391	0.306915
183.766	1.25682
187.141	2.65253
190.516	4.80011
193.89	6.87082
197.265	4.5932
200.64	5.37811
204.015	3.60201
207.39	2.70308
210.764	2.79442
214.139	3.45158
217.514	3.91675
220.889	5.33894
224.264	6.95845
227.638	7.46443
231.013	9.35512
234.388	13.9489
237.763	14.7317
241.138	15.6785
244.513	13.2838
247.887	14.7233
251.262	16.6531
254.637	12.1124
258.012	5.65286
261.387	3.79163
264.762	4.06088
268.136	5.92474
271.511	9.29378
274.886	12.5584
278.261	12.3438
281.635	6.80563
285.01	3.00635
288.385	0.940765
291.76	0.401535
295.135	0.096542
298.51	1.52306
301.884	4.13362
305.259	6.99704
308.634	12.0672
312.009	20.7845
315.384	33.0267
318.759	42.1123
322.133	37.0739
325.508	25.3784
328.883	21.2367
332.258	16.4994
335.633	15.136
339.007	11.1892
342.382	6.19566
345.757	2.37384
349.132	1.09373
352.507	0.038971
355.882	0.37326
359.256	0.279724
362.631	1.29205
366.006	1.05743
369.381	1.45232
372.755	0.97879
376.13	0.026657
379.505	0.37587
382.88	0.65329
386.255	0.377777
389.63	1.78871
393.004	3.22704
396.379	6.13329
399.754	11.9231
403.129	16.7479
406.504	24.4197
409.878	28.6794
413.253	28.9228
416.628	27.8799
420.003	28.0201
423.378	29.8844
426.753	35.7662
430.127	45.3654
433.502	38.936
436.877	25.7867
440.252	16.3039
443.627	9.6216
447.001	6.57507
450.376	3.91322
453.751	3.03148
457.126	1.44232
460.501	1.06735
463.875	1.32916
467.25	0.061508
470.625	0.129456
474	1.78552
477.375	0.085434
480.75	1.37767
484.124	1.06355
487.499	0.284973
490.874	0.734756
494.249	1.85207
497.624	2.16396
500.998	1.5499
504.373	2.24498
507.748	5.80553
511.123	9.70943
514.498	13.471
517.873	18.6532
521.247	24.1558
524.622	23.55
527.997	20.3713
531.372	15.1779
534.747	8.36777
538.121	5.63722
541.496	2.1855
544.871	1.32527
548.246	0.702515
551.621	0.868118
554.995	0.411301
558.37	0.412201
561.745	0.992508
565.12	0.074997
568.495	0.464905
571.87	0.861923
575.244	3.41128
578.619	3.52443
581.994	7.90218
585.369	14.6396
588.744	23.4615
592.119	31.9881
595.493	35.4047
598.868	23.3962
602.243	12.1159
605.618	8.25404
608.993	7.96344
612.367	11.606
615.742	13.8641
619.117	17.2319
622.492	20.4659
625.867	18.385
629.241	18.4119
632.616	19.4019
635.991	24.0598
639.366	28.13
642.741	27.0079
646.115	20.0292
649.49	12.4591
652.865	6.85525
656.24	2.96263
659.615	2.33159
662.99	0.853714
666.364	0.643295
669.739	0.11644
673.114	0.886398
676.489	0.131256
679.864	0.266235
683.239	0.231659
686.613	0.48761
689.988	0.277679
693.363	0.478439
696.738	0.302994
700.112	0.074524
703.487	0.077087
706.862	0.79454
710.237	1.25684
713.612	1.09045
716.987	0.74968
720.361	0.960144
723.736	0.735748
727.111	0.154526
730.486	1.73857
733.861	0.308823
737.236	0.221588
740.61	1.57059
743.985	0.944527
747.36	0.920708
750.735	1.01533
754.11	0.009422
757.484	1.21154
760.859	1.5498
764.234	0.762283
767.609	1.15662
770.984	0.692902
774.359	0.107864
777.733	0.506294
781.108	0.050056
784.483	0.475861
787.858	0.738396
791.232	0.28907
794.607	1.43767
797.982	0.32489
801.357	1.32653
804.732	0.772568
808.107	1.089
811.481	0.975441
814.856	0.464317
818.231	1.51524
821.606	1.49125
824.981	1.03254
828.356	1.15523
831.73	1.52405
835.105	1.688
838.48	2.00269
841.855	2.68267
845.23	3.74597
848.604	1.76408
851.979	3.16656
855.354	4.23309
858.729	2.96612
862.104	2.76401
865.479	1.14984
868.853	1.24876
872.228	0.706871
875.603	1.8679
878.978	0.25753
882.352	0.05928
885.727	0.018967
889.102	0.198822
892.477	0.460587
895.852	0.181648
899.227	0.383408
902.601	1.02377
905.976	0.909889
909.351	0.092949
912.726	0.653229
916.101	1.4144
919.476	2.74988
922.85	4.72565
926.225	5.5381
929.6	8.75907
932.975	10.7424
936.35	12.1709
939.724	11.1494
943.099	9.3578
946.474	6.85136
949.849	5.79741
953.224	5.26044
956.598	7.1745
959.973	7.28455
963.348	10.3267
966.723	13.9417
970.098	17.4139
973.472	21.403
976.847	22.8341
980.222	24.1913
983.597	25.8067
986.972	26.7118
990.347	30.5838
993.721	37.0205
997.096	38.9595
1000.47	46.4659
1003.85	53.4794
1007.22	59.0194
1010.6	53.5708
1013.97	40.3121
1017.35	27.2185
1020.72	17.89
1024.1	11.3055
1027.47	6.1971
1030.84	2.86325
1034.22	2.50215
1037.59	0.9375
1040.97	0.574577
1044.34	0.028267
1047.72	0.091377
1051.09	0.048904
1054.47	0.476143
1057.84	1.71882
1061.22	3.07803
1064.59	3.92695
1067.97	6.79886
1071.34	11.0667
1074.72	14.5878
1078.09	18.2381
1081.47	16.9226
1084.84	10.9956
1088.22	6.04069
1091.59	3.8111
1094.97	1.49681
1098.34	1.02069
1101.71	0.214653
1105.09	0.334488
1108.46	0.353958
1111.84	0.563362
1115.21	1.5299
1118.59	2.82442
1121.96	2.96888
1125.34	5.53664
1128.71	10.417
1132.09	14.8028
1135.46	17.0846
1138.84	22.6695
1142.21	26.4205
1145.59	19.0945
1148.96	10.7469
1152.34	5.07228
1155.71	3.5857
1159.09	2.22566
1162.46	2.38935
1165.84	0.923462
1169.21	0.788712
1172.59	2.03146
1175.96	0.628822
1179.34	1.09326
1182.71	0.863739
1186.09	0.498253
1189.46	0.978241
1192.84	1.01905
1196.21	0.891922
1199.59	1.29584
1202.96	0.025688
1206.34	1.3795
1209.71	1.13783
1213.08	1.31873
1216.46	1.11082
1219.83	1.63753
1223.21	3.00657
1226.58	1.64565
1229.96	0.785851
1233.33	0.349251
1236.71	1.92546
1240.08	1.16038
1243.46	0.043556
1246.83	0.2724
1250.21	0.550873
1253.58	2.31702
1256.96	1.15768
1260.33	1.65554
1263.71	1.07572
1267.08	0.953011
1270.46	1.40508
1273.83	0.859192
1277.21	1.80667
1280.58	2.20875
1283.95	0
