Measurement: Raman, 532 nm, unoriented, Raman Data Processed
Mineral: Natroboltwoodite
Rruff sample: R060880
Ideal chemistry: Na(UO_2_)(SiO_3_OH)H_2_O
Locality: Alluaiv Mountain, Lovozero, Russia
Source: Michael Scott
Description: Pale yellow massive, X-ray diffraction indicates that this is amorphous
Raman shift (cm-1)	intensity
184.198	0
187.091	138.326
189.983	300.769
192.876	180.559
195.769	84.2051
198.662	154.754
201.554	349.182
204.447	437.25
207.34	634.701
210.232	430.711
213.125	471.781
216.018	491.537
218.911	486.033
221.803	554.486
224.696	410.719
227.589	254.617
230.481	331.81
233.374	225.703
236.267	173.639
239.159	176.988
242.052	150.961
244.945	116.545
247.838	265.191
250.73	227.379
253.623	30.8672
256.516	131.647
259.408	245.062
262.301	351.537
265.194	306.672
268.086	352.852
270.979	400.379
273.872	360.029
276.764	512.996
279.657	407.453
282.55	591.748
285.442	403.828
288.335	329.322
291.228	275.258
294.121	246.432
297.013	240.856
299.906	333.338
302.799	492.471
305.691	621.773
308.584	605.545
311.477	534.979
314.37	381.935
317.262	261.318
320.155	69.9785
323.048	178.35
325.94	80.8047
328.833	110.15
331.726	167.031
334.618	42.1719
337.511	67.0234
340.404	100.16
343.296	50.418
346.189	6.76172
349.082	38.0254
351.975	155.715
354.867	103.775
357.76	83.791
360.653	6.36523
363.545	166.816
366.438	30.3477
369.331	160.666
372.224	218.69
375.116	274.434
378.009	291.885
380.902	367.482
383.794	341.551
386.687	415.16
389.58	506.81
392.472	475.793
395.365	300.135
398.258	323.58
401.151	215.482
404.043	242.447
406.936	228.441
409.829	218.695
412.721	245.742
415.614	233.141
418.507	297.191
421.399	230.08
424.292	165.9
427.185	19.5391
430.077	37.7852
432.97	84.5195
435.863	56.7832
438.755	79.9688
441.648	79.8887
444.541	159.809
447.434	28.4238
450.326	164.103
453.219	151.188
456.112	148.527
459.004	127.658
461.897	106.369
464.79	111.615
467.683	259.617
470.575	227.492
473.468	218.418
476.361	223.209
479.253	104.879
482.146	175.244
485.039	228.084
487.931	289.08
490.824	139.287
493.717	32.0039
496.61	53.5117
499.502	16.0215
502.395	43.5918
505.288	29.1875
508.18	99.5918
511.073	45.3555
513.966	17.7461
516.858	153.033
519.751	83.1738
522.644	175.451
525.536	174.029
528.429	279.516
531.322	183.496
534.215	90.4746
537.107	166.566
540	221.461
542.893	297.461
545.785	422.236
548.678	243.75
551.571	310.641
554.463	239.789
557.356	201.992
560.249	49.582
563.141	28.8711
566.034	134.012
568.927	222.777
571.82	214.871
574.712	166.494
577.605	39.4434
580.498	32.1699
583.39	73.9746
586.283	100.805
589.176	226.725
592.068	308.707
594.961	350.307
597.854	323.83
600.747	339.59
603.639	618.676
606.532	687.799
609.425	760.311
612.317	928.279
615.21	835.717
618.103	1015.6
620.995	1128.92
623.888	1038.65
626.781	1170.02
629.673	1028.7
632.566	863.789
635.459	757.998
638.352	730.356
641.244	580.506
644.137	676.391
647.03	719.432
649.922	855.578
652.815	896.586
655.708	791.121
658.601	698.18
661.493	574.018
664.386	408.9
667.279	420.648
670.171	448.562
673.064	515.695
675.957	179.801
678.849	95.459
681.742	136.371
684.635	191.789
687.528	218.068
690.42	245.281
693.313	240.658
696.206	98.9258
699.098	131.647
701.991	28.6152
704.884	7.04102
707.776	65.7109
710.669	76.0606
713.562	44.0996
716.455	12.1035
719.347	137.889
722.24	177.853
725.133	321.18
728.025	261.353
730.918	467.853
733.811	511.363
736.703	653.438
739.596	791.25
742.489	752.465
745.381	1343.58
748.274	1768.3
751.167	1964.75
754.059	2297.14
756.952	3005.71
759.845	3486.7
762.738	4184.4
765.63	5214.57
768.523	6337.74
771.416	7550.05
774.308	8635.73
777.201	9422.54
780.094	10164.5
782.986	10553.5
785.879	10282.6
788.772	9694.2
791.665	8666.37
794.557	7599.38
797.45	6493.48
800.343	5509.8
803.235	4607.27
806.128	3849.87
809.021	3134.01
811.913	2675.87
814.806	2205.03
817.699	1973.54
820.592	1736.33
823.484	1517.51
826.377	1582.64
829.27	1540.13
832.162	1378.25
835.055	1312
837.948	1000.07
840.841	778.465
843.733	670.131
846.626	601.938
849.519	518.668
852.411	168.252
855.304	29.0332
858.197	36.1738
861.089	22.25
863.982	44.1582
866.875	16.3789
869.767	69.7578
872.66	112.033
875.553	102.268
878.446	30.7188
881.338	89.0019
884.231	82.0508
887.124	136.272
890.016	154.732
892.909	316.643
895.802	503.279
898.694	411.922
901.587	172.328
904.48	198.662
907.372	265.055
910.265	193.834
913.158	176.777
916.051	267.652
918.943	303.016
921.836	537.129
924.729	651.734
927.621	941.443
930.514	929.404
933.407	825.936
936.299	881.199
939.192	923.348
942.085	1030.72
944.977	984.781
947.87	953.658
950.763	938.477
953.656	1205.19
956.548	1165.52
959.441	1304.12
962.334	1318.87
965.226	1274.45
968.119	1120.18
971.012	961.289
973.904	882.459
976.797	662.082
979.69	568.885
982.583	450.688
985.475	455.135
988.368	294.435
991.261	165.33
994.153	149.648
997.046	145.422
999.939	249.019
1002.83	167.553
1005.72	183.422
1008.62	36.3477
1011.51	17.2656
1014.4	29.748
1017.29	58.4473
1020.19	23.9023
1023.08	67.9414
1025.97	134.742
1028.87	63.5312
1031.76	139.322
1034.65	123.496
1037.54	62.6895
1040.44	112.016
1043.33	123.379
1046.22	32.2832
1049.12	33.8496
1052.01	62.9531
1054.9	234.453
1057.79	195.928
1060.68	136.238
1063.58	143.082
1066.47	153.422
1069.36	90.6387
1072.26	229.522
1075.15	119.252
1078.04	102.051
1080.93	80.8926
1083.83	49.1602
1086.72	123.857
1089.61	140.182
1092.51	41.9922
1095.4	68.209
1098.29	194.547
1101.18	205.606
1104.08	178.269
1106.97	196.309
1109.86	139.644
1112.75	29.2617
1115.65	106.889
1118.54	57.0566
1121.43	12.6172
1124.33	74.6387
1127.22	136.195
1130.11	232.158
1133	129.715
1135.9	93.8418
1138.79	59.0605
1141.68	186.144
1144.57	68.2402
1147.47	3.34766
1150.36	57.8594
1153.25	109.727
1156.14	138.99
1159.04	23.1543
1161.93	72.2734
1164.82	34.584
1167.71	69.0781
1170.61	22.082
1173.5	88.8203
1176.39	186.174
1179.29	35.0293
1182.18	209.809
1185.07	194.647
1187.96	50.3672
1190.86	15.8281
1193.75	21.7129
1196.64	75.0918
1199.54	37.8164
1202.43	60.6973
1205.32	111.305
1208.21	53.3105
1211.11	132.668
1214	235.049
1216.89	124.723
1219.78	92.7422
1222.68	62.7129
1225.57	155.397
1228.46	149.629
1231.36	111.277
1234.25	126.406
1237.14	157.537
1240.03	172.144
1242.92	220.938
1245.82	163.977
1248.71	232.693
1251.6	268.922
1254.5	178.99
1257.39	155.992
1260.28	200.266
1263.17	152.982
1266.07	34.0117
1268.96	118.539
1271.85	314.236
1274.74	407.17
1277.64	315.268
1280.53	153.69
1283.42	140.734
1286.32	103.049
1289.21	88.6484
1292.1	62.418
