Measurement: Raman, 514 nm, unoriented, Raman Data Processed
Mineral: Natrolite
Rruff sample: R040102
Ideal chemistry: Na_2_(Si_3_Al_2_)O_10_2H_2_O
Locality: Ross' Quarry, Northland, New Zealand
Source: University of Arizona Mineral Museum
Description: Mass of colorless acicular crystals
Measured chemistry: (Na_0.92_Ca_0.02_)_2_(Si_3.03_Al_1.99_)O_10_Â·2H_2_O
Raman shift (cm-1)	intensity
130.922	0
135.083	898.373
139.243	2937.38
143.401	3701.68
147.557	1247.41
151.711	133.468
155.863	2915.13
160.013	7002.53
164.161	6577.65
168.308	3305.91
172.452	1184.32
176.594	408.709
180.734	602.094
184.872	651.373
189.008	231.145
193.143	594.654
197.275	1058.56
201.405	1741.39
205.534	2155.18
209.66	1652.87
213.784	1104.76
217.907	1009.04
222.027	514.048
226.146	81.982
230.263	78.218
234.377	154.386
238.49	695.862
242.601	502.547
246.709	80.371
250.816	256.06
254.921	327.501
259.024	222.165
263.125	8.5
267.224	194.485
271.321	363.271
275.416	497.903
279.51	265.587
283.601	77.555
287.69	169.668
291.778	211.342
295.863	549.399
299.947	1121.88
304.029	2234.98
308.108	1732.59
312.186	613.447
316.262	413.85
320.336	401.511
324.408	713.075
328.478	1411.87
332.546	1518.15
336.612	1367.46
340.677	1468.14
344.739	1471.01
348.799	1693.19
352.858	2162.78
356.915	2414.98
360.969	2274.24
365.022	1768.1
369.073	867.197
373.122	609.32
377.169	513.67
381.215	329.133
385.258	395.635
389.299	421.018
393.339	433.505
397.376	380.873
401.412	599.807
405.446	1032.9
409.478	1341.33
413.508	2092.34
417.536	1839.16
421.562	1562.48
425.586	1859.94
429.609	2651.8
433.629	4337.72
437.648	7700.23
441.665	10252.1
445.68	7418.47
449.693	4347.98
453.704	2216.34
457.713	1216.02
461.721	1071.57
465.726	708.412
469.73	869.755
473.731	780.768
477.731	1083.4
481.729	1380.48
485.725	1450.94
489.72	1558.97
493.712	1918.96
497.703	2029.39
501.691	2381.41
505.678	2940.49
509.663	3698.61
513.646	4725.5
517.627	5753.23
521.607	7685.66
525.584	13331.6
529.56	25829.3
533.534	30221.3
537.506	17026.5
541.476	7932
545.444	4101.2
549.41	2485.08
553.375	1791.61
557.337	1165.97
561.298	785.529
565.257	628.283
569.214	448.816
573.17	328.176
577.123	321.65
581.075	147.1
585.024	271.143
588.972	198.443
592.918	316.018
596.863	252.842
600.805	449.475
604.746	112.373
608.685	146.982
612.621	29.543
616.557	38.021
620.49	114.068
624.421	146.916
628.351	6.252
632.279	102.225
636.205	57.43
640.129	49.035
644.051	8.295
647.972	71.115
651.89	93.975
655.807	96.814
659.722	89.082
663.636	87.311
667.547	72.338
671.457	288.355
675.365	134.424
679.271	523.93
683.175	320.889
687.077	618.832
690.978	853.686
694.877	733.18
698.774	1441.17
702.669	1343.07
706.562	1293.26
710.454	737.59
714.344	986.164
718.232	674.207
722.118	1035.77
726.002	1036.65
729.885	584.449
733.766	361.195
737.645	165.539
741.522	130.398
745.397	149.717
749.271	212.148
753.143	185.154
757.013	174.104
760.881	178.391
764.748	123.309
768.613	224.354
772.476	131.504
776.337	66.785
780.196	81.801
784.054	86.039
787.91	364.73
791.764	38.064
795.616	45.834
799.467	48.834
803.316	41.566
807.163	315.4
811.008	1.941
814.851	357.182
818.693	15.004
822.533	56.312
826.371	94.41
830.208	44.391
834.042	14.334
837.875	85.043
841.706	74.133
845.536	201.322
849.363	42.711
853.189	189.996
857.013	301.021
860.836	115.834
864.656	107.41
868.475	165.916
872.292	78.738
876.108	228.25
879.922	179.139
883.733	207.191
887.544	8.23
891.352	136.078
895.159	27.92
898.964	186.766
902.767	261.324
906.568	123.008
910.368	399.721
914.166	300.066
917.962	208.33
921.757	246.08
925.55	390.842
929.341	447.771
933.13	330.066
936.918	428.973
940.703	278.074
944.488	533.367
948.27	313.789
952.051	551.453
955.83	351.23
959.607	569.051
963.383	730.16
967.156	749.93
970.928	672.871
974.699	1028.69
978.468	865.248
982.234	937.871
986	637.752
989.763	919.568
993.525	908.473
997.285	1163.79
1001.04	1268.52
1004.8	2125.06
1008.55	1939.84
1012.31	1402.53
1016.06	1407.75
1019.81	1700.18
1023.56	2202.47
1027.31	1892.42
1031.05	2509.07
1034.79	3120.64
1038.53	4471.18
1042.27	3886.7
1046.01	2522.42
1049.75	1672.94
1053.48	1506.78
1057.22	1175.28
1060.95	1126.38
1064.68	1086.4
1068.4	1080.84
1072.13	1093.81
1075.86	1279.03
1079.58	1197.91
1083.3	1633.39
1087.02	1406.87
1090.74	1412.13
1094.45	1159.1
1098.17	934.217
1101.88	1121.28
1105.59	731.482
1109.3	1011.96
1113.01	872.93
1116.71	673.311
1120.42	1089.96
1124.12	1179.96
1127.82	697.533
1131.52	539.867
1135.22	118.016
1138.91	41.049
1142.61	77.49
1146.3	32.223
1149.99	97.479
1153.68	74.438
1157.37	143.734
1161.06	35.43
1164.74	60.416
1168.42	90.674
1172.1	199.285
1175.78	51.203
1179.46	237.375
1183.14	96.133
1186.81	279.299
1190.48	325.424
1194.15	217.555
1197.83	244.43
1201.49	241.914
1205.16	62.301
1208.82	335.736
1212.49	211.428
1216.15	66.16
1219.81	412.424
1223.46	300.285
1227.12	497.414
1230.78	303.648
1234.43	108.645
1238.08	151.715
1241.73	431.701
1245.38	200.254
1249.03	352.299
1252.67	128.842
1256.31	336.777
1259.95	325.006
1263.6	330.686
1267.23	87.434
1270.87	243.539
1274.51	111.602
1278.14	179.934
1281.77	292.928
1285.4	87.061
1289.03	118.055
1292.66	200.012
1296.28	59.648
1299.91	28.449
1303.53	146.539
1307.15	90.637
1310.77	4.557
1314.38	195.197
1318	138.346
1321.61	231.818
1325.23	69.137
1328.84	196.43
1332.45	61.199
1336.06	139.156
1339.66	176.754
1343.27	315.859
1346.87	321.559
1350.47	297.648
1354.07	247.512
1357.67	332.047
1361.26	433.176
1364.86	379.789
1368.45	405.812
1372.04	218.711
1375.63	488.281
1379.22	250.254
1382.81	412.777
1386.39	473.238
1389.98	583.855
1393.56	309.594
1397.14	280.082
1400.72	597.992
1404.3	429.258
1407.87	537.598
1411.45	548.648
1415.02	418.918
1418.59	455.273
1422.16	296.863
1425.73	365.07
1429.29	349.289
1432.86	354.055
1436.42	665.977
1439.98	688.809
1443.54	449.398
1447.1	438.074
1450.66	591.223
1454.21	463.438
1457.77	418.605
1461.32	296.824
1464.87	370.504
1468.42	800.176
1471.96	510.879
1475.51	806.535
1479.06	290.152
1482.6	738.066
1486.14	498.414
1489.68	896.781
1493.22	192.012
1496.75	266.93
1500.29	493.746
1503.82	52.195
1507.35	224.754
1510.88	371.551
1514.41	335.398
1517.94	553.605
