Measurement: Raman, 785 nm, unoriented, Raman Data Processed
Mineral: Natrosilite
Rruff sample: R060855
Ideal chemistry: Na_2_Si_2_O_5_
Locality: Kedgkverpahk Mountain, Kovoeko Massif, Kola, Russia
Source: Michael Scott
Description: Colorless platy fragment
Raman shift (cm-1)	intensity
89.2256	0
92.6004	16.1584
95.9752	52.626
99.35	26.5976
102.725	6.1965
106.1	5.3057
109.475	169.709
112.849	322.807
116.224	739.084
119.599	910.017
122.974	2121.81
126.349	3980.43
129.723	5332.42
133.098	3781.16
136.473	2054.98
139.848	1845.42
143.223	2085.23
146.597	2640.64
149.972	2073.72
153.347	1242.49
156.722	1017.26
160.097	1120.47
163.472	1052.53
166.846	1230.73
170.221	963.045
173.596	456.087
176.971	419.803
180.346	521.131
183.72	383.659
187.095	637.953
190.47	1255.56
193.845	835.904
197.22	501.398
200.595	119.122
203.969	21.7128
207.344	14.548
210.719	89.3695
214.094	163.187
217.469	242.512
220.844	446.811
224.218	321.321
227.593	182.501
230.968	339.763
234.343	673.422
237.718	816.817
241.092	642.417
244.467	305.308
247.842	118.94
251.217	120.255
254.592	213.778
257.966	347.09
261.341	411.623
264.716	203.947
268.091	67.0673
271.466	6.95813
274.841	1.00589
278.215	10.9962
281.59	20.3566
284.965	28.6604
288.34	39.6448
291.715	13.2623
295.089	15.6506
298.464	61.7484
301.839	110.418
305.214	119.909
308.589	120.301
311.964	118.091
315.338	178.307
318.713	312.123
322.088	534.825
325.463	589.68
328.838	462.014
332.212	418.649
335.587	461.383
338.962	439.365
342.337	295.91
345.712	137.707
349.087	69.327
352.461	46.1661
355.836	29.9864
359.211	18.0321
362.586	44.3
365.961	36.4827
369.335	55.6457
372.71	67.6253
376.085	95.8936
379.46	132.86
382.835	180.496
386.209	283.431
389.584	375.13
392.959	488.008
396.334	716.963
399.709	1004.32
403.084	985.194
406.458	484.297
409.833	215.332
413.208	130.141
416.583	83.8002
419.958	57.8892
423.332	35.4593
426.707	24.1488
430.082	16.7245
433.457	4.43607
436.832	8.75427
440.207	10.3085
443.581	9.43326
446.956	0.099976
450.331	13.2766
453.706	3.11056
457.081	30.9181
460.455	55.0128
463.83	116.248
467.205	127.564
470.58	135.92
473.955	234.926
477.33	516.182
480.704	1202.63
484.079	2413.08
487.454	3582.77
490.829	1999.48
494.204	667.437
497.579	283.849
500.953	115.775
504.328	67.52
507.703	66.6001
511.078	78.1526
514.453	121.309
517.827	194.424
521.202	313.588
524.577	525.977
527.952	977.411
531.327	1879.53
534.702	3761.55
538.076	6731.48
541.451	9127.29
544.826	6452.76
548.201	2981.11
551.576	1461.57
554.95	802.638
558.325	504.02
561.7	283.834
565.075	177.912
568.45	106.188
571.824	47.4052
575.199	16.7498
578.574	19.3977
581.949	4.51993
585.324	10.6873
588.699	1.01404
592.073	39.8816
595.448	116.233
598.823	296.608
602.198	576.044
605.573	737.986
608.947	402.967
612.322	165.888
615.697	68.3373
619.072	32.4649
622.447	15.549
625.822	8.63174
629.196	1.60059
632.571	4.29727
635.946	0.730972
639.321	6.58636
642.696	5.80276
646.071	2.04022
649.445	0.464127
652.82	8.74623
656.195	8.47856
659.57	1.46786
662.945	17.5328
666.319	13.6332
669.694	18.2946
673.069	30.6301
676.444	24.7439
679.819	38.6526
683.193	21.6127
686.568	29.1363
689.943	34.6096
693.318	36.5484
696.693	50.3198
700.068	50.0615
703.442	60.2788
706.817	66.1779
710.192	44.2809
713.567	32.8832
716.942	28.6313
720.317	44.1674
723.691	35.6708
727.066	25.4203
730.441	34.444
733.816	34.4944
737.191	68.5851
740.565	91.806
743.94	164.133
747.315	297.745
750.69	524.722
754.065	743.663
757.439	508.293
760.814	252.71
764.189	150.329
767.564	107.076
770.939	97.4425
774.313	61.5066
777.688	36.1015
781.063	24.9713
784.438	12.6941
787.813	3.43718
791.188	6.87462
794.562	6.77959
797.937	0.514175
801.312	1.41588
804.687	6.40771
808.062	1.9227
811.437	4.85733
814.811	9.7395
818.186	7.89682
821.561	2.37131
824.936	2.21831
828.311	7.48352
831.685	4.24335
835.06	16.0332
838.435	8.79799
841.81	15.5146
845.185	21.4265
848.559	12.4959
851.934	16.8692
855.309	12.0027
858.684	0.545563
862.059	3.79402
865.434	12.4476
868.808	3.29384
872.183	14.855
875.558	4.09012
878.933	17.0781
882.308	2.61711
885.683	2.6463
889.057	2.34755
892.432	2.23813
895.807	6.57944
899.182	7.53386
902.557	15.9914
905.931	8.93271
909.306	21.0201
912.681	15.1884
916.056	11.3482
919.431	18.0772
922.806	2.91875
926.18	10.5927
929.555	5.10388
932.93	1.91528
936.305	17.1955
939.68	0.703903
943.054	11.8325
946.429	0.669403
949.804	20.8302
953.179	22.8346
956.554	50.7429
959.928	71.9224
963.303	163.799
966.678	363.95
970.053	433.85
973.428	173.009
976.803	111.029
980.177	148.829
983.552	66.534
986.927	26.2695
990.302	20.1174
993.677	10.2297
997.052	4.60889
1000.43	6.06332
1003.8	14.1071
1007.18	6.78729
1010.55	2.28951
1013.93	13.9244
1017.3	20.8082
1020.67	52.5458
1024.05	49.2039
1027.42	99.0028
1030.8	225.86
1034.17	403.33
1037.55	190.661
1040.92	89.6337
1044.3	82.2887
1047.67	106.817
1051.05	159.405
1054.42	251.972
1057.8	570.539
1061.17	1660.42
1064.55	4050.23
1067.92	3452.09
1071.3	944.048
1074.67	372.816
1078.05	207.491
1081.42	183.954
1084.8	141.697
1088.17	62.4171
1091.55	46.5719
1094.92	26.0362
1098.3	26.7216
1101.67	21.4111
1105.05	23.0031
1108.42	9.38763
1111.8	8.02637
1115.17	9.59598
1118.55	1.27454
1121.92	5.30817
1125.3	9.69263
1128.67	4.47232
1132.04	3.14758
1135.42	10.3912
1138.79	9.02873
1142.17	1.12198
1145.54	8.15224
1148.92	0.027145
1152.29	11.5447
1155.67	12.9374
1159.04	0.636887
1162.42	9.43257
1165.79	15.7967
1169.17	7.28972
1172.54	20.4779
1175.92	24.7278
1179.29	15.5761
1182.67	2.4317
1186.04	6.99884
1189.42	34.7204
1192.79	9.9745
1196.17	6.39363
1199.54	3.16443
1202.91	7.41806
1206.29	3.27115
1209.66	10.2866
1213.04	26.8029
1216.41	22.381
1219.79	23.0094
1223.16	3.85907
1226.54	9.07312
1229.91	26.4303
1233.29	2.97188
1236.66	2.52713
1240.04	2.09232
1243.41	11.3892
1246.79	1.03073
1250.16	19.59
1253.54	0.963867
1256.91	11.0183
1260.29	12.5305
1263.66	9.5089
1267.04	18.6452
1270.41	2.0155
