Measurement: Raman, 514 nm, unoriented, Raman Data Processed
Mineral: Natrolite
Rruff sample: R040022
Ideal chemistry: Na_2_(Si_3_Al_2_)O_10_2H_2_O
Locality: Patterson, Passaic County, New Jersey, USA
Source: University of Arizona Mineral Museum
Description: White fine fibrous mass
Measured chemistry: (Na_1.87_Ca_0.08_[box]_0.05_)_Σ=2_(Si_2.97_Al_2.03_)O_10_·1.95H_2_O; H_2_O estimated by difference
Raman shift (cm-1)	intensity
128.541	0
132.727	103.456
136.91	1555.48
141.091	4825.7
145.27	5746.06
149.447	2759.84
153.621	2470.78
157.794	6414.84
161.964	10286.6
166.132	7374.12
170.296	3461.24
174.46	1608.51
178.621	529.52
182.781	803.55
186.938	730.787
191.091	0
195.244	34.013
199.395	1002.31
203.542	3315.11
207.688	4418.58
211.832	2269.68
215.973	872.414
220.113	416.41
224.251	0
228.384	0
232.518	148.969
236.649	1439.51
240.776	2895.79
244.903	1164.56
249.026	212.649
253.149	29.502
257.269	0
261.385	219.456
265.502	812.987
269.614	1239.22
273.726	759.131
277.834	306.568
281.941	100.097
286.045	174.406
290.148	67.761
294.247	231.146
298.346	855.008
302.441	2523.11
306.536	3722.34
310.627	1262.98
314.717	224.881
318.803	0
322.889	132.12
326.971	405.736
331.053	640.366
335.131	346.066
339.208	0
343.282	171.981
347.355	310.849
351.424	561.222
355.493	1123.06
359.558	1443.87
363.622	1017.67
367.683	322.899
371.743	232.427
375.8	127.556
379.856	178.153
383.91	3.702
387.96	24.945
392.01	0
396.056	65.142
400.101	65.358
404.143	4.861
408.183	439
412.221	560.995
416.257	541.677
420.291	682.475
424.324	1493.77
428.354	2937.14
432.381	6054.14
436.407	9029.01
440.431	10346.1
444.453	10951.2
448.471	9222.55
452.489	4554.29
456.505	1456.98
460.518	488.091
464.528	230.603
468.537	0
472.544	0
476.549	0
480.552	74.957
484.552	241.103
488.55	554.681
492.546	775.882
496.541	727.613
500.533	351.23
504.523	173.486
508.511	167.609
512.497	747.802
516.481	1229.03
520.463	2352.87
524.443	4426.71
528.421	10910.8
532.396	19333.5
536.37	14394.5
540.343	6200.18
544.312	2532.44
548.28	1244.18
552.244	590.109
556.208	0
560.169	0
564.129	0
568.085	0
572.041	39.662
575.994	14.775
579.945	7.501
583.893	326.035
587.841	289.484
591.786	165.716
595.729	193.019
599.669	516.677
603.609	586.462
607.546	432.882
611.479	113.89
615.413	179.263
619.343	114.095
623.271	213.119
627.198	170.48
631.124	84.037
635.046	0
638.966	144.982
642.885	91.353
646.802	41.236
650.716	77.074
654.629	160.087
658.539	134.054
662.447	200.972
666.354	0
670.257	195.623
674.161	25.273
678.06	0
681.96	383.957
685.856	93.511
689.75	363.218
693.643	447.906
697.533	926.41
701.421	1475.01
705.307	1672.34
709.192	1327.48
713.075	689.693
716.955	688.412
720.833	1114.62
724.71	1341.32
728.583	970.699
732.456	381.9
736.327	241.394
740.195	199.244
744.062	0
747.927	91.041
751.789	76.638
755.65	42.408
759.508	299.214
763.364	200.789
767.219	350.341
771.072	249.912
774.922	0
778.771	0
782.619	67.552
786.463	211.871
790.306	229.652
794.146	319.923
797.986	185.5
801.822	182.63
805.658	301.24
809.491	229.009
813.322	6.833
817.151	236.154
820.978	93.503
824.802	190.878
828.627	341.343
832.447	232.564
836.267	0
840.085	183.4
843.9	415.816
847.713	543.394
851.525	242.669
855.335	370.611
859.143	375.666
862.947	190.71
866.752	542.474
870.554	350.615
874.354	176.257
878.151	164.423
881.947	264.496
885.742	68.222
889.534	168.027
893.325	317.066
897.112	218.185
900.9	199.427
904.684	23.365
908.466	97.875
912.247	559.38
916.026	52.779
919.802	96.896
923.578	0
927.351	190.996
931.122	43.509
934.89	923.894
938.658	881.939
942.424	141.212
946.187	4.078
949.948	185.06
953.708	106.537
957.466	358.943
961.221	1362.21
964.976	2205.42
968.729	2472.83
972.479	1179.75
976.226	496.939
979.973	333.355
983.718	528.812
987.46	292.119
991.2	399.054
994.94	554.181
998.677	265.933
1002.41	0
1006.14	282.312
1009.88	335.994
1013.61	0
1017.33	230.941
1021.06	1455.36
1024.78	2779.26
1028.51	1653.36
1032.22	1355.94
1035.94	1360.62
1039.66	1295.83
1043.37	880.117
1047.09	615.476
1050.8	151.285
1054.51	0
1058.21	256.187
1061.92	354.828
1065.62	774.578
1069.32	514.875
1073.02	434.859
1076.72	392.593
1080.41	274.089
1084.11	855.964
1087.8	1145.98
1091.49	953.816
1095.18	691.726
1098.87	0
1102.55	0
1106.23	255.343
1109.91	185.679
1113.59	240.253
1117.27	588.078
1120.95	215.316
1124.62	0
1128.29	140.433
1131.96	23.093
1135.63	429.542
1139.3	399.093
1142.96	484.75
1146.62	194.375
1150.28	431.117
1153.94	0
1157.6	208.812
1161.25	216.66
1164.91	528.437
1168.56	479.949
1172.21	382.367
1175.86	175.593
1179.5	173.535
1183.15	220.16
1186.79	290.617
1190.43	185.91
1194.07	425.472
1197.71	641.046
1201.34	555.464
1204.97	350.398
1208.61	125.011
1212.23	276.027
1215.86	352.55
1219.49	219.726
1223.11	52.433
1226.74	354.578
1230.36	513.839
1233.97	363.25
1237.59	363.617
1241.21	295.39
1244.82	0
1248.43	107.835
1252.04	222.835
1255.65	219.371
1259.26	533.324
1262.86	532.39
1266.46	258.203
1270.07	508.035
1273.67	315.148
1277.26	0
1280.86	139.421
1284.45	384.042
1288.05	629.445
1291.63	269.941
1295.22	327.148
1298.81	203.722
1302.39	332.304
1305.98	17.093
1309.56	324.355
1313.14	178.199
1316.72	198.796
1320.29	269.589
1323.87	403.191
1327.44	476.597
1331.01	348.246
1334.58	399.539
1338.15	152.324
1341.71	220.91
1345.28	252.335
1348.84	135.066
1352.4	0
1355.96	167.734
1359.51	531.292
1363.07	515.402
1366.62	509.214
1370.17	414.843
1373.72	206.75
1377.27	364.484
1380.82	483.792
1384.36	143.429
1387.9	644.914
1391.44	362.296
1394.98	658.222
1398.52	492.054
1402.06	385.816
1405.59	438.445
1409.12	418.597
1412.65	0
1416.18	65.472
1419.71	219.644
1423.23	241.296
1426.76	327.007
1430.28	335.921
1433.8	320.203
1437.32	855.152
1440.83	669.296
1444.35	984.414
1447.86	471.378
1451.37	408.417
1454.88	371.046
1458.39	248.472
1461.9	411.82
1465.4	546.285
1468.9	298.339
1472.41	317.093
1475.9	441.386
1479.4	341.214
1482.9	376.855
1486.39	495.246
1489.88	730.027
1493.38	463.835
1496.86	569.96
1500.35	151.371
1503.84	270.058
1507.32	112.589
1510.81	211.933
1514.29	364.648
1517.76	528.679
1521.24	728.671
1524.72	0
