Measurement: Raman, 532 nm, unoriented, Raman Data Processed
Mineral: Natrosilite
Rruff sample: R060855
Ideal chemistry: Na_2_Si_2_O_5_
Locality: Kedgkverpahk Mountain, Kovoeko Massif, Kola, Russia
Source: Michael Scott
Description: Colorless platy fragment
Raman shift (cm-1)	intensity
112.845	0
116.22	44.0964
119.595	101.01
122.969	362.883
126.344	824.136
129.719	2545.33
133.094	1379.25
136.469	178.565
139.843	96.3034
143.218	18.3931
146.593	32.5131
149.968	32.034
153.343	21.488
156.718	32.9741
160.092	25.6567
163.467	136.599
166.842	449.925
170.217	718.342
173.592	143.509
176.966	173.701
180.341	447.44
183.716	341.589
187.091	531.016
190.466	1349.11
193.84	1109.88
197.215	661.442
200.59	270.086
203.965	145.756
207.34	177.275
210.714	303.92
214.089	357.651
217.464	357.28
220.839	534.812
224.214	515.014
227.589	334.013
230.963	472.264
234.338	751.092
237.713	1023.89
241.088	829.363
244.463	456.807
247.838	236.399
251.212	168.383
254.587	207.293
257.962	325.01
261.337	396.074
264.712	230.74
268.086	84.6087
271.461	4.02301
274.836	17.039
278.211	26.8856
281.586	10.5844
284.96	8.70367
288.335	16.3361
291.71	20.4486
295.085	15.9815
298.46	79.6314
301.834	118.159
305.209	114.793
308.584	75.6533
311.959	75.2284
315.334	97.9425
318.709	224.382
322.083	446.493
325.458	536.497
328.833	374.402
332.208	323.551
335.583	367.993
338.957	374.503
342.332	239.316
345.707	80.978
349.082	20.8507
352.457	1.4957
355.832	3.49161
359.206	0.418945
362.581	21.1179
365.956	27.4179
369.331	44.343
372.706	54.4474
376.08	59.5843
379.455	92.8104
382.83	159.975
386.205	250.673
389.58	394.711
392.954	483.789
396.329	622.312
399.704	904.92
403.079	999.715
406.454	506.667
409.829	227.018
413.203	120.649
416.578	85.4789
419.953	46.599
423.328	40.0688
426.703	17.4152
430.077	8.42157
433.452	9.13921
436.827	1.06885
440.202	7.14693
443.577	8.8765
446.952	12.8667
450.326	10.4472
453.701	3.45728
457.076	28.617
460.451	53.3756
463.826	122.496
467.2	141.932
470.575	145.754
473.95	315
477.325	625.221
480.7	1204.86
484.074	2415.05
487.449	4147.61
490.824	2525.22
494.199	839.631
497.574	331.809
500.949	138.598
504.323	84.3653
507.698	61.3592
511.073	83.9244
514.448	138.38
517.823	216.735
521.197	375.884
524.572	650.909
527.947	1198.61
531.322	2161.09
534.697	3825.07
538.072	6760.5
541.446	9904.97
544.821	7492.33
548.196	3506.37
551.571	1705.39
554.946	952.788
558.32	575.25
561.695	357.906
565.07	198.935
568.445	124.605
571.82	70.6653
575.194	41.6123
578.569	9.80161
581.944	3.05435
585.319	11.3844
588.694	2.66296
592.068	49.1957
595.443	144.55
598.818	309.904
602.193	589.646
605.568	839.664
608.942	466.633
612.317	185.01
615.692	77.0544
619.067	45.2342
622.442	14.3451
625.817	17.726
629.191	5.15999
632.566	4.12938
635.941	4.89813
639.316	5.78639
642.691	9.14212
646.066	11.9013
649.44	11.5108
652.815	7.41051
656.19	2.36217
659.565	0.123642
662.94	12.1874
666.314	1.85367
669.689	19.1822
673.064	16.4512
676.439	19.0754
679.814	39.2264
683.188	34.2448
686.563	27.8291
689.938	36.9228
693.313	48.4575
696.688	42.7941
700.062	52.7603
703.437	66.0037
706.812	102.415
710.187	64.779
713.562	37.7494
716.937	27.9132
720.311	34.046
723.686	26.0316
727.061	32.3462
730.436	45.9911
733.811	54.6446
737.185	90.5952
740.56	140.893
743.935	249.792
747.31	429.787
750.685	739.613
754.059	1115.83
757.434	899.648
760.809	451.283
764.184	255.658
767.559	224.441
770.934	207.646
774.308	144.256
777.683	73.6099
781.058	41.1387
784.433	19.1342
787.808	10.9441
791.183	6.89923
794.557	1.69037
797.932	0.324097
801.307	3.43031
804.682	6.3383
808.057	12.9438
811.431	2.64915
814.806	2.02499
818.181	2.93285
821.556	15.341
824.931	11.4811
828.305	3.88515
831.68	4.72173
835.055	2.51137
838.43	3.02385
841.805	10.147
845.179	7.75607
848.554	18.2792
851.929	8.12556
855.304	1.95801
858.679	7.17523
862.053	3.6628
865.428	2.04865
868.803	11.1839
872.178	4.58711
875.553	1.5461
878.928	18.8847
882.302	16.0134
885.677	14.7155
889.052	13.8369
892.427	16.8658
895.802	15.4357
899.177	8.8029
902.551	10.4884
905.926	5.43788
909.301	10.912
912.676	24.7444
916.051	10.0126
919.425	11.5373
922.8	8.85475
926.175	17.4319
929.55	2.91043
932.925	2.85892
936.299	2.09279
939.674	0.951889
943.049	7.65294
946.424	0.596054
949.799	11.6104
953.173	35.6576
956.548	65.9568
959.923	127.537
963.298	255.84
966.673	522.156
970.048	676.302
973.422	275.592
976.797	156.806
980.172	212.89
983.547	116.954
986.922	32.6291
990.296	5.05179
993.671	1.62767
997.046	1.77287
1000.42	2.43845
1003.8	3.27153
1007.17	2.79558
1010.54	0.44902
1013.92	10.3165
1017.29	39.3966
1020.67	96.9954
1024.05	142.115
1027.42	177.712
1030.79	329.338
1034.17	669.03
1037.54	352.089
1040.92	166.067
1044.29	139.294
1047.67	178.615
1051.04	298.783
1054.42	570.353
1057.79	1138.76
1061.17	2521.05
1064.54	6279.68
1067.92	6349.78
1071.29	1649.22
1074.67	679.39
1078.04	401.337
1081.42	397.62
1084.79	372.879
1088.17	163.011
1091.54	66.8841
1094.92	61.7054
1098.29	42.8213
1101.66	30.2694
1105.04	21.9447
1108.41	23.6744
1111.79	12.5711
1115.16	7.27693
1118.54	8.55609
1121.91	5.42683
1125.29	11.1999
1128.66	7.35931
1132.04	1.10313
1135.41	4.92969
1138.79	3.18524
1142.16	3.37988
1145.54	5.81786
1148.91	6.20489
1152.29	9.07523
1155.66	3.16194
1159.04	12.1312
1162.41	20.7368
1165.79	11.6825
1169.16	13.7988
1172.54	7.37033
1175.91	17.6328
1179.29	10.3365
1182.66	14.2328
1186.04	4.2294
1189.41	12.7108
1192.79	4.61939
1196.16	12.9746
1199.54	9.54221
1202.91	6.80153
1206.29	6.03471
1209.66	0.259781
1213.03	10.7888
1216.41	20.5681
1219.78	13.096
1223.16	11.2998
1226.53	17.8374
1229.91	6.33441
1233.28	20.1666
1236.66	10.0718
1240.03	15.5182
1243.41	9.62135
1246.78	21.9966
1250.16	15.8089
1253.53	6.26949
1256.91	6.11679
1260.28	14.3052
1263.66	3.70062
1267.03	9.89041
1270.41	3.0862
1273.78	0.110229
1277.16	11.225
1280.53	6.96484
1283.9	8.57326
1287.28	5.11017
1290.65	11.587
1294.03	11.8529
