Measurement: Raman, 532 nm, unoriented, Raman Data Processed
Mineral: Natrojarosite
Rruff sample: R050289
Ideal chemistry: NaFe^3+^_3_(SO_4_)_2_(OH)_6_
Locality: Bristol mine, Pioche, Lincoln County, Nevada, USA
Source: Marcus Origlieri
Description: Mustard-colored massive
Measured chemistry: (Na_0.99_K_0.01_)_Î£=1_Fe^3+^_3.00_(S_1.00_O_4_)_2_(OH)_6_
Raman shift (cm-1)	intensity
99.1031	0.02938
102.478	0.124081
105.853	1.13944
109.228	1.62152
112.602	4.0631
115.977	9.60696
119.352	16.7725
122.727	23.0689
126.102	27.1978
129.476	33.1606
132.851	47.4679
136.226	72.0566
139.601	60.9734
142.976	25.2371
146.351	14.673
149.725	11.0473
153.1	8.65628
156.475	5.9793
159.85	4.806
163.225	3.34036
166.6	2.33565
169.974	1.60055
173.349	1.3478
176.724	0.72184
180.099	1.327
183.474	2.93981
186.848	5.37802
190.223	6.95476
193.598	9.56097
196.973	14.2406
200.348	25.1441
203.722	48.1878
207.097	72.8842
210.472	100.479
213.847	138.676
217.222	186.328
220.596	232.291
223.971	220.019
227.346	145.313
230.721	78.8569
234.096	42.7443
237.471	23.1914
240.845	12.9861
244.22	7.61427
247.595	4.17219
250.97	1.5191
254.345	0.569649
257.719	0.518627
261.094	0.151077
264.469	0.056267
267.844	3.807
271.219	7.71305
274.594	14.0314
277.968	22.4732
281.343	31.2334
284.718	41.2545
288.093	49.7783
291.468	57.5944
294.842	61.3713
298.217	53.4802
301.592	39.6776
304.967	26.0846
308.342	15.5957
311.717	9.60282
315.091	5.50881
318.466	2.93988
321.841	1.28291
325.216	0.309376
328.591	0.463852
331.966	0.879169
335.34	1.32222
338.715	0.538332
342.09	2.00664
345.465	4.61759
348.84	9.21941
352.214	13.3436
355.589	17.0605
358.964	22.3532
362.339	23.1986
365.714	18.9708
369.089	12.7381
372.463	7.62225
375.838	4.97939
379.213	3.61441
382.588	2.93306
385.963	2.66602
389.337	2.3959
392.712	2.09943
396.087	3.12043
399.462	3.53122
402.837	5.72605
406.212	7.46072
409.586	11.3897
412.961	17.9361
416.336	27.1334
419.711	42.1272
423.086	65.6982
426.46	100.205
429.835	143.78
433.21	191.12
436.585	243.919
439.96	288.491
443.334	275.826
446.709	212.023
450.084	156.399
453.459	110.259
456.834	67.3135
460.209	40.489
463.583	25.1082
466.958	16.2227
470.333	10.8148
473.708	7.61198
477.083	4.97142
480.457	3.08824
483.832	2.18593
487.207	1.22308
490.582	0.448362
493.957	0.810802
497.332	0.009167
500.706	0.691046
504.081	0.588963
507.456	0.713707
510.831	0.617342
514.206	0.007318
517.58	1.12602
520.955	1.48591
524.33	3.3471
527.705	3.81547
531.08	5.82608
534.455	8.75581
537.829	10.5982
541.204	14.3905
544.579	17.9144
547.954	23.1632
551.329	29.1835
554.703	33.6063
558.078	39.1874
561.453	40.5796
564.828	36.9424
568.203	32.7558
571.577	23.8885
574.952	16.9351
578.327	11.142
581.702	7.68082
585.077	4.02998
588.452	2.03859
591.826	0.80224
595.201	0.308491
598.576	0.011042
601.951	2.16569
605.326	8.56455
608.7	24.1757
612.075	40.0994
615.45	70.9751
618.825	120.617
622.2	149.133
625.574	66.7485
628.949	20.8548
632.324	11.5144
635.699	10.3549
639.074	11.6686
642.449	12.5408
645.823	13.1858
649.198	11.9192
652.573	9.16001
655.948	5.94048
659.323	3.66255
662.697	2.75394
666.072	0.994263
669.447	0.968721
672.822	0.354294
676.197	0.438437
679.572	0.030312
682.946	0.37797
686.321	0.222715
689.696	0.604675
693.071	0.004002
696.446	0.244669
699.821	0.798347
703.195	0.514864
706.57	0.786346
709.945	0.763403
713.32	1.10257
716.695	0.801314
720.069	0.985763
723.444	1.58926
726.819	1.50733
730.194	0.950917
733.569	0.72586
736.943	0.608388
740.318	0.517685
743.693	0.287266
747.068	0.019079
750.443	0.033228
753.818	0.065931
757.192	0.133854
760.567	0.229975
763.942	0.120836
767.317	0.305825
770.692	0.196177
774.067	0.517215
777.441	0.898067
780.816	0.675348
784.191	0.906565
787.566	0.964997
790.941	1.14713
794.315	0.87926
797.69	0.801205
801.065	0.608441
804.44	0.561813
807.815	0.859039
811.189	0.533051
814.564	0.012359
817.939	0.670328
821.314	0.123012
824.689	0.600649
828.063	0.616252
831.438	0.20454
834.813	0.127791
838.188	0.804404
841.563	0.120285
844.938	0.13163
848.312	0.698467
851.687	0.329355
855.062	0.798279
858.437	0.570447
861.812	0.979123
865.187	0.932306
868.561	1.15022
871.936	0.965408
875.311	0.309424
878.686	0.645697
882.061	0.637989
885.435	0.034092
888.81	0.271637
892.185	0.582795
895.56	0.186043
898.935	0.244086
902.309	0.570253
905.684	0.413557
909.059	0.79561
912.434	0.797102
915.809	0.757139
919.184	0.838828
922.558	0.850865
925.933	1.41033
929.308	1.83619
932.683	1.54881
936.058	1.27567
939.433	1.72997
942.807	0.911247
946.182	1.09832
949.557	0.515491
952.932	0.509365
956.307	0.722246
959.681	0.172935
963.056	0.365096
966.431	0.023414
969.806	0.149376
973.181	0.347535
976.556	0.097053
979.93	0.520074
983.305	1.07061
986.68	2.17522
990.055	4.07691
993.43	8.23979
996.804	19.3072
1000.18	40.977
1003.55	69.4325
1006.93	116.489
1010.3	149.895
1013.68	73.0878
1017.05	37.9647
1020.43	31.2023
1023.8	25.9109
1027.18	16.7816
1030.55	9.41909
1033.93	5.75738
1037.3	3.13276
1040.68	2.11382
1044.05	0.898836
1047.43	0.020691
1050.8	0.058727
1054.18	0.549505
1057.55	0.703663
1060.93	0.91489
1064.3	0.363592
1067.68	0.630747
1071.05	1.6365
1074.42	3.78051
1077.8	6.20088
1081.17	9.65368
1084.55	15.6398
1087.92	26.2385
1091.3	43.1569
1094.67	71.1248
1098.05	109.582
1101.42	152.031
1104.8	197.985
1108.17	196.366
1111.55	134.745
1114.92	74.3887
1118.3	44.5433
1121.67	32.0717
1125.05	26.5265
1128.42	24.8419
1131.8	26.2246
1135.17	30.6734
1138.55	38.5697
1141.92	49.9811
1145.3	64.2519
1148.67	76.4431
1152.05	83.8644
1155.42	78.5193
1158.8	64.2723
1162.17	46.8921
1165.55	34.2594
1168.92	24.6187
1172.3	17.4865
1175.67	12.6298
1179.04	9.42067
1182.42	6.83138
1185.79	4.86876
1189.17	3.25482
1192.54	2.34701
1195.92	1.19607
1199.29	0.659023
1202.67	0.096491
1206.04	0.297077
1209.42	0.451551
1212.79	0.641993
1216.17	0.634058
1219.54	0.286261
1222.92	0.170403
1226.29	0.26125
1229.67	0.574475
1233.04	0.68823
1236.42	0.532041
1239.79	0.805708
1243.17	0.697636
1246.54	0.839469
1249.92	1.3076
1253.29	1.92708
1256.66	1.56457
1260.04	1.5026
1263.41	0.697824
1266.79	0.613889
1270.16	0.781004
1273.54	0.661029
1276.91	0.489664
1280.29	0.869525
1283.66	1.04294
1287.04	1.2956
1290.41	0.501624
1293.79	0.684133
1297.16	0.574786
1300.54	0.238096
1303.91	0.283039
