Measurement: Raman, 780 nm, unoriented, Raman Data Processed
Mineral: Natrochalcite
Rruff sample: R050152
Ideal chemistry: NaCu_2_(SO_4_)_2_(OH)H_2_O
Locality: Fortuna mine, Baquedano, Chile
Source: Jim McGlasson
Description: Bright emerald green pyramidal crystals
Measured chemistry: Na_1.00_Cu_2.00_(S_1.00_O_4_)_2_(OH)Â·H_2_O
Raman shift (cm-1)	intensity
110.442	0
113.816	0.74702
117.191	3.03644
120.566	3.79596
123.941	4.97591
127.316	5.63812
130.69	6.08428
134.065	6.161
137.44	5.38215
140.815	1.29727
144.19	0.090735
147.564	0.251493
150.939	0.211984
154.314	0.252196
157.689	1.04186
161.064	1.5413
164.439	2.07231
167.813	3.12541
171.188	3.5335
174.563	4.27381
177.938	4.34835
181.313	2.77838
184.687	3.52473
188.062	4.34287
191.437	5.51394
194.812	6.82858
198.187	7.68181
201.561	9.30626
204.936	10.3651
208.311	9.97404
211.686	8.97523
215.061	6.84413
218.436	4.50752
221.81	3.35145
225.185	2.55134
228.56	0.976171
231.935	1.04628
235.31	0.702277
238.685	0.438407
242.059	0.755924
245.434	0.282426
248.809	0.297435
252.184	0.109327
255.559	0.062454
258.933	0.114489
262.308	0.0521
265.683	0.09947
269.058	0.236575
272.433	0.064571
275.807	0.032077
279.182	0.166582
282.557	0.062427
285.932	0.478237
289.307	0.222771
292.682	0.488097
296.056	0.280121
299.431	0.180229
302.806	0.242907
306.181	0.201321
309.556	0.096573
312.93	0.079721
316.305	0.19311
319.68	0.119422
323.055	0.029135
326.43	0.063238
329.805	0.077693
333.179	0.006372
336.554	0.30017
339.929	0.079
343.304	0.080758
346.679	0.109792
350.053	0.091639
353.428	0.084746
356.803	0.000278
360.178	0.48226
363.553	0.184773
366.928	0.509358
370.302	0.940797
373.677	1.29906
377.052	1.76665
380.427	2.33904
383.802	2.76416
387.176	3.1255
390.551	3.08737
393.926	3.5985
397.301	3.56214
400.676	3.34916
404.05	2.85126
407.425	2.82375
410.8	3.52757
414.175	3.32875
417.55	4.22772
420.925	5.239
424.299	5.98251
427.674	6.54716
431.049	6.58203
434.424	6.55747
437.799	6.70883
441.173	6.83188
444.548	5.67881
447.923	3.58113
451.298	2.82217
454.673	2.48265
458.048	2.87371
461.422	2.89434
464.797	2.5173
468.172	1.8339
471.547	1.39521
474.922	0.370861
478.296	0.613036
481.671	0.042278
485.046	0.056667
488.421	0.023813
491.796	0.249689
495.171	0.075127
498.545	0.047679
501.92	0.065116
505.295	0.043838
508.67	0.00033
512.045	0.133848
515.419	0.112414
518.794	0.310507
522.169	0.274555
525.544	0.324665
528.919	0.332925
532.293	0.056651
535.668	0.37454
539.043	0.334005
542.418	0.388965
545.793	0.423645
549.168	0.194908
552.542	0.189494
555.917	0.188581
559.292	0.013742
562.667	0.273774
566.042	0.286236
569.416	0.022995
572.791	0.114413
576.166	0.001483
579.541	9.4e-05
582.916	0.415849
586.29	0.447811
589.665	0.695356
593.04	1.47099
596.415	1.47181
599.79	2.03023
603.165	2.51564
606.539	2.45477
609.914	2.35019
613.289	2.389
616.664	3.57161
620.039	5.15539
623.413	7.00096
626.788	8.59634
630.163	10.1168
633.538	10.5055
636.913	8.30476
640.288	4.31765
643.662	1.65248
647.037	0.834485
650.412	0.423069
653.787	0.190049
657.162	0.100136
660.537	0.154544
663.911	0.087236
667.286	0.003895
670.661	0.1191
674.036	0.029123
677.411	0.057213
680.785	0.313809
684.16	0.171499
687.535	0.002944
690.91	0.107816
694.285	0.191667
697.659	0.065537
701.034	0.063283
704.409	0.186895
707.784	0.115717
711.159	0.454703
714.534	0.302778
717.908	0.226405
721.283	0.107398
724.658	0.0169
728.033	0.194768
731.408	0.304453
734.782	0.169329
738.157	0.351532
741.532	0.130656
744.907	0.183118
748.282	0.074086
751.657	0.338635
755.031	0.228856
758.406	0.068788
761.781	0.125852
765.156	0.241658
768.531	0.19175
771.905	0.466305
775.28	0.442112
778.655	0.382186
782.03	0.200928
785.405	0.187927
788.779	0.1174
792.154	0.002611
795.529	0.413062
798.904	0.360388
802.279	0.340653
805.654	0.332067
809.028	0.39874
812.403	0.001458
815.778	0.027437
819.153	0.376573
822.528	0.387264
825.903	0.254372
829.277	0.716186
832.652	0.491903
836.027	0.628921
839.402	0.547599
842.777	0.51434
846.151	0.733369
849.526	0.162398
852.901	0.554754
856.276	0.77978
859.651	0.472336
863.025	0.657778
866.4	0.438074
869.775	0.568503
873.15	0.567627
876.525	0.617594
879.899	0.565921
883.274	0.343923
886.649	0.265398
890.024	0.324544
893.399	0.120365
896.774	0.450661
900.148	0.372388
903.523	0.357641
906.898	0.207391
910.273	0.239687
913.648	0.238313
917.023	0.096385
920.397	0.286345
923.772	0.112343
927.147	0.08185
930.522	0.315861
933.897	0.070168
937.271	0.051372
940.646	0.088798
944.021	0.000591
947.396	0.109103
950.771	0.190721
954.145	0.198839
957.52	0.342215
960.895	0.305696
964.27	0.365971
967.645	0.770288
971.019	0.925576
974.394	1.49841
977.769	3.50543
981.144	7.72704
984.519	17.0032
987.894	24.6603
991.268	34.2617
994.643	39.3875
998.018	28.6887
1001.39	10.7851
1004.77	4.13981
1008.14	2.28904
1011.52	1.47395
1014.89	1.41967
1018.27	1.36991
1021.64	1.64983
1025.02	2.96725
1028.39	4.49505
1031.77	7.60845
1035.14	10.7561
1038.52	14.4987
1041.89	16.6642
1045.27	15.6915
1048.64	12.1626
1052.02	6.08991
1055.39	2.8907
1058.77	1.36077
1062.14	0.730253
1065.51	0.557748
1068.89	0.230051
1072.26	0.277523
1075.64	0.459094
1079.01	0.388342
1082.39	0.140337
1085.76	0.170713
1089.14	0.017683
1092.51	0.101782
1095.89	0.117785
1099.26	0.057477
1102.64	0.16594
1106.01	0.24835
1109.39	0.086944
1112.76	0.139176
1116.14	0.170272
1119.51	0.19106
1122.89	0.191677
1126.26	0.02792
1129.64	0.288265
1133.01	0.029349
1136.38	0.208837
1139.76	0.14012
1143.13	0.027353
1146.51	0.110631
1149.88	0.281545
1153.26	0.10668
1156.63	0.089047
1160.01	0.250741
1163.38	0.111244
1166.76	0.147782
1170.13	0.554218
1173.51	0.862937
1176.88	0.728334
1180.26	0.829965
1183.63	1.41886
1187.01	2.05269
1190.38	3.12922
1193.76	5.93708
1197.13	8.44519
1200.51	11.1529
1203.88	12.4368
1207.26	9.81858
1210.63	5.1264
1214.01	2.3645
1217.38	1.56069
1220.76	1.00508
1224.13	0.460775
1227.51	0.224061
1230.88	0.476305
1234.26	0.381065
1237.63	0.369211
1241.01	0.07051
1244.38	0.146734
1247.76	0.215585
1251.13	0.221193
1254.5	0.136718
1257.88	0.231086
1261.25	0.361663
1264.63	0.044213
1268	0.131364
