Measurement: Raman, 532 nm, unoriented, Raman Data Processed
Mineral: Natrojarosite
Rruff sample: R080062
Ideal chemistry: NaFe^3+^_3_(SO_4_)_2_(OH)_6_
Locality: Lavra  do Tomé, Galiléja, Minas Gerais, Brazil
Source: Luiz Menezes
Description: Golden brown rhombohedral crystals associated with colorless to pale purple phosphosiderite
Raman shift (cm-1)	intensity
114.531	0
117.906	27.8538
121.281	108.987
124.655	169.379
128.03	238.797
131.405	371.103
134.78	620.571
138.155	968.931
141.529	482.558
144.904	175.543
148.279	99.7777
151.654	59.0793
155.029	37.3688
158.404	19.4159
161.778	7.51654
165.153	1.56766
168.528	4.16943
171.903	7.58908
175.278	10.6679
178.652	7.03107
182.027	1.97394
185.402	18.7508
188.777	36.6553
192.152	55.6547
195.526	84.7802
198.901	140.931
202.276	253.162
205.651	449.23
209.026	715.484
212.401	1017.96
215.775	1395.64
219.15	1919.66
222.525	2542.11
225.9	2687.68
229.275	1837.77
232.649	1006.1
236.024	563.903
239.399	338.948
242.774	215.237
246.149	143.421
249.524	101.439
252.898	66.1271
256.273	42.8478
259.648	28.1992
263.023	28.8681
266.398	38.7994
269.772	67.6999
273.147	113.718
276.522	180.818
279.897	270.41
283.272	372.608
286.647	478.966
290.021	591.128
293.396	675.008
296.771	669.329
300.146	557.861
303.521	392.16
306.895	261.21
310.27	169.56
313.645	103.996
317.02	59.6735
320.395	31.571
323.769	11.0968
327.144	1.48947
330.519	11.2597
333.894	16.668
337.269	13.88
340.644	2.56805
344.018	13.3476
347.393	44.9368
350.768	91.803
354.143	152.066
357.518	224.242
360.892	301.328
364.267	321.305
367.642	242.244
371.017	152.363
374.392	91.5178
377.767	57.5208
381.141	39.8053
384.516	32.4872
387.891	27.8903
391.266	24.7059
394.641	21.7088
398.015	32.058
401.39	50.5133
404.765	75.0968
408.14	107.611
411.515	154.556
414.89	225.244
418.264	332.098
421.639	497.361
425.014	750.184
428.389	1089.15
431.764	1517.81
435.139	2097.84
438.513	2786.72
441.888	3159.87
445.263	2728.98
448.638	1997.78
452.012	1536.82
455.387	1035.93
458.762	614.82
462.137	379.172
465.512	247.219
468.887	163.159
472.261	105.748
475.636	66.7616
479.011	41.7436
482.386	24.9738
485.761	14.817
489.135	6.65709
492.51	0.084793
495.885	3.00909
499.26	4.06146
502.635	7.0834
506.01	8.83139
509.384	8.91408
512.759	5.03392
516.134	0.653931
519.509	7.81255
522.884	18.7178
526.259	31.7814
529.633	50.1265
533.008	72.7368
536.383	100.846
539.758	137.985
543.133	188.547
546.507	248.67
549.882	325.795
553.257	408.173
556.632	498.289
560.007	560.848
563.381	575.623
566.756	525.913
570.131	435.979
573.506	332.367
576.881	245.271
580.256	174.664
583.63	119.757
587.005	82.424
590.38	53.2076
593.755	35.724
597.13	24.1632
600.505	25.5484
603.879	52.9126
607.254	152.235
610.629	303.187
614.004	491.489
617.379	860.737
620.753	1371.82
624.128	1453.23
627.503	515.476
630.878	191.632
634.253	111.995
637.627	99.8937
641.002	113.175
644.377	138.265
647.752	148.088
651.127	130.03
654.501	95.7844
657.876	59.707
661.251	35.5101
664.626	19.2861
668.001	9.31688
671.376	1.87176
674.75	1.11887
678.125	3.11081
681.5	3.30936
684.875	4.72744
688.25	3.12719
691.625	0.745735
694.999	0.033226
698.374	3.34491
701.749	5.41878
705.124	8.39201
708.499	10.7552
711.873	12.0095
715.248	15.3388
718.623	15.409
721.998	16.7087
725.373	18.2429
728.747	17.2712
732.122	14.558
735.497	13.3439
738.872	9.99695
742.247	7.21609
745.622	4.3515
748.996	3.75576
752.371	0.968483
755.746	0.229401
759.121	0.165985
762.496	1.33753
765.87	3.36115
769.245	2.36334
772.62	1.86691
775.995	3.38252
779.37	4.40229
782.745	4.29979
786.119	6.62229
789.494	7.4463
792.869	6.01771
796.244	6.31072
799.619	6.22858
802.994	5.52876
806.368	7.26868
809.743	4.98602
813.118	4.20074
816.493	4.09202
819.868	2.98277
823.242	3.73814
826.617	3.11668
829.992	2.96973
833.367	3.39829
836.742	0.612518
840.116	1.22792
843.491	2.00729
846.866	0.858253
850.241	0.030754
853.616	5.37034
856.99	3.99336
860.365	10.2048
863.74	5.43525
867.115	6.84401
870.49	6.4042
873.865	5.30793
877.239	4.34001
880.614	4.81941
883.989	2.4632
887.364	1.70614
890.739	2.52991
894.114	2.01858
897.488	4.8701
900.863	7.41047
904.238	10.2491
907.613	10.9325
910.988	9.654
914.362	8.81664
917.737	7.69384
921.112	8.52451
924.487	8.98433
927.862	9.25535
931.236	8.79993
934.611	6.86156
937.986	7.73598
941.361	3.88797
944.736	3.12893
948.111	1.90295
951.485	1.42348
954.86	1.77289
958.235	2.04091
961.61	2.00662
964.985	1.84869
968.36	5.82884
971.734	17.4798
975.109	30.7791
978.484	47.2825
981.859	63.7261
985.234	74.716
988.608	81.2728
991.983	96.8271
995.358	145.241
998.733	294.687
1002.11	524.382
1005.48	892.303
1008.86	1729.29
1012.23	2215.43
1015.61	853.997
1018.98	442.943
1022.36	373.871
1025.73	343.36
1029.11	253.238
1032.48	157.662
1035.86	103.304
1039.23	71.1992
1042.61	54.0608
1045.98	33.4238
1049.36	17.1484
1052.73	3.36458
1056.11	5.84615
1059.48	11.7263
1062.85	13.118
1066.23	6.47072
1069.6	5.28409
1072.98	24.4106
1076.35	49.1914
1079.73	79.2602
1083.1	117.647
1086.48	169.35
1089.85	252.23
1093.23	396.058
1096.6	649.747
1099.98	1063.14
1103.35	1634.03
1106.73	2339.86
1110.1	2693.95
1113.48	2077.78
1116.85	1247.61
1120.23	782.117
1123.6	539.249
1126.98	418.498
1130.35	369.932
1133.72	368.313
1137.1	409.877
1140.47	499.389
1143.85	635.867
1147.22	791.976
1150.6	914.433
1153.97	944.455
1157.35	836.026
1160.72	643.124
1164.1	466.19
1167.47	333.673
1170.85	238.068
1174.22	169.963
1177.6	121.072
1180.97	87.4726
1184.35	60.8425
1187.72	41.278
1191.1	30.2571
1194.47	17.6094
1197.85	9.61144
1201.22	3.34398
1204.6	1.59518
1207.97	4.40714
1211.35	4.31834
1214.72	5.83152
1218.1	5.5517
1221.47	3.25656
1224.85	2.13496
1228.22	0.451729
1231.6	2.59566
1234.97	5.51698
1238.35	6.81103
1241.72	10.9097
1245.09	13.2364
1248.47	16.4861
1251.84	18.7563
1255.22	19.8672
1258.59	19.104
1261.97	12.7542
1265.34	8.40267
1268.72	4.67489
1272.09	3.31186
1275.47	3.51211
1278.84	5.26377
1282.22	4.99423
1285.59	5.40856
1288.97	3.93764
1292.34	2.45336
1295.72	1.76682
1299.09	1.12629
1302.47	0.388077
