Measurement: Raman, 780 nm, unoriented, Raman Data Processed
Mineral: Natrojarosite
Rruff sample: R050471
Ideal chemistry: NaFe^3+^_3_(SO_4_)_2_(OH)_6_
Locality: Bristol mine, Pioche, Lincoln County, Nevada, USA
Source: Marcus Origlieri
Description: Tan colored, fine-grained massive
Measured chemistry: (Na_0.60_K_0.30_Pb_0.10_)_Σ=1_(Fe^3+^_2.98_Al_0.02_)_Σ=3_((S_0.95_As_0.05_)_Σ=1_O_4_)_2_(OH)_6_
Raman shift (cm-1)	intensity
116.925	0
120.3	14.4274
123.674	27.6501
127.049	60.0394
130.424	104.906
133.799	172.598
137.174	287.836
140.549	212.49
143.923	65.4983
147.298	27.843
150.673	14.001
154.048	6.82608
157.423	2.01856
160.798	0.812996
164.172	2.15929
167.547	3.73509
170.922	2.34509
174.297	0.428513
177.672	4.32654
181.046	13.5102
184.421	23.5926
187.796	39.6385
191.171	57.8681
194.546	74.9748
197.921	103.148
201.295	140.651
204.67	180.533
208.045	223.17
211.42	262.135
214.795	316.829
218.169	388.798
221.544	428.847
224.919	355.618
228.294	213.505
231.669	109.373
235.043	60.5798
238.418	36.1037
241.793	20.838
245.168	14.9008
248.543	9.5214
251.918	6.82555
255.292	2.93784
258.667	0.682671
262.042	0.417961
265.417	0.885117
268.792	2.40778
272.166	5.30139
275.541	13.6241
278.916	24.3885
282.291	38.1861
285.666	51.0131
289.041	66.1225
292.415	80.99
295.79	93.1189
299.165	88.8447
302.54	63.2502
305.915	34.373
309.289	17.6004
312.664	9.17809
316.039	3.16549
319.414	0.55629
322.789	1.62334
326.164	0.024223
329.538	1.60321
332.913	4.21811
336.288	7.3758
339.663	11.5365
343.038	17.3512
346.413	27.0332
349.787	38.785
353.162	44.7354
356.537	44.9837
359.912	43.9147
363.287	38.6354
366.661	27.0374
370.036	14.9804
373.411	6.7537
376.786	1.22648
380.161	0.126511
383.536	2.15518
386.91	1.25377
390.285	0.48748
393.66	0.53632
397.035	3.62655
400.41	7.80242
403.784	12.1831
407.159	18.6045
410.534	28.279
413.909	42.1613
417.284	61.8165
420.659	88.422
424.033	124.284
427.408	173.145
430.783	228.516
434.158	273.531
437.533	291.305
440.907	291.154
444.282	271.33
447.657	243.685
451.032	220.921
454.407	171.258
457.781	102.386
461.156	66.2043
464.531	51.4359
467.906	46.5485
471.281	43.6737
474.656	40.4208
478.031	32.2731
481.405	22.5801
484.78	13.1823
488.155	7.96735
491.53	5.04229
494.904	2.61187
498.279	1.65492
501.654	0.784763
505.029	1.38591
508.404	1.1532
511.779	0.175793
515.153	0.474903
518.528	0.322544
521.903	1.86392
525.278	3.96897
528.653	6.3479
532.028	11.2667
535.402	15.2088
538.777	21.5194
542.152	27.0579
545.527	34.5214
548.902	42.0667
552.277	51.7696
555.651	60.1703
559.026	68.0342
562.401	70.0928
565.776	68.7004
569.151	61.1658
572.525	49.3529
575.9	36.7077
579.275	24.4093
582.65	14.0909
586.025	8.92544
589.399	3.44895
592.774	1.97615
596.149	0.811161
599.524	1.99485
602.899	4.23048
606.274	14.7499
609.648	31.0752
613.023	42.9524
616.398	68.0396
619.773	117.698
623.148	155.336
626.523	73.305
629.897	24.263
633.272	13.8566
636.647	13.6924
640.022	14.9064
643.397	15.0257
646.771	12.1628
650.146	9.4206
653.521	4.96672
656.896	2.37412
660.271	1.21897
663.645	1.03156
667.02	0.289589
670.395	0.694927
673.77	0.324646
677.145	1.41684
680.52	0.32555
683.894	0.238527
687.269	0.545809
690.644	0.160366
694.019	0.107283
697.394	0.448616
700.769	0.990734
704.143	1.13993
707.518	1.65313
710.893	2.66389
714.268	1.59998
717.643	2.03002
721.017	2.38491
724.392	2.14415
727.767	2.12781
731.142	2.04432
734.517	2.57958
737.891	0.808348
741.266	1.46964
744.641	0.819326
748.016	0.458807
751.391	0.306881
754.766	0.028158
758.14	0.391848
761.515	0.070854
764.89	1.24022
768.265	0.707125
771.64	0.599735
775.014	0.17853
778.389	1.14691
781.764	0.844137
785.139	1.05114
788.514	1.68205
791.889	3.00713
795.263	4.84155
798.638	5.94893
802.013	6.77113
805.388	6.67326
808.763	7.55982
812.138	8.35212
815.512	8.61629
818.887	9.23933
822.262	9.49298
825.637	10.5745
829.012	10.5586
832.386	12.7417
835.761	13.8083
839.136	13.3102
842.511	14.967
845.886	15.0987
849.261	13.176
852.635	13.2651
856.01	11.8172
859.385	10.1048
862.76	7.89531
866.135	6.70896
869.51	5.62483
872.884	4.29159
876.259	3.4541
879.634	2.84762
883.009	1.03846
886.384	0.104584
889.758	0.497923
893.133	0.509583
896.508	0.218206
899.883	0.702579
903.258	0.183222
906.632	0.501322
910.007	0.752626
913.382	0.601311
916.757	1.25313
920.132	0.129683
923.506	0.100872
926.881	1.54506
930.256	0.963171
933.631	0.937456
937.006	1.22296
940.381	0.880646
943.755	0.195404
947.13	0.363008
950.505	0.0973
953.88	0.206762
957.255	0.528284
960.63	0.64986
964.004	0.098167
967.379	0.017445
970.754	1.60057
974.129	1.85279
977.504	2.87552
980.879	3.98003
984.253	6.12423
987.628	11.3657
991.003	21.191
994.378	40.0956
997.753	68.0858
1001.13	102.047
1004.5	154.099
1007.88	193.223
1011.25	171.452
1014.63	71.3319
1018	38.1507
1021.38	28.5843
1024.75	21.4757
1028.13	13.8918
1031.5	7.92753
1034.88	4.59396
1038.25	1.77988
1041.62	0.636122
1045	0.478617
1048.38	1.08434
1051.75	0.711439
1055.12	0.960146
1058.5	0.064558
1061.87	0.626741
1065.25	1.6779
1068.62	4.37077
1072	5.68185
1075.37	7.68816
1078.75	14.3643
1082.12	20.2908
1085.5	32.5
1088.87	50.22
1092.25	78.4041
1095.62	113.54
1099	153.653
1102.37	176.859
1105.75	180.147
1109.12	161.43
1112.5	106.061
1115.87	56.3277
1119.25	31.727
1122.62	21.7823
1126	13.0201
1129.37	10.1368
1132.74	13.1289
1136.12	17.4564
1139.49	23.4695
1142.87	30.9032
1146.24	39.4253
1149.62	50.0842
1152.99	52.3631
1156.37	46.9538
1159.74	38.0295
1163.12	24.7952
1166.49	17.3095
1169.87	12.1262
1173.24	8.10512
1176.62	4.80557
1179.99	5.2503
1183.37	2.35831
1186.74	1.38848
1190.12	0.482704
1193.49	0.284344
1196.87	0.365953
1200.24	0.173708
1203.62	0.511678
1206.99	0.086455
1210.37	0.144129
1213.74	0.346633
1217.12	0.053044
1220.49	0.436678
1223.87	0.552511
1227.24	0.470927
1230.62	0.757483
1233.99	1.09922
1237.37	1.20517
1240.74	1.1824
1244.11	0.668815
1247.49	1.40967
1250.86	1.53031
1254.24	1.18231
1257.61	1.72906
1260.99	1.08299
1264.36	0.862376
1267.74	1.15806
1271.11	0.388435
1274.49	1.29244
1277.86	0.928521
1281.24	0.529963
1284.61	0.00808
