Measurement: Raman, 514 nm, unoriented, Raman Data Processed
Mineral: Natrolite
Rruff sample: R040022
Ideal chemistry: Na_2_(Si_3_Al_2_)O_10_2H_2_O
Locality: Patterson, Passaic County, New Jersey, USA
Source: University of Arizona Mineral Museum
Description: White fine fibrous mass
Measured chemistry: (Na_1.87_Ca_0.08_[box]_0.05_)_Σ=2_(Si_2.97_Al_2.03_)O_10_·1.95H_2_O; H_2_O estimated by difference
Raman shift (cm-1)	intensity
89.368	0
93.574	4.88
97.779	88.584
101.981	394.202
106.18	955.893
110.378	2292.14
114.573	4617.24
118.766	3811.71
122.957	2721.3
127.145	1186.49
131.332	1079.43
135.516	1882.75
139.698	3110.07
143.877	3127.31
148.055	1759.08
152.23	1396.86
156.403	2782.51
160.574	4471.43
164.743	3521.11
168.909	1968.09
173.073	1347.77
177.235	981.17
181.395	908.879
185.552	898.812
189.708	579.752
193.861	520.55
198.012	645.266
202.161	849.91
206.307	1059
210.452	611.416
214.594	406.181
218.734	397.768
222.872	179.225
227.007	4.576
231.141	72.882
235.272	189.879
239.401	438.033
243.528	266.36
247.653	106.853
251.775	155.548
255.896	198.975
260.014	166.937
264.13	5.678
268.244	106.297
272.356	173.341
276.465	140.527
280.573	173.608
284.678	173.861
288.781	303.922
292.882	438.062
296.981	519.765
301.077	1019.86
305.172	1512.37
309.264	1110.38
313.354	558.092
317.442	340.583
321.528	332.941
325.612	491.673
329.693	691.612
333.773	746.455
337.85	634.388
341.925	613.383
345.998	723.036
350.069	812.93
354.137	1042.69
358.204	1266.77
362.268	1140.21
366.331	809.966
370.391	531.219
374.449	316.8
378.505	295.803
382.559	247.603
386.611	300.181
390.66	206.458
394.708	291.623
398.753	326.887
402.796	437.549
406.837	746.526
410.876	1040.48
414.913	1298.74
418.948	1049.86
422.981	1039.93
427.011	1201.2
431.04	1605.7
435.066	2399.09
439.09	4558.18
443.113	5086.78
447.133	3080.94
451.151	1667.39
455.166	900.268
459.18	619.314
463.192	422.312
467.202	433.197
471.209	464.41
475.214	364.768
479.218	574.654
483.219	677.535
487.218	812.233
491.215	909.479
495.21	954.183
499.203	1182.25
503.194	1383.18
507.183	1688.13
511.17	2106.67
515.154	2743.33
519.137	3378.89
523.118	4556
527.096	8187.89
531.072	15978.8
535.047	15057.5
539.019	7965.68
542.989	3682.36
546.957	1860.82
550.923	1173.79
554.887	878.021
558.849	726.22
562.809	476.164
566.767	367.268
570.723	253.542
574.677	217.334
578.629	191.748
582.578	114.796
586.526	208.379
590.471	174.162
594.415	99.479
598.357	138.493
602.296	98.661
606.234	65.106
610.169	111.363
614.102	6.331
618.034	15.838
621.963	23.023
625.89	7.927
629.816	1.758
633.739	5.221
637.66	73.871
641.579	1.823
645.496	38.294
649.412	15.114
653.325	3.249
657.236	34.549
661.145	38.638
665.052	57.393
668.957	72.025
672.86	37.632
676.761	63.355
680.66	137.447
684.557	260.227
688.453	377.812
692.346	427.293
696.237	572.566
700.126	702.203
704.013	773.841
707.898	700.981
711.781	700.173
715.662	663.571
719.541	558.421
723.418	581.114
727.293	628.193
731.166	368.308
735.037	252.566
738.907	112.809
742.774	120.626
746.639	137.984
750.502	183.313
754.363	130.631
758.223	93.608
762.08	163.015
765.935	91.398
769.788	93.44
773.64	51.344
777.489	4.782
781.337	18.561
785.182	44.767
789.025	43.204
792.867	85.365
796.707	35.876
800.544	54.183
804.38	4.639
808.213	73.464
812.045	132.981
815.875	41.786
819.703	18.215
823.529	14.634
827.352	38.411
831.174	2.54
834.994	79.805
838.812	44.895
842.629	87.804
846.443	76.559
850.255	100.174
854.065	153.616
857.874	92.882
861.68	7.014
865.484	52.018
869.287	61.691
873.088	124.244
876.886	74.612
880.683	71.818
884.478	52.539
888.271	37.787
892.062	7.307
895.851	63.997
899.638	89.311
903.423	106.024
907.206	67.89
910.987	11.58
914.767	97.792
918.544	120.043
922.32	212.591
926.094	124.22
929.865	124.853
933.635	91.137
937.403	148.756
941.169	247.443
944.933	283.288
948.696	214.428
952.456	104.482
956.214	245.356
959.971	343.141
963.725	536.189
967.478	508.599
971.229	499.404
974.978	520.483
978.725	402.659
982.47	324.5
986.213	278.087
989.954	448.572
993.694	471.229
997.431	544.723
1001.17	489.101
1004.9	529.967
1008.63	564.443
1012.36	607.27
1016.09	686.181
1019.82	738.973
1023.54	992.013
1027.26	943.291
1030.98	1006.46
1034.7	1739.57
1038.42	2591.76
1042.13	2000.22
1045.85	1191.93
1049.56	725.271
1053.27	607.721
1056.98	566.415
1060.68	417.789
1064.39	380.946
1068.09	653.31
1071.79	536.209
1075.49	685.978
1079.18	629.086
1082.88	562.255
1086.57	606.061
1090.26	619.239
1093.95	582.562
1097.64	425.469
1101.32	358.632
1105.01	201.891
1108.69	105.196
1112.37	318.62
1116.05	131.733
1119.72	285.255
1123.39	128.324
1127.07	151.491
1130.74	4.462
1134.41	38.679
1138.07	102.188
1141.74	46.363
1145.4	99.991
1149.06	183.987
1152.72	88.666
1156.38	57.227
1160.04	39.306
1163.69	64.604
1167.34	21.58
1170.99	139.231
1174.64	99.639
1178.29	174.076
1181.93	257.092
1185.58	52.014
1189.22	154.574
1192.86	135.232
1196.49	179.204
1200.13	160.135
1203.76	350.023
1207.4	120.219
1211.03	249.988
1214.65	226.821
1218.28	187.672
1221.91	146.691
1225.53	235.149
1229.15	72.444
1232.77	210.05
1236.39	147.047
1240	203.787
1243.62	270.195
1247.23	166.992
1250.84	142.605
1254.45	98.01
1258.06	183.257
1261.66	48.863
1265.27	164.152
1268.87	98.506
1272.47	271.704
1276.07	174.782
1279.66	47.102
1283.26	99.327
1286.85	50.976
1290.44	101.561
1294.03	19.052
1297.62	95.297
1301.2	158.637
1304.78	67.597
1308.37	136.397
1311.95	84.919
1315.53	93.15
1319.1	100.729
1322.68	28.19
1326.25	124.871
1329.82	111.298
1333.39	67.796
1336.96	113.856
1340.52	229.353
1344.09	144.814
1347.65	59.683
1351.21	164.295
1354.77	78.491
1358.33	133.216
1361.88	136.884
1365.44	120.161
1368.99	303.562
1372.54	366.105
1376.09	269.725
1379.63	132.493
1383.18	264.98
1386.72	77.631
1390.27	315.379
1393.8	279.885
1397.34	287.197
1400.88	152.691
1404.41	335.244
1407.95	297.314
1411.48	263.679
1415.01	374.756
1418.53	314.256
1422.06	187.909
1425.58	177.63
1429.11	218.027
1432.63	148.108
1436.14	111.958
1439.66	276.727
1443.18	292.942
1446.69	316.849
1450.2	302.028
1453.71	337.258
1457.22	293.102
1460.73	426.269
1464.23	299.547
1467.74	259.733
1471.24	362.447
1474.74	426.452
1478.24	361.42
1481.73	266.664
1485.23	252.314
1488.72	318.041
1492.21	383.861
1495.7	120.01
1499.19	337.279
1502.68	195.453
1506.16	194.482
1509.64	222.916
1513.12	9.717
1516.61	2.01
1520.08	29.279
1523.56	16.307
