Measurement: Raman, 780 nm, unoriented, Raman Data Processed
Mineral: Natrodufrenite
Rruff sample: R070599
Ideal chemistry: NaFe^2+^Fe^3+^_5_(PO_4_)_4_(OH)_6_2H_2_O
Locality: Hout Bay, Cape of Good Hope Province, South Africa
Source: James Shigley
Description: Sheaflike, dark brown to red-brown aggregates
Measured chemistry: (Na_0.62_[box]_0.19_Mn_0.10_Ca_0.09_)_Σ=1_Fe^2+^_1.00_(Fe^3+^_4.95_Al_0.05_)_Σ=5_(P_1.00_O_4_)_4_((OH)_4.76_F_0.24_)_Σ=6_·2H_2_O ; H not measured but estimated by difference and charge balance
Raman shift (cm-1)	intensity
154.461	0
157.353	92.5312
160.246	152.175
163.139	282.864
166.032	370.078
168.924	276.498
171.817	181.831
174.71	41.4819
177.602	100.506
180.495	0.789551
183.388	2.29883
186.28	7.22803
189.173	28.4692
192.066	14.1367
194.959	17.7827
197.851	65.0254
200.744	110.325
203.637	312.587
206.529	536.063
209.422	757.333
212.315	1038.8
215.208	1239.53
218.1	1396.36
220.993	1507.59
223.886	1543.19
226.778	1396.88
229.671	1252.95
232.564	957.372
235.456	821.573
238.349	703.063
241.242	611.345
244.135	555.805
247.027	542.332
249.92	535.543
252.813	627.582
255.705	730.898
258.598	931.569
261.491	1159.86
264.383	1434.99
267.276	1657.57
270.169	1913.69
273.062	2152.35
275.954	2451.8
278.847	2886.35
281.74	3128.56
284.632	3340.32
287.525	3378.36
290.418	3349.97
293.31	3211.57
296.203	3017.69
299.096	2654.37
301.988	2224.92
304.881	1927.43
307.774	1602.45
310.667	1130.38
313.559	818.198
316.452	554.694
319.345	376.867
322.237	187.306
325.13	65.2856
328.023	8.05615
330.916	30.417
333.808	96.2158
336.701	22.7236
339.594	122.382
342.486	355.22
345.379	584.808
348.272	694.017
351.164	981.165
354.057	1151.33
356.95	1363.33
359.843	1560.29
362.735	1676.82
365.628	1730.76
368.521	1833.96
371.413	1705.97
374.306	1592.87
377.199	1406.36
380.091	1143.58
382.984	878.578
385.877	698.491
388.77	417.101
391.662	150.377
394.555	30.3984
397.448	136.716
400.34	146.225
403.233	112.961
406.126	304.462
409.019	588.318
411.911	883.831
414.804	1210.35
417.697	1442.73
420.589	1559.48
423.482	1617.12
426.375	1512.76
429.267	1319.23
432.16	1108.25
435.053	847.637
437.945	782.338
440.838	658.877
443.731	689.637
446.624	839.686
449.516	1065.91
452.409	1333.79
455.302	1610.55
458.194	2086.49
461.087	2635.36
463.98	3223.52
466.873	3895.15
469.765	4491.24
472.658	4885.69
475.551	4998.65
478.443	4761.48
481.336	4172.45
484.229	3585.04
487.121	2915.57
490.014	2499.49
492.907	2132.77
495.8	1834.09
498.692	1613.62
501.585	1446.1
504.478	1295.46
507.37	1177.26
510.263	956.29
513.156	800.627
516.048	641.677
518.941	509.02
521.834	356.574
524.726	186.138
527.619	90.8311
530.512	21.4026
533.404	89.2358
536.297	142.823
539.19	63.9773
542.083	47.7983
544.975	273.083
547.868	683.876
550.761	1187.46
553.653	1734.37
556.546	2095.75
559.439	2009.7
562.332	1608.86
565.224	1217.61
568.117	960.912
571.01	834.14
573.902	828.961
576.795	924.182
579.688	999.996
582.581	917.397
585.473	756.683
588.366	734.894
591.259	629.317
594.151	400.69
597.044	233.048
599.937	161.331
602.829	42.4597
605.722	1.37988
608.615	33.7043
611.508	28.4856
614.4	66.8948
617.293	99.8581
620.186	95.5234
623.078	63.5237
625.971	78.8169
628.864	116.383
631.756	229.487
634.649	277.855
637.542	410.202
640.434	474.632
643.327	594.784
646.22	746.2
649.113	833.933
652.005	954.834
654.898	1090.86
657.791	1147.8
660.683	1161.35
663.576	1188.05
666.469	1137.41
669.361	1012.21
672.254	826.633
675.147	696.483
678.04	565.876
680.932	429.448
683.825	276.289
686.718	204.288
689.61	114.478
692.503	77.3191
695.396	60.5756
698.288	23.0569
701.181	17.2878
704.074	4.65271
706.967	31.0657
709.859	42.5703
712.752	17.8649
715.645	19.921
718.537	6.25574
721.43	10.8438
724.323	31.974
727.216	23.2017
730.108	42.3434
733.001	45.6229
735.894	28.213
738.786	65.6249
741.679	114.617
744.572	83.431
747.464	109.132
750.357	103.379
753.25	120.918
756.143	148.991
759.035	85.5212
761.928	131.706
764.821	105.311
767.713	165.467
770.606	96.6627
773.499	110.317
776.391	127.912
779.284	111.804
782.177	102.98
785.069	86.6736
787.962	87.1301
790.855	61.7036
793.748	99.4963
796.64	86.0364
799.533	88.9524
802.426	104.357
805.318	102.434
808.211	128.751
811.104	153.08
813.996	152.089
816.889	139.802
819.782	189.037
822.675	175.804
825.567	168.254
828.46	146.84
831.353	144.004
834.245	186.951
837.138	130.764
840.031	110.234
842.923	135.006
845.816	125.326
848.709	97.8597
851.602	88.4819
854.494	36.3346
857.387	40.37
860.28	68.9375
863.172	25.7987
866.065	8.53699
868.958	13.4217
871.851	11.3672
874.743	16.4446
877.636	4.11804
880.529	46.8744
883.421	17.1726
886.314	67.36
889.207	83.0178
892.099	168.858
894.992	226.236
897.885	314.739
900.778	398.361
903.67	506.351
906.563	492.039
909.456	520.936
912.348	487.947
915.241	416.823
918.134	351.512
921.026	269.452
923.919	207.56
926.812	143.527
929.705	125.602
932.597	125.716
935.49	82.7314
938.383	83.679
941.275	38.0042
944.168	77.8284
947.061	76.3689
949.953	67.6169
952.846	97.1182
955.739	55.9443
958.631	4.52686
961.524	27.9963
964.417	21.1616
967.31	0.989258
970.202	83.2485
973.095	163.897
975.988	238.683
978.88	448.147
981.773	747.788
984.666	1057.89
987.558	1423.51
990.451	1758.1
993.344	2096.39
996.237	2264.91
999.129	2110.2
1002.02	1918.42
1004.91	1706.53
1007.81	1479.87
1010.7	1293.73
1013.59	1141.44
1016.49	939.306
1019.38	777.57
1022.27	645.616
1025.16	542.805
1028.06	500.766
1030.95	498.282
1033.84	487.572
1036.73	470.664
1039.63	512.539
1042.52	542.803
1045.41	567.29
1048.31	660.933
1051.2	651.596
1054.09	644.839
1056.98	601.217
1059.88	541.531
1062.77	508.752
1065.66	398.475
1068.55	349.388
1071.45	261.036
1074.34	223.885
1077.23	156.177
1080.12	148.932
1083.02	125.658
1085.91	119.055
1088.8	85.235
1091.7	94.5765
1094.59	53.243
1097.48	38.1475
1100.37	14.1846
1103.27	3.83545
1106.16	40.0438
1109.05	12.0543
1111.94	17.6837
1114.84	12.4742
1117.73	22.2947
1120.62	33.8534
1123.52	39.4003
1126.41	32.0967
1129.3	30.9851
1132.19	67.9137
1135.09	100.493
1137.98	114.735
1140.87	88.8928
1143.76	140.797
1146.66	129.772
1149.55	153.298
1152.44	160.83
1155.34	133.528
1158.23	176.665
1161.12	171.421
1164.01	151.285
1166.91	156.756
1169.8	166.86
1172.69	193.694
1175.58	226.671
1178.48	297.031
1181.37	336.793
1184.26	418.393
1187.15	437.202
1190.05	385.294
1192.94	232.055
1195.83	161.632
1198.73	79.7609
1201.62	19.8563
1204.51	38.696
1207.4	60.8801
1210.3	37.8756
1213.19	13.3346
1216.08	37.489
1218.97	12.1237
1221.87	6.85083
1224.76	20.4353
1227.65	9.62695
1230.55	48.9608
1233.44	38.9097
1236.33	34.5265
1239.22	34.3445
1242.12	55.74
1245.01	32.9019
1247.9	72.8922
1250.79	46.7849
1253.69	22.373
1256.58	21.3634
1259.47	51.0739
1262.37	17.2454
1265.26	15.395
1268.15	38.373
1271.04	36.3677
1273.94	7.46106
1276.83	39.9383
1279.72	14.9017
1282.61	0.647217
