Measurement: Raman, 780 nm, unoriented, Raman Data Processed
Mineral: Natrojarosite
Rruff sample: R080062
Ideal chemistry: NaFe^3+^_3_(SO_4_)_2_(OH)_6_
Locality: Lavra  do Tomé, Galiléja, Minas Gerais, Brazil
Source: Luiz Menezes
Description: Golden brown rhombohedral crystals associated with colorless to pale purple phosphosiderite
Raman shift (cm-1)	intensity
103.13	0
106.505	1.07907
109.88	6.10074
113.254	41.6321
116.629	115.323
120.004	169.37
123.379	217.726
126.754	290.48
130.129	382.312
133.503	542.765
136.878	848.011
140.253	528.812
143.628	146.174
147.003	55.3036
150.377	23.0566
153.752	7.17085
157.127	0.671509
160.502	4.76119
163.877	5.50024
167.251	2.89227
170.626	2.7182
174.001	1.85115
177.376	10.6287
180.751	23.4806
184.126	40.4619
187.5	56.6756
190.875	76.2749
194.25	94.3287
197.625	136.34
201	213.559
204.375	316.558
207.749	428.152
211.124	552.915
214.499	734.645
217.874	953.02
221.249	1226.26
224.623	1336.04
227.998	970.79
231.373	521.07
234.748	274.942
238.123	157.619
241.498	100.376
244.872	62.1544
248.247	46.1016
251.622	38.4476
254.997	31.3484
258.372	26.2523
261.746	14.212
265.121	11.6073
268.496	21.1759
271.871	38.5288
275.246	62.8405
278.62	93.4569
281.995	130.794
285.37	172.004
288.745	209.103
292.12	234.091
295.495	238.359
298.869	197.172
302.244	140.776
305.619	92.3173
308.994	62.2405
312.369	36.058
315.743	18.8274
319.118	4.88733
322.493	1.31056
325.868	3.01344
329.243	5.3846
332.618	5.7849
335.992	5.05072
339.367	0.912582
342.742	12.4191
346.117	26.7769
349.492	46.8285
352.866	70.117
356.241	100.236
359.616	136.416
362.991	151.692
366.366	124.008
369.74	74.5388
373.115	39.8251
376.49	24.0335
379.865	12.1925
383.24	5.5699
386.615	4.261
389.989	2.98526
393.364	3.17671
396.739	4.01407
400.114	9.09558
403.489	13.6862
406.863	23.3008
410.238	40.042
413.613	67.4049
416.988	111.117
420.363	175.917
423.738	274.152
427.112	384.599
430.487	527.652
433.862	714.083
437.237	945.735
440.612	1141.07
443.986	1085.45
447.361	862.24
450.736	702.015
454.111	507.721
457.486	292.125
460.861	171.02
464.235	105.455
467.61	68.208
470.985	46.569
474.36	33.1505
477.735	24.7497
481.109	21.2785
484.484	18.1457
487.859	13.141
491.234	9.36948
494.609	4.49883
497.983	0.29187
501.358	3.16077
504.733	5.46362
508.108	3.31661
511.483	4.15483
514.858	0.958061
518.232	3.12721
521.607	7.47675
524.982	16.4996
528.357	30.3976
531.732	43.1445
535.106	64.3918
538.481	89.8854
541.856	123.572
545.231	162.787
548.606	212.457
551.981	264.945
555.355	310.58
558.73	346.935
562.105	356.631
565.48	328.642
568.855	273.874
572.23	208.434
575.604	149.215
578.979	105.529
582.354	71.4689
585.729	48.5541
589.104	31.8026
592.478	19.3584
595.853	12.0222
599.228	15.6048
602.603	29.052
605.978	82.2483
609.352	131.757
612.727	185.453
616.102	290.38
619.477	462.522
622.852	559.838
626.226	242.275
629.601	94.8948
632.976	65.8724
636.351	62.6294
639.726	72.7173
643.101	82.3658
646.475	83.8
649.85	75.0169
653.225	52.1259
656.6	32.5287
659.975	18.169
663.35	8.75009
666.724	4.34859
670.099	1.16017
673.474	1.37447
676.849	2.51596
680.224	1.64527
683.598	2.66281
686.973	0.827171
690.348	1.36576
693.723	1.08959
697.098	0.737698
700.472	2.21973
703.847	3.0764
707.222	4.13227
710.597	4.58298
713.972	5.17625
717.347	5.63527
720.721	7.50712
724.096	7.84889
727.471	7.24593
730.846	6.78642
734.221	5.79234
737.596	5.90135
740.97	4.03945
744.345	3.22381
747.72	2.14815
751.095	1.94311
754.47	1.22555
757.844	2.54242
761.219	1.5886
764.594	0.720322
767.969	1.7197
771.344	0.547932
774.718	0.783485
778.093	2.03453
781.468	1.00736
784.843	3.11005
788.218	0.973846
791.592	1.89772
794.967	0.880783
798.342	1.89267
801.717	4.60614
805.092	0.768944
808.467	0.739563
811.841	0.524364
815.216	0.792694
818.591	0.028584
821.966	0.519951
825.341	0.302719
828.716	0.604176
832.09	0.252293
835.465	1.47014
838.84	2.15077
842.215	1.81353
845.59	0.10487
848.964	3.15865
852.339	2.29811
855.714	1.76057
859.089	1.40631
862.464	2.5111
865.838	3.07457
869.213	2.78226
872.588	0.989292
875.963	2.53202
879.338	2.46027
882.713	2.29126
886.087	2.31675
889.462	1.80897
892.837	2.19322
896.212	3.03568
899.587	2.80679
902.962	2.01706
906.336	2.54342
909.711	1.57999
913.086	1.67166
916.461	0.673187
919.836	1.41102
923.21	2.38209
926.585	1.87562
929.96	2.02124
933.335	1.3753
936.71	0.232014
940.084	0.361916
943.459	0.675159
946.834	0.773769
950.209	0.375351
953.584	0.997021
956.958	1.32695
960.333	2.97016
963.708	5.80685
967.083	12.578
970.458	22.5985
973.833	38.1217
977.207	55.3991
980.582	76.4519
983.957	90.573
987.332	87.0193
990.707	88.7305
994.082	114.253
997.456	183.913
1000.83	263.473
1004.21	400.362
1007.58	630.03
1010.96	883.817
1014.33	407.208
1017.71	204.276
1021.08	169.19
1024.45	156.097
1027.83	124.487
1031.2	84.9454
1034.58	57.6408
1037.95	38.7377
1041.33	23.714
1044.7	15.7668
1048.08	7.18189
1051.45	2.37226
1054.83	1.68046
1058.2	4.99614
1061.58	3.97533
1064.95	1.00116
1068.33	3.1833
1071.7	10.5331
1075.08	21.3896
1078.45	32.0842
1081.83	50.6556
1085.2	73.319
1088.58	114.418
1091.95	183.098
1095.33	308.024
1098.7	479.878
1102.08	687.317
1105.45	905.301
1108.83	1020.24
1112.2	808.383
1115.58	484.687
1118.95	285.646
1122.32	184.712
1125.7	129.746
1129.07	102.273
1132.45	88.3524
1135.82	89.1348
1139.2	102.613
1142.57	126.562
1145.95	149.538
1149.32	171.984
1152.7	174.971
1156.07	152.375
1159.45	116.662
1162.82	80.7196
1166.2	53.4907
1169.57	38.2923
1172.95	24.5591
1176.32	16.3324
1179.7	9.76289
1183.07	5.00076
1186.45	3.84005
1189.82	0.998905
1193.2	0.110054
1196.57	0.845905
1199.94	1.62134
1203.32	1.69498
1206.69	0.97023
1210.07	0.929104
1213.44	0.016396
1216.82	0.468414
1220.19	0.587845
1223.57	2.12615
1226.94	2.85552
1230.32	3.38784
1233.69	6.22795
1237.07	8.33545
1240.44	9.10481
1243.82	10.33
1247.19	10.0186
1250.57	8.35989
1253.94	5.11146
1257.32	4.78582
1260.69	3.6591
1264.07	2.40029
1267.44	2.4628
1270.82	2.48293
1274.19	0.970181
1277.57	2.41393
1280.94	0.950367
1284.32	0.665401
