Measurement: Raman, 532 nm, unoriented, Raman Data Processed
Mineral: Naujakasite
Rruff sample: R060975
Ideal chemistry: Na_6_Fe^2+^Al_4_Si_8_O_26_
Locality: Lille Elv Plateau, Kangerdluarssuk, Ilimaussaq intrusion, Greenland
Source: Michael Scott
Description: Gray colored plates associated with black arfvedsonite
Raman shift (cm-1)	intensity
136.468	0
139.361	480.318
142.253	1379.44
145.146	1885.08
148.039	1859.77
150.931	2441.05
153.824	2571.53
156.717	2362.19
159.61	2422.76
162.502	3310.13
165.395	4134.93
168.288	4978.87
171.18	4736.44
174.073	3148.43
176.966	2003.31
179.858	1564.34
182.751	1492.78
185.644	1873.38
188.537	1928.56
191.429	1284.34
194.322	613.781
197.215	303.166
200.107	117.948
203	43.1435
205.893	75.8369
208.786	130.961
211.678	36.6006
214.571	58.7969
217.464	136.91
220.356	218.577
223.249	3.83398
226.142	100.689
229.034	118.125
231.927	170.42
234.82	84.4824
237.713	26.7061
240.605	129.83
243.498	461.015
246.391	759.527
249.283	1098.98
252.176	1645.29
255.069	2176.97
257.961	2818.75
260.854	3347.22
263.747	3379.48
266.639	2721.26
269.532	2184.99
272.425	1977.83
275.318	2039.28
278.21	2108.7
281.103	1856.28
283.996	1522.52
286.888	1238.25
289.781	1236.97
292.674	1317.72
295.567	1636.18
298.459	2060.52
301.352	2426.12
304.245	2588.66
307.137	2593
310.03	2507.56
312.923	2589.49
315.815	2866.07
318.708	3191.42
321.601	4101.67
324.493	5110.11
327.386	6070.96
330.279	6458.06
333.172	5823.64
336.064	5198.2
338.957	5283.18
341.85	5858.98
344.742	5913
347.635	5089.91
350.528	3903.69
353.421	2847.86
356.313	2023.03
359.206	1601.97
362.099	1165.04
364.991	1044.78
367.884	922.352
370.777	432.493
373.669	155.962
376.562	34.8662
379.455	90.7715
382.347	7.33301
385.24	402.573
388.133	654.61
391.026	845.591
393.918	930.688
396.811	594.107
399.704	203.226
402.596	32.5928
405.489	189.429
408.382	127.42
411.274	54.7998
414.167	154.794
417.06	427.737
419.952	685.924
422.845	1128.84
425.738	1570.51
428.631	1713.21
431.523	1460.14
434.416	1259.73
437.309	1328.46
440.201	1604.24
443.094	2003.45
445.987	2535.53
448.88	2952.88
451.772	2927.33
454.665	2428.4
457.558	1743.58
460.45	1254.64
463.343	1066.31
466.236	908.698
469.128	1049.52
472.021	1244.35
474.914	1673.25
477.807	2210.01
480.699	2693.16
483.592	3080.82
486.485	3362.62
489.377	3682.53
492.27	3572.19
495.163	2630.34
498.055	1647.65
500.948	1028.64
503.841	742.604
506.733	651.204
509.626	513.273
512.519	328.525
515.412	260.656
518.304	99.4502
521.197	107.176
524.09	50.0742
526.982	70.1016
529.875	117.381
532.768	66.2305
535.66	127.514
538.553	2.84766
541.446	66.3965
544.339	21.5078
547.231	16.793
550.124	45.1621
553.017	8.87793
555.909	38.502
558.802	21.7686
561.695	7.91211
564.587	105.395
567.48	135.799
570.373	201.638
573.266	290.876
576.158	364.59
579.051	397.208
581.944	608.982
584.836	739.77
587.729	1101
590.622	1565.45
593.514	2311.56
596.407	3368.52
599.3	4754.67
602.193	6630.94
605.085	8738.14
607.978	10819.6
610.871	11436.5
613.763	10552.2
616.656	8281.92
619.549	5762.76
622.442	4137.32
625.334	3302.16
628.227	2615.19
631.12	2041.21
634.012	1519.03
636.905	1055.77
639.798	817.621
642.69	599.071
645.583	510.366
648.476	523.035
651.368	676.346
654.261	787.579
657.154	974.685
660.047	1214.5
662.939	1614.12
665.832	2143.45
668.725	2245.49
671.617	1771.91
674.51	1222.56
677.403	760.984
680.295	598.111
683.188	620.842
686.081	725.437
688.973	604.53
691.866	646.588
694.759	620.533
697.652	745.608
700.544	704.994
703.437	572.411
706.33	210.094
709.222	30.7139
712.115	59.9102
715.008	56.2607
717.9	82.4766
720.793	46.5732
723.686	33.1445
726.579	19.7461
729.471	85.0156
732.364	82.4102
735.257	10.6377
738.149	34.7783
741.042	7.2832
743.935	72.75
746.827	194.224
749.72	169.356
752.613	158.264
755.506	134.238
758.398	186.213
761.291	104.572
764.184	42.9082
767.076	85.167
769.969	140.439
772.862	135.78
775.755	12.7969
778.647	36.3369
781.54	68.3311
784.433	50.7852
787.325	13.334
790.218	107.242
793.111	65.0234
796.003	122.707
798.896	168.139
801.789	254.01
804.682	270.312
807.574	323.387
810.467	281.202
813.36	358.8
816.252	464.474
819.145	535.828
822.038	458.728
824.93	435.428
827.823	599.305
830.716	541.5
833.609	598.743
836.501	610.642
839.394	530.532
842.287	557.501
845.179	452.522
848.072	315.812
850.965	222.049
853.857	87.8203
856.75	97.4922
859.643	119.79
862.535	122.199
865.428	78.6631
868.321	166.458
871.214	21.4766
874.106	86.2422
876.999	32.5225
879.892	2.9375
882.784	51.543
885.677	113.633
888.57	116.65
891.462	135.151
894.355	232.432
897.248	251.208
900.14	139.434
903.033	121.903
905.926	194.906
908.819	148.341
911.711	288.142
914.604	280.144
917.497	346.402
920.389	484.22
923.282	480.854
926.175	465.286
929.067	513.257
931.96	455.066
934.853	416.268
937.746	491.49
940.638	528.638
943.531	468.205
946.424	440.144
949.316	516.234
952.209	498.284
955.102	419.87
957.995	216.588
960.887	64.0293
963.78	34.7109
966.673	61.8916
969.565	143.308
972.458	59.7227
975.351	28.499
978.243	66.6787
981.136	254.578
984.029	403.333
986.922	565.339
989.814	621.322
992.707	538.735
995.6	394.815
998.492	530.187
1001.38	886.836
1004.28	1004.77
1007.17	1250.74
1010.06	1340.15
1012.96	1374.32
1015.85	1270.04
1018.74	1054
1021.63	970.788
1024.53	1077.9
1027.42	1046
1030.31	1027.15
1033.2	915.646
1036.1	937.094
1038.99	1299.54
1041.88	2000.8
1044.78	3379.78
1047.67	4412.79
1050.56	4051.58
1053.45	4451.63
1056.35	5461.35
1059.24	6210.76
1062.13	5672.78
1065.02	5021.39
1067.92	4856.61
1070.81	4947.46
1073.7	4253.07
1076.6	2895.6
1079.49	1507.24
1082.38	873.676
1085.27	670.55
1088.17	319.497
1091.06	111.91
1093.95	65.2637
1096.84	112.351
1099.74	441.472
1102.63	739.273
1105.52	1268.91
1108.41	1987.89
1111.31	2290.22
1114.2	2083.35
1117.09	1647.53
1119.99	1161.35
1122.88	651.835
1125.77	405.81
1128.66	223.788
1131.56	187.597
1134.45	10.9043
1137.34	55.7315
1140.23	6.41894
1143.13	58.4258
1146.02	175.009
1148.91	88.8379
1151.81	15.083
1154.7	27.2539
1157.59	43.0371
1160.48	151.15
1163.38	128.86
1166.27	103.409
1169.16	255.424
1172.05	249.587
1174.95	479.296
1177.84	514.455
1180.73	575.183
1183.62	720.584
1186.52	787.167
1189.41	857.564
1192.3	720.064
1195.2	867.692
1198.09	872.195
1200.98	1008.85
1203.87	974.501
1206.77	1013
1209.66	1036.69
1212.55	1031.02
1215.44	923.597
1218.34	927.442
1221.23	831.11
1224.12	767.531
1227.02	814.2
1229.91	716.676
1232.8	708.594
1235.69	629.447
1238.59	694.865
1241.48	739.363
1244.37	594.124
1247.26	558.306
1250.16	436.389
1253.05	316.405
1255.94	353.914
1258.84	350.984
1261.73	183.478
1264.62	132.327
1267.51	151.481
1270.41	325.761
1273.3	314.159
1276.19	117.567
1279.08	12.2852
1281.98	1.83887
1284.87	61.9209
1287.76	99.0518
1290.65	52.6777
