Measurement: Raman, 785 nm, unoriented, Raman Data Processed
Mineral: Naujakasite
Rruff sample: R060975
Ideal chemistry: Na_6_Fe^2+^Al_4_Si_8_O_26_
Locality: Lille Elv Plateau, Kangerdluarssuk, Ilimaussaq intrusion, Greenland
Source: Michael Scott
Description: Gray colored plates associated with black arfvedsonite
Raman shift (cm-1)	intensity
122.01	0
124.903	3404.07
127.796	7423.19
130.688	8229.13
133.581	5167.29
136.474	537.691
139.366	67.1885
142.259	3216.36
145.152	5299.91
148.044	5079.27
150.937	3400.91
153.83	1469.53
156.722	1717.27
159.615	2498.7
162.508	2943.18
165.401	2731.1
168.293	1944.5
171.186	1471.85
174.079	643.118
176.971	189.098
179.864	135.696
182.757	4.44385
185.649	25.8999
188.542	192.844
191.435	11.123
194.328	106.661
197.22	67.8852
200.113	89.9585
203.006	30.8784
205.898	91.4336
208.791	62.5977
211.684	74.542
214.577	108.686
217.469	347.487
220.362	306.087
223.255	194.349
226.147	99.75
229.04	13.6221
231.933	9.85742
234.825	13.8462
237.718	59.2891
240.611	136.868
243.504	154.777
246.396	347.321
249.289	337.422
252.182	511.697
255.074	751.987
257.967	937.598
260.86	1064.98
263.752	992.202
266.645	824.389
269.538	710.026
272.43	687.403
275.323	778.519
278.216	941.266
281.109	885.485
284.001	781.925
286.894	651.614
289.787	590.221
292.679	674.684
295.572	705.271
298.465	901.031
301.358	1067.36
304.25	1139.57
307.143	1177.13
310.036	1187.68
312.928	1131.13
315.821	1233.7
318.714	1375.53
321.606	1658
324.499	2203.67
327.392	2734.08
330.284	2786.18
333.177	2287.12
336.07	1930.2
338.962	1947.9
341.855	2104.61
344.748	2180.75
347.641	1888.97
350.533	1435.71
353.426	1054.53
356.319	771.412
359.211	571.198
362.104	408.834
364.997	428.757
367.889	444.612
370.782	319.559
373.675	204.71
376.568	101.95
379.46	55.4941
382.353	8.71533
385.246	104.175
388.138	174.703
391.031	252.055
393.924	201.965
396.817	84.3965
399.709	19.6977
402.602	56.3857
405.495	69.9766
408.387	99.2695
411.28	27.7207
414.173	30.5713
417.065	120.609
419.958	215.632
422.851	404.509
425.743	580.814
428.636	549.616
431.529	435.309
434.422	335.09
437.314	379.554
440.207	596.457
443.1	676.197
445.992	885.343
448.885	1004.94
451.778	1059.92
454.671	1005.83
457.563	873.438
460.456	798.741
463.349	787.254
466.241	872.999
469.134	867.814
472.027	938.679
474.919	1040.82
477.812	1163.85
480.705	1234.63
483.597	1296.15
486.49	1369.88
489.383	1483.18
492.276	1318.63
495.168	948.729
498.061	595.61
500.954	420.16
503.846	270.438
506.739	261.216
509.632	203.226
512.524	157.856
515.417	109.996
518.31	23.4971
521.202	0.880859
524.095	36.292
526.988	22.6338
529.881	5.08008
532.773	12.9756
535.666	44.2837
538.559	64.668
541.451	82.0806
544.344	5.02783
547.237	82.0464
550.13	49.6943
553.022	47.52
555.915	48.4893
558.808	0.445557
561.7	68.3088
564.593	29.5754
567.486	23.1123
570.378	109.795
573.271	181.538
576.164	131.902
579.057	171.304
581.949	159.954
584.842	198.794
587.735	242.614
590.627	339.488
593.52	519.918
596.413	793.137
599.305	1151.59
602.198	1770.19
605.091	2541.33
607.984	3178.53
610.876	3412
613.769	3140.76
616.662	2444.89
619.554	1649.85
622.447	1178.68
625.34	906.207
628.232	728.343
631.125	579.951
634.018	360.606
636.91	183.085
639.803	91.353
642.696	25.3513
645.589	14.9326
648.481	52.9902
651.374	27.9949
654.267	19.593
657.159	72.7563
660.052	239.289
662.945	374.118
665.837	578.648
668.73	576.312
671.623	581.043
674.515	450.523
677.408	318.459
680.301	255.917
683.194	297.358
686.086	243.368
688.979	199.03
691.872	219.742
694.764	232.444
697.657	222.849
700.55	287.713
703.442	216.327
706.335	133.534
709.228	108.377
712.121	41.6101
715.013	109.739
717.906	60.2205
720.799	108.337
723.691	143.608
726.584	138.428
729.477	114.166
732.37	100.514
735.262	104.097
738.155	64.0708
741.048	84.5542
743.94	48.0403
746.833	31.3655
749.726	32.3198
752.618	45.956
755.511	57.748
758.404	14.0986
761.297	49.0273
764.189	31.4492
767.082	23.6863
769.975	5.14868
772.867	2.0669
775.76	8.99976
778.653	50.9746
781.545	48.5535
784.438	39.1526
787.331	52.8245
790.223	43.9417
793.116	81.3093
796.009	64.4373
798.902	60.0469
801.794	62.1069
804.687	57.655
807.58	81.1606
810.472	64.1103
813.365	58.6545
816.258	51.5369
819.15	52.7437
822.043	38.4958
824.936	8.24951
827.829	13.0303
830.721	23.4817
833.614	6.98926
836.507	71.7517
839.399	10.6502
842.292	17.7222
845.185	38.2444
848.077	97.4731
850.97	112.281
853.863	92.8804
856.755	109.556
859.648	97.7173
862.541	137.558
865.434	142.618
868.326	187.378
871.219	137.053
874.112	223.097
877.004	153.204
879.897	217.572
882.79	219.297
885.683	208.285
888.575	165.956
891.468	207.686
894.361	157.498
897.253	132.387
900.146	154.736
903.039	113.468
905.931	187.08
908.824	146.772
911.717	173.753
914.61	172.469
917.502	206.872
920.395	196.369
923.288	153.797
926.18	165.409
929.073	124.278
931.966	106.964
934.858	114.16
937.751	81.9087
940.644	20.7568
943.536	59.113
946.429	33.2527
949.322	23.4614
952.215	94.1467
955.107	47.3933
958	10.5747
960.893	45.3118
963.785	7.06128
966.678	7.521
969.571	19.1709
972.463	3.052
975.356	40.1768
978.249	7.62109
981.141	84.9526
984.034	53.7336
986.927	105.366
989.82	127.827
992.712	46.5703
995.605	75.5574
998.498	154.932
1001.39	267.927
1004.28	318.903
1007.18	438.45
1010.07	473.912
1012.96	283.96
1015.85	217.651
1018.75	121.248
1021.64	84.6125
1024.53	119.341
1027.42	87.9834
1030.32	127.987
1033.21	33.6279
1036.1	41.3779
1038.99	117.048
1041.89	264.665
1044.78	493.425
1047.67	738.819
1050.57	664.231
1053.46	787.402
1056.35	1038.05
1059.24	1281.28
1062.14	1171.18
1065.03	1047.03
1067.92	928.717
1070.82	942.596
1073.71	799.754
1076.6	550.925
1079.49	462.047
1082.39	334.582
1085.28	317.903
1088.17	205.338
1091.06	92.1265
1093.96	52.0237
1096.85	90.9343
1099.74	152.659
1102.63	253.348
1105.53	460.079
1108.42	751.832
1111.31	906.316
1114.21	872.199
1117.1	656.858
1119.99	395.967
1122.88	240.208
1125.78	237.867
1128.67	111.972
1131.56	66.8057
1134.45	34.9033
1137.35	65.9612
1140.24	9.87036
1143.13	39.7766
1146.03	16.0959
1148.92	37.7427
1151.81	19.0239
1154.7	23.1431
1157.6	4.00391
1160.49	66.2966
1163.38	0.802246
1166.27	45.5349
1169.17	25.4831
1172.06	4.32983
1174.95	38.9329
1177.85	91.2544
1180.74	66.6372
1183.63	73.8906
1186.52	80.0283
1189.42	61.4429
1192.31	67.7666
1195.2	60.3943
1198.09	51.2283
1200.99	56.7332
1203.88	16.2644
1206.77	4.76074
1209.66	21.7087
1212.56	2.06103
1215.45	1.9375
1218.34	41.0652
1221.23	48.7788
1224.13	9.34839
1227.02	22.1982
1229.91	37.0571
1232.81	68.5198
1235.7	43.2957
1238.59	14.4463
1241.48	97.2847
1244.38	131.935
1247.27	97.6357
1250.16	97.8071
1253.06	108.603
1255.95	105.024
1258.84	53.3479
1261.73	59.5786
1264.63	70.5259
