Measurement: Raman, 532 nm, unoriented, Raman Data Processed
Mineral: Nchwaningite
Rruff sample: R140275
Ideal chemistry: Mn^2+^_2_SiO_3_(OH)_2_H_2_O
Locality: N'Chwaning mine, Kuruman, Kalahari manganese field, Northern Cape Province, South Africa
Source: Rock Currier
Description: Micro brown tufts
Raman shift (cm-1)	intensity
89.7832	0
93.158	16.7558
96.5328	12.7743
99.9077	5.08605
103.282	1.22636
106.657	10.2795
110.032	12.2957
113.407	5.77354
116.782	15.6402
120.157	17.7976
123.531	33.2927
126.906	25.4913
130.281	32.4036
133.656	37.7158
137.031	67.146
140.405	71.1988
143.78	45.3091
147.155	42.4105
150.53	36.84
153.905	56.7927
157.28	30.1601
160.654	6.79974
164.029	3.62901
167.404	0.603928
170.779	2.37115
174.154	9.24262
177.528	25.2416
180.903	33.6408
184.278	17.653
187.653	3.02586
191.028	2.08665
194.403	7.95644
197.777	16.0989
201.152	17.9449
204.527	23.7965
207.902	40.5611
211.277	74.9168
214.651	108.859
218.026	89.4148
221.401	61.5491
224.776	52.1816
228.151	51.825
231.525	36.2931
234.9	23.6769
238.275	18.4412
241.65	15.7041
245.025	11.925
248.4	4.70326
251.774	1.37927
255.149	2.78676
258.524	2.25113
261.899	2.3109
265.274	9.04504
268.649	24.8217
272.023	42.031
275.398	61.9158
278.773	99.8119
282.148	136.908
285.523	124.723
288.897	109.587
292.272	120.461
295.647	138.613
299.022	146.842
302.397	133.96
305.772	105.553
309.146	91.7355
312.521	80.1819
315.896	64.3736
319.271	45.415
322.646	36.4872
326.02	31.2396
329.395	20.5406
332.77	13.4751
336.145	11.5123
339.52	12.0092
342.894	7.83025
346.269	3.99107
349.644	0.470291
353.019	0.856216
356.394	1.13332
359.769	2.07037
363.143	2.87088
366.518	7.78599
369.893	10.3312
373.268	21.9614
376.643	30.9906
380.017	31.1065
383.392	26.3845
386.767	24.9105
390.142	21.5547
393.517	15.0114
396.892	13.5277
400.266	15.4609
403.641	20.9199
407.016	24.8243
410.391	34.4295
413.766	34.9756
417.14	31.7431
420.515	27.1485
423.89	29.2862
427.265	33.9142
430.64	37.7781
434.014	38.8142
437.389	37.4015
440.764	32.7906
444.139	34.0912
447.514	30.0928
450.889	20.7736
454.263	9.27008
457.638	5.65498
461.013	2.03323
464.388	1.75478
467.763	0.002472
471.137	0.120941
474.512	0.148651
477.887	1.19373
481.262	1.62711
484.637	1.5184
488.012	6.48354
491.386	7.44467
494.761	7.10053
498.136	4.28696
501.511	4.90665
504.886	3.18985
508.26	3.23477
511.635	3.7738
515.01	5.21925
518.385	5.08264
521.76	4.80302
525.135	2.70612
528.509	3.07243
531.884	3.26506
535.259	2.91243
538.634	2.2587
542.009	0.730362
545.384	0.378265
548.758	1.82489
552.133	0.182938
555.508	1.43547
558.883	0.056366
562.258	0.259659
565.632	0.826752
569.007	0.684402
572.382	1.73692
575.757	0.719177
579.132	1.07938
582.506	1.78516
585.881	1.97232
589.256	5.20035
592.631	3.53143
596.006	8.22856
599.381	12.4041
602.755	20.5749
606.13	33.2674
609.505	53.996
612.88	90.4118
616.255	137.455
619.63	179.058
623.004	167.816
626.379	119.481
629.754	76.0043
633.129	47.9158
636.504	30.7722
639.878	18.9206
643.253	11.9448
646.628	9.01643
650.003	7.10045
653.378	7.37613
656.752	5.0381
660.127	6.10655
663.502	7.7511
666.877	7.58021
670.252	12.3956
673.626	12.6677
677.001	8.6891
680.376	6.65526
683.751	2.79277
687.126	3.65086
690.501	1.28969
693.875	0.421112
697.25	0.2948
700.625	0.243729
704	1.03897
707.375	4.41156
710.75	9.24799
714.124	11.8351
717.499	14.9889
720.874	12.1296
724.249	8.83696
727.624	6.13623
730.998	2.60484
734.373	3.21303
737.748	3.70122
741.123	4.03174
744.498	3.36144
747.872	3.21201
751.247	10.5634
754.622	16.3339
757.997	23.5268
761.372	30.7275
764.747	28.0408
768.121	14.965
771.496	12.3065
774.871	6.9301
778.246	6.42726
781.621	5.55786
784.995	6.9624
788.37	8.95244
791.745	12.4868
795.12	5.95827
798.495	4.03583
801.87	3.10521
805.244	0.437927
808.619	2.16428
811.994	0.261047
815.369	0.675476
818.744	1.6246
822.119	1.22452
825.493	0.153549
828.868	0.092697
832.243	1.91255
835.618	0.623917
838.993	3.26697
842.367	2.70413
845.742	4.61827
849.117	4.61587
852.492	4.2216
855.867	4.51546
859.241	4.13493
862.616	6.51211
865.991	7.5002
869.366	11.381
872.741	11.3269
876.115	8.63962
879.49	5.22427
882.865	3.63449
886.24	2.3261
889.615	4.66399
892.99	2.40436
896.364	1.76479
899.739	0.439331
903.114	0.131592
906.489	0.864365
909.864	0.128769
913.239	2.29047
916.613	6.74382
919.988	8.08749
923.363	19.3509
926.738	30.985
930.113	45.1259
933.487	54.3925
936.862	61.9209
940.237	58.5062
943.612	58.2827
946.987	55.9758
950.361	53.7819
953.736	49.8057
957.111	36.5564
960.486	22.2496
963.861	12.7487
967.236	8.28755
970.61	4.8795
973.985	0.566406
977.36	0.90831
980.735	0.58519
984.11	0.625275
987.485	1.82266
990.859	2.94148
994.234	6.65314
997.609	12.1211
1000.98	18.4605
1004.36	29.1485
1007.73	35.6431
1011.11	36.979
1014.48	31.5989
1017.86	22.5864
1021.23	14.9894
1024.61	8.05275
1027.98	5.01663
1031.36	3.98787
1034.73	3.41324
1038.11	1.71991
1041.48	2.88481
1044.86	3.54483
1048.23	2.04739
1051.61	1.48943
1054.98	0.983765
1058.36	0.715012
1061.73	1.03117
1065.11	0.275299
1068.48	1.4359
1071.86	1.10994
1075.23	2.56705
1078.6	2.82117
1081.98	0.755829
1085.35	1.70096
1088.73	1.18922
1092.1	1.8277
1095.48	0.356171
1098.85	0.111649
1102.23	0.399048
1105.6	1.58714
1108.98	1.19988
1112.35	0.735611
1115.73	1.19876
1119.1	0.846512
1122.48	3.05817
1125.85	0.283295
1129.23	3.25392
1132.6	2.0527
1135.98	2.62004
1139.35	2.57942
1142.73	3.25885
1146.1	3.34732
1149.48	3.74216
1152.85	1.57309
1156.22	1.28035
1159.6	3.4743
1162.97	1.26253
1166.35	1.23753
1169.72	3.1059
1173.1	1.05341
1176.47	2.19914
1179.85	0.473236
1183.22	1.87242
1186.6	2.70252
1189.97	1.37357
1193.35	2.0724
1196.72	3.86882
1200.1	4.54594
1203.47	0.297958
1206.85	1.45015
1210.22	1.94292
1213.6	0.984756
1216.97	3.28781
1220.35	1.34468
1223.72	3.61075
1227.1	4.41605
1230.47	2.85374
1233.85	2.40996
1237.22	0.504822
1240.6	4.50053
1243.97	1.87126
1247.35	1.88319
1250.72	3.40552
1254.1	1.52229
1257.47	3.96819
1260.85	0.595886
1264.22	0.055054
1267.59	1.37361
1270.97	0.914581
1274.34	0.750229
1277.72	0.438293
1281.09	1.52875
1284.47	3.60072
1287.84	2.49164
1291.22	1.85954
1294.59	0.982544
1297.97	0.163208
1301.34	0.472488
