Measurement: Raman, 780 nm, unoriented, Raman Data Processed
Mineral: Nchwaningite
Rruff sample: R140275
Ideal chemistry: Mn^2+^_2_SiO_3_(OH)_2_H_2_O
Locality: N'Chwaning mine, Kuruman, Kalahari manganese field, Northern Cape Province, South Africa
Source: Rock Currier
Description: Micro brown tufts
Raman shift (cm-1)	intensity
100.238	0
103.613	2.46265
106.988	9.3821
110.362	11.564
113.737	0.092896
117.112	3.06443
120.487	5.51566
123.862	15.5086
127.237	18.6078
130.611	21.8136
133.986	33.0397
137.361	52.0843
140.736	58.2215
144.111	35.9931
147.485	31.905
150.86	26.4281
154.235	35.4933
157.61	22.5539
160.985	3.24451
164.359	0.909096
167.734	0.698666
171.109	1.11267
174.484	3.75913
177.859	12.6181
181.234	18.7931
184.608	14.4905
187.983	7.29431
191.358	7.0735
194.733	13.875
198.108	20.4426
201.482	16.8765
204.857	18.6676
208.232	25.4606
211.607	40.3158
214.982	55.0699
218.357	54.7911
221.731	46.5782
225.106	47.4211
228.481	47.3333
231.856	37.4712
235.231	24.3889
238.605	17.181
241.98	12.8479
245.355	9.90195
248.73	5.4521
252.105	1.02823
255.48	1.56247
258.854	1.07991
262.229	0.768711
265.604	5.84227
268.979	12.8967
272.354	22.0247
275.728	31.1595
279.103	44.3402
282.478	62.728
285.853	67.2192
289.228	70.3223
292.602	80.3665
295.977	96.0158
299.352	107.845
302.727	99.2618
306.102	84.8104
309.476	74.6177
312.851	71.2675
316.226	62.484
319.601	43.9471
322.976	34.2786
326.351	26.4218
329.725	18.2904
333.1	12.942
336.475	10.141
339.85	8.12014
343.225	6.42376
346.599	3.75149
349.974	0.001175
353.349	1.14374
356.724	0.871201
360.099	0.94313
363.474	1.62629
366.848	2.7719
370.223	6.2405
373.598	11.2213
376.973	16.5911
380.348	19.0053
383.722	17.8756
387.097	18.445
390.472	15.8205
393.847	11.0827
397.222	10.0317
400.596	11.3381
403.971	11.9924
407.346	17.4005
410.721	20.087
414.096	23.709
417.471	20.7934
420.845	19.905
424.22	21.8058
427.595	26.4277
430.97	31.1695
434.345	30.5042
437.719	26.9331
441.094	20.8584
444.469	19.4224
447.844	14.0269
451.219	9.57423
454.594	5.23099
457.968	2.27495
461.343	0.540138
464.718	0.502285
468.093	0.478065
471.468	0.029446
474.842	0.017868
478.217	0.300259
481.592	0.169086
484.967	2.18167
488.342	3.46412
491.716	3.90706
495.091	4.46435
498.466	4.01522
501.841	2.31366
505.216	1.87551
508.591	0.521725
511.965	0.21611
515.34	0.485325
518.715	1.28901
522.09	1.20856
525.465	1.98367
528.84	1.92661
532.214	1.03796
535.589	2.25037
538.964	1.13765
542.339	0.180668
545.713	0.444326
549.088	0.37953
552.463	0.484581
555.838	0.05628
559.213	0.753551
562.588	0.105499
565.962	0.272455
569.337	0.41732
572.712	0.02669
576.087	0.678276
579.462	0.426313
582.837	0.809774
586.211	1.26239
589.586	1.61095
592.961	2.81994
596.336	3.98572
599.711	6.69337
603.085	11.255
606.46	17.9832
609.835	28.1719
613.21	41.0584
616.585	60.5138
619.96	79.2628
623.334	77.1276
626.709	57.9529
630.084	39.3296
633.459	25.3476
636.833	17.5821
640.208	13.1407
643.583	10.0244
646.958	7.22908
650.333	5.36816
653.708	5.66587
657.082	6.3451
660.457	7.07937
663.832	8.30175
667.207	8.79801
670.582	9.65034
673.957	10.0462
677.331	8.91656
680.706	8.76446
684.081	5.88585
687.456	3.56197
690.831	3.25293
694.205	1.73675
697.58	0.292469
700.955	0.825504
704.33	0.370125
707.705	0.654774
711.079	1.18336
714.454	2.24183
717.829	2.82611
721.204	1.67221
724.579	0.90065
727.953	0.067776
731.328	0.49815
734.703	0.964615
738.078	0.527233
741.453	0.842083
744.828	1.51339
748.202	2.4087
751.577	3.96203
754.952	7.36342
758.327	11.8808
761.702	14.881
765.077	14.5676
768.451	9.00893
771.826	6.267
775.201	3.33135
778.576	2.33324
781.951	2.70845
785.325	2.55237
788.7	3.47592
792.075	4.86452
795.45	4.07656
798.825	2.33745
802.199	1.76606
805.574	1.03557
808.949	0.893223
812.324	0.187603
815.699	0.970007
819.073	0.058918
822.448	0.041477
825.823	0.979891
829.198	0.04406
832.573	0.059752
835.948	0.258095
839.322	1.24806
842.697	1.90969
846.072	2.16979
849.447	1.51584
852.822	1.94693
856.197	1.04466
859.571	3.01765
862.946	4.9791
866.321	6.67865
869.696	7.39927
873.071	6.35494
876.445	5.19126
879.82	4.14438
883.195	3.17864
886.57	2.45582
889.945	3.15385
893.319	2.32837
896.694	0.230738
900.069	0.468346
903.444	0.110941
906.819	0.858772
910.193	1.35685
913.568	2.0539
916.943	4.44699
920.318	8.24487
923.693	14.071
927.068	20.35
930.442	26.5069
933.817	33.7601
937.192	36.8056
940.567	35.2899
943.942	31.3696
947.317	29.6281
950.691	27.3642
954.066	23.4539
957.441	17.2589
960.816	10.316
964.191	6.24126
967.565	2.48593
970.94	1.02527
974.315	0.687542
977.69	0.280319
981.065	0.150494
984.439	0.200123
987.814	1.46248
991.189	3.05768
994.564	3.99582
997.939	7.13917
1001.31	11.0335
1004.69	15.3875
1008.06	19.1832
1011.44	21.6088
1014.81	17.1334
1018.19	12.2453
1021.56	8.45055
1024.94	5.66652
1028.31	3.8396
1031.69	3.06733
1035.06	1.87531
1038.44	1.93658
1041.81	0.075829
1045.19	0.210569
1048.56	0.336895
1051.94	0.440998
1055.31	0.300348
1058.68	0.318151
1062.06	0.418514
1065.43	0.857016
1068.81	1.49434
1072.18	0.27035
1075.56	0.948711
1078.93	0.904701
1082.31	0.285513
1085.68	1.79461
1089.06	0.645199
1092.43	1.08623
1095.81	0.303856
1099.18	1.38767
1102.56	2.31963
1105.93	0.55928
1109.31	0.879245
1112.68	2.15488
1116.06	0.825974
1119.43	1.36321
1122.81	0.667521
1126.18	2.04773
1129.56	1.7397
1132.93	1.88064
1136.31	1.77801
1139.68	0.35175
1143.06	1.03735
1146.43	1.56338
1149.81	0.952171
1153.18	0.045843
1156.56	0.86621
1159.93	0.528916
1163.31	0.868644
1166.68	1.21763
1170.05	0.824005
1173.43	1.34075
1176.8	0.837833
1180.18	0.730956
1183.55	0.965782
1186.93	1.80957
1190.3	1.30494
1193.68	0.621672
1197.05	0.313566
1200.43	0.504636
1203.8	0.012564
1207.18	1.72307
1210.55	1.14708
1213.93	0.162271
1217.3	0.664742
1220.68	0.409271
1224.05	1.24904
1227.43	0.236359
1230.8	0.074126
1234.18	0.821698
1237.55	0.739744
1240.92	1.0986
1244.3	0.055844
1247.67	1.54081
1251.05	0.517015
1254.42	0.095713
1257.8	0.568083
1261.17	0.291243
1264.55	0.857733
1267.92	0.700863
1271.3	1.097
1274.67	0.976695
1278.05	0.053967
1281.42	0.37489
1284.8	0
