Measurement: Raman, 532 nm, unoriented, Raman Data Processed
Mineral: Nealite
Rruff sample: R060774
Ideal chemistry: Pb^2+^_4_Fe^2+^(As^3+^O_3_)_2_Cl_4_2H_2_O
Locality: Oxygon, Laurion, Greece
Source: Michael Scott
Description: Reddish brown acicular crystals coating a vug
Raman shift (cm-1)	intensity
121.041	0
124.415	120.895
127.79	207.959
131.165	253.858
134.54	261.673
137.915	346.466
141.29	505.256
144.664	650.67
148.039	738.81
151.414	831.881
154.789	908.588
158.164	955.6
161.538	1007.32
164.913	1044.49
168.288	931.791
171.663	859.075
175.038	829.988
178.413	728.807
181.787	644.147
185.162	617.213
188.537	430.132
191.912	395.791
195.287	337.45
198.661	259.944
202.036	221.665
205.411	206.723
208.786	219.975
212.161	161.497
215.536	84.2111
218.91	76.3121
222.285	17.0182
225.66	2.66736
229.035	11.0471
232.41	7.7074
235.784	34.3369
239.159	9.86096
242.534	15.5846
245.909	23.8921
249.284	14.096
252.658	1.99194
256.033	3.88135
259.408	39.793
262.783	76.3751
266.158	102.249
269.533	115.981
272.907	155.317
276.282	169.365
279.657	286.952
283.032	274.57
286.407	346.408
289.781	453.118
293.156	487.477
296.531	566.981
299.906	612.943
303.281	688.076
306.655	647.411
310.03	622.774
313.405	580.768
316.78	494.638
320.155	473.833
323.53	430.106
326.904	348.201
330.279	290.822
333.654	222.147
337.029	200.548
340.404	135.751
343.778	95.257
347.153	69.0079
350.528	72.9116
353.903	34.9741
357.278	5.61719
360.652	37.4896
364.027	17.7312
367.402	5.47766
370.777	22.4963
374.152	34.1887
377.527	66.6304
380.901	76.3479
384.276	104.335
387.651	144.222
391.026	162.766
394.401	189.804
397.776	180.63
401.15	228.991
404.525	213.087
407.9	219.14
411.275	204.05
414.65	176.421
418.024	194.872
421.399	165.44
424.774	153.677
428.149	138.707
431.524	157.522
434.898	94.1274
438.273	100.871
441.648	85.7521
445.023	47.8444
448.398	73.3637
451.773	13.4631
455.147	18.8185
458.522	1.55713
461.897	18.7858
465.272	9.13428
468.647	7.78821
472.021	53.3698
475.396	30.4186
478.771	20.6212
482.146	25.8835
485.521	9.61365
488.896	18.464
492.27	25.7888
495.645	17.5239
499.02	32.1221
502.395	13.8951
505.77	10.5201
509.144	7.14795
512.519	26.2522
515.894	34.127
519.269	32.5926
522.644	60.3539
526.018	45.0702
529.393	91.2571
532.768	30.9585
536.143	53.2719
539.518	27.1906
542.893	74.5452
546.267	41.457
549.642	59.9571
553.017	39.8857
556.392	19.8677
559.767	48.2789
563.141	17.0922
566.516	42.8423
569.891	11.8398
573.266	19.2965
576.641	46.9957
580.016	16.0834
583.39	33.4804
586.765	29.2848
590.14	25.5006
593.515	21.8543
596.89	26.1197
600.264	63.7696
603.639	96.009
607.014	103.781
610.389	121.816
613.764	118.892
617.138	172.21
620.513	244.915
623.888	238.493
627.263	239.72
630.638	242.818
634.013	181.074
637.387	148.548
640.762	150.303
644.137	99.406
647.512	99.5684
650.887	42.5399
654.261	27.1659
657.636	26.0201
661.011	36.7958
664.386	13.262
667.761	27.8125
671.136	19.965
674.51	6.9845
677.885	25.6083
681.26	38.3014
684.635	31.1924
688.01	103.811
691.385	144.227
694.759	277.186
698.134	324.842
701.509	420.135
704.884	543.15
708.258	676.565
711.633	812.184
715.008	1011.77
718.383	1166.77
721.758	1390.55
725.133	1692.24
728.507	1987.3
731.882	2169.38
735.257	2334.84
738.632	2347.72
742.007	2280.91
745.381	2209.41
748.756	1988.43
752.131	1590.25
755.506	1347.37
758.881	1120
762.256	838.134
765.63	662.829
769.005	508.743
772.38	351.65
775.755	271.455
779.13	199.144
782.505	109.412
785.879	66.1899
789.254	53.5863
792.629	70.6133
796.004	29.901
799.378	72.4199
802.753	135.513
806.128	152.077
809.503	102.246
812.878	88.88
816.253	63.9348
819.627	65.3911
823.002	23.0466
826.377	55.9833
829.752	47.7259
833.127	2.62842
836.502	3.52588
839.876	7.646
843.251	1.07849
846.626	0.30127
850.001	5.50842
853.376	20.1672
856.75	7.38831
860.125	14.208
863.5	47.2727
866.875	74.9923
870.25	20.2155
873.625	4.08508
876.999	12.4553
880.374	4.54065
883.749	7.97205
887.124	12.0144
890.498	13.8457
893.873	58.3732
897.248	67.9769
900.623	22.1844
903.998	67.4294
907.373	64.3878
910.747	68.1257
914.122	85.6244
917.497	49.0234
920.872	17.2365
924.247	96.7737
927.622	94.0543
930.996	72.0275
934.371	90.8641
937.746	42.6744
941.121	63.8285
944.496	80.0866
947.87	40.9009
951.245	49.373
954.62	41.447
957.995	18.0641
961.37	17.7696
964.745	30.0276
968.119	4.58325
971.494	3.54089
974.869	44.0488
978.244	39.2201
981.619	11.5641
984.993	28.6378
988.368	44.9983
991.743	26.2354
995.118	14.9919
998.493	49.1122
1001.87	72.7719
1005.24	2.96191
1008.62	17.314
1011.99	62.6354
1015.37	64.5658
1018.74	67.2976
1022.12	93.3004
1025.49	107.767
1028.87	107.605
1032.24	98.0087
1035.62	49.0175
1038.99	64.056
1042.37	97.1532
1045.74	69.0845
1049.12	135.849
1052.49	153.341
1055.87	100.307
1059.24	129.299
1062.61	141.411
1065.99	96.416
1069.36	50.1389
1072.74	51.6265
1076.11	7.55896
1079.49	34.544
1082.86	9.98804
1086.24	22.4705
1089.61	5.12988
1092.99	27.0469
1096.36	0.582642
1099.74	34.1211
1103.11	23.048
1106.49	25.1709
1109.86	1.77026
1113.24	3.9198
1116.61	9.16174
1119.99	5.27148
1123.36	20.526
1126.74	32.7634
1130.11	47.2402
1133.48	40.08
1136.86	35.5651
1140.23	36.5206
1143.61	29.9185
1146.98	33.9319
1150.36	2.95996
1153.73	14.8624
1157.11	0.463257
1160.48	13.4445
1163.86	41.536
1167.23	11.4833
1170.61	24.4633
1173.98	9.12341
1177.36	58.8081
1180.73	29.5597
1184.11	43.3571
1187.48	28.5785
1190.86	13.5531
1194.23	32.4575
1197.61	22.047
1200.98	26.1471
1204.36	40.3646
1207.73	5.92102
1211.11	27.6045
1214.48	62.4226
1217.86	48.4815
1221.23	7.97974
1224.61	42.187
1227.98	59.9819
1231.36	54.3991
1234.73	7.6814
1238.1	12.7019
1241.48	15.0112
1244.85	61.4403
1248.23	35.3566
1251.6	57.3971
1254.98	48.8608
1258.35	44.5904
1261.73	15.9655
1265.1	31.5751
1268.48	33.724
1271.85	42.8824
1275.23	54.5718
1278.6	39.6075
1281.98	56.6445
1285.35	21.3722
1288.73	17.9288
1292.1	0
