Measurement: Raman, 532 nm, unoriented, Raman Data Processed
Mineral: Neighborite
Rruff sample: R080108
Ideal chemistry: NaMgF_3_
Locality: Mont Saint-Hilaire, Quebec, Canada
Source: William W. Pinch
Description: Translucent brown zoned pseudocubic crystals associated with calcite and clinoenstatite
Raman shift (cm-1)	intensity
95.2462	0
98.621	130.337
101.996	38.8281
105.371	97.7356
108.746	579.725
112.12	1194.39
115.495	1740.18
118.87	2696.78
122.245	3707.11
125.62	4303.59
128.994	4614.72
132.369	5050.66
135.744	5308.26
139.119	5377.88
142.494	5313.35
145.869	5095.03
149.243	4955.4
152.618	4842.93
155.993	4746.45
159.368	4574.68
162.743	4385.59
166.117	4224.76
169.492	4068.31
172.867	3921.9
176.242	3749.51
179.617	3581.69
182.992	3410.87
186.366	3220.8
189.741	2969.8
193.116	2681.74
196.491	2378.87
199.865	2075.37
203.24	1778.66
206.615	1479.07
209.99	1209.47
213.365	984.285
216.74	836.375
220.114	729.064
223.489	647.896
226.864	605.537
230.239	554.868
233.614	511.185
236.988	459.866
240.363	375.57
243.738	282.422
247.113	196.814
250.488	135.305
253.863	90.8267
257.237	49.5466
260.612	8.99707
263.987	43.0195
267.362	58.2625
270.737	72.543
274.111	78.2292
277.486	74.3745
280.861	63.8499
284.236	62.4605
287.611	20.0483
290.986	24.2422
294.36	83.1624
297.735	140.484
301.11	238.469
304.485	339.885
307.86	440.509
311.235	546.423
314.609	682.969
317.984	846.774
321.359	1021.63
324.734	1205.99
328.109	1381.43
331.483	1543.82
334.858	1666.35
338.233	1765.13
341.608	1828.31
344.983	1829.74
348.358	1819.01
351.732	1753.93
355.107	1603.29
358.482	1435.48
361.857	1234.72
365.232	1039.82
368.606	864.535
371.981	709.273
375.356	587.95
378.731	475.632
382.106	398.187
385.481	332.259
388.855	292.396
392.23	262.432
395.605	243.751
398.98	235.487
402.355	226.535
405.729	190.397
409.104	149.094
412.479	83.2651
415.854	36.8015
419.229	9.11694
422.603	26.9731
425.978	40.0938
429.353	54.7078
432.728	22.501
436.103	1.62891
439.478	36.6038
442.852	85.6694
446.227	124.357
449.602	179.837
452.977	232.33
456.352	279.57
459.726	312.505
463.101	333.177
466.476	372.545
469.851	404.346
473.226	441.014
476.601	476.403
479.975	511.463
483.35	533.352
486.725	557.146
490.1	587.035
493.475	621.97
496.849	695.093
500.224	762.556
503.599	804.784
506.974	831.628
510.349	849.514
513.723	857.873
517.098	858.36
520.473	847.029
523.848	822.399
527.223	801.204
530.598	800.263
533.972	785.273
537.347	760.172
540.722	749.672
544.097	739.975
547.472	702.044
550.846	687.539
554.221	658.402
557.596	632.265
560.971	588.449
564.346	537.316
567.721	476.641
571.095	416.985
574.47	356.569
577.845	300.931
581.22	239.72
584.595	184.617
587.97	128.147
591.344	79.6553
594.719	42.8062
598.094	15.4365
601.469	11.8823
604.844	23.6318
608.218	23.5569
611.593	22.052
614.968	22.001
618.343	0.993652
621.718	13.3866
625.092	5.0835
628.467	12.3171
631.842	18.8227
635.217	30.8561
638.592	33.8795
641.967	48.9968
645.341	50.5375
648.716	63.8942
652.091	71.2626
655.466	81.8942
658.841	98.3314
662.216	114.513
665.59	104.378
668.965	93.2775
672.34	88.6384
675.715	87.3991
679.09	80.6515
682.464	69.0493
685.839	65.9274
689.214	55.4686
692.589	54.9764
695.964	48.7534
699.338	59.8837
702.713	53.4607
706.088	49.8092
709.463	47.4282
712.838	44.6677
716.212	32.2194
719.587	29.1744
722.962	29.9758
726.337	32.6945
729.712	32.9536
733.087	23.526
736.461	24.5779
739.836	18.6641
743.211	16.488
746.586	18.2587
749.961	16.3005
753.336	12.4966
756.71	13.7644
760.085	13.5056
763.46	12.2739
766.835	13.6938
770.21	5.23193
773.584	11.9302
776.959	10.8828
780.334	3.90747
783.709	1.08032
787.084	7.25464
790.458	5.7981
793.833	4.15112
797.208	7.67529
800.583	3.96875
803.958	5.57886
807.333	4.16064
810.707	9.55078
814.082	2.26172
817.457	2.40283
820.832	2.53882
824.207	5.66284
827.582	2.4397
830.956	2.87134
834.331	3.18872
837.706	0.100586
841.081	2.83789
844.456	2.50537
847.83	8.31396
851.205	3.20776
854.58	10.093
857.955	8.05566
861.33	2.20947
864.705	7.86279
868.079	7.5603
871.454	7.02344
874.829	7.27026
878.204	1.55786
881.579	9.38281
884.953	5.41186
888.328	6.95776
891.703	13.9346
895.078	2.78149
898.453	2.22583
901.827	2.61084
905.202	4.91138
908.577	8.70337
911.952	11.312
915.327	13.0857
918.702	5.11572
922.076	9.00757
925.451	5.77295
928.826	33.7717
932.201	12.5972
935.576	7.44897
938.95	0.860352
942.325	4.77783
945.7	4.19189
949.075	5.39868
952.45	3.78418
955.824	3.91772
959.199	8.39258
962.574	5.38623
965.949	4.5564
969.324	8.46826
972.699	9.90308
976.073	14.2168
979.448	13.6321
982.823	5.75049
986.198	15.4722
989.573	9.51245
992.947	10.1343
996.322	16.0715
999.697	0.745117
1003.07	6.31152
1006.45	5.07886
1009.82	2.64014
1013.2	0.603027
1016.57	13.8335
1019.95	9.25342
1023.32	20.8916
1026.7	14.9802
1030.07	15.707
1033.44	12.418
1036.82	21.2615
1040.19	14.9866
1043.57	17.102
1046.94	19.1794
1050.32	2.22388
1053.69	14.5796
1057.07	12.1172
1060.44	14.519
1063.82	14.1741
1067.19	5.92139
1070.57	4.16894
1073.94	5.59082
1077.32	3.86621
1080.69	5.92139
1084.07	9.00024
1087.44	3.91455
1090.82	6.07886
1094.19	3.67847
1097.57	16.707
1100.94	12.6968
1104.32	9.48315
1107.69	10.4102
1111.07	5.28686
1114.44	7.01709
1117.82	9.67041
1121.19	4.08838
1124.57	1.55713
1127.94	2.58594
1131.32	17.5252
1134.69	11.5388
1138.07	11.4744
1141.44	8.09473
1144.81	11.7288
1148.19	6.44946
1151.56	0.192139
1154.94	0.999023
1158.31	1.35278
1161.69	3.0686
1165.06	2.50195
1168.44	12.8477
1171.81	10.0796
1175.19	9.5061
1178.56	20.1819
1181.94	4.91431
1185.31	5.53174
1188.69	21.584
1192.06	17.0896
1195.44	17.7278
1198.81	14.8484
1202.19	8.29907
1205.56	9.55371
1208.94	12.4009
1212.31	11.3332
1215.68	16.8445
1219.06	12.9761
1222.43	2.85962
1225.81	2.17798
1229.18	10.6174
1232.56	10.2649
1235.93	8.54565
1239.31	6.72095
1242.68	0.891113
1246.06	0.662598
1249.43	21.4885
1252.81	14.4539
1256.18	7.71606
1259.56	18.21
1262.93	16.9172
1266.31	5.6272
1269.68	10.9434
1273.06	9.19458
1276.43	12.6951
1279.81	5.53638
1283.18	9.19849
1286.56	15.407
1289.93	24.8076
1293.31	7.82739
1296.68	14.5288
1300.06	0.45752
1303.43	2.45654
