Measurement: Raman, 532 nm, unoriented, Raman Data Processed
Mineral: Nelenite
Rruff sample: R120148
Ideal chemistry: Mn^2+^_16_As^3+^_3_Si_12_O_36_(OH)_17_
Locality: Huanggang mine, Inner Mongolia, China
Source: James Zigras
Description: Stacks of brown hexagonal plates, associated with sphalerite and calcite
Measured chemistry: (Mn^2+^_9.44_Fe^2+^_6.02_Mg_0.48_Ca_0.11_)As^3+^_2.95_Si_12_O_36_[(OH)_16.87_Cl_0.08_]
Raman shift (cm-1)	intensity
191.088	0
193.981	12.0203
196.874	31.1268
199.766	47.5807
202.659	71.6338
205.552	106.861
208.445	130.931
211.337	99.3125
214.23	57.6214
217.123	30.6286
220.015	18.6855
222.908	17.2092
225.801	15.106
228.693	13.4368
231.586	11.2639
234.479	9.2917
237.371	6.95334
240.264	4.24203
243.157	1.56874
246.05	1.43338
248.942	3.14781
251.835	3.76173
254.728	2.51588
257.62	2.08279
260.513	0.187622
263.406	3.47653
266.298	7.77301
269.191	9.37465
272.084	13.2463
274.977	17.8868
277.869	18.6164
280.762	16.9049
283.655	14.2926
286.547	12.4644
289.44	10.5069
292.333	9.37016
295.226	6.99634
298.118	7.62242
301.011	8.93131
303.904	11.6601
306.796	15.2925
309.689	19.9963
312.582	30.2787
315.474	38.391
318.367	51.3835
321.26	63.2526
324.152	72.8668
327.045	87.3898
329.938	108.123
332.831	140.048
335.723	162.686
338.616	164.16
341.509	142.155
344.401	113.591
347.294	82.8746
350.187	59.6547
353.079	45.3913
355.972	36.1793
358.865	25.9423
361.758	16.7414
364.65	9.40741
367.543	4.45154
370.436	1.09396
373.328	1.94034
376.221	3.47536
379.114	1.14937
382.007	0.26767
384.899	3.44225
387.792	6.50485
390.685	12.4408
393.577	22.7445
396.47	31.7642
399.363	43.7015
402.255	52.549
405.148	62.5945
408.041	70.3302
410.933	80.9924
413.826	101.03
416.719	122.7
419.612	139.991
422.504	137.845
425.397	118.841
428.29	97.1616
431.182	77.9326
434.075	58.8964
436.968	46.3275
439.861	33.7545
442.753	24.4575
445.646	14.2649
448.539	13.8268
451.431	15.505
454.324	21.7215
457.217	25.1913
460.109	24.9957
463.002	18.2336
465.895	11.9079
468.788	6.13385
471.68	3.88275
474.573	1.73396
477.466	3.57892
480.358	6.40669
483.251	12.7474
486.144	23.8087
489.036	40.6661
491.929	62.7818
494.822	90.102
497.714	121.967
500.607	149.931
503.5	159.145
506.393	149.315
509.285	116.483
512.178	82.5197
515.071	53.2382
517.963	28.8246
520.856	14.6028
523.749	7.43257
526.641	3.42725
529.534	0.919983
532.427	0.419708
535.32	0.899384
538.212	1.21043
541.105	2.7959
543.998	0.877792
546.89	1.89976
549.783	1.55164
552.676	0.037933
555.568	1.51392
558.461	2.57361
561.354	3.51472
564.247	3.14229
567.139	3.254
570.032	4.01727
572.925	4.01953
575.817	4.60251
578.71	5.9977
581.603	7.76318
584.495	10.4074
587.388	14.4893
590.281	18.9142
593.174	26.2924
596.066	38.9168
598.959	56.3996
601.852	83.6874
604.744	125.449
607.637	186.95
610.53	261.176
613.423	302.077
616.315	256.635
619.208	170.874
622.101	102.769
624.993	62.7066
627.886	40.5872
630.779	28.521
633.671	22.0005
636.564	17.752
639.457	14.3697
642.35	13.1083
645.242	12.4873
648.135	13.7165
651.028	12.2295
653.92	12.1565
656.813	11.7942
659.706	10.6091
662.598	9.93986
665.491	8.86093
668.384	7.2363
671.277	5.15994
674.169	4.20369
677.062	3.97664
679.955	2.00748
682.847	1.25261
685.74	0.836121
688.633	0.143936
691.525	0.116592
694.418	0.579086
697.311	0.857681
700.203	0.357162
703.096	0.215576
705.989	1.3299
708.882	2.26222
711.774	3.09061
714.667	2.23184
717.56	4.96957
720.452	10.2828
723.345	10.5815
726.238	15.9864
729.13	20.5607
732.023	27.2057
734.916	37.3754
737.809	49.0386
740.701	55.2369
743.594	56.3293
746.487	52.1056
749.379	41.7769
752.272	32.6424
755.165	22.6724
758.058	16.2705
760.95	11.8812
763.843	9.35991
766.736	6.98511
769.628	5.71468
772.521	2.98888
775.414	1.66486
778.306	0.66069
781.199	0.59613
784.092	0.112854
786.985	0.868912
789.877	0.639313
792.77	1.85109
795.663	2.52805
798.555	4.7245
801.448	5.5557
804.341	7.84686
807.233	10.2823
810.126	10.2002
813.019	9.41777
815.912	8.04123
818.804	5.96484
821.697	6.53859
824.59	3.85393
827.482	3.33377
830.375	2.30186
833.268	1.69043
836.16	0.72522
839.053	0.039993
841.946	0.693451
844.838	3.16167
847.731	1.35316
850.624	0.44696
853.517	0.762421
856.409	2.59876
859.302	2.6091
862.195	1.87169
865.087	1.51483
867.98	1.18373
870.873	0.001083
873.765	1.11487
876.658	0.363312
879.551	0.78537
882.444	0.524399
885.336	0.310303
888.229	0.370972
891.122	0.013794
894.014	1.1617
896.907	1.32221
899.8	0.607315
902.692	0.56308
905.585	0.880814
908.478	0.852875
911.371	0.013458
914.263	0.486282
917.156	1.32762
920.049	1.27763
922.941	0.001785
925.834	1.23615
928.727	0.656876
931.62	0.312958
934.512	0.299164
937.405	0.527115
940.298	0.875031
943.19	0.411133
946.083	0.923111
948.976	0.062988
951.868	1.71674
954.761	0.423584
957.654	0.736832
960.547	1.10835
963.439	1.96335
966.332	2.96925
969.225	3.29723
972.117	2.58099
975.01	2.79756
977.903	2.34312
980.795	2.61671
983.688	2.87737
986.581	3.87534
989.473	4.41277
992.366	5.71786
995.259	6.55905
998.152	10.2741
1001.04	17.9553
1003.94	14.5664
1006.83	9.61902
1009.72	7.79349
1012.62	9.5858
1015.51	12.351
1018.4	17.7336
1021.29	27.5014
1024.19	45.2749
1027.08	72.481
1029.97	107.859
1032.86	116.004
1035.76	79.5117
1038.65	44.0397
1041.54	25.3902
1044.43	17.0339
1047.33	10.6197
1050.22	6.62472
1053.11	5.56088
1056.01	2.52782
1058.9	2.58424
1061.79	0.889725
1064.68	2.67247
1067.58	0.26535
1070.47	1.22809
1073.36	0.646454
1076.26	1.61612
1079.15	0.093658
1082.04	0.366226
1084.93	0.342667
1087.83	0.200943
1090.72	1.55038
1093.61	1.60182
1096.5	0.085327
1099.4	4.85277
1102.29	1.56075
1105.18	2.47433
1108.07	4.20497
1110.97	6.19132
1113.86	5.79288
1116.75	7.21089
1119.64	5.36113
1122.54	3.5509
1125.43	3.00218
1128.32	1.71733
1131.22	2.51823
1134.11	1.28639
1137	1.16524
1139.89	0.926483
1142.79	0.594772
1145.68	1.37805
1148.57	2.13036
1151.46	2.05965
1154.36	4.51105
1157.25	4.49094
1160.14	4.64456
1163.04	4.987
1165.93	2.50503
1168.82	2.40457
1171.71	2.06294
1174.61	2.61168
1177.5	2.36301
1180.39	2.49191
1183.28	3.62073
1186.18	3.69995
1189.07	1.51354
1191.96	1.11569
1194.86	1.28839
1197.75	1.91083
1200.64	1.85664
1203.53	2.26202
1206.43	1.09868
1209.32	2.17474
1212.21	0.117493
1215.1	1.48183
1218	0.580597
1220.89	1.61569
1223.78	0.65831
1226.67	0.336807
1229.57	0.361801
1232.46	0.180328
1235.35	1.55045
1238.25	0.602188
1241.14	0.345047
1244.03	1.27536
1246.92	1.99597
1249.82	0.965942
1252.71	0.460388
1255.6	2.46742
1258.49	1.60377
1261.39	2.93672
1264.28	2.55682
1267.17	2.14203
1270.07	2.02678
1272.96	2.55899
1275.85	2.27103
1278.74	2.14705
1281.64	2.90262
1284.53	2.86459
1287.42	1.83095
1290.31	2.23357
1293.21	1.43193
1296.1	0.501083
1298.99	1.31747
1301.88	0
