Measurement: Raman, 780 nm, unoriented, Raman Data Processed
Mineral: Nelenite
Rruff sample: R120148
Ideal chemistry: Mn^2+^_16_As^3+^_3_Si_12_O_36_(OH)_17_
Locality: Huanggang mine, Inner Mongolia, China
Source: James Zigras
Description: Stacks of brown hexagonal plates, associated with sphalerite and calcite
Measured chemistry: (Mn^2+^_9.44_Fe^2+^_6.02_Mg_0.48_Ca_0.11_)As^3+^_2.95_Si_12_O_36_[(OH)_16.87_Cl_0.08_]
Raman shift (cm-1)	intensity
104.699	0
108.074	1.6566
111.448	3.26028
114.823	7.86107
118.198	7.20384
121.573	13.0228
124.948	13.5555
128.322	24.4826
131.697	24.1448
135.072	13.6863
138.447	5.26915
141.822	1.64131
145.197	1.74042
148.571	0.672852
151.946	1.71214
155.321	0.589966
158.696	3.69701
162.071	7.61597
165.446	13.9173
168.82	13.648
172.195	12.1928
175.57	9.55835
178.945	12.0854
182.32	16.6738
185.694	23.3527
189.069	33.5374
192.444	48.4358
195.819	67.8002
199.194	87.1311
202.569	118.303
205.943	144.928
209.318	114.829
212.693	65.864
216.068	35.9883
219.442	21.4747
222.817	13.6293
226.192	10.0465
229.567	7.70966
232.942	7.19327
236.317	4.64507
239.691	1.5469
243.066	1.20785
246.441	0.240158
249.816	0.599815
253.191	2.09335
256.565	0.16684
259.94	0.504242
263.315	4.29082
266.69	5.39558
270.065	10.1979
273.44	13.4985
276.814	13.3515
280.189	12.9998
283.564	11.4492
286.939	10.7059
290.314	10.7934
293.688	9.1987
297.063	7.58875
300.438	9.15924
303.813	12.3985
307.188	18.3475
310.562	22.621
313.937	29.6852
317.312	35.7421
320.687	42.0266
324.062	53.5864
327.437	57.7592
330.811	75.6827
334.186	91.0238
337.561	88.3389
340.936	73.1159
344.311	52.1957
347.685	36.2446
351.06	24.3742
354.435	17.1576
357.81	11.2467
361.185	4.38736
364.56	3.19791
367.934	0.388466
371.309	2.60694
374.684	2.38368
378.059	1.87859
381.434	0.508553
384.808	1.46052
388.183	4.95376
391.558	9.53104
394.933	15.2847
398.308	21.5566
401.683	26.5874
405.057	32.417
408.432	37.0635
411.807	45.2508
415.182	56.7447
418.557	63.3212
421.931	60.7966
425.306	51.5275
428.681	40.9392
432.056	30.3462
435.431	23.7471
438.805	16.2392
442.18	10.3038
445.555	8.04966
448.93	7.52785
452.305	11.098
455.68	11.9639
459.054	11.0688
462.429	7.73413
465.804	5.82846
469.179	2.79806
472.554	1.99492
475.928	1.11471
479.303	3.10897
482.678	8.02259
486.053	14.5421
489.428	24.2127
492.803	38.8274
496.177	54.3646
499.552	65.6776
502.927	66.9364
506.302	55.9623
509.677	39.7108
513.051	24.3382
516.426	13.3673
519.801	5.6066
523.176	2.21749
526.551	0.603104
529.926	1.35794
533.3	1.1646
536.675	0.403561
540.05	1.48569
543.425	0.768482
546.799	0.039066
550.174	0.556553
553.549	0.714851
556.924	1.27785
560.299	2.56589
563.674	1.43826
567.048	3.79557
570.423	2.65343
573.798	2.74498
577.173	2.83632
580.548	5.412
583.923	9.51627
587.297	11.5866
590.672	12.7235
594.047	17.8462
597.422	27.2471
600.797	41.706
604.171	68.6081
607.546	106.881
610.921	140.235
614.296	125.839
617.671	81.6793
621.045	46.87
624.42	28.3544
627.795	19.1411
631.17	14.2622
634.545	11.3423
637.919	8.81451
641.294	8.32786
644.669	8.49345
648.044	9.46528
651.419	8.84823
654.794	8.4361
658.168	7.7863
661.543	6.71444
664.918	6.15809
668.293	5.84962
671.668	4.59186
675.043	3.25817
678.417	1.98621
681.792	1.01711
685.167	0.351482
688.542	0.145756
691.917	0.122482
695.291	0.227875
698.666	0.004009
702.041	1.17578
705.416	0.556332
708.791	1.00312
712.165	1.10555
715.54	2.50488
718.915	4.17418
722.29	5.58869
725.665	8.09345
729.039	10.2463
732.414	14.3465
735.789	18.5745
739.164	21.9405
742.539	21.8059
745.914	18.9568
749.288	15.7526
752.663	11.7568
756.038	8.31189
759.413	5.44171
762.788	4.07383
766.163	2.73509
769.537	1.63808
772.912	0.875664
776.287	0.303917
779.662	0.179249
783.037	0.609352
786.411	0.444828
789.786	1.61746
793.161	2.33838
796.536	3.24667
799.911	3.91723
803.285	5.22165
806.66	5.72793
810.035	6.30238
813.41	4.19316
816.785	3.51599
820.159	2.59173
823.534	1.51149
826.909	0.885532
830.284	0.809765
833.659	0.087868
837.034	0.697994
840.408	0.756401
843.783	0.473518
847.158	0.384064
850.533	0.514759
853.908	0.848869
857.283	1.38075
860.657	0.006874
864.032	0.107857
867.407	0.639748
870.782	0.748791
874.157	0.162308
877.531	0.062309
880.906	0.189415
884.281	0.488594
887.656	0.238678
891.031	0.286041
894.405	0.354889
897.78	0.091663
901.155	0.351784
904.53	0.695469
907.905	0.952408
911.279	0.268124
914.654	0.598564
918.029	0.521912
921.404	0.058479
924.779	0.685829
928.154	0.33007
931.528	1.0809
934.903	0.180527
938.278	0.790375
941.653	0.063053
945.028	0.530975
948.403	0.694405
951.777	0.331352
955.152	0.990086
958.527	1.25185
961.902	0.163902
965.277	1.72779
968.651	1.74591
972.026	1.12855
975.401	1.57309
978.776	2.01618
982.151	1.85883
985.525	2.61966
988.9	2.1025
992.275	2.26741
995.65	3.50174
999.025	5.87909
1002.4	5.97283
1005.77	3.92491
1009.15	3.74315
1012.52	4.60934
1015.9	5.53806
1019.27	10.7354
1022.65	18.2886
1026.02	33.5448
1029.4	44.3345
1032.77	33.6507
1036.15	17.1063
1039.52	10.0186
1042.9	6.8058
1046.27	3.78751
1049.65	2.60603
1053.02	1.62278
1056.4	1.38023
1059.77	1.00241
1063.15	0.521542
1066.52	0.398491
1069.9	0.194897
1073.27	0.562321
1076.64	0.296318
1080.02	0.514675
1083.39	0.260368
1086.77	0.469688
1090.14	0.59436
1093.52	0.259384
1096.89	0.193626
1100.27	0.388416
1103.64	0.62146
1107.02	2.47684
1110.39	2.04983
1113.77	2.09747
1117.14	0.896858
1120.52	0.841675
1123.89	0.459648
1127.27	0.443371
1130.64	0.484421
1134.02	0.629982
1137.39	0.631851
1140.77	0.242973
1144.14	0.439358
1147.52	1.35749
1150.89	1.74924
1154.27	2.01745
1157.64	2.74555
1161.02	1.46186
1164.39	0.968658
1167.77	0.816513
1171.14	0.202919
1174.52	0.467827
1177.89	0.997116
1181.27	0.74567
1184.64	0.806084
1188.01	0.418461
1191.39	0.823658
1194.76	0.390301
1198.14	0.524391
1201.51	0.728443
1204.89	0.048615
1208.26	0.197485
1211.64	0.203468
1215.01	0.405928
1218.39	0.252199
1221.76	0.761761
1225.14	0.644619
1228.51	0.45735
1231.89	0.309381
1235.26	0.370081
1238.64	0.687078
1242.01	0.487391
1245.39	0.583389
1248.76	0.130388
1252.14	0.497471
1255.51	0.905432
1258.88	0.294622
1262.26	0.292185
1265.63	0.73214
1269.01	1.02781
1272.38	1.18155
1275.76	0.194315
1279.13	0.487801
1282.51	0.06715
