Measurement: Raman, 532 nm, unoriented, Raman Data Processed
Mineral: Nelenite
Rruff sample: R120150
Ideal chemistry: Mn^2+^_16_As^3+^_3_Si_12_O_36_(OH)_17_
Locality: Trotter mine, Franklin, New Jersey, USA
Source: Rock Currier
Description: Massive dark brown to pale brown grains
Raman shift (cm-1)	intensity
126.906	0
130.281	21.8901
133.656	7.25549
137.031	1.02002
140.405	15.1707
143.78	2.36133
147.155	6.58386
150.53	2.60278
153.905	1.92725
157.28	1.01562
160.654	2.42798
164.029	12.9631
167.404	13.7437
170.779	16.1741
174.154	12.7532
177.528	20.9436
180.903	21.3247
184.278	39.9045
187.653	60.6797
191.028	78.1943
194.403	95.0264
197.777	119.682
201.152	153.505
204.527	191.613
207.902	200.204
211.277	137.592
214.651	79.5049
218.026	58.2112
221.401	38.8992
224.776	34.2332
228.151	34.3196
231.525	22.9868
234.9	23.5154
238.275	20.6921
241.65	22.8791
245.025	20.3884
248.4	12.3472
251.774	3.64697
255.149	11.1733
258.524	18.5725
261.899	22.5129
265.274	22.8433
268.649	28.6645
272.023	30.2529
275.398	26.3269
278.773	15.8738
282.148	7.83716
285.523	4.19556
288.897	6.05298
292.272	0.240234
295.647	1.12622
299.022	6.30444
302.397	3.42847
305.772	5.88037
309.146	21.2068
312.521	41.4727
315.896	62.6475
319.271	88.636
322.646	131.791
326.02	167.157
329.395	219.558
332.77	248.159
336.145	222.663
339.52	168.928
342.894	136.137
346.269	110.407
349.644	79.7896
353.019	50.3804
356.394	25.7097
359.769	17.5938
363.143	15.9402
366.518	10.8975
369.893	6.02759
373.268	1.52417
376.643	2.3606
380.017	18.7073
383.392	17.6897
386.767	19.9172
390.142	23.3323
393.517	27.2236
396.892	34.4421
400.266	58.7446
403.641	88.0117
407.016	111.058
410.391	140.727
413.766	195.187
417.14	243.525
420.515	242.27
423.89	198.027
427.265	162.302
430.64	133.62
434.014	113.047
437.389	82.2822
440.764	59.2903
444.139	28.8088
447.514	18.9612
450.889	9.70923
454.263	7.54394
457.638	9.49609
461.013	0.859131
464.388	3.54663
467.763	0.144043
471.137	8.3081
474.512	15.8318
477.887	25.8782
481.262	51.5237
484.637	104.614
488.012	167.711
491.386	226.137
494.761	261.321
498.136	275.221
501.511	244.327
504.886	174.004
508.26	108.669
511.635	72.6965
515.01	53.1074
518.385	29.4939
521.76	20.2209
525.135	16.8855
528.509	6.02222
531.884	11.333
535.259	2.65918
538.634	0.365723
542.009	3.08984
545.384	3.12085
548.758	11.054
552.133	5.29126
555.508	3.01294
558.883	5.60425
562.258	4.92627
565.632	6.94092
569.007	4.01147
572.382	0.589355
575.757	2.06592
579.132	6.03589
582.506	6.12866
585.881	16.3967
589.256	19.0015
592.631	30.6304
596.006	50.9961
599.381	100.843
602.755	165.47
606.13	247.345
609.505	357.862
612.88	411.317
616.255	310.738
619.63	170.56
623.004	88.04
626.379	58.5493
629.754	32.2544
633.129	17.3933
636.504	14.8503
639.878	9.69214
643.253	9.72192
646.628	11.9736
650.003	12.3718
653.378	18.6482
656.752	5.47559
660.127	3.60425
663.502	17.6834
666.877	20.6047
670.252	21.623
673.626	21.4336
677.001	16.6128
680.376	19.7952
683.751	16.4924
687.126	6.05176
690.501	8.71362
693.875	3.13403
697.25	3.9187
700.625	2.21558
704	5.46094
707.375	13.8682
710.75	8.29761
714.124	25.3816
717.499	28.6204
720.874	44.7847
724.249	65.5132
727.624	88.3997
730.998	69.0061
734.373	60.1677
737.748	53.5757
741.123	36.8159
744.498	42.967
747.872	38.9722
751.247	44.0605
754.622	34.748
757.997	21.498
761.372	16.5112
764.747	15.0889
768.121	9.15869
771.496	15.3267
774.871	16.7451
778.246	13.3667
781.621	7.78516
784.995	19.7632
788.37	19.5576
791.745	14.9302
795.12	11.4761
798.495	27.7129
801.87	7.89404
805.244	23.1172
808.619	31.6606
811.994	13.9834
815.369	11.2402
818.744	25.6982
822.119	24.7983
825.493	13.4731
828.868	0.922852
832.243	3.25049
835.618	2.86816
838.993	3.78955
842.367	6.94043
845.742	14.502
849.117	12.5205
852.492	2.37109
855.867	10.8838
859.241	11.6318
862.616	9.51904
865.991	4.63379
869.366	9.35742
872.741	12.085
876.115	9.12646
879.49	3.54199
882.865	1.10791
886.24	2.52588
889.615	5.72607
892.99	13.6089
896.364	21.6328
899.739	17.8809
903.114	13.5708
906.489	8.80664
909.864	11.0264
913.239	2.20898
916.613	7.71338
919.988	5.18701
923.363	5.0293
926.738	8.36426
930.113	0.883301
933.487	9.40234
936.862	2.34375
940.237	0.4375
943.612	6.46973
946.987	13.1313
950.361	12.4727
953.736	13.5889
957.111	3.12793
960.486	0.952637
963.861	12.3804
967.236	19.7505
970.61	17.4316
973.985	21.3906
977.36	29.2051
980.735	23.8267
984.11	32.6704
987.485	27.8179
990.859	30.7432
994.234	22.3721
997.609	18.4199
1000.98	27.7305
1004.36	24.5073
1007.73	19.8301
1011.11	22.791
1014.48	33.1343
1017.86	28.6514
1021.23	43.1538
1024.61	72.4844
1027.98	128.777
1031.36	185.982
1034.73	207.535
1038.11	114.265
1041.48	60.0337
1044.86	44.7261
1048.23	25.9355
1051.61	19.6968
1054.98	12.2563
1058.36	1.01709
1061.73	3.52637
1065.11	4.58154
1068.48	5.04443
1071.86	5.18262
1075.23	0.275391
1078.6	0.3125
1081.98	13.3818
1085.35	8.9873
1088.73	6.53613
1092.1	0.779297
1095.48	2.40137
1098.85	3.9541
1102.23	4.3208
1105.6	6.26318
1108.98	21.2085
1112.35	14.0723
1115.73	10.7451
1119.1	20.1265
1122.48	15.71
1125.85	7.23877
1129.23	5.96484
1132.6	5.24951
1135.98	2.05127
1139.35	6.76514
1142.73	8.45801
1146.1	6.69336
1149.48	9.88232
1152.85	18.9697
1156.22	24.73
1159.6	14.0244
1162.97	10.4819
1166.35	17.2163
1169.72	6.87793
1173.1	14.4253
1176.47	22.8511
1179.85	16.3892
1183.22	14.063
1186.6	26.4209
1189.97	17.8438
1193.35	26.8638
1196.72	18.8184
1200.1	18.4253
1203.47	11.9507
1206.85	12.6641
1210.22	11.353
1213.6	18.8648
1216.97	4.7124
1220.35	20.2056
1223.72	14.6211
1227.1	2.47217
1230.47	1.73877
1233.85	8.95068
1237.22	13.2544
1240.6	5.12793
1243.97	11.8491
1247.35	20.5605
1250.72	20.918
1254.1	16.7773
1257.47	25.27
1260.85	16.148
1264.22	9.75146
1267.59	5.37012
1270.97	7.26318
1274.34	11.0835
1277.72	12.4302
1281.09	15.3013
1284.47	4.83496
1287.84	15.6914
1291.22	11.4663
1294.59	13.2046
1297.97	15.2012
1301.34	1.25928
