Measurement: Raman, 780 nm, unoriented, Raman Data Processed
Mineral: Nenadkevichite
Rruff sample: R070610
Ideal chemistry: (Na,[box])_8_Nb_4_(Si_4_O_12_)_2_(O,OH)_4_8H_2_O
Locality: Desourdy Quarry, Mount Saint Hilaire, Rouville County, Quebec, Canada
Source: James Shigley
Description: Cluster of pale-pink translucent tabular pseudohexagonal crystals, associated with analcime
Raman shift (cm-1)	intensity
143.838	0
146.731	14.2315
149.623	194.956
152.516	888.831
155.409	1962.83
158.302	3328.74
161.194	4843.88
164.087	6167.73
166.98	6661.74
169.872	6207.9
172.765	5019.9
175.658	3586.43
178.55	2384.06
181.443	1511.11
184.336	959.122
187.228	671.902
190.121	435.015
193.014	716.059
195.907	1291.77
198.799	2251.87
201.692	3742.05
204.585	5512.28
207.477	7709.65
210.37	9905.11
213.263	11813.6
216.155	13103.5
219.048	13358
221.941	12444.6
224.834	11201.1
227.726	10633.3
230.619	10936
233.512	12107.2
236.404	13762.4
239.297	15840.8
242.19	17698.4
245.083	19179.4
247.975	19308.7
250.868	17801.5
253.761	15440
256.653	12566.5
259.546	9583.53
262.439	6820.6
265.332	4922.66
268.224	3525.48
271.117	2465.2
274.01	2009.17
276.902	1842.03
279.795	1961.09
282.688	2107.64
285.58	2282.17
288.473	2284.07
291.366	2256.01
294.259	2029.29
297.151	1756.39
300.044	1480.02
302.937	1178.28
305.829	905.711
308.722	682.615
311.615	354.193
314.507	99.2407
317.4	43.5674
320.293	208.604
323.185	282.083
326.078	250.078
328.971	268.055
331.864	175.861
334.756	96.4534
337.649	63.6248
340.542	103.055
343.434	248.718
346.327	339.266
349.22	454.502
352.113	632.14
355.005	813.891
357.898	1055.23
360.791	1400.42
363.683	1769.1
366.576	2159.43
369.469	2466.93
372.361	2696.89
375.254	2738.64
378.147	2509.29
381.039	2109.62
383.932	1707.25
386.825	1295.6
389.718	947.562
392.61	739.63
395.503	556.235
398.396	386.743
401.288	255.836
404.181	151.8
407.074	122.132
409.966	100.031
412.859	52.5369
415.752	3.66284
418.645	10.6201
421.537	48.6218
424.43	17.7883
427.323	21.9019
430.215	39.3796
433.108	24.6191
436.001	93.4495
438.894	148.229
441.786	136.673
444.679	184.1
447.572	286.9
450.464	340.008
453.357	427.803
456.25	479.012
459.142	548.428
462.035	578.346
464.928	655.9
467.82	810.438
470.713	845.122
473.606	925.944
476.499	1046.59
479.391	1181.17
482.284	1254.26
485.177	1292.2
488.069	1196.31
490.962	960.055
493.855	734.443
496.748	516.319
499.64	466.08
502.533	471.295
505.426	565.844
508.318	719.963
511.211	791.391
514.104	844.213
516.996	834.696
519.889	706.91
522.782	630.41
525.674	586.408
528.567	509.378
531.46	507.729
534.353	440.246
537.245	432.971
540.138	442.989
543.031	493.131
545.923	496.757
548.816	562.15
551.709	592.862
554.601	610.217
557.494	680.432
560.387	722.15
563.28	792.5
566.172	784.808
569.065	807.823
571.958	814.781
574.85	732.577
577.743	667.817
580.636	593.895
583.529	557.184
586.421	456.591
589.314	360.698
592.207	285.321
595.099	197.961
597.992	148.742
600.885	126.191
603.777	43.0859
606.67	1.19727
609.563	82.9292
612.456	158.238
615.348	172.219
618.241	195.978
621.134	274.26
624.026	254.994
626.919	244.403
629.812	73.0518
632.704	13.8008
635.597	226.347
638.49	466.589
641.383	770.042
644.275	1103.17
647.168	1531.57
650.061	2043.1
652.953	2590.47
655.846	3193.6
658.739	3818.4
661.631	4517.96
664.524	5137.94
667.417	5843.63
670.309	6648.15
673.202	7476.43
676.095	8449.86
678.988	9338.24
681.88	10374.1
684.773	11637.1
687.666	12992.7
690.558	14422.2
693.451	15916.7
696.344	17274
699.236	18357.8
702.129	18941.8
705.022	19344.7
707.915	19163.7
710.807	18791.1
713.7	17900.3
716.593	16977.4
719.485	16001
722.378	14672.6
725.271	13367.9
728.163	12169.4
731.056	10947
733.949	9916.52
736.842	8639.83
739.734	7552.12
742.627	6602.14
745.52	5606.75
748.412	4837.4
751.305	4143.57
754.198	3626.87
757.091	2960.21
759.983	2476.48
762.876	2157.88
765.769	1795.73
768.661	1537.05
771.554	1312.9
774.447	1065.56
777.339	906.83
780.232	733.043
783.125	536.188
786.018	418.573
788.91	277.296
791.803	87.3032
794.696	49.3281
797.588	22.2368
800.481	11.5527
803.374	53.0513
806.266	84.8062
809.159	194.83
812.052	163.442
814.944	167.813
817.837	122.416
820.73	162.981
823.623	143.091
826.515	72.1545
829.408	13.6277
832.301	39.1787
835.193	145.314
838.086	243.466
840.979	284.486
843.872	336.965
846.764	468.673
849.657	513.499
852.55	638.942
855.442	765.179
858.335	912.437
861.228	1006.87
864.12	1104.43
867.013	1208.14
869.906	1190.94
872.799	1248.18
875.691	1191.8
878.584	1122.11
881.477	949.143
884.369	813.251
887.262	642.567
890.155	583.131
893.048	517.12
895.94	581.262
898.833	631.385
901.726	728.551
904.618	819.31
907.511	921.593
910.404	949.198
913.296	1025.62
916.189	1028.83
919.082	1043.42
921.975	1037.68
924.867	1004.73
927.76	1024.63
930.653	972.705
933.545	977.416
936.438	926.49
939.331	857.785
942.223	860.976
945.116	789.867
948.009	759.475
950.902	699.493
953.794	591.279
956.687	516.687
959.58	397.066
962.472	297.535
965.365	216.797
968.258	117.914
971.15	73.2089
974.043	32.8633
976.936	14.0381
979.828	7.41809
982.721	5.06909
985.614	10.634
988.507	9.42181
991.399	5.64789
994.292	24.2398
997.185	73.4512
1000.08	69.1875
1002.97	81.7279
1005.86	152.39
1008.75	121.815
1011.65	156.732
1014.54	145.153
1017.43	122.233
1020.33	126.939
1023.22	139.857
1026.11	131.266
1029	122.115
1031.9	107.242
1034.79	128.875
1037.68	137.57
1040.58	153.308
1043.47	174.775
1046.36	238.233
1049.25	224.441
1052.15	201.92
1055.04	189.84
1057.93	174.946
1060.82	198.554
1063.72	152.14
1066.61	157.268
1069.5	110.292
1072.39	66.5767
1075.29	74.4741
1078.18	37.0128
1081.07	24.2929
1083.97	3.24396
1086.86	16.3051
1089.75	17.5137
1092.64	35.0529
1095.54	29.7659
1098.43	6.10938
1101.32	0.604736
1104.21	7.31122
1107.11	27.3653
1110	41.1392
1112.89	26.7061
1115.79	31.6268
1118.68	59.6375
1121.57	22.7494
1124.46	17.1159
1127.36	52.676
1130.25	0.455627
1133.14	25.0867
1136.03	45.9747
1138.93	5.84357
1141.82	11.2788
1144.71	20.6823
1147.61	18.7081
1150.5	13.8263
1153.39	12.8379
1156.28	4.92004
1159.18	18.39
1162.07	8.93225
1164.96	10.3373
1167.85	33.2677
1170.75	47.5214
1173.64	71.021
1176.53	100.74
1179.42	128.03
1182.32	147.395
1185.21	190.698
1188.1	196.472
1191	216.449
1193.89	320.133
1196.78	326.758
1199.67	376.566
1202.57	360.02
1205.46	376.447
1208.35	429.72
1211.24	446.908
1214.14	486.08
1217.03	488.447
1219.92	460.653
1222.82	466.542
1225.71	459.461
1228.6	477.502
1231.49	395.029
1234.39	390.476
1237.28	309.6
1240.17	287.023
1243.06	276.101
1245.96	172.799
1248.85	105.396
1251.74	72.6819
1254.63	65.0505
1257.53	8.81323
1260.42	0
