Measurement: Raman, 532 nm, unoriented, Raman Data Processed
Mineral: Nenadkevichite
Rruff sample: R070610
Ideal chemistry: (Na,[box])_8_Nb_4_(Si_4_O_12_)_2_(O,OH)_4_8H_2_O
Locality: Desourdy Quarry, Mount Saint Hilaire, Rouville County, Quebec, Canada
Source: James Shigley
Description: Cluster of pale-pink translucent tabular pseudohexagonal crystals, associated with analcime
Raman shift (cm-1)	intensity
149.766	0
152.658	763.859
155.551	2169.97
158.444	3910.7
161.336	5803.24
164.229	6971.54
167.122	7214.7
170.014	6256.12
172.907	4290.22
175.8	2436.33
178.692	1134.73
181.585	198.81
184.478	321.078
187.37	346.664
190.263	121.273
193.156	788.305
196.049	2173.29
198.941	4213.83
201.834	6752.72
204.727	9516.99
207.619	11974.9
210.512	14135.8
213.405	15646.5
216.298	16067.5
219.19	14590.3
222.083	12772.5
224.976	11656.4
227.868	11465.8
230.761	12488.1
233.654	14676.2
236.546	17025.1
239.439	19534.5
242.332	21810.9
245.225	22546.6
248.117	21549
251.01	19539.8
253.903	16372.1
256.795	13188.4
259.688	9896.71
262.581	7129.64
265.473	5702.95
268.366	4859.3
271.259	4925.37
274.151	5329.26
277.044	5905.13
279.937	6593.75
282.83	6909.98
285.722	6637.56
288.615	6015.49
291.508	5161.25
294.4	4457.56
297.293	3638.38
300.186	3171.41
303.079	2767.2
305.971	2282.53
308.864	1680.57
311.757	1118.47
314.649	575.433
317.542	178.232
320.435	64.3633
323.327	149.514
326.22	210.862
329.113	161.481
332.005	114.897
334.898	98.9941
337.791	29.4375
340.683	127.191
343.576	234.052
346.469	315.92
349.362	293.296
352.254	556.67
355.147	760.219
358.04	1021.94
360.932	1431.33
363.825	1750.8
366.718	2109.72
369.611	2279.64
372.503	2360.62
375.396	2250.37
378.289	2008.59
381.181	1726.31
384.074	1537.15
386.967	1416.65
389.859	1428.85
392.752	1344.32
395.645	1228.01
398.538	1010.85
401.43	772.665
404.323	583.343
407.216	351.873
410.108	62.9331
413.001	7.22412
415.894	200.457
418.786	177.951
421.679	73.313
424.572	0.339844
427.464	279.803
430.357	549.045
433.25	856.224
436.143	1193.9
439.035	1478.99
441.928	1854.81
444.821	2326.91
447.713	2759.65
450.606	3317.9
453.499	3840.72
456.392	3760.53
459.284	3357.27
462.177	2727.82
465.07	2358.15
467.962	2395.38
470.855	2699.65
473.748	3054.18
476.64	3710.13
479.533	4354.66
482.426	5223.06
485.318	5793.65
488.211	6125.97
491.104	6203.75
493.997	5554.43
496.889	5066.97
499.782	4604.18
502.675	4157.77
505.567	3751.32
508.46	3357.01
511.353	2809.15
514.245	2316.15
517.138	1782.15
520.031	1427.86
522.923	1039.63
525.816	636.607
528.709	520.641
531.602	322.819
534.494	295.425
537.387	166.901
540.28	199.028
543.172	186.42
546.065	169.057
548.958	230.2
551.851	260.789
554.743	358.039
557.636	439.812
560.529	501.041
563.421	513.702
566.314	551.36
569.207	667.392
572.099	617.139
574.992	624.089
577.885	550.999
580.778	439.627
583.67	434.121
586.563	327.29
589.456	259.656
592.348	118.673
595.241	89.8862
598.134	1.65967
601.026	10.9038
603.919	16.5156
606.812	40.2642
609.705	104.122
612.597	140.816
615.49	138.138
618.383	268.448
621.275	277.244
624.168	292.638
627.061	187.324
629.953	165.355
632.846	37.2432
635.739	176.719
638.631	561.804
641.524	1005.86
644.417	1497.77
647.31	2010.65
650.202	2601.28
653.095	3401.22
655.988	4166.67
658.88	5150.35
661.773	6040.23
664.666	7310.93
667.558	8480.47
670.451	9854.95
673.344	11555.6
676.236	13281.2
679.129	15357
682.022	17550.9
684.915	20134.1
687.807	22850.9
690.7	25939.9
693.593	28806.8
696.485	31312.9
699.378	33102
702.271	33918.1
705.163	33651.6
708.056	32290.1
710.949	30377.6
713.842	27857.2
716.734	24942.4
719.627	21966.1
722.52	19201.7
725.412	16722.9
728.305	14358
731.198	12194.3
734.091	10324.6
736.983	8745.89
739.876	7197.59
742.769	6025.47
745.661	4974.9
748.554	4124.85
751.447	3294.58
754.339	2703.99
757.232	2077.55
760.125	1688.13
763.018	1289.26
765.91	1170.88
768.803	956.767
771.696	824.582
774.588	775.559
777.481	655.405
780.374	540.129
783.266	478.909
786.159	355.779
789.052	259.207
791.944	144.266
794.837	35.6758
797.73	109.454
800.623	215.72
803.515	217.009
806.408	292.394
809.301	237.397
812.193	121.911
815.086	6.97803
817.979	47.9912
820.871	85.5523
823.764	181.684
826.657	76.3677
829.55	41.6352
832.442	159.531
835.335	187.632
838.228	148.111
841.12	284.781
844.013	416.2
846.906	603.287
849.798	844.565
852.691	1195.32
855.584	1766.86
858.476	2369.15
861.369	3606.36
864.262	4536.73
867.155	6029.74
870.047	7669.5
872.94	9299.9
875.833	10610.5
878.725	11046.5
881.618	10637.4
884.511	9169.36
887.404	7463.47
890.296	5928.79
893.189	4918.38
896.082	4294.98
898.974	4055.62
901.867	4183.3
904.76	4232.54
907.652	4385.55
910.545	4339.71
913.438	4250.56
916.331	4133.07
919.223	4097.23
922.116	3923.54
925.009	3748.19
927.901	3578.59
930.794	3475.18
933.687	3338.28
936.579	3197.71
939.472	3086.21
942.365	3003.67
945.257	2873.07
948.15	2658.3
951.043	2502.13
953.936	2175.58
956.828	1859.16
959.721	1475.63
962.614	1134.84
965.506	769.569
968.399	505.783
971.292	240.9
974.184	70.1519
977.077	21.1543
979.97	74.1187
982.862	125.035
985.755	77.5444
988.648	92.7759
991.541	17.896
994.433	0.666016
997.326	5.61279
1000.22	78.7744
1003.11	172.463
1006	222.598
1008.9	257.281
1011.79	291.008
1014.68	352.684
1017.58	363.815
1020.47	372.053
1023.36	411.002
1026.25	438.577
1029.15	469.068
1032.04	546.971
1034.93	658.852
1037.82	727.433
1040.72	857.437
1043.61	954.287
1046.5	1064.04
1049.39	1221.67
1052.29	1164.48
1055.18	1120.18
1058.07	886.595
1060.96	730.531
1063.86	582.154
1066.75	431.389
1069.64	272.407
1072.54	199.856
1075.43	83.7739
1078.32	40.4819
1081.21	0.249512
1084.11	35.7964
1087	108.545
1089.89	235.071
1092.79	289.002
1095.68	410.523
1098.57	603.485
1101.46	806.464
1104.36	1034.59
1107.25	1358.34
1110.14	1660.54
1113.03	1762.67
1115.93	1909.49
1118.82	2053.16
1121.71	1978.98
1124.61	1840.55
1127.5	1610.37
1130.39	1422.63
1133.28	1106.5
1136.18	914.567
1139.07	713.665
1141.96	504.834
1144.85	337.533
1147.75	218.513
1150.64	249.482
1153.53	163.075
1156.42	85.5147
1159.32	59.3203
1162.21	42.853
1165.1	16.3384
1167.99	7.11035
1170.89	20.8232
1173.78	38.4141
1176.67	21.4526
1179.57	15.5713
1182.46	41.854
1185.35	23.0254
1188.24	13.8374
1191.14	1.40088
1194.03	10.3599
1196.92	20.0874
1199.82	51.0869
1202.71	22.0933
1205.6	45.3691
1208.49	40.6484
1211.39	35.044
1214.28	50.9946
1217.17	89.3667
1220.06	115.63
1222.96	112.663
1225.85	66.3884
1228.74	53.7388
1231.63	47.7607
1234.53	83.8748
1237.42	109.177
1240.31	28.3608
1243.2	37.7358
1246.1	55.3594
1248.99	55.7563
1251.88	95.2402
1254.78	25.8179
1257.67	43.2466
1260.56	40.3442
1263.45	37.2969
1266.35	35.3018
1269.24	0.114746
