Measurement: Raman, 532 nm, unoriented, Raman Data Processed
Mineral: Nepheline
Rruff sample: R060581
Ideal chemistry: KNa_3_(AlSiO_4_)_4_
Locality: Capo di Bova, Via Appia Antica, Rome, Italy
Source: Michael Scott
Description: Colorless hexagonal prisms
Measured chemistry: (Na_0.66_K_0.27_Ca_0.04_)_Î£=0.97_Al_0.98_Si_1.01_O_4_
Raman shift (cm-1)	intensity
142.736	0
145.629	9.671
148.522	31.852
151.414	214.677
154.307	396.158
157.2	406.294
160.092	737.413
162.985	1153.21
165.878	1098.83
168.77	1055.85
171.663	1114.48
174.556	1270.28
177.449	1551.06
180.341	1715.04
183.234	2054.95
186.127	2540.19
189.019	2927.36
191.912	3580.44
194.805	3907.92
197.697	4392.58
200.59	4454.76
203.483	4307.06
206.376	3972.49
209.268	3418.14
212.161	2722.62
215.054	2329.84
217.946	2128.55
220.839	2222.51
223.732	2207.39
226.624	2074.79
229.517	1890.28
232.41	1578.2
235.303	1199.47
238.195	881.729
241.088	719.174
243.981	681.586
246.873	651.582
249.766	613.455
252.659	659.561
255.551	881.344
258.444	1073.46
261.337	1510.5
264.229	1634.62
267.122	1485.6
270.015	998.479
272.908	593.699
275.8	406.793
278.693	276.658
281.586	150.924
284.478	94.086
287.371	52.945
290.264	12.152
293.156	61.072
296.049	90.918
298.942	114.199
301.835	52.861
304.727	117.389
307.62	176.109
310.513	122.057
313.405	37.48
316.298	77.537
319.191	85.354
322.083	89.609
324.976	11.064
327.869	3.943
330.762	155.604
333.654	214.959
336.547	395.5
339.44	814.531
342.332	1363.5
345.225	1800.09
348.118	2122.03
351.01	2254.33
353.903	1792.3
356.796	1436.53
359.689	1192.24
362.581	1202.89
365.474	1664.48
368.367	2233.77
371.259	2960.64
374.152	4217.02
377.045	5376.66
379.938	6837.5
382.83	8483.32
385.723	10258
388.616	12044.6
391.508	13227.5
394.401	13440.1
397.294	12937.6
400.186	12030.3
403.079	11036.6
405.972	10493.3
408.865	9253.87
411.757	7950.89
414.65	6660.09
417.543	5284.32
420.435	3955.73
423.328	2705.1
426.221	1878.04
429.113	1311.42
432.006	966.748
434.899	715.178
437.791	569.51
440.684	724.961
443.577	777.811
446.47	1039.51
449.362	1527.17
452.255	2070.97
455.148	2874.36
458.04	3812.34
460.933	4975.21
463.826	5476.92
466.718	3835.24
469.611	1887.85
472.504	860.496
475.397	395.094
478.289	0.273
481.182	131.246
484.075	39.336
486.967	12.074
489.86	120.139
492.753	75.842
495.645	39.924
498.538	16.9
501.431	8.65
504.323	40.455
507.216	37.9
510.109	58.689
513.002	72.678
515.894	13.055
518.787	131.955
521.68	120.943
524.572	145.594
527.465	123.947
530.358	25.797
533.25	23.291
536.143	34.484
539.036	60.18
541.929	5.186
544.821	103.102
547.714	57.023
550.607	51.705
553.499	39.277
556.392	2.959
559.285	39.148
562.177	40.846
565.07	161.941
567.963	192.021
570.856	341.363
573.748	373.957
576.641	446.254
579.534	254.008
582.426	271.287
585.319	256.307
588.212	312.166
591.104	238.002
593.997	213.713
596.89	214.758
599.783	226.719
602.675	297.969
605.568	376.867
608.461	488.016
611.353	563.621
614.246	551.42
617.139	579.938
620.031	507.809
622.924	530.17
625.817	516.578
628.71	502.652
631.602	463.016
634.495	460.492
637.388	352.248
640.28	340.402
643.173	106.246
646.066	207.33
648.958	556.953
651.851	775.24
654.744	1113.33
657.636	1144.2
660.529	1260.33
663.422	1336.04
666.315	1263.84
669.207	1177.17
672.1	1024.81
674.993	783.047
677.885	629.084
680.778	455.609
683.671	413.902
686.563	278.002
689.456	306.23
692.349	314.715
695.242	247.143
698.134	220.564
701.027	133.723
703.92	126.014
706.812	83.604
709.705	134.801
712.598	117.609
715.49	73.682
718.383	106.762
721.276	107.807
724.169	108.088
727.061	61.938
729.954	30.939
732.847	7.594
735.739	1.568
738.632	6.668
741.525	77.84
744.417	23.771
747.31	182.008
750.203	204.889
753.096	28.129
755.988	38.041
758.881	53.805
761.774	26.496
764.666	2.738
767.559	14.967
770.452	158.514
773.344	81.256
776.237	35.172
779.13	25.746
782.023	118.072
784.915	147.158
787.808	39.977
790.701	129.342
793.593	129.531
796.486	246.121
799.379	223.123
802.271	176.492
805.164	197.725
808.057	170.135
810.95	142.762
813.842	125.953
816.735	45.914
819.628	169.234
822.52	160.527
825.413	135.988
828.306	96.443
831.198	105.004
834.091	111.611
836.984	160.117
839.877	69.025
842.769	17.914
845.662	217.773
848.555	91.488
851.447	93.49
854.34	147.014
857.233	39.275
860.125	97.295
863.018	160.035
865.911	138.969
868.804	43.812
871.696	69.021
874.589	31.889
877.482	19.578
880.374	28.109
883.267	79.668
886.16	166.266
889.052	233.916
891.945	402.5
894.838	583.244
897.731	679.807
900.623	750.424
903.516	876.811
906.409	1157.93
909.301	1563.43
912.194	1678.7
915.087	1949.59
917.979	2016.4
920.872	1850.3
923.765	1743.43
926.657	1429.66
929.55	1045.87
932.443	623.75
935.336	511.088
938.228	171.07
941.121	110.111
944.014	78.695
946.906	123.486
949.799	180.072
952.692	393.592
955.584	882.465
958.477	968.678
961.37	1607.61
964.263	2183.28
967.155	2047.81
970.048	1879.29
972.941	1974.86
975.833	2192.14
978.726	2632.44
981.619	3100.85
984.511	3251.64
987.404	3591.55
990.297	3833.67
993.19	4197.02
996.082	3572.55
998.975	2791.54
1001.87	2225.04
1004.76	1638.49
1007.65	1205.29
1010.55	847.836
1013.44	494.115
1016.33	337.221
1019.22	323.943
1022.12	192.42
1025.01	155.654
1027.9	68.924
1030.8	54.85
1033.69	61.221
1036.58	247.213
1039.47	189.281
1042.37	105.693
1045.26	17.879
1048.15	6.562
1051.04	107.344
1053.94	14.328
1056.83	70.711
1059.72	74.455
1062.61	36.695
1065.51	76.85
1068.4	73.543
1071.29	192.773
1074.18	153.752
1077.08	320.002
1079.97	413.369
1082.86	352.352
1085.76	243.57
1088.65	373.895
1091.54	349.674
1094.43	433.732
1097.33	366.566
1100.22	384.43
1103.11	336.098
1106.01	321.395
1108.9	294.889
1111.79	134.531
1114.68	3.939
1117.58	78.549
1120.47	7.537
1123.36	24.51
1126.25	8.375
1129.15	176.945
1132.04	246.047
1134.93	214.367
1137.83	18.879
1140.72	202.377
1143.61	119.717
1146.5	59.723
1149.39	147.99
1152.29	163.012
1155.18	200.545
1158.07	235.535
1160.97	170.006
1163.86	186.906
1166.75	82.633
1169.64	145.562
1172.54	186.672
1175.43	206.48
1178.32	179.504
1181.21	101.855
1184.11	202.777
1187	231.023
1189.89	223.215
1192.79	209.641
1195.68	33.234
1198.57	66.18
1201.46	20.443
1204.36	53.166
1207.25	20.914
1210.14	113.199
1213.04	273.186
1215.93	162.619
1218.82	139.912
1221.71	28.082
1224.61	5.996
1227.5	116.928
1230.39	217.305
1233.28	317.904
1236.18	242.373
1239.07	238.977
1241.96	91.299
1244.85	145.705
1247.75	127.875
1250.64	120.781
1253.53	197.262
1256.42	106.789
1259.32	76.477
