Measurement: Raman, 780 nm, unoriented, Raman Data Processed
Mineral: Nepheline
Rruff sample: R060581
Ideal chemistry: NaAlSiO_4_
Locality: Capo di Bova, Via Appia Antica, Rome, Italy
Source: Michael Scott
Description: Colorless hexagonal prisms
Measured chemistry: (Na_0.66_K_0.27_Ca_0.04_)_Î£=0.97_Al_0.98_Si_1.01_O_4_
Raman shift (cm-1)	intensity
91.0778	0
94.4526	73.6265
97.8274	43.8339
101.202	21.936
104.577	5.05969
107.952	7.33435
111.327	7.99902
114.701	22.8088
118.076	35.9096
121.451	41.2453
124.826	53.9948
128.201	55.3273
131.576	61.4372
134.95	43.7992
138.325	26.8349
141.7	17.2195
145.075	0.883911
148.45	2.47754
151.825	5.63532
155.199	9.6828
158.574	16.0736
161.949	20.7806
165.324	26.6616
168.698	29.6812
172.073	38.6102
175.448	44.0827
178.823	56.2785
182.198	72.7837
185.573	97.0752
188.947	125.728
192.322	166.013
195.697	209.426
199.072	246.353
202.447	265.223
205.821	267.055
209.196	236.52
212.571	196.329
215.946	158.795
219.321	130.113
222.696	122.866
226.07	126.293
229.445	128.782
232.82	122.642
236.195	100.751
239.57	81.1181
242.945	60.4737
246.319	50.4434
249.694	43.4817
253.069	40.3824
256.444	48.4607
259.818	72.3101
263.193	92.8143
266.568	100.234
269.943	88.2683
273.318	57.514
276.693	30.4367
280.067	10.3726
283.442	2.95724
286.817	11.5863
290.192	11.4825
293.567	6.61954
296.942	8.26871
300.316	5.80704
303.691	5.29398
307.066	0.465607
310.441	5.38168
313.816	15.0667
317.19	29.6638
320.565	45.3015
323.94	59.141
327.315	71.4151
330.69	81.9848
334.065	90.738
337.439	105.127
340.814	124.762
344.189	152.709
347.564	186.929
350.938	206.698
354.313	200.924
357.688	164.751
361.063	130.881
364.438	115.476
367.813	121.687
371.187	154.56
374.562	202.794
377.937	276.99
381.312	378.741
384.687	491.416
388.062	619.545
391.436	732.236
394.811	818.73
398.186	826.693
401.561	779.992
404.935	709.06
408.31	638.422
411.685	570.89
415.06	484.448
418.435	380.042
421.81	277.874
425.184	187.611
428.559	119.289
431.934	79.1372
435.309	51.6559
438.684	36.7346
442.058	35.3703
445.433	47.4676
448.808	66.4773
452.183	101.288
455.558	143.907
458.933	206.51
462.307	281.774
465.682	351.567
469.057	285.369
472.432	141.577
475.807	52.2227
479.182	11.6649
482.556	5.70245
485.931	13.8766
489.306	11.4354
492.681	7.8811
496.055	4.5361
499.43	3.39542
502.805	0.706757
506.18	1.69339
509.555	3.50073
512.93	6.90442
516.304	8.97821
519.679	11.4364
523.054	14.6511
526.429	15.2734
529.804	22.0035
533.178	20.7287
536.553	20.1935
539.928	20.0733
543.303	19.4411
546.678	16.4
550.053	12.3709
553.427	13.372
556.802	11.2766
560.177	12.2793
563.552	15.4412
566.927	17.0302
570.302	20.6556
573.676	25.3982
577.051	30.4449
580.426	29.4347
583.801	22.5295
587.176	17.8019
590.55	13.8091
593.925	14.4483
597.3	13.4854
600.675	11.9146
604.05	16.4551
607.424	14.6629
610.799	13.5926
614.174	12.2231
617.549	9.50822
620.924	7.01428
624.298	6.49594
627.673	5.43529
631.048	3.93239
634.423	3.32556
637.798	5.00955
641.173	3.43726
644.547	1.91606
647.922	1.57739
651.297	0.062637
654.672	1.0587
658.047	0.362137
661.421	0.934052
664.796	0.805634
668.171	1.1723
671.546	3.23198
674.921	4.93547
678.295	7.58896
681.67	9.46455
685.045	11.1807
688.42	11.5076
691.795	8.01755
695.17	6.57838
698.544	4.64941
701.919	3.8443
705.294	3.93874
708.669	5.79074
712.044	5.22168
715.418	4.80368
718.793	6.7925
722.168	5.57355
725.543	1.96625
728.918	0.47142
732.293	1.22476
735.667	1.49274
739.042	1.95111
742.417	1.98186
745.792	1.66588
749.167	1.74998
752.541	2.6978
755.916	1.63516
759.291	2.18048
762.666	4.65739
766.041	5.15042
769.415	7.02296
772.79	9.16315
776.165	9.92874
779.54	11.4251
782.915	11.7933
786.29	14.9874
789.664	14.82
793.039	15.1123
796.414	16.0982
799.789	15.1313
803.164	14.4466
806.538	14.1516
809.913	14.4363
813.288	15.3028
816.663	15.2054
820.038	15.5027
823.413	21.3528
826.787	17.5777
830.162	19.1419
833.537	19.8081
836.912	20.7557
840.287	21.4406
843.661	20.138
847.036	17.5154
850.411	16.6344
853.786	14.5923
857.161	10.8493
860.535	8.80864
863.91	8.05411
867.285	5.55774
870.66	3.91493
874.035	2.28631
877.409	0.872108
880.784	0.629807
884.159	0.126976
887.534	0.515717
890.909	0.442711
894.284	0.052155
897.658	1.01789
901.033	1.57121
904.408	5.48737
907.783	6.97287
911.158	10.0985
914.533	12.9655
917.907	11.7971
921.282	11.0132
924.657	12.1213
928.032	10.0193
931.407	7.4995
934.781	4.74213
938.156	1.97546
941.531	0.05777
944.906	1.41405
948.281	2.67874
951.655	7.2502
955.03	19.6092
958.405	36.9931
961.78	57.8367
965.155	80.8099
968.529	92.8109
971.904	100.053
975.279	105.055
978.654	115.174
982.029	131.53
985.404	148.019
988.778	158.633
992.153	165.649
995.528	167.342
998.903	150.213
1002.28	118.17
1005.65	83.3174
1009.03	55.853
1012.4	38.1715
1015.78	26.3374
1019.15	18.8102
1022.53	11.2206
1025.9	6.87448
1029.28	3.84651
1032.65	3.4503
1036.03	5.71947
1039.4	3.46603
1042.78	0.342758
1046.15	2.0585
1049.53	2.54987
1052.9	2.67905
1056.28	0.966049
1059.65	4.87636
1063.02	0.439789
1066.4	4.12289
1069.77	7.29996
1073.15	10.9405
1076.52	14.503
1079.9	17.7717
1083.27	21.1452
1086.65	23.5222
1090.02	24.4725
1093.4	24.8714
1096.77	22.6068
1100.15	24.0119
1103.52	25.9209
1106.9	24.7102
1110.27	25.1582
1113.65	23.9139
1117.02	25.7003
1120.4	28.8321
1123.77	28.951
1127.15	29.0511
1130.52	32.8817
1133.9	33.4577
1137.27	36.0507
1140.64	37.4943
1144.02	37.8451
1147.39	37.2941
1150.77	37.1868
1154.14	34.9569
1157.52	33.5025
1160.89	28.5341
1164.27	24.0106
1167.64	20.1032
1171.02	16.6219
1174.39	16.2783
1177.77	18.2047
1181.14	22.2445
1184.52	20.5493
1187.89	17.2321
1191.27	16.5634
1194.64	18.7239
1198.02	12.2866
1201.39	7.63678
1204.77	1.56177
1208.14	2.21893
1211.52	18.092
1214.89	34.5507
1218.27	39.7028
1221.64	34.2259
1225.02	32.8208
1228.39	15.6998
1231.77	4.83392
1235.14	3.70685
1238.52	2.01306
1241.89	19.1505
1245.26	52.2188
1248.64	76.832
1252.01	63.2772
1255.39	61.9509
1258.76	39.7371
1262.14	8.35523
