Measurement: Raman, 532 nm, unoriented, Raman Data Processed
Mineral: Nepheline
Rruff sample: R090059
Ideal chemistry: KNa_3_(AlSiO_4_)_4_
Locality: Lajuar Madan, Sar-e-Sang District, Badakhshan, Afghanistan
Source: Dudley Blauwet
Description: Colorless blocky crystals coated with colorless sodalite with electric blue inclusions, on a marble matrix
Raman shift (cm-1)	intensity
154.753	0
157.646	23.6938
160.539	37.5111
163.431	10.8757
166.324	1.12996
169.217	2.70376
172.109	9.49452
175.002	10.7482
177.895	20.0386
180.788	36.4252
183.68	53.5598
186.573	101.421
189.466	164.483
192.358	252.876
195.251	342.195
198.144	447.658
201.036	540.143
203.929	619.653
206.822	637.928
209.715	601.261
212.607	505.63
215.5	409.043
218.393	340.696
221.285	293.082
224.178	249.118
227.071	203.534
229.964	162.468
232.856	124.042
235.749	79.9658
238.642	52.0808
241.534	31.6349
244.427	18.1457
247.32	21.7461
250.212	24.9833
253.105	39.9162
255.998	65.8238
258.89	107.225
261.783	138.472
264.676	166.467
267.568	165.799
270.461	132.02
273.354	91.849
276.247	56.6754
279.139	32.9526
282.032	28.6973
284.925	16.3441
287.817	11.209
290.71	4.26121
293.603	5.21812
296.495	3.21878
299.388	5.05486
302.281	0.029011
305.174	0.948594
308.066	5.24474
310.959	0.92536
313.852	4.24209
316.744	3.67598
319.637	0.840702
322.53	8.75017
325.423	16.7231
328.315	1.09381
331.208	8.19924
334.101	38.1173
336.993	72.6829
339.886	113.175
342.779	154.694
345.671	204.492
348.564	229.576
351.457	210.085
354.349	128.619
357.242	61.4361
360.135	12.9361
363.028	1.55701
365.92	1.55118
368.813	33.2597
371.706	70.5473
374.598	140.585
377.491	221.858
380.384	347.568
383.276	491.309
386.169	694.494
389.062	899.144
391.955	1148.8
394.847	1384.4
397.74	1533.05
400.633	1578.94
403.525	1541.29
406.418	1515.45
409.311	1499.75
412.204	1484.32
415.096	1391.73
417.989	1234.17
420.882	1011.01
423.774	790.85
426.667	592.888
429.56	418.087
432.452	287.229
435.345	190.42
438.238	130.36
441.13	104.445
444.023	83.6112
446.916	86.8388
449.809	98.3685
452.701	118.034
455.594	173.594
458.487	241.381
461.379	327.255
464.272	412.984
467.165	446.738
470.058	338.275
472.95	173.07
475.843	69.7789
478.736	23.0259
481.628	7.5693
484.521	6.76448
487.414	5.59026
490.306	4.01352
493.199	0.071916
496.092	5.82347
498.985	6.89358
501.877	2.74522
504.77	6.58282
507.663	5.31325
510.555	7.68525
513.448	5.01147
516.341	9.1688
519.233	14.7364
522.126	13.514
525.019	32.6623
527.912	36.9619
530.804	50.782
533.697	72.204
536.59	100.426
539.482	137.556
542.375	188.353
545.268	261.321
548.16	330.308
551.053	331.828
553.946	224.341
556.838	115.004
559.731	61.6507
562.624	45.0953
565.517	34.2907
568.409	27.2782
571.302	24.9936
574.195	22.6823
577.087	31.4451
579.98	28.043
582.873	28.0596
585.765	22.6796
588.658	24.5112
591.551	17.6513
594.443	12.3284
597.336	7.1901
600.229	9.38488
603.122	13.8358
606.014	6.58748
608.907	14.1406
611.8	15.5323
614.692	9.10655
617.585	5.60144
620.478	0.436326
623.37	1.63697
626.263	7.36998
629.156	0.55652
632.049	2.31963
634.941	0.894979
637.834	4.99101
640.727	6.78707
643.619	1.01424
646.512	0.931735
649.405	3.74111
652.298	3.448
655.19	7.11941
658.083	0.067964
660.976	3.99908
663.868	8.85683
666.761	13.1845
669.654	24.5155
672.546	37.2331
675.439	48.3058
678.332	60.2617
681.225	61.852
684.117	60.5126
687.01	48.5306
689.903	43.8791
692.795	38.9408
695.688	28.2198
698.581	30.8557
701.473	29.6445
704.366	19.7456
707.259	26.5723
710.152	23.9545
713.044	26.4642
715.937	19.6339
718.83	18.9724
721.722	13.7654
724.615	8.80632
727.508	5.71859
730.4	1.47025
733.293	3.70817
736.186	3.37194
739.079	1.82845
741.971	1.2034
744.864	2.93288
747.757	0.082154
750.649	2.49832
753.542	0.213793
756.435	0.119983
759.327	0.484779
762.22	1.97555
765.113	0.55403
768.006	0.79664
770.898	3.48296
773.791	0.674629
776.684	1.22718
779.576	4.53069
782.469	1.83029
785.362	5.49758
788.254	10.7145
791.147	7.13082
794.04	8.14029
796.933	14.5935
799.825	11.8183
802.718	15.7309
805.611	6.83783
808.503	11.3453
811.396	10.2014
814.289	11.2254
817.181	5.64937
820.074	6.78928
822.967	3.26321
825.86	4.46456
828.752	2.59311
831.645	6.0827
834.538	6.38084
837.43	3.43706
840.323	6.49953
843.216	0.841158
846.108	2.96005
849.001	4.39257
851.894	0.162017
854.787	1.59811
857.679	1.57339
860.572	2.2341
863.465	4.7842
866.357	1.67832
869.25	0.496979
872.143	0.757725
875.035	6.77505
877.928	5.01918
880.821	5.63816
883.713	4.9345
886.606	9.25795
889.499	14.8085
892.392	10.5573
895.284	4.55857
898.177	0.208414
901.07	2.18229
903.962	11.1859
906.855	4.10963
909.748	8.8576
912.64	0.130629
915.533	0.579674
918.426	4.50793
921.319	2.54348
924.211	1.34695
927.104	1.80345
929.997	1.67489
932.889	1.5336
935.782	1.73939
938.675	1.82775
941.567	9.71831
944.46	13.2554
947.353	31.8878
950.246	48.4758
953.138	82.6913
956.031	120.147
958.924	181.594
961.816	250.025
964.709	317.344
967.602	362.671
970.495	347.467
973.387	329.019
976.28	340.914
979.173	371.191
982.065	411.657
984.958	472.91
987.851	514.947
990.743	502.505
993.636	441.36
996.529	358.983
999.421	276.99
1002.31	207.229
1005.21	154.651
1008.1	118.984
1010.99	80.5579
1013.88	56.4065
1016.78	47.6781
1019.67	34.4683
1022.56	38.3166
1025.46	24.8137
1028.35	24.3364
1031.24	26.5815
1034.13	26.6527
1037.03	29.2778
1039.92	18.4979
1042.81	1.5001
1045.7	3.11783
1048.6	6.6695
1051.49	0.777779
1054.38	1.38884
1057.28	1.52573
1060.17	0.003059
1063.06	1.31274
1065.95	3.26556
1068.85	6.99409
1071.74	15.2305
1074.63	17.5891
1077.52	33.6579
1080.42	50.2091
1083.31	78.7575
1086.2	128.142
1089.1	116.988
1091.99	81.8265
1094.88	79.6286
1097.77	82.8187
1100.67	75.4258
1103.56	58.71
1106.45	43.5988
1109.34	34.349
1112.24	30.4545
1115.13	18.4137
1118.02	24.9291
1120.91	13.8586
1123.81	7.7688
1126.7	5.8274
1129.59	5.21627
1132.49	1.98878
1135.38	7.4141
1138.27	5.30748
1141.16	4.57587
1144.06	8.7714
1146.95	4.9985
1149.84	2.55522
1152.73	2.7617
1155.63	1.20445
1158.52	0.966091
1161.41	2.77447
1164.31	2.35364
1167.2	0.66182
1170.09	0.184328
1172.98	4.88969
1175.88	12.5607
1178.77	0.285758
1181.66	0.865807
1184.55	0.05959
1187.45	1.83314
1190.34	5.04936
1193.23	14.2001
1196.12	7.06658
1199.02	5.32722
1201.91	4.63924
1204.8	0.743694
1207.7	6.22437
1210.59	9.34105
1213.48	9.50983
1216.37	9.59571
1219.27	4.63155
1222.16	6.6495
1225.05	5.59101
1227.94	7.46897
1230.84	1.60553
1233.73	2.62388
1236.62	2.82143
1239.52	2.23942
1242.41	14.5862
1245.3	12.0042
1248.19	9.24284
1251.09	0.853724
1253.98	3.59312
1256.87	7.11343
1259.76	7.45409
1262.66	1.75099
1265.55	8.28606
1268.44	12.7573
1271.34	2.58278
1274.23	7.46266
1277.12	6.14587
1280.01	7.48008
1282.91	0.249018
1285.8	6.21422
1288.69	5.09992
1291.58	3.52607
1294.48	1.9044
1297.37	3.57909
1300.26	5.54152
1303.15	4.43196
