Measurement: Raman, 514 nm, unoriented, Raman Data Processed
Mineral: Nepheline
Rruff sample: R040025
Ideal chemistry: KNa_3_(AlSiO_4_)_4_
Locality: Bancroft, Ontario, Canada
Source: University of Arizona Mineral Museum
Description: White massive
Measured chemistry: (Na_0.77_K_0.23_)_Î£=1_Al_1.00_Si_1.00_O_4_
Raman shift (cm-1)	intensity
119.813	0
123.981	79.7554
128.146	239.437
132.309	219.781
136.47	28.8091
140.63	27.3413
144.787	50.9565
148.942	246.065
153.096	359.801
157.247	317.819
161.396	204.774
165.544	216.908
169.689	266.016
173.833	278.557
177.974	443.212
182.114	564.941
186.251	902.329
190.387	1284.85
194.52	1781.16
198.652	2242.68
202.782	2466.88
206.909	2369.49
211.035	1712.62
215.159	1666.11
219.281	1959.47
223.4	2134.43
227.518	2083.13
231.634	1653.51
235.748	1155.87
239.86	687.135
243.97	380.28
248.079	294.269
252.185	324.002
256.289	574.42
260.391	1051.54
264.492	1294.36
268.59	1067.79
272.687	640.825
276.781	274.53
280.874	8.95166
284.964	19.0366
289.053	36.3096
293.14	18.1853
297.225	9.22437
301.308	50.6602
305.389	27.8657
309.468	85.687
313.545	4.47144
317.62	36.3064
321.693	167.599
325.765	313.238
329.834	356.338
333.902	627.838
337.967	970.023
342.031	1524.68
346.093	2137.86
350.153	2196.5
354.21	1780.73
358.267	1434.61
362.321	1414.34
366.373	1659.78
370.423	2034.62
374.471	2651.61
378.518	3532.39
382.563	4829.17
386.605	6670.97
390.646	9390.6
394.685	12218.1
398.722	13892.7
402.757	13468.7
406.79	11732
410.821	9900.72
414.851	8013.82
418.878	6139.62
422.904	4522.44
426.927	3350.29
430.949	2603.83
434.969	2325.31
438.987	1953.62
443.003	2028.2
447.018	2015.84
451.03	2271.82
455.041	2923.35
459.049	4133.81
463.056	6409.42
467.061	7010.43
471.064	4561.71
475.065	2543.82
479.064	1475.97
483.062	1027.84
487.057	765.931
491.051	631.289
495.043	513.332
499.032	410.08
503.02	387.844
507.007	334.285
510.991	309.071
514.973	215.158
518.954	226.658
522.933	199.74
526.91	127.108
530.885	157.274
534.858	91.2578
538.829	151.172
542.799	48.96
546.766	118.456
550.732	20.897
554.696	54.0737
558.658	61.0967
562.618	78.9614
566.576	50.6624
570.533	147.227
574.488	117.702
578.44	206.073
582.391	178.282
586.341	93.365
590.288	27.4846
594.233	51.3696
598.177	28.1597
602.119	80.8149
606.059	28.0908
609.997	219.223
613.933	181.35
617.868	119.143
621.801	82.4824
625.731	29.3071
629.66	86.4045
633.588	40.477
637.513	30.2881
641.437	15.5348
645.358	24.5994
649.278	23.2495
653.196	49.2803
657.113	5.98975
661.027	13.6003
664.94	0.354004
668.851	56.6099
672.76	86.2769
676.667	89.7275
680.572	175.044
684.476	281.65
688.378	144.701
692.278	150.183
696.176	68.9731
700.072	94.6196
703.967	76.7085
707.86	140.929
711.751	228.666
715.64	227.881
719.527	267.394
723.413	248.718
727.297	140.484
731.179	82.7842
735.059	89.2832
738.937	91.7251
742.814	26.689
746.689	44.6694
750.562	31.895
754.433	100.769
758.303	1.89502
762.17	29.8374
766.036	40.1577
769.901	21.9605
773.763	68.7095
777.624	50.8018
781.482	42.2075
785.339	41.6499
789.195	21.9009
793.048	56.4507
796.9	25.7095
800.75	35.4678
804.598	35.3232
808.445	42.6455
812.289	5.36523
816.132	18.2026
819.973	1.61279
823.813	27.54
827.65	13.4204
831.486	15.0513
835.32	7.83203
839.152	4.58984
842.983	2.3335
846.812	17.0596
850.639	29.6035
854.464	18.2607
858.288	80.9048
862.11	53.523
865.93	47.2017
869.748	66.8721
873.564	19.5527
877.379	93.2729
881.192	81.2324
885.004	77.7959
888.813	73.2461
892.621	94.4087
896.427	120.334
900.232	151.846
904.034	93.5791
907.835	71.4683
911.634	60.5371
915.432	201.506
919.227	64.728
923.021	71.4634
926.813	147.056
930.604	79.3516
934.393	134.301
938.18	60.2109
941.965	188.178
945.749	222.038
949.53	164.201
953.311	199.346
957.089	398.63
960.866	491.967
964.641	800.252
968.414	1041.26
972.185	978.713
975.955	1408.16
979.723	2228.73
983.49	3677.75
987.254	5292.36
991.017	5931.31
994.779	4092.87
998.538	2559.45
1002.3	1643.56
1006.05	1147.65
1009.81	837.668
1013.56	754.858
1017.31	490.053
1021.06	428.268
1024.81	368.377
1028.55	429.536
1032.3	413.028
1036.04	412.466
1039.78	395.399
1043.52	412.106
1047.26	307.005
1050.99	322.548
1054.73	263.544
1058.46	269.156
1062.19	273.93
1065.92	329.915
1069.65	443.106
1073.37	481.977
1077.1	647.735
1080.82	820.953
1084.54	707.648
1088.26	577.498
1091.97	476.843
1095.69	339.104
1099.4	335.453
1103.12	192.86
1106.83	139.286
1110.54	97.1103
1114.24	109.864
1117.95	197.169
1121.65	124.379
1125.35	126.026
1129.06	79.7401
1132.75	44.6385
1136.45	14.4282
1140.15	65.3989
1143.84	8.48877
1147.53	49.4751
1151.22	83.2124
1154.91	46.3897
1158.6	11.686
1162.28	3.48438
1165.97	3.53076
1169.65	4.53711
1173.33	1.54297
1177.01	73.0991
1180.69	49.6494
1184.36	84.7114
1188.04	16.5073
1191.71	64.4907
1195.38	8.36475
1199.05	79.3613
1202.71	110.586
1206.38	101.662
1210.04	49.6284
1213.71	5.4917
1217.37	108.01
1221.03	49.4707
1224.68	41.773
1228.34	40.8745
1231.99	99.0352
1235.65	9.95654
1239.3	8.70654
1242.95	127.155
1246.59	70.4702
1250.24	7.3584
1253.88	31.6299
1257.53	113.417
1261.17	62.0503
1264.81	73.4058
1268.45	87.8994
1272.08	27.104
1275.72	80.5361
1279.35	17.061
1282.98	42.2105
1286.61	38.2881
1290.24	44.228
1293.87	74.4839
1297.49	106.878
1301.11	62.9585
1304.73	81.1138
1308.36	107.621
1311.97	143.151
1315.59	44.4062
1319.2	92.0854
1322.82	62.9482
1326.43	24.9663
1330.04	97.2212
1333.65	111.933
1337.26	18.6406
1340.86	16.5181
1344.47	63.9815
1348.07	71.2749
1351.67	67.4805
1355.27	216.6
1358.87	144.266
1362.46	171.67
1366.06	146.375
1369.65	190.456
1373.24	148.721
1376.83	142.654
1380.42	92.3828
1384	108.409
1387.59	139.273
1391.17	104.06
1394.75	192.23
1398.33	196.152
1401.91	74.9981
1405.49	153.152
1409.06	8.854
1412.64	122.587
1416.21	239.983
1419.78	171.247
1423.35	189.982
1426.91	152.07
1430.48	169.087
1434.05	206.235
1437.61	251.569
1441.17	204.006
1444.73	149.971
1448.29	69.7607
1451.84	110.654
1455.4	127.17
1458.95	192.58
1462.5	216.984
1466.05	230.614
1469.6	184.665
1473.15	274.548
1476.69	53.5483
1480.24	120.797
1483.78	57.1421
1487.32	34.5713
1490.86	150.554
1494.39	149.849
1497.93	187.947
1501.46	78.335
1505	36.2822
1508.53	30.6064
1512.06	34.3779
1515.59	47.916
1519.11	35.0664
1522.64	0
