Measurement: Raman, 780 nm, unoriented, Raman Data Processed
Mineral: Nepheline
Rruff sample: R040025
Ideal chemistry: KNa_3_(AlSiO_4_)_4_
Locality: Bancroft, Ontario, Canada
Source: University of Arizona Mineral Museum
Description: White massive
Measured chemistry: (Na_0.77_K_0.23_)_Î£=1_Al_1.00_Si_1.00_O_4_
Raman shift (cm-1)	intensity
115.723	0
119.098	0.243004
122.473	1.96493
125.848	1.5222
129.222	5.00846
132.597	2.04567
135.972	0.581665
139.347	1.35851
142.722	6.52242
146.096	17.8931
149.471	32.9473
152.846	45.0481
156.221	52.7055
159.596	47.6518
162.971	46.1265
166.345	45.0744
169.72	42.6147
173.095	48.3046
176.47	53.0397
179.845	66.5522
183.22	83.0263
186.594	104.922
189.969	129.785
193.344	156.071
196.719	178.853
200.094	193.082
203.468	191.227
206.843	164.594
210.218	120.89
213.593	82.274
216.968	58.875
220.343	47.4034
223.717	40.1514
227.092	35.6448
230.467	27.8276
233.842	22.4282
237.217	15.1866
240.591	11.6911
243.966	10.0017
247.341	10.499
250.716	11.4049
254.091	10.9653
257.466	14.6626
260.84	18.8354
264.215	22.1153
267.59	17.9551
270.965	11.436
274.34	5.61461
277.714	1.91766
281.089	0.575371
284.464	1.0426
287.839	1.16489
291.214	2.27333
294.588	1.78333
297.963	1.57933
301.338	0.974693
304.713	1.3606
308.088	1.40331
311.462	0.004234
314.837	0.451645
318.212	3.64647
321.587	2.4782
324.962	3.69466
328.337	9.24582
331.711	13.9229
335.086	21.1341
338.461	27.8205
341.836	35.4993
345.211	43.3383
348.586	42.3797
351.96	28.6437
355.335	16.7298
358.71	10.3373
362.085	10.8559
365.46	14.268
368.834	24.7201
372.209	38.1643
375.584	58.2577
378.959	85.7725
382.334	120.418
385.709	157.993
389.083	201.824
392.458	251.61
395.833	293.613
399.208	315.793
402.583	316.907
405.957	304.67
409.332	293.309
412.707	260.696
416.082	207.076
419.457	148.846
422.832	99.344
426.206	65.5576
429.581	42.3276
432.956	26.1373
436.331	16.9174
439.705	12.2721
443.08	8.09647
446.455	11.1276
449.83	14.9702
453.205	19.8306
456.58	28.0568
459.954	37.8114
463.329	50.6502
466.704	46.5708
470.079	28.7155
473.454	10.9124
476.829	2.71724
480.203	0.915722
483.578	0.829975
486.953	3.25282
490.328	1.33217
493.703	1.05611
497.077	0.471382
500.452	1.30857
503.827	0.144272
507.202	0.50362
510.577	1.21933
513.952	1.68474
517.326	2.21072
520.701	2.05016
524.076	5.53162
527.451	4.53562
530.826	4.71812
534.2	6.43619
537.575	4.74043
540.95	5.7302
544.325	5.72476
547.7	5.26668
551.074	4.79266
554.449	5.24084
557.824	3.94268
561.199	3.67232
564.574	3.31852
567.948	3.33047
571.323	3.55294
574.698	2.63888
578.073	3.27147
581.448	2.99324
584.823	2.38362
588.197	2.86109
591.572	1.79212
594.947	2.72306
598.322	2.11353
601.697	1.41959
605.072	1.40913
608.446	0.878571
611.821	1.55745
615.196	0.988358
618.571	0.291279
621.946	1.24252
625.32	1.65469
628.695	0.512585
632.07	0.368347
635.445	0.747963
638.82	1.27315
642.194	1.03434
645.569	0.127697
648.944	0.775799
652.319	0.575233
655.694	0.400467
659.069	1.24628
662.443	1.63943
665.818	2.05762
669.193	5.11745
672.568	6.06081
675.943	8.9781
679.317	9.60475
682.692	9.18862
686.067	6.84908
689.442	4.22849
692.817	3.85511
696.192	2.916
699.566	2.3403
702.941	2.87665
706.316	0.889294
709.691	2.76194
713.066	2.42511
716.44	1.14301
719.815	1.40817
723.19	0.047314
726.565	0.560154
729.94	0.943211
733.314	0.298355
736.689	1.23943
740.064	0.112286
743.439	0.20689
746.814	0.403584
750.189	0.35099
753.563	0.164837
756.938	0.457638
760.313	0.397717
763.688	0.30434
767.063	0.660107
770.438	0.109543
773.812	1.10675
777.187	0.892586
780.562	0.966274
783.937	1.49539
787.312	1.43069
790.686	0.456703
794.061	1.91572
797.436	1.63759
800.811	1.0269
804.186	1.33055
807.561	1.426
810.935	1.05866
814.31	2.82587
817.685	2.36072
821.06	2.5082
824.435	1.85841
827.809	3.02294
831.184	1.86043
834.559	4.38457
837.934	1.32464
841.309	2.2193
844.683	3.6082
848.058	2.49571
851.433	2.69217
854.808	2.55073
858.183	2.44087
861.558	2.33694
864.932	1.86146
868.307	2.93931
871.682	2.31583
875.057	2.44982
878.432	2.05949
881.807	0.996864
885.181	2.47319
888.556	1.45005
891.931	2.03412
895.306	1.35755
898.681	0.092684
902.055	1.18209
905.43	1.27626
908.805	1.38789
912.18	0.262009
915.555	0.124043
918.929	0.144482
922.304	0.458179
925.679	0.020163
929.054	0.411627
932.429	0.542339
935.803	1.59301
939.178	2.05399
942.553	2.31032
945.928	3.8769
949.303	7.13155
952.678	12.2491
956.052	19.8531
959.427	30.3758
962.802	42.7928
966.177	53.5165
969.552	49.3934
972.927	42.432
976.301	41.2316
979.676	45.302
983.051	52.8668
986.426	59.6543
989.801	62.8511
993.175	54.0294
996.55	42.5749
999.925	27.1183
1003.3	17.2394
1006.67	10.8305
1010.05	7.55377
1013.42	5.78741
1016.8	3.34051
1020.17	2.90259
1023.55	1.38084
1026.92	2.33939
1030.3	3.53836
1033.67	3.68581
1037.05	5.03924
1040.42	4.47635
1043.8	2.17791
1047.17	1.01519
1050.55	0.564205
1053.92	0.430775
1057.3	0.238132
1060.67	0.009886
1064.05	0.365311
1067.42	1.45034
1070.8	0.093916
1074.17	2.27927
1077.55	2.71008
1080.92	1.53765
1084.3	2.21037
1087.67	2.02611
1091.05	1.10991
1094.42	1.52067
1097.8	1.10846
1101.17	1.46159
1104.54	2.5875
1107.92	0.521732
1111.29	1.01701
1114.67	0.679264
1118.04	0.434284
1121.42	0.816999
1124.79	1.37294
1128.17	0.04257
1131.54	0.392076
1134.92	0.610918
1138.29	0.787409
1141.67	0.245478
1145.04	1.84093
1148.42	1.63549
1151.79	1.11505
1155.17	1.87664
1158.54	1.03095
1161.92	1.36669
1165.29	0.787088
1168.67	3.34681
1172.04	1.30782
1175.41	0.537918
1178.79	1.01724
1182.16	1.29859
1185.54	1.49393
1188.91	1.00888
1192.29	0.33316
1195.66	0.694365
1199.04	1.69515
1202.41	2.04765
1205.79	0.415821
1209.16	0.621052
1212.54	0.037046
1215.91	2.03921
1219.29	1.68916
1222.66	0.383717
1226.04	1.594
1229.41	1.1502
1232.79	1.64593
1236.16	1.21811
1239.54	1.13078
1242.91	1.64858
1246.29	0.155743
1249.66	1.28962
1253.04	1.454
1256.41	0.309614
1259.79	1.08651
1263.16	0.468718
1266.54	0.554457
1269.91	1.62035
1273.29	0.833418
