Measurement: Raman, 780 nm, unoriented, Raman Data Processed
Mineral: Nepheline
Rruff sample: R090059
Ideal chemistry: KNa_3_(AlSiO_4_)_4_
Locality: Lajuar Madan, Sar-e-Sang District, Badakhshan, Afghanistan
Source: Dudley Blauwet
Description: Colorless blocky crystals coated with colorless sodalite with electric blue inclusions, on a marble matrix
Raman shift (cm-1)	intensity
91.8272	0
95.202	5.28212
98.5768	4.57074
101.952	0.683772
105.326	6.46534
108.701	15.5456
112.076	33.5728
115.451	46.8403
118.826	50.9881
122.201	50.7632
125.575	40.6085
128.95	31.7167
132.325	17.1828
135.7	11.6752
139.075	11.9288
142.449	16.2706
145.824	23.5633
149.199	35.9638
152.574	35.25
155.949	33.1547
159.323	23.0259
162.698	13.7169
166.073	10.4748
169.448	4.68987
172.823	1.5158
176.198	2.31464
179.572	1.06468
182.947	0.270878
186.322	6.51098
189.697	18.5971
193.072	33.4552
196.446	51.2222
199.821	70.9112
203.196	85.1608
206.571	91.8205
209.946	89.3825
213.321	78.4505
216.695	77.029
220.07	81.0097
223.445	80.7424
226.82	73.0714
230.195	62.7188
233.569	38.2254
236.944	22.6242
240.319	9.14533
243.694	0.498144
247.069	2.03094
250.444	0.217604
253.818	11.1056
257.193	26.0949
260.568	50.4936
263.943	67.745
267.318	69.3388
270.692	53.1639
274.067	32.9148
277.442	17.0262
280.817	9.78111
284.192	6.26115
287.567	4.93068
290.941	2.23891
294.316	3.33114
297.691	0.201875
301.066	1.97228
304.441	2.92329
307.815	2.41188
311.19	0.566404
314.565	1.65508
317.94	1.5303
321.315	3.27754
324.69	5.88958
328.064	1.70772
331.439	2.9805
334.814	9.7991
338.189	19.2917
341.564	38.4798
344.938	57.5702
348.313	72.651
351.688	61.0099
355.063	36.4765
358.438	13.5717
361.812	6.53623
365.187	6.63297
368.562	14.69
371.937	32.3226
375.312	57.4121
378.687	91.1454
382.061	144.159
385.436	212.169
388.811	305.582
392.186	406.377
395.561	498.02
398.935	522.631
402.31	478.269
405.685	421.275
409.06	381.255
412.435	342.191
415.81	298.153
419.184	239.881
422.559	176.477
425.934	123.031
429.309	77.2581
432.684	47.0593
436.058	30.7661
439.433	18.1756
442.808	16.0255
446.183	21.1333
449.558	36.4213
452.933	52.2579
456.307	88.4024
459.682	134.723
463.057	194.604
466.432	241.966
469.807	189.342
473.181	89.0344
476.556	30.4682
479.931	9.81486
483.306	2.72548
486.681	3.721
490.055	3.29128
493.43	1.59916
496.805	1.61074
500.18	0.422332
503.555	2.66619
506.93	2.52653
510.304	1.85016
513.679	1.59658
517.054	2.67598
520.429	3.12309
523.804	6.52518
527.178	6.98315
530.553	10.3832
533.928	10.304
537.303	14.4771
540.678	20.8104
544.053	23.5106
547.427	25.2561
550.802	24.5575
554.177	17.0169
557.552	12.1398
560.927	12.0935
564.302	11.1701
567.676	10.363
571.051	10.6671
574.426	12.1238
577.801	12.9057
581.176	12.1055
584.55	8.56136
587.925	7.66209
591.3	6.83061
594.675	3.54164
598.05	4.34646
601.424	4.61093
604.799	5.02183
608.174	8.3758
611.549	8.84288
614.924	7.3547
618.298	3.89924
621.673	2.60839
625.048	2.03387
628.423	1.90878
631.798	1.44694
635.173	1.67993
638.547	1.69098
641.922	1.13909
645.297	0.342508
648.672	0.127578
652.047	0.255156
655.422	0.870411
658.796	0.669591
662.171	0.379526
665.546	0.579224
668.921	0.142433
672.296	2.38679
675.67	1.91653
679.045	3.9671
682.42	4.81509
685.795	6.0937
689.17	4.08617
692.544	4.13817
695.919	5.07926
699.294	3.74654
702.669	4.61835
706.044	4.89618
709.419	4.98891
712.793	6.77331
716.168	8.17792
719.543	7.73625
722.918	4.4313
726.293	0.551329
729.668	1.41197
733.042	0.626824
736.417	0.433388
739.792	0.610268
743.167	0.122843
746.542	0.367244
749.916	1.79832
753.291	0.297775
756.666	0.479463
760.041	0.016044
763.416	0.111331
766.79	1.09915
770.165	0.153799
773.54	0.732721
776.915	0.600313
780.29	0.742162
783.665	0.262525
787.039	0.031847
790.414	0.752961
793.789	0.918157
797.164	1.04745
800.539	0.121368
803.913	0.013247
807.288	1.43937
810.663	1.95798
814.038	1.87852
817.413	0.756742
820.788	1.40829
824.162	2.46869
827.537	1.90753
830.912	0.210341
834.287	2.31132
837.662	0.373437
841.036	1.95251
844.411	1.32274
847.786	1.47356
851.161	2.27885
854.536	1.89905
857.91	2.52581
861.285	2.28005
864.66	2.34364
868.035	1.33915
871.41	0.077484
874.784	0.013958
878.159	1.65192
881.534	3.94053
884.909	2.85727
888.284	2.62237
891.659	1.6946
895.033	1.94513
898.408	0.173683
901.783	0.186166
905.158	0.143343
908.533	1.43336
911.908	0.245168
915.282	0.611893
918.657	0.177095
922.032	1.21502
925.407	0.483778
928.782	0.445835
932.156	0.398182
935.531	0.376651
938.906	0.278025
942.281	1.428
945.656	1.58635
949.03	4.13581
952.405	8.34554
955.78	13.4522
959.155	22.3006
962.53	31.6818
965.905	42.093
969.279	47.7662
972.654	52.501
976.029	61.6148
979.404	78.7981
982.779	104.778
986.154	134.712
989.528	142.56
992.903	117.847
996.278	84.8412
999.653	57.6819
1003.03	39.6669
1006.4	29.486
1009.78	20.3336
1013.15	14.4247
1016.53	10.4537
1019.9	6.90221
1023.28	4.632
1026.65	4.18406
1030.03	2.75095
1033.4	3.4979
1036.78	3.3721
1040.15	1.45215
1043.53	0.214706
1046.9	0.241579
1050.28	0.08086
1053.65	0.479951
1057.03	0.184256
1060.4	1.17391
1063.77	1.39847
1067.15	5.11106
1070.52	6.49712
1073.9	7.3989
1077.27	9.27974
1080.65	15.4937
1084.02	24.3477
1087.4	33.3802
1090.77	13.0439
1094.15	5.82165
1097.52	4.40651
1100.9	3.95354
1104.27	2.22527
1107.65	0.030016
1111.02	0.24803
1114.4	1.08617
1117.77	2.75457
1121.15	0.919347
1124.52	0.112428
1127.9	1.25856
1131.27	0.662662
1134.64	0.814617
1138.02	1.81967
1141.39	0.509271
1144.77	0.785026
1148.14	0.827537
1151.52	0.310972
1154.89	1.14035
1158.27	3.02383
1161.64	1.56122
1165.02	1.34973
1168.39	2.8532
1171.77	1.42391
1175.14	1.46502
1178.52	3.37508
1181.89	2.28037
1185.27	1.44648
1188.64	3.4423
1192.02	1.39942
1195.39	0.705435
1198.77	1.65482
1202.14	1.04562
1205.52	0.023904
1208.89	0.627043
1212.27	2.75405
1215.64	0.156514
1219.02	0.892562
1222.39	0.868408
1225.77	0.164688
1229.14	0.668216
1232.52	0.740811
1235.89	0.653555
1239.27	2.49007
1242.64	2.91267
1246.01	3.09264
1249.39	3.70443
1252.76	2.59351
1256.14	4.40675
1259.51	2.21431
1262.89	3.07178
1266.26	0.170465
1269.64	3.53559
1273.01	3.84801
1276.39	3.53696
1279.76	0.073303
1283.14	1.02756
