Measurement: Raman, 532 nm, unoriented, Raman Data Processed
Mineral: Nepheline
Rruff sample: R040025
Ideal chemistry: KNa_3_(AlSiO_4_)_4_
Locality: Bancroft, Ontario, Canada
Source: University of Arizona Mineral Museum
Description: White massive
Measured chemistry: (Na_0.77_K_0.23_)_Î£=1_Al_1.00_Si_1.00_O_4_
Raman shift (cm-1)	intensity
123.297	0
126.672	18.3395
130.047	22.8458
133.422	10.5768
136.797	1.41946
140.172	0.118469
143.546	1.62445
146.921	16.5813
150.296	39.1684
153.671	57.5919
157.046	62.2252
160.421	55.4333
163.795	49.693
167.17	47.6988
170.545	49.9207
173.92	53.6649
177.294	64.999
180.669	87.6694
184.044	115.305
187.419	154.989
190.794	197.691
194.169	241.088
197.543	287.159
200.918	317.838
204.293	309.534
207.668	262.216
211.043	192.7
214.417	138.849
217.792	121.238
221.167	114.062
224.542	113.262
227.917	99.0204
231.292	78.2255
234.666	53.6518
238.041	32.0977
241.416	20.7965
244.791	18.2836
248.166	22.441
251.541	32.4635
254.915	44.6042
258.29	52.5552
261.665	71.2742
265.04	75.1579
268.415	63.799
271.789	42.0058
275.164	20.9165
278.539	9.98627
281.914	6.58884
285.289	1.4682
288.663	2.68289
292.038	2.32382
295.413	0.782532
298.788	1.65591
302.163	3.30484
305.538	6.7785
308.912	4.35657
312.287	3.87076
315.662	3.10931
319.037	2.86011
322.412	1.45584
325.786	5.84332
329.161	13.798
332.536	29.9279
335.911	42.8797
339.286	67.9132
342.661	99.0976
346.035	119.838
349.41	121.726
352.785	86.9628
356.16	53.4984
359.535	36.6971
362.909	34.6095
366.284	47.3631
369.659	70.2056
373.034	107.244
376.409	163.369
379.784	241.014
383.158	334.679
386.533	449.95
389.908	581.461
393.283	715.828
396.658	839.362
400.032	880.52
403.407	839.043
406.782	763.084
410.157	690.622
413.532	598.425
416.906	463.565
420.281	326.859
423.656	221.672
427.031	142.758
430.406	93.0118
433.781	58.0277
437.155	37.6238
440.53	32.499
443.905	34.9921
447.28	46.773
450.655	71.5708
454.029	101.517
457.404	147.356
460.779	200.174
464.154	262.519
467.529	247.912
470.904	141.225
474.278	62.1873
477.653	26.2104
481.028	11.781
484.403	1.22552
487.778	2.65854
491.152	3.42361
494.527	4.01453
497.902	2.96869
501.277	3.21683
504.652	3.7731
508.026	1.11182
511.401	1.5181
514.776	1.39563
518.151	0.954041
521.526	5.20172
524.901	7.58722
528.275	5.89822
531.65	12.6383
535.025	11.6735
538.4	13.0901
541.775	11.5245
545.149	15.1833
548.524	13.9874
551.899	13.3598
555.274	12.6187
558.649	13.7347
562.024	13.1035
565.398	10.924
568.773	15.5518
572.148	14.2618
575.523	15.3424
578.898	15.492
582.273	11.6037
585.647	9.89374
589.022	8.13516
592.397	8.5925
595.772	5.21631
599.146	7.00732
602.521	8.48663
605.896	9.30014
609.271	11.0998
612.646	9.15564
616.021	5.9111
619.395	2.40854
622.77	4.1835
626.145	3.7771
629.52	3.26559
632.895	1.181
636.269	0.531006
639.644	2.47391
643.019	0.412048
646.394	0.005676
649.769	2.11581
653.144	0.051727
656.518	1.77173
659.893	1.30908
663.268	4.27371
666.643	3.50171
670.018	7.87491
673.393	13.1815
676.767	18.757
680.142	20.4003
683.517	19.9516
686.892	14.9856
690.266	12.1593
693.641	13.2187
697.016	8.83347
700.391	7.96219
703.766	10.4866
707.141	11.3981
710.515	9.27588
713.89	9.88065
717.265	8.55527
720.64	7.96271
724.015	6.05209
727.389	2.52084
730.764	2.94455
734.139	1.49393
737.514	1.67068
740.889	2.35159
744.264	1.87085
747.638	1.36423
751.013	0.425049
754.388	1.47073
757.763	2.89371
761.138	0.659119
764.513	1.99069
767.887	1.84161
771.262	2.25299
774.637	2.14154
778.012	0.883118
781.387	3.30438
784.761	2.41855
788.136	3.91156
791.511	2.0322
794.886	2.30447
798.261	2.55295
801.635	3.8139
805.01	3.90912
808.385	1.28873
811.76	3.06216
815.135	4.397
818.51	3.10406
821.884	1.61188
825.259	2.64609
828.634	0.972778
832.009	3.14032
835.384	3.37122
838.758	1.82562
842.133	0.740265
845.508	3.38889
848.883	0.20282
852.258	0.442627
855.633	2.18103
859.007	3.85284
862.382	6.61108
865.757	1.72736
869.132	3.4834
872.507	1.90125
875.881	3.21713
879.256	2.4429
882.631	1.19043
886.006	1.03921
889.381	3.6767
892.755	1.60007
896.13	2.96551
899.505	1.70962
902.88	2.10214
906.255	0.984711
909.63	1.72559
913.004	0.445496
916.379	0.012878
919.754	0.591827
923.129	1.65079
926.504	1.04938
929.879	0.536346
933.253	0.424774
936.628	0.847717
940.003	2.03589
943.378	5.80615
946.753	9.47742
950.127	18.1132
953.502	32.2427
956.877	53.8283
960.252	80.994
963.627	118.577
967.001	141.913
970.376	134.311
973.751	126.03
977.126	145.118
980.501	183.546
983.875	231.943
987.25	269.549
990.625	272.554
994	214.49
997.375	152.182
1000.75	97.2437
1004.12	63.9533
1007.5	42.3719
1010.87	32.4407
1014.25	21.1742
1017.62	15.73
1021	10.5724
1024.37	9.82803
1027.75	7.5777
1031.12	9.87357
1034.5	13.0054
1037.87	11.2946
1041.25	8.62689
1044.62	4.63535
1048	2.02994
1051.37	0.605865
1054.75	0.053345
1058.12	1.23227
1061.5	0.121094
1064.87	4.37293
1068.25	4.96509
1071.62	7.23016
1075	13.8953
1078.37	17.373
1081.74	19.9507
1085.12	17.6619
1088.49	13.796
1091.87	10.4628
1095.24	8.84756
1098.62	5.63138
1101.99	3.41992
1105.37	3.57062
1108.74	3.2952
1112.12	2.71896
1115.49	4.30908
1118.87	1.26691
1122.24	1.80118
1125.62	0.671753
1128.99	0.209259
1132.37	1.58163
1135.74	1.70969
1139.12	2.47092
1142.49	1.60654
1145.87	1.83997
1149.24	1.92596
1152.62	2.61215
1155.99	3.16257
1159.37	1.62637
1162.74	2.18945
1166.12	2.43005
1169.49	1.56085
1172.87	1.94568
1176.24	4.90961
1179.62	3.32993
1182.99	2.80029
1186.37	0.141541
1189.74	3.32214
1193.11	0.149506
1196.49	2.4021
1199.86	3.14655
1203.24	1.30768
1206.61	0.139832
1209.99	4.4566
1213.36	1.95688
1216.74	4.17242
1220.11	3.87299
1223.49	1.68335
1226.86	1.6702
1230.24	2.96121
1233.61	3.16516
1236.99	0.743378
1240.36	1.25531
1243.74	0.773895
1247.11	1.96716
1250.49	1.47839
1253.86	0.55954
1257.24	3.32455
1260.61	2.72092
1263.98	2.20035
1267.36	2.42041
1270.73	1.85211
1274.11	1.2706
1277.48	1.43637
1280.86	3.76456
1284.23	2.83905
