Measurement: Raman, 532 nm, unoriented, Raman Data Processed
Mineral: Neptunite
Rruff sample: R060628
Ideal chemistry: KNa_2_LiFe^2+^_2_Ti_2_Si_8_O_24_
Locality: California, USA
Source: Gemological Institute of America
Description: Black gemstone fragment
Measured chemistry: (K_0.88_Na_0.12_)_Σ=1_Na_2.00_Li_1.00_(Fe^2+^_1.42_Mg_0.39_Mn_0.19_)_Σ=2_Ti_2.00_Si_8.00_O_24_ ; Li not measured but estimated by difference and stoichiometry
Raman shift (cm-1)	intensity
112.844	0
116.219	75.534
119.594	263.26
122.968	600.566
126.343	801.213
129.718	598.591
133.093	335.083
136.468	270.797
139.842	230.136
143.217	218.975
146.592	239.626
149.967	398.043
153.342	419.633
156.717	313.825
160.091	194.151
163.466	316.741
166.841	364.123
170.216	347.9
173.591	245.62
176.965	225.684
180.34	219.99
183.715	195.377
187.09	143.69
190.465	109.1
193.84	109.321
197.214	186.741
200.589	313.536
203.964	368.252
207.339	330.344
210.714	202.083
214.089	71.874
217.463	91.141
220.838	63.15
224.213	84.515
227.588	74.557
230.963	132.09
234.337	141.782
237.712	162.995
241.087	156.782
244.462	156.361
247.837	131.218
251.212	88.891
254.586	30.193
257.961	50.951
261.336	83.601
264.711	42.41
268.086	42.485
271.46	135.454
274.835	243.868
278.21	315.412
281.585	352.371
284.96	392.628
288.335	411.59
291.709	436.065
295.084	505.322
298.459	511.772
301.834	490.193
305.209	486.853
308.583	570.013
311.958	573.864
315.333	451.688
318.708	287.312
322.083	252.207
325.457	253.433
328.832	283.919
332.207	323.846
335.582	397.05
338.957	455.194
342.332	458.026
345.706	406.486
349.081	304.22
352.456	221.262
355.831	220.738
359.206	222.043
362.581	144.333
365.955	106.535
369.33	36.197
372.705	27.708
376.08	16.913
379.455	6.392
382.829	28.334
386.204	46.255
389.579	64.104
392.954	34.621
396.329	34.311
399.703	32.736
403.078	59.001
406.453	109.516
409.828	139.547
413.203	134.677
416.578	112.758
419.952	152.153
423.327	190.745
426.702	148.39
430.077	146.376
433.452	92.304
436.827	61.134
440.201	32.807
443.576	19.145
446.951	6.561
450.326	12.955
453.701	17.883
457.075	9.494
460.45	11.626
463.825	10.156
467.2	22.451
470.575	65.116
473.949	150.558
477.324	156.863
480.699	236.291
484.074	301.104
487.449	304.793
490.824	293.189
494.198	208.58
497.573	157.721
500.948	128.262
504.323	84.66
507.698	101.82
511.073	122.314
514.447	95.784
517.822	131.819
521.197	156.718
524.572	235.719
527.947	376.938
531.321	447.431
534.696	554.099
538.071	689.276
541.446	747.092
544.821	804.624
548.195	795.592
551.57	767.815
554.945	738.331
558.32	678.042
561.695	488.834
565.07	440.433
568.444	329.528
571.819	301.574
575.194	329.307
578.569	298.089
581.944	310.822
585.318	293.831
588.693	227.588
592.068	158.151
595.443	109.625
598.818	60.389
602.193	22.857
605.567	9.789
608.942	26.898
612.317	2.559
615.692	3.888
619.067	14.733
622.442	8.309
625.816	8.836
629.191	5.04
632.566	59.735
635.941	43.37
639.316	98.773
642.69	117.183
646.065	174.562
649.44	239.237
652.815	326.704
656.19	302.044
659.565	292.884
662.939	215.657
666.314	232.713
669.689	243.388
673.064	206.946
676.439	241.208
679.813	295.297
683.188	383.337
686.563	534.707
689.938	595.262
693.313	707.225
696.688	748.113
700.062	580.59
703.437	387.65
706.812	290.845
710.187	257.249
713.562	236.055
716.936	265.081
720.311	171.277
723.686	101.909
727.061	20.677
730.436	42.978
733.81	12.705
737.185	14.292
740.56	53.531
743.935	34.186
747.31	66.032
750.685	39.333
754.059	23.241
757.434	26.752
760.809	31.111
764.184	55.384
767.559	56.521
770.933	9.154
774.308	46.809
777.683	42.843
781.058	44.095
784.433	4.683
787.808	58.556
791.182	128.553
794.557	261.656
797.932	443.491
801.307	789.939
804.682	1431.01
808.057	2633.32
811.431	4748.06
814.806	7865.65
818.181	11437.9
821.556	13035
824.93	11708.8
828.305	10569.3
831.68	10325.8
835.055	9564.11
838.43	6799.09
841.805	3548.24
845.18	1937.05
848.554	1331.13
851.929	844.818
855.304	675.901
858.679	638.509
862.054	647.899
865.428	625.16
868.803	574.242
872.178	501.962
875.553	330.108
878.928	249.42
882.302	225.578
885.677	239.442
889.052	335.906
892.427	322.596
895.802	205.333
899.177	150.272
902.551	134.961
905.926	104.397
909.301	42.054
912.676	32.636
916.051	92.81
919.425	52.797
922.8	12.255
926.175	81.821
929.55	273.087
932.925	405.362
936.3	548.151
939.674	507.749
943.049	351.213
946.424	248.925
949.799	257.842
953.174	294.499
956.549	312.111
959.923	218.449
963.298	112.037
966.673	91.808
970.048	117.555
973.422	153.115
976.797	144.346
980.172	169.694
983.547	286.467
986.922	385.299
990.297	587.353
993.672	667.031
997.046	683.884
1000.42	815.433
1003.8	835.321
1007.17	932.653
1010.55	1066.89
1013.92	1053.58
1017.29	996.022
1020.67	729.472
1024.05	423.033
1027.42	280.537
1030.79	189.604
1034.17	145.987
1037.54	91.703
1040.92	78.593
1044.29	80.225
1047.67	100.428
1051.04	137.698
1054.42	165.414
1057.79	278.566
1061.17	314.225
1064.54	335.569
1067.92	269.536
1071.29	252.662
1074.67	262.007
1078.04	220.922
1081.42	144.579
1084.79	139.338
1088.17	93.977
1091.54	30.941
1094.92	0.136
1098.29	40.929
1101.67	48.29
1105.04	53.55
1108.41	2.305
1111.79	25.945
1115.16	60.541
1118.54	107.615
1121.91	150.939
1125.29	159.572
1128.66	193.553
1132.04	219.458
1135.41	246.431
1138.79	221.694
1142.16	224.55
1145.54	206.652
1148.91	152.258
1152.29	107.462
1155.66	136.315
1159.04	85.056
1162.41	57.624
1165.79	54.645
1169.16	44.806
1172.54	86.677
1175.91	47.21
1179.29	90.343
1182.66	87.033
1186.04	13.615
1189.41	21.114
1192.79	24.501
1196.16	48.29
1199.54	26.906
1202.91	18.993
1206.29	43.625
1209.66	28.109
1213.04	36.867
1216.41	28.977
1219.78	30.621
1223.16	13.748
1226.53	38.977
1229.91	9.528
1233.28	35.099
1236.66	15.928
1240.03	7.867
1243.41	10.325
1246.78	20.155
1250.16	95.085
1253.53	15.206
1256.91	81.598
1260.28	68.889
1263.66	48.923
1267.03	23.714
1270.41	21.862
1273.78	34.021
1277.16	15.079
1280.53	38.115
1283.91	0.73
