Measurement: Raman, 780 nm, unoriented, Raman Data Processed
Mineral: Neptunite
Rruff sample: R060628
Ideal chemistry: KNa_2_LiFe^2+^_2_Ti^4+^_2_Si_8_O_24_
Locality: California, USA
Source: Gemological Institute of America
Description: Black gemstone fragment
Measured chemistry: (K_0.88_Na_0.12_)_Σ=1_Na_2.00_Li_1.00_(Fe^2+^_1.42_Mg_0.39_Mn_0.19_)_Σ=2_Ti_2.00_Si_8.00_O_24_ ; Li not measured but estimated by difference and stoichiometry
Raman shift (cm-1)	intensity
116.148	0
119.523	33.7448
122.897	182.937
126.272	485.069
129.647	866.729
133.022	431.923
136.397	187.938
139.772	57.58
143.146	13.5571
146.521	3.26343
149.896	145.04
153.271	419.935
156.646	368.439
160.02	94.8213
163.395	62.3425
166.77	125.162
170.145	188.08
173.52	205.178
176.894	80.5219
180.269	53.4357
183.644	97.7263
187.019	84.3153
190.394	24.8697
193.769	7.72229
197.143	45.7066
200.518	137.031
203.893	267.659
207.268	276.219
210.643	151.771
214.018	60.9991
217.392	23.8523
220.767	29.7024
224.142	49.6016
227.517	65.7652
230.892	70.5449
234.266	86.7538
237.641	106.001
241.016	95.9003
244.391	73.4639
247.766	84.6592
251.14	90.857
254.515	55.4723
257.89	4.87308
261.265	24.5306
264.64	11.4876
268.014	12.1275
271.389	48.8966
274.764	124.29
278.139	208.154
281.514	253.603
284.889	320.46
288.263	358.179
291.638	278.111
295.013	246.429
298.388	284.721
301.763	304.99
305.137	258.675
308.512	340.847
311.887	566.843
315.262	536.468
318.637	301.366
322.012	202.667
325.386	214.751
328.761	199.892
332.136	174.338
335.511	187.833
338.886	221.557
342.26	305.078
345.635	376.128
349.01	288.169
352.385	157.059
355.76	100.882
359.135	90.431
362.509	91.5337
365.884	52.336
369.259	13.3304
372.634	4.95581
376.009	7.68301
379.383	2.60159
382.758	22.4523
386.133	65.4034
389.508	104.886
392.883	79.8229
396.257	34.5706
399.632	25.5923
403.007	23.3736
406.382	41.111
409.757	68.9634
413.132	84.2324
416.506	81.602
419.881	80.3359
423.256	85.7416
426.631	80.798
430.006	78.6463
433.38	49.8108
436.755	24.2424
440.13	7.41762
443.505	0.145721
446.88	3.91631
450.255	5.7164
453.629	6.21306
457.004	4.8524
460.379	0.826981
463.754	5.36822
467.129	11.6286
470.503	29.6675
473.878	38.5491
477.253	66.8084
480.628	104.596
484.003	144.204
487.377	171.387
490.752	189.746
494.127	176.341
497.502	126.897
500.877	92.1172
504.252	71.2205
507.626	68.0493
511.001	82.2292
514.376	89.8826
517.751	76.4889
521.126	67.6928
524.5	70.6869
527.875	82.9759
531.25	87.8648
534.625	92.4773
538	109.196
541.375	126.336
544.749	135.104
548.124	134.188
551.499	131.781
554.874	145.023
558.249	140.275
561.623	99.5984
564.998	65.5136
568.373	50.6688
571.748	41.5683
575.123	46.4675
578.497	57.6887
581.872	64.8574
585.247	81.0706
588.622	100.685
591.997	104.536
595.371	82.073
598.746	45.0019
602.121	21.2465
605.496	7.25456
608.871	0.258499
612.246	3.74016
615.62	7.07742
618.995	3.0437
622.37	2.51218
625.745	1.58832
629.12	2.48688
632.494	7.42281
635.869	11.0091
639.244	24.1315
642.619	38.3234
645.994	58.6555
649.369	76.5117
652.743	90.4304
656.118	118.412
659.493	124.868
662.868	95.2144
666.243	65.7722
669.617	56.851
672.992	58.0281
676.367	71.1788
679.742	91.927
683.117	114.203
686.491	151.38
689.866	213.204
693.241	295.577
696.616	408.11
699.991	498.151
703.366	387.731
706.74	215.922
710.115	132.921
713.49	115.456
716.865	129.927
720.24	130.938
723.614	71.6286
726.989	25.6417
730.364	4.79994
733.739	1.31506
737.114	3.90288
740.489	5.98259
743.863	5.03032
747.238	3.10703
750.613	12.8522
753.988	24.4124
757.363	17.4226
760.737	18.0331
764.112	36.6872
767.487	59.7175
770.862	62.0642
774.237	34.7566
777.611	20.8917
780.986	4.34631
784.361	4.84915
787.736	3.09546
791.111	6.45456
794.486	27.3
797.86	59.4006
801.235	123.018
804.61	238.439
807.985	452.175
811.36	820.37
814.734	1434.41
818.109	2599.29
821.484	4281.71
824.859	4507.6
828.234	3379.98
831.609	2786.62
834.983	2864.71
838.358	2590.53
841.733	1552.88
845.108	830.667
848.483	479.528
851.857	297.624
855.232	210.513
858.607	180.379
861.982	159.49
865.357	139.647
868.731	114.074
872.106	92.221
875.481	67.6918
878.856	44.8059
882.231	30.3455
885.606	28.7672
888.98	40.7054
892.355	60.7333
895.73	53.3306
899.105	30.4371
902.48	16.161
905.854	22.8805
909.229	23.9438
912.604	16.757
915.979	4.31033
919.354	18.6264
922.729	19.0767
926.103	7.41896
929.478	9.43867
932.853	37.2563
936.228	76.6937
939.603	123.312
942.977	133.231
946.352	94.7004
949.727	72.284
953.102	63.4916
956.477	72.057
959.851	85.0747
963.226	55.6979
966.601	28.2354
969.976	21.0548
973.351	32.7495
976.726	48.3221
980.1	47.3559
983.475	34.8743
986.85	34.8437
990.225	57.8121
993.6	91.1926
996.974	106.392
1000.35	127.664
1003.72	141.183
1007.1	160.44
1010.47	187.729
1013.85	212.317
1017.22	239.684
1020.6	234.035
1023.97	152.457
1027.35	89.2566
1030.72	64.2635
1034.1	65.2217
1037.47	82.9484
1040.85	68.1299
1044.22	45.7812
1047.6	37.9889
1050.97	33.1803
1054.35	25.3026
1057.72	30.0111
1061.1	44.5232
1064.47	65.9916
1067.85	62.4599
1071.22	46.8591
1074.6	35.8366
1077.97	43.9963
1081.35	66.3771
1084.72	73.2558
1088.09	57.9
1091.47	34.3683
1094.84	15.5023
1098.22	2.84029
1101.59	5.82169
1104.97	6.05963
1108.34	5.00063
1111.72	5.16013
1115.09	1.832
1118.47	6.88786
1121.84	19.7686
1125.22	28.8912
1128.59	28.4811
1131.97	31.3199
1135.34	31.674
1138.72	30.3284
1142.09	27.9019
1145.47	29.4105
1148.84	26.4397
1152.22	25.5038
1155.59	19.8668
1158.97	17.4967
1162.34	12.462
1165.71	10.56
1169.09	8.06614
1172.46	6.46809
1175.84	4.07262
1179.21	4.31432
1182.59	0.182068
1185.96	3.08038
1189.34	3.74132
1192.71	6.28042
1196.09	6.17459
1199.46	4.77179
1202.84	3.08939
1206.21	1.35746
1209.59	1.89824
1212.96	2.44535
1216.34	3.14066
1219.71	3.24389
1223.09	2.70112
1226.46	1.88271
1229.84	3.51634
1233.21	0.542633
1236.59	0.500259
1239.96	2.38564
1243.34	3.24086
1246.71	0.49514
1250.09	2.77269
1253.46	0.811432
1256.84	0.615662
1260.21	2.11426
1263.59	0.696289
1266.96	2.31214
1270.33	2.94436
1273.71	0.65554
1277.08	3.01041
1280.46	2.33572
1283.83	0.074966
