Measurement: Raman, 785 nm, unoriented, Raman Data Processed
Mineral: Neptunite
Rruff sample: R060746
Ideal chemistry: KNa_2_LiFe^2+^_2_Ti_2_Si_8_O_24_
Locality: San Benito Mountains, San Benito County, California, USA
Source: California Institute of Technology
Description: Deep red-black fragment of a prismatic single crystal
Measured chemistry: K_1.00_Na_2.00_Li_1.00_(Fe^2+^_1.48_Mg_0.36_Mn_0.16_)_Î£=2_Ti_2.00_Si_8.00_O_24_
Raman shift (cm-1)	intensity
123.938	0
126.831	812.549
129.724	1275.48
132.616	981.865
135.509	392.953
138.402	162.81
141.294	400.309
144.187	1015.47
147.08	1805.43
149.973	2823.42
152.865	2713.28
155.758	1535.55
158.651	930.845
161.543	940.909
164.436	1179.96
167.329	1452.85
170.221	1643.04
173.114	1304.58
176.007	1116.03
178.9	1171.25
181.792	1323.49
184.685	1214.77
187.578	905.46
190.47	836.577
193.363	1090.25
196.256	1763.58
199.148	2496.26
202.041	3266.48
204.934	3188.41
207.827	2119.16
210.719	1277.56
213.612	841.412
216.505	656.551
219.397	602.854
222.29	571.811
225.183	563.16
228.076	662.13
230.968	885.907
233.861	1048.62
236.754	1085.28
239.646	963.276
242.539	925.588
245.432	1050.09
248.324	1182.22
251.217	971.895
254.11	563.562
257.003	249.833
259.895	126.317
262.788	145.36
265.681	268.911
268.573	485.397
271.466	820.488
274.359	1263.48
277.251	1780.03
280.144	2315.49
283.037	2735.93
285.93	2719.57
288.822	2073.73
291.715	1703.95
294.608	1704.94
297.5	1755.82
300.393	1736.72
303.286	1809.36
306.178	2526.49
309.071	3669.48
311.964	3993.09
314.857	2801.18
317.749	1662.61
320.642	1330.76
323.535	1217.53
326.427	1090.6
329.32	1076.36
332.213	1199.59
335.105	1588.76
337.998	2099.58
340.891	2668.51
343.784	2834.31
346.676	2141.54
349.569	1353.21
352.462	952.369
355.354	869.726
358.247	896.623
361.14	826.207
364.032	594.908
366.925	386.786
369.818	210.193
372.711	171.411
375.603	194.58
378.496	362.122
381.389	588.304
384.281	864.896
387.174	1047.16
390.067	857.121
392.959	573.167
395.852	488.292
398.745	487.178
401.638	504.234
404.53	623.982
407.423	684.56
410.316	676.352
413.208	641.49
416.101	592.897
418.994	534.026
421.886	487.35
424.779	444.838
427.672	330.494
430.565	181.616
433.457	26.828
436.35	44.691
439.243	91.791
442.135	111.225
445.028	85.671
447.921	81.564
450.813	97.383
453.706	102.771
456.599	90.494
459.492	90.914
462.384	0.525
465.277	24.732
468.17	121.251
471.062	213.347
473.955	401.447
476.848	701.813
479.741	1012.03
482.633	1227.33
485.526	1306.44
488.419	1269.14
491.311	1127.22
494.204	831.154
497.097	632.931
499.989	534.57
502.882	447.941
505.775	482.868
508.668	604.951
511.56	615.141
514.453	579.751
517.346	455.81
520.238	445.096
523.131	452.687
526.024	461.043
528.916	475.435
531.809	534.205
534.702	693.439
537.594	858.629
540.487	982.052
543.38	1078.05
546.273	1337.97
549.165	1493.87
552.058	1503.89
554.951	1270.92
557.843	955.335
560.736	702.237
563.629	496.208
566.521	365.825
569.414	267.893
572.307	269.392
575.2	295.948
578.092	331.643
580.985	403.527
583.878	497.514
586.77	593.658
589.663	531.296
592.556	426.436
595.448	234.759
598.341	93.665
601.234	4.003
604.127	37.892
607.019	82.487
609.912	54.847
612.805	94.029
615.697	75.673
618.59	84.274
621.483	74.552
624.375	44.268
627.268	29.175
630.161	57.129
633.054	0.718
635.946	52.96
638.839	122.445
641.732	226.355
644.624	371.503
647.517	477.215
650.41	609.223
653.302	786.934
656.195	862.353
659.088	706.564
661.981	485.381
664.873	337.265
667.766	285.576
670.659	315.76
673.551	403.332
676.444	534.697
679.337	646.049
682.229	857.626
685.122	1178.47
688.015	1667.28
690.908	2252.73
693.8	2880.11
696.693	3522.19
699.586	3137.9
702.478	1961.46
705.371	1048.71
708.264	749.572
711.156	705.496
714.049	764.86
716.942	856.334
719.835	592.674
722.727	266.967
725.62	74.066
728.513	19.918
731.405	24.885
734.298	14.079
737.191	5.76
740.083	0.571
742.976	57.118
745.869	35.192
748.762	203.952
751.654	256.311
754.547	224.503
757.44	210.714
760.332	286.246
763.225	426.359
766.118	519.257
769.01	503.047
771.903	388.417
774.796	343.525
777.689	243.571
780.581	195.331
783.474	189.939
786.367	217.244
789.259	299.329
792.152	390.133
795.045	533.529
797.938	730.244
800.83	1068.57
803.723	1574.36
806.616	2474.06
809.508	4235.29
812.401	7672.63
815.294	13716.9
818.186	22386.4
821.079	29872.7
823.972	30426.8
826.865	26962.7
829.757	24338.2
832.65	21847.1
835.543	17046.5
838.435	11160.4
841.328	6626.47
844.221	3954.84
847.114	2493.56
850.006	1708.79
852.899	1250.44
855.792	1036.74
858.684	923.068
861.577	738.694
864.47	621.937
867.362	498.202
870.255	456.696
873.148	389.043
876.041	326.983
878.933	223.552
881.826	203.342
884.719	261.991
887.611	385.326
890.504	497.573
893.397	411.903
896.289	336.495
899.182	296.306
902.075	339.91
904.968	335.625
907.86	324.921
910.753	159.957
913.646	22.742
916.538	98.901
919.431	81.877
922.324	85.791
925.216	4.898
928.109	103.455
931.002	309.789
933.894	506.303
936.787	729.432
939.68	791.451
942.573	650.395
945.465	664.649
948.358	649.926
951.251	587.385
954.143	517.456
957.036	472.447
959.929	437.675
962.821	324.344
965.714	284.496
968.607	342.855
971.5	397.559
974.392	475.12
977.285	490.195
980.178	469.697
983.07	513.916
985.963	610.128
988.856	769.799
991.748	827.585
994.641	858.855
997.534	926.268
1000.43	1011.21
1003.32	1029.92
1006.21	1005.02
1009.11	1067
1012	1252.76
1014.89	1492.4
1017.78	1490.56
1020.67	1130.03
1023.57	648.567
1026.46	445.674
1029.35	436.613
1032.25	593.403
1035.14	655.522
1038.03	569.784
1040.92	443.19
1043.82	404.698
1046.71	366.522
1049.6	336.354
1052.49	284.484
1055.39	299.96
1058.28	374.241
1061.17	439.491
1064.07	415.222
1066.96	276.068
1069.85	171.619
1072.74	93.912
1075.64	114.326
1078.53	152.941
1081.42	201.999
1084.32	239.729
1087.21	283.034
1090.1	380.613
1092.99	418.199
1095.89	312.749
1098.78	142.605
1101.67	31.548
1104.56	38.352
1107.46	61.265
1110.35	48.087
1113.24	55.893
1116.13	46.641
1119.03	50.977
1121.92	132.451
1124.81	195.736
1127.7	158.247
1130.6	140.885
1133.49	185.071
1136.38	182.348
1139.28	136.737
1142.17	78.416
1145.06	48.599
1147.95	37.492
1150.85	13.655
1153.74	5.239
1156.63	3.154
1159.53	14.263
1162.42	12.353
1165.31	9.871
1168.2	7.543
1171.1	15.742
1173.99	4.258
1176.88	10.477
1179.77	5.139
1182.67	4.354
1185.56	6.547
1188.45	3.928
1191.35	14.582
1194.24	2.9
1197.13	14.909
1200.02	9.474
1202.92	13.396
1205.81	23.314
1208.7	28.012
1211.59	16.397
1214.49	20.11
1217.38	1.337
1220.27	26.363
1223.16	18.63
1226.06	6.038
1228.95	51.046
1231.84	22.755
1234.73	14.017
1237.63	10.065
1240.52	0.282
1243.41	9.614
1246.31	18.116
1249.2	7.344
1252.09	19.328
1254.98	1.623
