Measurement: Raman, 532 nm, unoriented, Raman Data Processed
Mineral: Nesquehonite
Rruff sample: R050639
Ideal chemistry: MgCO_3_3H_2_O
Locality: Nesquehoning, Pennsylvania, USA
Source: University of Arizona Mineral Museum
Description: White to colorless bladed crystals
Measured chemistry: Mg_1.00_(HCO_3_)(OH)Â·2H_2_O ; C and H not measured but estimated by difference and charge balance
Raman shift (cm-1)	intensity
151.011	0
153.903	4.76111
156.796	1.46997
159.689	13.6451
162.581	44.9215
165.474	89.7966
168.367	104.308
171.259	113.07
174.152	116.923
177.045	154.22
179.938	200.639
182.83	236.441
185.723	247.114
188.616	222.416
191.508	197.221
194.401	196.591
197.294	205.264
200.186	231.704
203.079	229.746
205.972	218.671
208.864	208.86
211.757	217.07
214.65	212.577
217.543	231.323
220.435	245.849
223.328	271.946
226.221	270.67
229.113	255.082
232.006	207.644
234.899	146.052
237.792	98.6649
240.684	64.4922
243.577	33.7084
246.47	12.464
249.362	2.16162
252.255	7.34351
255.148	6.16199
258.041	5.07935
260.933	2.14478
263.826	4.3783
266.719	8.39514
269.611	18.4248
272.504	11.3849
275.397	14.6295
278.289	15.4462
281.182	11.668
284.075	9.45666
286.967	16.7078
289.86	21.7824
292.753	31.5532
295.646	39.0663
298.538	49.067
301.431	81.1086
304.324	82.9675
307.216	107.432
310.109	118.073
313.002	100.292
315.895	72.6233
318.787	49.8878
321.68	35.5825
324.573	41.1732
327.465	48.3617
330.358	48.0612
333.251	57.808
336.144	61.9194
339.036	63.4335
341.929	62.405
344.822	58.2637
347.714	50.4774
350.607	47.3616
353.5	27.1517
356.392	23.8118
359.285	13.1503
362.178	13.7416
365.07	16.3033
367.963	32.618
370.856	35.2728
373.749	33.0299
376.641	41.733
379.534	42.9252
382.427	47.3628
385.32	47.8082
388.212	46.5818
391.105	37.6379
393.998	35.1868
396.89	20.5154
399.783	12.9569
402.676	5.8562
405.568	2.68298
408.461	3.81006
411.354	1.14221
414.247	8.2052
417.139	1.3075
420.032	1.17395
422.925	2.56152
425.817	0.938965
428.71	2.69019
431.603	0.123535
434.495	1.12305
437.388	1.10706
440.281	3.24988
443.173	3.04712
446.066	1.76758
448.959	0.158569
451.852	0.943237
454.744	1.70129
457.637	4.97937
460.53	4.51672
463.423	7.62537
466.315	3.48987
469.208	8.62707
472.101	11.8921
474.993	7.13562
477.886	8.36462
480.779	9.79944
483.671	14.3951
486.564	8.22315
489.457	9.28271
492.349	12.2672
495.242	13.0842
498.135	17.6161
501.028	16.6559
503.92	9.54089
506.813	7.5813
509.706	11.8776
512.598	7.6853
515.491	11.4348
518.384	6.56531
521.277	1.76086
524.169	4.5116
527.062	2.26343
529.955	3.81433
532.847	8.59033
535.74	10.6489
538.633	8.44202
541.525	2.06213
544.418	1.3031
547.311	6.12732
550.204	10.7007
553.096	7.44092
555.989	19.973
558.882	12.6268
561.774	9.61707
564.667	11.6491
567.56	15.5862
570.452	11.6206
573.345	6.93884
576.238	10.7987
579.131	9.24438
582.023	8.88965
584.916	6.18701
587.809	9.62097
590.701	7.01892
593.594	4.22632
596.487	2.85413
599.38	2.37537
602.272	2.6947
605.165	2.74695
608.058	3.83923
610.95	0.976929
613.843	3.90955
616.736	5.23462
619.629	2.11609
622.521	9.31934
625.414	19.4342
628.307	24.4579
631.199	40.5185
634.092	67.6633
636.985	82.111
639.877	95.2856
642.77	57.7853
645.663	42.9708
648.556	34.8843
651.448	26.3528
654.341	30.3909
657.234	23.3771
660.126	32.3889
663.019	33.8589
665.912	28.5358
668.804	27.942
671.697	36.1471
674.59	22.3511
677.482	23.2853
680.375	8.75659
683.268	14.2814
686.161	17.37
689.053	23.7112
691.946	18.7114
694.839	25.9896
697.731	36.5696
700.624	43.7147
703.517	37.5864
706.409	30.2306
709.302	25.4872
712.195	21.8856
715.088	13.279
717.98	6.98767
720.873	2.47119
723.766	3.18103
726.659	17.2726
729.551	6.45703
732.444	18.5673
735.337	24.3833
738.229	18.2304
741.122	11.6091
744.015	10.6427
746.907	9.5426
749.8	11.079
752.693	13.8529
755.586	19.2273
758.478	28.0563
761.371	35.9822
764.264	29.722
767.156	29.046
770.049	24.537
772.942	30.1016
775.835	17.8672
778.727	7.62524
781.62	9.00012
784.513	0.271362
787.405	9.2041
790.298	0.518799
793.191	1.69287
796.083	6.09155
798.976	17.915
801.869	32.4548
804.761	54.3662
807.654	67.8359
810.547	68.9329
813.44	80.9795
816.332	92.1641
819.225	107.904
822.118	119.628
825.01	111.696
827.903	102.013
830.796	112.862
833.688	106.897
836.581	96.3843
839.474	96.3023
842.367	88.4304
845.259	68.4683
848.152	54.6174
851.045	37.9793
853.937	31.366
856.83	29.5676
859.723	22.8591
862.616	18.824
865.508	15.9246
868.401	16.6169
871.294	18.9453
874.186	11.6365
877.079	5.25659
879.972	6.75879
882.865	4.04688
885.757	8.33911
888.65	7.27148
891.543	0.49707
894.435	1.1665
897.328	5.4519
900.221	6.77051
903.113	10.8709
906.006	12.155
908.899	17.3125
911.792	20.9951
914.684	29.7646
917.577	35.0327
920.47	32.8674
923.362	29.0193
926.255	39.7715
929.148	29.2297
932.04	33.9788
934.933	43.0583
937.826	47.0486
940.719	36.5017
943.611	26.9229
946.504	26.6528
949.397	18.1367
952.289	18.7139
955.182	17.0386
958.075	12.6929
960.967	3.65747
963.86	8.6084
966.753	1.65845
969.646	1.90894
972.538	0.099365
975.431	6.23389
978.324	12.5195
981.216	6.24048
984.109	3.06592
987.002	7.08765
989.894	0.183594
992.787	2.58594
995.68	0.215332
998.573	0.824219
1001.47	5.55127
1004.36	7.94751
1007.25	2.47266
1010.14	1.2832
1013.04	3.80347
1015.93	4.47656
1018.82	3.9541
1021.71	0.031738
1024.61	3.73657
1027.5	3.9458
1030.39	10.8176
1033.29	23.9995
1036.18	26.3191
1039.07	36.0642
1041.96	31.1052
1044.86	35.6934
1047.75	20.0811
1050.64	21.5095
1053.53	20.0681
1056.43	24.4854
1059.32	25.9155
1062.21	35.0674
1065.11	47.9822
1068	70.9006
1070.89	101.097
1073.78	129.313
1076.68	195.578
1079.57	280.372
1082.46	406.692
1085.35	596.817
1088.25	937.445
1091.14	1438.15
1094.03	2075.48
1096.92	3081.73
1099.82	3982.65
1102.71	3066.58
1105.6	1650.73
1108.49	968.678
1111.39	656.268
1114.28	459.176
1117.17	304.498
1120.07	207.235
1122.96	142.502
1125.85	82.6802
1128.74	53.3066
1131.64	33.6287
1134.53	30.6538
1137.42	17.4817
1140.32	11.447
1143.21	7.00195
1146.1	16.2361
1148.99	16.8193
1151.89	7.94604
1154.78	1.94067
1157.67	2.84717
1160.56	2.85718
1163.46	0.580811
1166.35	6.21484
1169.24	13.1841
1172.13	5.08496
1175.03	11.428
1177.92	24.1912
1180.81	54.2671
1183.71	63.2749
1186.6	75.8354
1189.49	54.9927
1192.38	35.7683
1195.28	7.86157
1198.17	4.65576
1201.06	3.02344
1203.95	2.70923
1206.85	6.26562
1209.74	10.2371
1212.63	19.4536
1215.53	38.2661
1218.42	45.0642
1221.31	54.9021
1224.2	57.3809
1227.1	60.4685
1229.99	69.7356
1232.88	58.6028
1235.77	51.1362
1238.67	28.5122
1241.56	29.9834
1244.45	36.5945
1247.35	41.1138
1250.24	33.9126
1253.13	29.6567
1256.02	19.3762
1258.92	16.0645
1261.81	6.25952
1264.7	9.1709
1267.59	4.30249
1270.49	2.39258
1273.38	1.36133
1276.27	9.51904
1279.16	3.79907
1282.06	8.04883
1284.95	8.46704
1287.84	9.61938
1290.74	18.3054
1293.63	11.7258
1296.52	17.8943
1299.41	2.84522
