Measurement: Raman, 780 nm, unoriented, Raman Data Processed
Mineral: Nesquehonite
Rruff sample: R050639
Ideal chemistry: MgCO_3_3H_2_O
Locality: Nesquehoning, Pennsylvania, USA
Source: University of Arizona Mineral Museum
Description: White to colorless bladed crystals
Measured chemistry: Mg_1.00_(HCO_3_)(OH)Â·2H_2_O ; C and H not measured but estimated by difference and charge balance
Raman shift (cm-1)	intensity
153.254	0
156.147	0.271454
159.04	5.74466
161.932	14.7664
164.825	22.2664
167.718	26.5078
170.61	24.7195
173.503	27.9936
176.396	41.2219
179.288	60.5721
182.181	70.3274
185.074	61.3266
187.966	47.7872
190.859	33.6588
193.752	34.1584
196.645	33.4632
199.537	35.9841
202.43	34.2548
205.323	37.4006
208.215	42.1658
211.108	45.7604
214.001	50.4054
216.893	54.2217
219.786	61.9635
222.679	61.3117
225.572	57.1543
228.464	52.2669
231.357	38.9399
234.25	30.3805
237.142	21.2597
240.035	14.9662
242.928	10.9112
245.821	5.89224
248.713	3.17679
251.606	0.624496
254.499	3.26389
257.391	4.26746
260.284	1.21632
263.177	1.79587
266.069	1.84012
268.962	2.72315
271.855	6.22569
274.748	5.54398
277.64	4.34431
280.533	5.57742
283.426	6.18611
286.318	10.8572
289.211	7.82034
292.104	9.76511
294.996	13.8669
297.889	13.0275
300.782	18.2716
303.675	19.7946
306.567	18.5135
309.46	22.2707
312.353	17.379
315.245	13.2558
318.138	14.5473
321.031	13.772
323.923	14.6639
326.816	15.1522
329.709	18.2418
332.601	21.2606
335.494	20.6069
338.387	19.2687
341.279	18.6903
344.172	18.1684
347.065	14.8171
349.958	9.60207
352.85	7.28023
355.743	5.87199
358.636	4.0114
361.528	2.58597
364.421	1.70246
367.314	0.493637
370.207	3.05578
373.099	7.61709
375.992	7.00771
378.885	9.06132
381.777	12.8857
384.67	18.7014
387.563	24.4758
390.455	27.5055
393.348	25.0154
396.241	20.9462
399.134	15.1165
402.026	8.51402
404.919	4.66618
407.812	2.9904
410.704	5.28262
413.597	3.39784
416.49	3.21896
419.382	0.714645
422.275	0.114059
425.168	1.55471
428.06	1.16518
430.953	1.69066
433.846	4.48698
436.739	3.22259
439.631	1.41029
442.524	1.16315
445.417	0.533569
448.309	1.19773
451.202	1.13717
454.095	2.58475
456.988	0.888306
459.88	2.58676
462.773	4.24108
465.666	6.57756
468.558	5.3683
471.451	7.90279
474.344	6.59814
477.236	6.6032
480.129	7.31736
483.022	8.0765
485.914	6.9614
488.807	6.54433
491.7	7.85439
494.592	5.16962
497.485	5.98222
500.378	6.82842
503.271	6.0303
506.163	2.7104
509.056	2.70167
511.949	5.50514
514.841	1.47913
517.734	1.11663
520.627	0.61319
523.519	1.00441
526.412	0.530388
529.305	1.02921
532.198	1.22517
535.09	1.90236
537.983	4.02802
540.876	3.68755
543.768	3.98709
546.661	4.33487
549.554	3.83428
552.447	7.20515
555.339	6.59359
558.232	8.17981
561.125	6.39025
564.017	5.08223
566.91	6.49058
569.803	5.49222
572.695	5.50906
575.588	6.61232
578.481	5.31707
581.374	3.05365
584.266	2.89696
587.159	2.25314
590.052	1.69041
592.944	2.48241
595.837	1.07563
598.73	0.971523
601.622	0.0513
604.515	0.022743
607.408	0.90152
610.301	0.639359
613.193	3.17374
616.086	2.19205
618.979	1.95284
621.871	6.34111
624.764	13.7696
627.657	18.8242
630.549	27.3073
633.442	43.3675
636.335	73.1793
639.227	95.5857
642.12	60.8925
645.013	34.7226
647.905	31.6711
650.798	27.699
653.691	26.394
656.584	21.776
659.476	21.1097
662.369	22.4996
665.262	27.184
668.154	31.1227
671.047	29.6789
673.94	25.8054
676.832	18.0264
679.725	16.0426
682.618	13.3027
685.511	16.3598
688.403	11.5334
691.296	11.3268
694.189	11.929
697.081	8.39954
699.974	10.9987
702.867	7.40551
705.76	4.89771
708.652	4.04432
711.545	0.246559
714.438	0.529449
717.33	0.685364
720.223	1.76336
723.116	2.77239
726.008	7.64316
728.901	12.6649
731.794	15.8405
734.687	23.5551
737.579	20.4616
740.472	11.3435
743.365	3.67591
746.257	3.38104
749.15	3.14472
752.043	4.00765
754.935	3.54988
757.828	7.09072
760.721	8.38965
763.614	8.44434
766.506	6.84453
769.399	3.56151
772.292	2.93455
775.184	0.801521
778.077	2.12229
780.97	2.09313
783.862	0.783295
786.755	0.605614
789.648	2.37881
792.54	8.11417
795.433	16.2494
798.326	25.149
801.218	39.2976
804.111	55.1925
807.004	72.066
809.897	80.1486
812.789	84.7209
815.682	97.1689
818.575	115.433
821.467	119.591
824.36	115.978
827.253	109.389
830.145	102.609
833.038	102.324
835.931	100.733
838.824	94.5742
841.716	83.7982
844.609	68.4532
847.502	55.3507
850.394	41.9586
853.287	34.7648
856.18	28.7318
859.072	24.6357
861.965	22.2884
864.858	18.054
867.751	16.7564
870.643	14.554
873.536	14.0963
876.429	12.8328
879.321	9.94935
882.214	6.15094
885.107	5.12801
888	4.62219
890.892	3.22616
893.785	2.33817
896.678	0.642288
899.57	0.383972
902.463	1.07589
905.356	1.46135
908.248	5.69376
911.141	10.2697
914.034	16.0954
916.927	16.6503
919.819	13.6269
922.712	11.2769
925.605	15.7008
928.497	21.0888
931.39	23.6174
934.283	24.1942
937.175	23.3176
940.068	20.8328
942.961	15.3185
945.854	13.4014
948.746	9.78637
951.639	8.54963
954.532	7.22136
957.424	7.41985
960.317	4.94511
963.21	3.60351
966.102	0.83989
968.995	1.34695
971.888	1.31577
974.78	3.3207
977.673	0.985573
980.566	1.96797
983.458	0.619068
986.351	1.29821
989.244	3.03231
992.137	0.940678
995.029	2.11831
997.922	0.261311
1000.82	1.64451
1003.71	4.36042
1006.6	7.36047
1009.49	6.09364
1012.38	9.4563
1015.28	8.2524
1018.17	4.40913
1021.06	3.06943
1023.96	1.49748
1026.85	6.83105
1029.74	10.5313
1032.63	14.9245
1035.53	25.4138
1038.42	37.27
1041.31	34.7946
1044.2	20.3445
1047.1	12.5851
1049.99	7.77075
1052.88	6.91811
1055.78	6.71149
1058.67	6.7965
1061.56	3.6797
1064.45	3.06727
1067.35	5.76676
1070.24	6.18507
1073.13	7.34105
1076.03	15.0944
1078.92	22.6442
1081.81	36.2766
1084.7	62.1891
1087.6	101.386
1090.49	146.18
1093.38	202.357
1096.27	267.662
1099.17	303.597
1102.06	230.352
1104.95	149.618
1107.84	123.966
1110.74	124.374
1113.63	118.448
1116.52	87.1926
1119.41	55.8553
1122.31	34.3405
1125.2	22.5271
1128.09	13.4659
1130.99	7.10905
1133.88	3.52275
1136.77	2.50555
1139.66	1.45549
1142.56	3.43877
1145.45	6.17878
1148.34	4.07494
1151.23	2.41905
1154.13	1.10552
1157.02	2.67003
1159.91	1.00632
1162.81	0.450348
1165.7	0.044884
1168.59	3.28904
1171.48	4.90817
1174.38	9.69685
1177.27	20.9422
1180.16	35.9544
1183.06	54.1253
1185.95	62.4321
1188.84	49.9901
1191.73	26.999
1194.62	9.01207
1197.52	0.976185
1200.41	2.02712
1203.3	1.23974
1206.2	3.47768
1209.09	7.14311
1211.98	17.2888
1214.87	21.5875
1217.77	28.869
1220.66	36.408
1223.55	40.6424
1226.44	46.296
1229.34	46.3253
1232.23	42.8179
1235.12	35.7974
1238.02	32.7066
1240.91	29.8532
1243.8	26.9718
1246.69	25.3235
1249.59	27.2381
1252.48	21.6459
1255.37	19.2109
1258.27	14.9788
1261.16	9.37393
1264.05	3.73212
1266.94	2.17344
1269.84	0.321983
1272.73	0.413956
1275.62	3.01701
1278.51	0.727394
1281.41	1.91357
1284.3	0.769592
