Measurement: Raman, 532 nm, unoriented, Raman Data Processed
Mineral: Nevadaite
Rruff sample: R060775
Ideal chemistry: (Cu^2+^,[box],Al,V^3+^)_6_[Al_8_(PO_4_)_8_F_8_](OH)_2_22H_2_O
Locality: Gold Quarry mine, Eueka County, Nevada, USA
Source: Michael Scott
Description: Spherical aggregates of blue tabular crystals
Raman shift (cm-1)	intensity
126.344	0
129.719	244.054
133.094	249.981
136.468	287.316
139.843	490.853
143.218	426.66
146.593	311.611
149.968	199.098
153.342	233.094
156.717	402.363
160.092	638.339
163.467	882.583
166.842	977.342
170.217	1125.58
173.591	1233.03
176.966	1610.29
180.341	2073.07
183.716	2445.62
187.091	2642.02
190.465	2675.69
193.84	2640.91
197.215	2398.53
200.59	2257.32
203.965	1793.76
207.339	1288.65
210.714	973.235
214.089	700.134
217.464	503.696
220.839	458.314
224.214	435.802
227.588	589.14
230.963	769.572
234.338	963.059
237.713	1161.64
241.088	1369.89
244.462	1575.07
247.837	1650.5
251.212	1594.59
254.587	1355.19
257.962	1194.63
261.336	1191.07
264.711	1329.66
268.086	1350.04
271.461	1397.52
274.836	1303.75
278.211	1387
281.585	1368.64
284.96	1575.08
288.335	1873.44
291.71	2270.62
295.085	2621.32
298.46	2805.57
301.834	2840.79
305.209	2707.33
308.584	2311.15
311.959	1803.78
315.334	1392.55
318.708	1106.14
322.083	911.023
325.458	898.051
328.833	877.194
332.208	903.607
335.582	999.447
338.957	1130.01
342.332	1271.87
345.707	1210.66
349.082	1154.78
352.457	945.034
355.831	591.405
359.206	290.007
362.581	34.861
365.956	53.118
369.331	130.819
372.705	165.785
376.08	104.075
379.455	69.488
382.83	87.065
386.205	59.831
389.579	9.424
392.954	59.72
396.329	157.826
399.704	298.501
403.079	337.914
406.454	449.87
409.828	601.2
413.203	548.083
416.578	569.995
419.953	599.626
423.328	712.45
426.703	782.786
430.077	940.448
433.452	1040.02
436.827	1111.27
440.202	1186.91
443.577	1227.64
446.951	1239.59
450.326	1245.43
453.701	1342.36
457.076	1365.75
460.451	1469.68
463.825	1435.41
467.2	1317.53
470.575	1287.19
473.95	1264.51
477.325	1281.35
480.699	1279.19
484.074	1397.11
487.449	1383.82
490.824	1321.93
494.199	1394.1
497.574	1439.4
500.948	1667.74
504.323	1877.28
507.698	2121.89
511.073	2275.1
514.448	2154.28
517.822	1934.78
521.197	1573.35
524.572	1172.53
527.947	819.175
531.322	490.187
534.696	283.273
538.071	172.87
541.446	142.788
544.821	142.441
548.196	166.415
551.571	242.916
554.945	349.132
558.32	495.608
561.695	627.395
565.07	704.686
568.445	774.83
571.82	826.51
575.194	805.24
578.569	713.514
581.944	640.787
585.319	505.84
588.694	379.206
592.068	268.81
595.443	326.891
598.818	347.708
602.193	442.825
605.568	516.947
608.943	611.118
612.317	583.18
615.692	548.274
619.067	564.63
622.442	492.618
625.817	384.58
629.191	274.736
632.566	274.62
635.941	223.793
639.316	173.952
642.691	187.177
646.065	99.52
649.44	124.327
652.815	120.879
656.19	82.419
659.565	71.472
662.94	18.858
666.314	51.748
669.689	12.69
673.064	8.635
676.439	3.205
679.814	53.808
683.188	8.451
686.563	21.669
689.938	22.251
693.313	0.084
696.688	21.411
700.062	46.644
703.437	34.051
706.812	11.327
710.187	76.558
713.562	77.877
716.937	35.287
720.311	41.885
723.686	41.445
727.061	65.731
730.436	45.763
733.811	24.497
737.185	6.17
740.56	94.974
743.935	53.639
747.31	65.589
750.685	41.175
754.06	62.514
757.434	73.838
760.809	64.817
764.184	56.512
767.559	80.071
770.934	63.32
774.308	65.528
777.683	72.2
781.058	27.816
784.433	43.089
787.808	83.74
791.182	90.962
794.557	55.466
797.932	63.534
801.307	48.175
804.682	42.173
808.057	40.65
811.431	3.751
814.806	35.284
818.181	15.233
821.556	62.98
824.931	63.764
828.305	121.329
831.68	153.748
835.055	181.354
838.43	210.303
841.805	225.435
845.18	267.664
848.554	272.852
851.929	296.712
855.304	256.217
858.679	259.617
862.054	240.453
865.429	232.8
868.803	192.684
872.178	136.814
875.553	114.878
878.928	67.881
882.303	94.357
885.677	45.673
889.052	48.454
892.427	72.899
895.802	11.733
899.177	1.139
902.551	23.743
905.926	17.399
909.301	43.546
912.676	7.933
916.051	17.778
919.425	63.029
922.8	141.896
926.175	176.915
929.55	231.133
932.925	288.032
936.3	365.032
939.674	435.811
943.049	564.783
946.424	772.228
949.799	970.81
953.174	1239.12
956.549	1697.95
959.923	2230.82
963.298	2934.19
966.673	3694.42
970.048	4478.14
973.422	5050.49
976.797	5211.66
980.172	5049.45
983.547	4616.33
986.922	4133.35
990.297	3745
993.671	3257.91
997.046	2789.52
1000.42	2087.07
1003.8	1703.09
1007.17	1474.54
1010.54	1563.97
1013.92	1812.69
1017.29	2278.93
1020.67	2830.64
1024.05	3461.81
1027.42	3860.27
1030.79	4159.1
1034.17	4212.94
1037.54	4133.78
1040.92	4128.32
1044.29	4190.88
1047.67	4264.9
1051.04	4186.66
1054.42	3881.3
1057.79	3428.11
1061.17	2844.6
1064.54	2330.99
1067.92	1941.74
1071.29	1512.4
1074.67	1185.37
1078.04	935.862
1081.42	714.835
1084.79	555.525
1088.17	420.033
1091.54	384.867
1094.92	355.57
1098.29	411.886
1101.67	447.67
1105.04	468.593
1108.41	403.246
1111.79	299.433
1115.16	253.655
1118.54	219.305
1121.91	211.266
1125.29	239.403
1128.66	266.12
1132.04	320.857
1135.41	426.171
1138.79	479.964
1142.16	598.927
1145.54	598.307
1148.91	647.594
1152.29	678.035
1155.66	680.815
1159.04	591.656
1162.41	469.77
1165.79	373.32
1169.16	267.405
1172.54	154.306
1175.91	134.43
1179.29	87.444
1182.66	12.497
1186.04	34.552
1189.41	52.797
1192.79	98.168
1196.16	93.431
1199.54	115.562
1202.91	150.916
1206.29	71.878
1209.66	66.811
1213.03	53.293
1216.41	69.62
1219.78	78.836
1223.16	24.896
1226.53	65.498
1229.91	31.842
1233.28	2.215
1236.66	21.173
1240.03	5.651
1243.41	7.05
1246.78	11.469
1250.16	22.852
1253.53	19.901
1256.91	1.682
1260.28	64.626
1263.66	8.266
1267.03	8.293
1270.41	11.918
1273.78	11.857
1277.16	56.502
1280.53	12.98
1283.91	12.699
1287.28	37.975
1290.65	14.829
1294.03	15.368
