Measurement: Raman, 780 nm, unoriented, Raman Data Processed
Mineral: Newberyite
Rruff sample: R050513
Ideal chemistry: Mg(PO_3_OH)3H_2_O
Locality: Australia
Source: American Museum of Natural History
Description: An aggregate of beige fragments
Measured chemistry: (Mg_0.98_Mn_0.01_Ca_0.01_)_Σ=1_(P_1.00_O_3_OH)·3H_2_O
Raman shift (cm-1)	intensity
124.197	0
127.572	3.32825
130.946	0.110718
134.321	17.606
137.696	48.0533
141.071	86.0157
144.446	141.971
147.82	197.235
151.195	182.078
154.57	99.0638
157.945	45.4417
161.32	18.3338
164.694	10.242
168.069	2.12857
171.444	1.75351
174.819	0.683685
178.194	0.658997
181.569	0.149902
184.943	1.31909
188.318	2.20309
191.693	4.02975
195.068	7.84177
198.443	7.59848
201.817	4.48462
205.192	7.61652
208.567	10.8679
211.942	11.2365
215.317	10.6653
218.691	7.53943
222.066	8.66116
225.441	8.3241
228.816	14.48
232.191	19.9021
235.566	21.7442
238.94	13.0671
242.315	9.91327
245.69	15.0614
249.065	21.1408
252.44	25.5308
255.815	13.6387
259.189	1.79385
262.564	2.83038
265.939	3.09634
269.314	1.09009
272.689	5.86868
276.063	9.57626
279.438	17.0487
282.813	14.1691
286.188	7.83453
289.563	3.13718
292.938	3.77445
296.312	5.13013
299.687	7.54736
303.062	6.45782
306.437	4.74265
309.812	4.60611
313.186	8.64801
316.561	17.4637
319.936	27.4623
323.311	34.8764
326.686	36.4771
330.06	26.8175
333.435	13.5464
336.81	5.46368
340.185	2.52997
343.56	5.04684
346.935	8.08166
350.309	14.2815
353.684	16.7184
357.059	19.7808
360.434	17.2073
363.809	18.8566
367.183	19.7659
370.558	25.3266
373.933	31.5391
377.308	42.6426
380.683	56.0092
384.058	74.8445
387.432	94.1165
390.807	121.203
394.182	148.172
397.557	166.157
400.932	154.512
404.306	125.967
407.681	98.8523
411.056	83.595
414.431	72.5449
417.806	62.3329
421.18	48.5606
424.555	35.5538
427.93	19.5625
431.305	8.26587
434.68	1.9454
438.055	0.595764
441.429	2.35599
444.804	2.23779
448.179	0.790649
451.554	0.872467
454.929	0.128204
458.303	3.30374
461.678	4.95254
465.053	6.8317
468.428	8.99475
471.803	13.8533
475.178	24.2384
478.552	32.3814
481.927	43.8783
485.302	56.3581
488.677	71.8496
492.052	88.7177
495.426	101.995
498.801	113.515
502.176	117.978
505.551	126.848
508.926	140.702
512.301	168.775
515.675	203.448
519.05	220.553
522.425	202.851
525.8	163.548
529.175	132.504
532.549	113.544
535.924	93.0489
539.299	70.1171
542.674	47.9313
546.049	33.8263
549.423	22.7512
552.798	15.1251
556.173	10.1029
559.548	5.26254
562.923	2.85727
566.298	1.82449
569.672	1.60361
573.047	0.26651
576.422	0.038971
579.797	1.76495
583.172	1.93103
586.546	2.67624
589.921	1.46036
593.296	3.20688
596.671	1.74216
600.046	1.62555
603.42	0.514221
606.795	1.0379
610.17	0.773499
613.545	3.35211
616.92	1.83997
620.295	0.896332
623.669	0.571136
627.044	1.12677
630.419	0.006805
633.794	0.596893
637.169	0.641266
640.543	0.355652
643.918	1.32065
647.293	2.24219
650.668	1.98077
654.043	3.1586
657.418	2.24857
660.792	2.84485
664.167	3.73679
667.542	4.08075
670.917	6.42102
674.292	9.83539
677.667	7.78934
681.041	10.5422
684.416	11.5751
687.791	12.6235
691.166	10.8584
694.541	11.6328
697.915	10.576
701.29	11.1198
704.665	10.7057
708.04	8.58612
711.415	8.90265
714.789	7.74554
718.164	5.63174
721.539	4.28564
724.914	2.95108
728.289	2.89566
731.664	2.02304
735.038	0.612244
738.413	3.12866
741.788	1.21964
745.163	3.18375
748.538	3.38306
751.913	1.02798
755.287	0.345734
758.662	0.194641
762.037	0.425659
765.412	1.25165
768.787	0.411194
772.161	0.830994
775.536	1.38467
778.911	1.89478
782.286	1.9227
785.661	1.14819
789.035	0.695923
792.41	0.02536
795.785	1.03653
799.16	0.633057
802.535	0.755371
805.909	0.171295
809.284	0.489197
812.659	1.8089
816.034	1.41522
819.409	1.5159
822.784	0.777496
826.158	0.527222
829.533	1.60745
832.908	3.25952
836.283	3.62805
839.658	4.36926
843.033	4.99585
846.407	5.9776
849.782	8.38147
853.157	9.37472
856.532	13.3331
859.907	16.2773
863.281	19.7896
866.656	24.2844
870.031	31.3938
873.406	37.691
876.781	51.2281
880.155	70.6928
883.53	88.7405
886.905	108.228
890.28	115.506
893.655	108.803
897.03	87.2219
900.404	62.1782
903.779	41.5158
907.154	25.4043
910.529	15.7699
913.904	10.6528
917.278	5.31387
920.653	1.46256
924.028	1.03888
927.403	0.882721
930.778	0.082672
934.153	0.39035
937.527	0.231293
940.902	1.93329
944.277	4.44583
947.652	11.594
951.027	12.7402
954.401	20.3466
957.776	30.0538
961.151	47.9802
964.526	74.9947
967.901	120.078
971.275	190.727
974.65	284.545
978.025	414.728
981.4	535.411
984.775	499.371
988.15	309.954
991.524	168.099
994.899	90.3331
998.274	52.0251
1001.65	31.0719
1005.02	18.3455
1008.4	12.3825
1011.77	6.17822
1015.15	2.69904
1018.52	0.065216
1021.9	0.110016
1025.27	0.081665
1028.65	2.00003
1032.02	4.14593
1035.4	8.95401
1038.77	16.4976
1042.15	27.9033
1045.52	46.0649
1048.9	69.3851
1052.27	88.2278
1055.65	85.3658
1059.02	57.5512
1062.4	35.3148
1065.77	19.2249
1069.14	11.0932
1072.52	5.3439
1075.89	2.75085
1079.27	5.98584
1082.64	3.31223
1086.02	0.927002
1089.39	0.398804
1092.77	0.846375
1096.14	0.278259
1099.52	0.280426
1102.89	0.041626
1106.27	0.877014
1109.64	1.0701
1113.02	0.283844
1116.39	1.84317
1119.77	3.0578
1123.14	3.49381
1126.52	4.03339
1129.89	7.46573
1133.27	9.41751
1136.64	14.7998
1140.02	20.4975
1143.39	33.6923
1146.77	43.6592
1150.14	61.4805
1153.52	67.8769
1156.89	54.4635
1160.27	39.9176
1163.64	34.1602
1167.02	33.5886
1170.39	33.0592
1173.77	27.9176
1177.14	21.734
1180.51	17.5461
1183.89	13.028
1187.26	10.4777
1190.64	8.76715
1194.01	6.29883
1197.39	5.45489
1200.76	4.12604
1204.14	2.75879
1207.51	2.23886
1210.89	2.13092
1214.26	3.06824
1217.64	3.09683
1221.01	1.31741
1224.39	0.208466
1227.76	0.843872
1231.14	2.3916
1234.51	1.61945
1237.89	1.49737
1241.26	0.006439
1244.64	1.20566
1248.01	1.75278
1251.38	1.29776
1254.76	0.961578
1258.13	0.625763
1261.51	0.148346
1264.88	2.01169
1268.26	2.47415
1271.63	0.613953
1275.01	0.624451
1278.38	1.31613
1281.76	0.837311
1285.13	0.009399
