Measurement: Raman, 532 nm, unoriented, Raman Data Processed
Mineral: Newberyite
Rruff sample: R050513
Ideal chemistry: Mg(PO_3_OH)3H_2_O
Locality: Australia
Source: American Museum of Natural History
Description: An aggregate of beige fragments
Measured chemistry: (Mg_0.98_Mn_0.01_Ca_0.01_)_Σ=1_(P_1.00_O_3_OH)·3H_2_O
Raman shift (cm-1)	intensity
124.192	0
127.567	37.1023
130.942	294.471
134.317	557.338
137.691	707.347
141.066	853.998
144.441	1069.89
147.816	1250.96
151.191	1285.85
154.565	1047.67
157.94	816.471
161.315	699.476
164.69	638.536
168.065	588.564
171.44	535.549
174.814	486.678
178.189	452.351
181.564	427.607
184.939	381.96
188.314	326.656
191.688	287.436
195.063	260.723
198.438	211.363
201.813	165.393
205.188	132.032
208.562	116.873
211.937	103.81
215.312	103.989
218.687	82.8042
222.062	48.1733
225.437	24.4536
228.811	19.738
232.186	26.8308
235.561	24.1799
238.936	10.2581
242.311	7.76904
245.685	4.67603
249.06	30.5456
252.435	57.0659
255.81	44.0569
259.185	7.14014
262.56	11.6057
265.934	23.6939
269.309	21.3914
272.684	23.4944
276.059	0.924561
279.434	33.3108
282.808	45.9441
286.183	42.522
289.558	38.8721
292.933	45.2837
296.308	51.0583
299.683	63.0098
303.057	78.2319
306.432	71.2429
309.807	75.7854
313.182	88.136
316.557	119.807
319.932	163.724
323.306	195.789
326.681	197.438
330.056	150.976
333.431	86.2825
336.805	50.2737
340.18	27.3679
343.555	10.9507
346.93	5.35474
350.305	1.02637
353.68	18.7014
357.054	38.2998
360.429	44.916
363.804	32.5632
367.179	26.3481
370.554	25.3127
373.928	47.5974
377.303	69.0054
380.678	111.271
384.053	134.505
387.428	180.927
390.803	249.527
394.177	308.287
397.552	348.315
400.927	332.278
404.302	294.56
407.677	247.215
411.051	211.741
414.426	181.222
417.801	150.659
421.176	122.696
424.551	88.0647
427.926	48.7659
431.3	26.96
434.675	7.2915
438.05	3.57129
441.425	0.365723
444.8	7.56104
448.174	6.50244
451.549	5.34033
454.924	1.62598
458.299	1.51904
461.674	0.558105
465.048	14.8613
468.423	22.7783
471.798	33.7046
475.173	64.9941
478.548	102.194
481.923	132.351
485.297	171.509
488.672	211.384
492.047	264.462
495.422	309.815
498.797	328.062
502.171	306.176
505.546	294.987
508.921	308.832
512.296	357.279
515.671	421.925
519.046	469.348
522.42	464.506
525.795	387.707
529.17	309.06
532.545	261.541
535.92	235.169
539.294	193.745
542.669	135.443
546.044	93.271
549.419	83.6665
552.794	74.1021
556.169	53.8794
559.543	36.6987
562.918	32.9048
566.293	31.8403
569.668	29.3848
573.043	13.7251
576.418	13.7271
579.792	6.69434
583.167	14.2949
586.542	13.146
589.917	7.62109
593.292	20.1543
596.666	20.4629
600.041	10.8267
603.416	4.67432
606.791	7.20606
610.166	6.57715
613.54	6.83252
616.915	3.08154
620.29	4.24414
623.665	0.431152
627.04	4.94629
630.414	2.6919
633.789	3.11328
637.164	0.953125
640.539	0.462891
643.914	3.65381
647.289	1.19922
650.663	5.9917
654.038	12.603
657.413	21.3672
660.788	28.1538
664.163	26.0269
667.538	15.7266
670.912	36.8784
674.287	41.3242
677.662	30.1445
681.037	43.9273
684.412	41.8062
687.786	46.0166
691.161	45.2353
694.536	40.4111
697.911	55.4482
701.286	49.8169
704.66	52.1802
708.035	44.332
711.41	32.8086
714.785	32.394
718.16	36.7144
721.534	34.3262
724.909	11.6343
728.284	9.34277
731.659	12.7896
735.034	21.8818
738.409	11.5527
741.783	2.15283
745.158	12.1782
748.533	9.58838
751.908	2.60889
755.283	8.50928
758.658	13.8574
762.032	8.09424
765.407	12.5444
768.782	22.1616
772.157	22.0708
775.532	9.81787
778.906	2.57617
782.281	0.328613
785.656	3.38477
789.031	4.85254
792.406	10.6084
795.78	16.3852
799.155	7.1709
802.53	9.78223
805.905	9.24414
809.28	22.0942
812.654	16.5356
816.029	12.0957
819.404	4.35352
822.779	7.52246
826.154	12.8423
829.529	8.00537
832.903	0.54834
836.278	0.57373
839.653	8.01318
843.028	18.3379
846.403	12.2148
849.778	7.0083
853.152	37.4321
856.527	55.0376
859.902	48.958
863.277	63.416
866.652	89.6313
870.026	101.373
873.401	119.478
876.776	171.358
880.151	234.721
883.526	319.084
886.9	381.999
890.275	443.607
893.65	422.139
897.025	353.575
900.4	263.39
903.775	191.265
907.149	108.675
910.524	71.3979
913.899	45.9585
917.274	34.1357
920.649	20.6123
924.024	9.1958
927.398	2.55322
930.773	6.59375
934.148	5.84131
937.523	1.78272
940.898	2.4126
944.272	15.5938
947.647	24.4673
951.022	20.1357
954.397	42.3369
957.772	83.8227
961.146	142.185
964.521	203.342
967.896	297.355
971.271	509.84
974.646	850.865
978.021	1326.6
981.395	1858.3
984.77	1879.09
988.145	1236.29
991.52	666.388
994.895	359.69
998.269	205.353
1001.64	133.69
1005.02	80.8472
1008.39	50.4727
1011.77	25.5474
1015.14	19.0859
1018.52	8.84229
1021.89	5.40137
1025.27	0.023926
1028.64	9.91602
1032.02	26.273
1035.39	54.9346
1038.77	76.374
1042.14	120.383
1045.52	180.977
1048.89	271.14
1052.27	355.867
1055.64	365.778
1059.02	268.172
1062.39	165.113
1065.77	105.802
1069.14	50.7803
1072.52	32.1655
1075.89	32.2471
1079.27	19.1235
1082.64	5.34717
1086.02	8.67139
1089.39	4.43896
1092.76	1.29199
1096.14	3.01953
1099.51	0.39502
1102.89	3.87402
1106.26	16.7417
1109.64	24.9214
1113.01	5.69775
1116.39	3.73144
1119.76	10.5205
1123.14	23.5947
1126.51	17.2241
1129.89	24.6685
1133.26	43.3027
1136.64	49.9009
1140.01	60.249
1143.39	91.9365
1146.76	145.107
1150.14	208.839
1153.51	253.567
1156.89	206.606
1160.26	142.978
1163.63	132.975
1167.01	118.259
1170.38	109.555
1173.76	95.8076
1177.13	79.6377
1180.51	56.502
1183.88	43.9131
1187.26	30.7275
1190.63	12.0874
1194.01	32.209
1197.38	29.4009
1200.76	16.0332
1204.13	3.90576
1207.51	7.3335
1210.88	7.83984
1214.26	20.604
1217.63	21.2544
1221.01	17.0435
1224.38	22.1904
1227.76	3.53467
1231.13	10.9351
1234.51	2.76416
1237.88	9.94092
1241.26	10.9087
1244.63	24.1753
1248.01	26.4707
1251.38	4.09814
1254.76	4.60107
1258.13	1.06689
1261.51	12.3706
1264.88	22.1489
1268.26	9.93408
1271.63	20.0996
1275	13.6392
1278.38	19.3999
1281.75	15.0576
1285.13	18.1157
1288.5	19.1079
1291.88	8.10107
1295.25	1.7832
1298.63	23.5786
1302	3.21533
