Measurement: Raman, 532 nm, unoriented, Raman Data Processed
Mineral: Nickelalumite
Rruff sample: R060573
Ideal chemistry: (Ni,Cu^2+^)Al_4_(SO_4_,NO_3_)(OH)_12_3H_2_O
Locality: Jomde mine, San Juan County, Utah, USA
Source: Michael Scott
Description: Aggregates of blue spherulites
Raman shift (cm-1)	intensity
131.165	0
134.54	7.415
137.915	109.471
141.29	142.983
144.665	134.595
148.04	110.38
151.414	176.869
154.789	294.766
158.164	370.274
161.539	612.237
164.913	830.448
168.288	1008.96
171.663	924.353
175.038	616.13
178.413	326.02
181.788	163.167
185.162	86.483
188.537	26.403
191.912	106.862
195.287	117.687
198.662	201.675
202.036	252.232
205.411	226.95
208.786	199.759
212.161	159.982
215.536	134.843
218.911	121.478
222.285	142.503
225.66	193.087
229.035	192.913
232.41	151.421
235.785	71.131
239.16	57.191
242.534	107.135
245.909	136.271
249.284	174.476
252.659	267.941
256.034	407.974
259.408	557.154
262.783	698.147
266.158	815.35
269.533	822.283
272.908	681.178
276.282	577.625
279.657	425.851
283.032	256.743
286.407	80.891
289.782	27.978
293.156	10.153
296.531	20.295
299.906	62.811
303.281	23.144
306.656	17.24
310.031	12.101
313.405	3.252
316.78	42.136
320.155	43.552
323.53	40.55
326.905	124.191
330.28	179.007
333.654	197.156
337.029	208.465
340.404	176.351
343.779	218.076
347.154	153.475
350.528	256.369
353.903	243.867
357.278	212.112
360.653	214.625
364.028	221.868
367.402	238.565
370.777	193.241
374.152	220.572
377.527	209.149
380.902	211.524
384.276	205.972
387.651	175.964
391.026	77.012
394.401	60.503
397.776	46.727
401.151	6.789
404.525	18.831
407.9	40.315
411.275	15.894
414.65	24.358
418.025	2.319
421.4	23.217
424.774	19.467
428.149	36.743
431.524	134.542
434.899	264.871
438.274	334.163
441.648	500.36
445.023	588.365
448.398	644.101
451.773	620.208
455.148	616.881
458.522	678.601
461.897	686.484
465.272	727.261
468.647	783.436
472.022	959
475.397	1115.92
478.771	1201.88
482.146	1239.75
485.521	1096.3
488.896	959.348
492.271	866.463
495.645	911.99
499.02	1115.67
502.395	1310.42
505.77	1443.9
509.145	1691.03
512.519	1675.5
515.894	1510.66
519.269	1381.93
522.644	1419.97
526.019	1529.76
529.394	1679.97
532.768	1690.4
536.143	1680.55
539.518	1474.97
542.893	1276.13
546.268	1002.4
549.643	636.368
553.017	473.71
556.392	270.397
559.767	111.668
563.142	16.132
566.516	57.129
569.891	56.677
573.266	45.774
576.641	25.109
580.016	217.701
583.391	405.777
586.765	548.839
590.14	596.604
593.515	670.976
596.89	639.005
600.265	637.691
603.64	672.137
607.014	691.588
610.389	742.12
613.764	677.377
617.139	616.454
620.514	501.908
623.888	429.698
627.263	275.116
630.638	168.525
634.013	73.859
637.388	34.534
640.763	2.657
644.137	8.708
647.512	5.861
650.887	6.42
654.262	13.75
657.636	53.191
661.011	41.289
664.386	56.05
667.761	139.646
671.136	176.946
674.511	179.198
677.885	88.998
681.26	90.312
684.635	39.078
688.01	6.872
691.385	4.071
694.76	53.167
698.134	56.856
701.509	26.238
704.884	2.914
708.259	1.355
711.634	10.891
715.008	51.35
718.383	47.088
721.758	14.162
725.133	79.729
728.508	63.552
731.883	74.291
735.257	60.657
738.632	74.257
742.007	59.185
745.382	50.491
748.757	40.805
752.131	16.374
755.506	5.474
758.881	25.728
762.256	20.385
765.631	37.002
769.005	48.383
772.38	44.075
775.755	58.172
779.13	53.255
782.505	82.78
785.88	73.904
789.254	1.884
792.629	74.496
796.004	64.327
799.379	95.368
802.754	143.728
806.128	142.34
809.503	207.652
812.878	298.182
816.253	360.447
819.628	497.477
823.003	557.414
826.377	625.823
829.752	725.409
833.127	632.104
836.502	568.875
839.877	468.245
843.251	477.889
846.626	535.511
850.001	256.368
853.376	51.413
856.751	7.776
860.125	49.771
863.5	0.461
866.875	11.138
870.25	6.623
873.625	35.198
877	20.661
880.374	3.31
883.749	40.264
887.124	47.595
890.499	75.761
893.874	102.986
897.248	211.688
900.623	290.619
903.998	368.127
907.373	327.022
910.748	181.571
914.122	48.91
917.497	33.808
920.872	36.844
924.247	54.993
927.622	76.155
930.997	1.908
934.371	56.28
937.746	59.815
941.121	72.798
944.496	159.689
947.871	164.616
951.245	275.992
954.62	501.063
957.995	843.356
961.37	1404.87
964.745	2395.36
968.12	3881.85
971.494	5690.94
974.869	6875.75
978.244	6599.03
981.619	5135.38
984.994	3443.83
988.369	1898.95
991.743	1068.11
995.118	634.241
998.493	402.323
1001.87	329.296
1005.24	174.931
1008.62	118.62
1011.99	67.198
1015.37	16.928
1018.74	19.656
1022.12	59.588
1025.49	2.459
1028.87	33.989
1032.24	26.605
1035.62	39.227
1038.99	73.765
1042.37	31.331
1045.74	34.137
1049.12	0.812
1052.49	100.635
1055.87	57.977
1059.24	78.526
1062.61	54.577
1065.99	81.007
1069.36	79.436
1072.74	116.299
1076.11	126.086
1079.49	137.113
1082.86	116.266
1086.24	171.714
1089.61	190.952
1092.99	225.983
1096.36	216.362
1099.74	231.73
1103.11	324.175
1106.49	365.032
1109.86	348.173
1113.24	409.082
1116.61	346.67
1119.99	375.638
1123.36	274.573
1126.74	295.632
1130.11	260.681
1133.48	264.242
1136.86	263.428
1140.23	312.439
1143.61	306.505
1146.98	232.699
1150.36	260.512
1153.73	235.017
1157.11	260.283
1160.48	203.985
1163.86	164.176
1167.23	103.632
1170.61	121.629
1173.98	129.616
1177.36	24.667
1180.73	67.019
1184.11	39.47
1187.48	29.105
1190.86	8.213
1194.23	21.062
1197.61	31.768
1200.98	37.46
1204.36	11.301
1207.73	12.249
1211.11	32.735
1214.48	7.126
1217.86	2.609
1221.23	47.04
1224.61	36.151
1227.98	60.181
1231.36	25.78
1234.73	69.217
1238.11	19.998
1241.48	22.954
1244.85	89.808
1248.23	38.337
1251.6	47.588
1254.98	50.115
1258.35	54.142
1261.73	20.475
1265.1	24.737
1268.48	39.108
1271.85	83.135
1275.23	76.737
1278.6	85.258
1281.98	53.331
1285.35	4.298
1288.73	19.707
1292.1	64
1295.48	14.113
