Measurement: Raman, 532 nm, unoriented, Raman Data Processed
Mineral: Nickeltalmessite
Rruff sample: R090023
Ideal chemistry: Ca_2_Ni^2+^(As^5+^O_4_)_2_2H_2_O
Locality: Ait Ahmane, Bou Azzer, Morocco
Source: Wiiliam W. Pinch
Description: Small pale green to colorless acicular crystals
Raman shift (cm-1)	intensity
133.834	0
137.209	1.60419
140.584	23.67
143.959	93.3602
147.334	133.513
150.708	179.329
154.083	233.94
157.458	374.622
160.833	682.183
164.208	507.21
167.583	185.536
170.957	158.437
174.332	224.041
177.707	321.63
181.082	338.255
184.457	289.006
187.832	314.455
191.206	426.112
194.581	711.981
197.956	1022.97
201.331	495.543
204.706	142.283
208.08	71.6896
211.455	94.902
214.83	113.493
218.205	60.19
221.58	12.6127
224.954	15.9061
228.329	17.3013
231.704	84.0652
235.079	178.628
238.454	280.797
241.829	354.226
245.203	355.582
248.578	361.447
251.953	428.205
255.328	447.892
258.703	272.082
262.077	168.83
265.452	154.521
268.827	194.428
272.202	303.083
275.577	409.285
278.952	348.466
282.326	112.817
285.701	8.28021
289.076	24.1792
292.451	8.66571
295.826	27.7383
299.2	93.6945
302.575	198.993
305.95	332.075
309.325	346.32
312.7	180.252
316.075	65.1132
319.449	16.2223
322.824	7.55768
326.199	11.0459
329.574	46.4595
332.949	114.039
336.323	236.592
339.698	435.978
343.073	723.744
346.448	1118.61
349.823	1602.27
353.197	2168.59
356.572	2552.36
359.947	2496.66
363.322	2028.85
366.697	1227.91
370.072	666.28
373.446	437.517
376.821	373.595
380.196	381.367
383.571	483.656
386.946	715.484
390.32	938.036
393.695	653.829
397.07	250.336
400.445	98.9397
403.82	27.1874
407.195	8.42859
410.569	11.7575
413.944	7.07007
417.319	3.77545
420.694	15.9934
424.069	37.2897
427.443	67.3806
430.818	140.617
434.193	256.192
437.568	397.568
440.943	617.36
444.317	948.16
447.692	1346.08
451.067	1529.19
454.442	1524.61
457.817	1583.42
461.192	1475.45
464.566	1026.75
467.941	599.286
471.316	341.71
474.691	206.197
478.066	124.897
481.44	78.7394
484.815	51.943
488.19	25.2264
491.565	22.5181
494.94	10.088
498.315	0.4151
501.689	1.35211
505.064	0.975281
508.439	1.15961
511.814	3.1084
515.189	1.90094
518.563	2.56793
521.938	5.32623
525.313	4.45465
528.688	2.86212
532.063	0.182739
535.438	5.69214
538.812	12.7499
542.187	9.85675
545.562	12.5864
548.937	11.0001
552.312	17.4482
555.687	16.665
559.061	17.9181
562.436	21.0911
565.811	26.1561
569.186	17.6699
572.561	19.6882
575.935	11.9259
579.31	15.7717
582.685	14.5997
586.06	16.7465
589.435	19.8946
592.809	18.3351
596.184	24.4332
599.559	19.8008
602.934	25.343
606.309	20.0219
609.683	23.4692
613.058	28.4719
616.433	33.2753
619.808	34.4979
623.183	41.9174
626.558	36.5428
629.932	31.7918
633.307	45.297
636.682	43.0061
640.057	54.1954
643.432	47.7822
646.807	53.9759
650.181	53.5758
653.556	58.4924
656.931	68.5458
660.306	69.4753
663.681	71.2352
667.055	74.6828
670.43	93.3883
673.805	96.2866
677.18	111.621
680.555	114.381
683.929	119.789
687.304	114.47
690.679	96.0378
694.054	86.1612
697.429	88.5765
700.803	69.6874
704.178	60.5178
707.553	52.4944
710.928	41.5329
714.303	25.066
717.678	18.3419
721.052	7.69104
724.427	12.8324
727.802	24.1862
731.177	31.6623
734.552	24.53
737.927	26.1875
741.301	12.7413
744.676	7.35706
748.051	7.89221
751.426	10.0419
754.801	0.545654
758.175	4.42163
761.55	50.4077
764.925	143.183
768.3	292.19
771.675	438.576
775.049	521.34
778.424	484.032
781.799	399.317
785.174	342.543
788.549	321.647
791.923	390.338
795.298	652.191
798.673	1179.33
802.048	1947.58
805.423	2818.44
808.798	3352.2
812.172	3311.53
815.547	2874.71
818.922	2537.14
822.297	2950.48
825.672	4093.39
829.047	5852.68
832.421	8148.48
835.796	9162.12
839.171	6675.71
842.546	3240.94
845.921	1578.72
849.295	840.804
852.67	512.988
856.045	410.151
859.42	430.115
862.795	673.193
866.169	1237.55
869.544	2019.48
872.919	3261.1
876.294	4990.34
879.669	4961.82
883.044	2287.05
886.418	870.539
889.793	376.019
893.168	164.674
896.543	71.4322
899.918	28.1282
903.293	7.73267
906.667	7.88391
910.042	16.1936
913.417	32.3334
916.792	30.079
920.167	19.5769
923.541	21.4802
926.916	12.0666
930.291	4.37891
933.666	12.7783
937.041	24.2474
940.415	28.079
943.79	36.366
947.165	50.3748
950.54	61.768
953.915	68.8876
957.29	73.6349
960.664	81.8555
964.039	91.2023
967.414	92.3701
970.789	89.2809
974.164	87.3102
977.538	86.4512
980.913	84.2515
984.288	80.9877
987.663	66.2496
991.038	58.9495
994.413	64.4946
997.787	56.05
1001.16	58.4429
1004.54	49.6774
1007.91	45.2471
1011.29	45.5857
1014.66	37.5683
1018.04	41.0239
1021.41	36.7484
1024.79	33.7318
1028.16	32.3087
1031.54	26.3284
1034.91	34.2698
1038.29	32.0804
1041.66	30.4373
1045.04	33.5463
1048.41	32.1493
1051.78	42.9806
1055.16	35.5125
1058.53	34.2071
1061.91	35.0437
1065.28	35.4329
1068.66	26.7377
1072.03	14.5781
1075.41	19.434
1078.78	15.8232
1082.16	5.62323
1085.53	4.04309
1088.91	10.1604
1092.28	3.03149
1095.66	0.343384
1099.03	7.63983
1102.41	0.508667
1105.78	4.64038
1109.16	9.08527
1112.53	4.59058
1115.91	8.22205
1119.28	1.56195
1122.66	2.13879
1126.03	6.11334
1129.4	4.143
1132.78	2.40448
1136.15	1.40649
1139.53	5.84454
1142.9	2.48523
1146.28	1.59515
1149.65	6.58008
1153.03	5.70764
1156.4	14.7212
1159.78	9.98108
1163.15	3.56103
1166.53	0.082642
1169.9	2.74518
1173.28	0.970093
1176.65	6.81891
1180.03	10.7007
1183.4	7.66321
1186.78	10.4445
1190.15	8.26575
1193.53	7.06946
1196.9	9.58051
1200.28	3.94873
1203.65	9.94116
1207.03	2.65002
1210.4	4.36707
1213.78	17.0931
1217.15	9.83691
1220.53	12.7198
1223.9	13.5464
1227.28	10.248
1230.65	3.34717
1234.02	13.8683
1237.4	10.8313
1240.77	12.3043
1244.15	17.2976
1247.52	11.0873
1250.9	12.9506
1254.27	9.86096
1257.65	4.82007
1261.02	1.57397
1264.4	0.399536
1267.77	7.3136
1271.15	9.48462
1274.52	8.15503
1277.9	7.89233
1281.27	7.18335
1284.65	12.3702
1288.02	6.4563
1291.4	10.1212
1294.77	1.90283
1298.15	2.11572
1301.52	11.6106
