Measurement: Raman, 532 nm, unoriented, Raman Data Processed
Mineral: Nickelhexahydrite
Rruff sample: R060596
Ideal chemistry: NiSO_4_6H_2_O
Locality: Gorner Glacier, Monte Rosa Massif, Zermatt, Matt Valley, Wallis, Switzerland
Source: Michael Scott
Description: Pale blue granular aggregate
Raman shift (cm-1)	intensity
142.736	0
145.629	68.788
148.522	124.33
151.414	146.443
154.307	95.073
157.2	3.306
160.092	6.531
162.985	38.512
165.878	2.228
168.77	20.101
171.663	33.54
174.556	37.405
177.449	80.666
180.341	137.118
183.234	213.77
186.127	330.47
189.019	357.4
191.912	418.842
194.805	506.444
197.697	649.117
200.59	753.171
203.483	817.253
206.376	877.281
209.268	941.526
212.161	1013.65
215.054	1349.51
217.946	1998.56
220.839	3097.49
223.732	4257.02
226.624	5392.54
229.517	5813.72
232.41	4732.44
235.303	3113.08
238.195	1954.66
241.088	1329.22
243.981	1103.99
246.873	872.588
249.766	751.505
252.659	676.088
255.551	589.743
258.444	503.287
261.337	457.634
264.229	372.999
267.122	276.62
270.015	194.327
272.908	45.226
275.8	30.186
278.693	14.16
281.586	31.854
284.478	55.062
287.371	4.474
290.264	9.961
293.156	56.936
296.049	104.462
298.942	192.196
301.835	291.581
304.727	332.202
307.62	343.428
310.513	293.099
313.405	347.409
316.298	403.534
319.191	434.786
322.083	467.971
324.976	428.472
327.869	404.811
330.762	404.886
333.654	526.129
336.547	594.763
339.44	653.519
342.332	726.453
345.225	761.404
348.118	836.36
351.01	931.797
353.903	1135.86
356.796	1429.69
359.689	1820.42
362.581	2391.66
365.474	3147.87
368.367	4047.35
371.259	5116.93
374.152	6237.38
377.045	6691.22
379.938	5952.45
382.83	3479.12
385.723	2135.01
388.616	1094.64
391.508	633.089
394.401	501.792
397.294	261.542
400.186	169.998
403.079	4.669
405.972	1.142
408.865	33.359
411.757	33.685
414.65	3.432
417.543	21.741
420.435	26.059
423.328	14.145
426.221	77.337
429.113	131.568
432.006	184.329
434.899	191.087
437.791	239.529
440.684	297.888
443.577	386.206
446.47	489.934
449.362	632.327
452.255	762.719
455.148	890.332
458.04	1038.48
460.933	1106.62
463.826	1095.96
466.718	877.134
469.611	655.145
472.504	383.935
475.397	280.26
478.289	138.106
481.182	87.687
484.075	36.558
486.967	20.125
489.86	23.674
492.753	30
495.645	15.027
498.538	2.499
501.431	56.686
504.323	130.623
507.216	174.763
510.109	218.352
513.002	372.621
515.894	583.804
518.787	767.966
521.68	918.211
524.572	988.045
527.465	930.179
530.358	730.715
533.25	606.66
536.143	474.191
539.036	428.39
541.929	333.449
544.821	331.566
547.714	293.815
550.607	256.592
553.499	207.483
556.392	123.823
559.285	80.015
562.177	26.993
565.07	18.519
567.963	13.96
570.856	19.014
573.748	46.113
576.641	101.986
579.534	61.014
582.426	26.814
585.319	104.062
588.212	187.283
591.104	285.662
593.997	305.775
596.89	412.077
599.783	478.344
602.675	579.733
605.568	623.059
608.461	656.945
611.353	701.183
614.246	777.812
617.139	782.806
620.031	849.65
622.924	982.736
625.817	983.416
628.71	1013.45
631.602	1031.29
634.495	984.233
637.388	962.38
640.28	923.931
643.173	898.258
646.066	884.028
648.958	880.873
651.851	836.099
654.744	880.659
657.636	945.99
660.529	1032.65
663.422	1088.39
666.315	1448.95
669.207	1890.63
672.1	2379.8
674.993	3012.66
677.885	3711.14
680.778	4119
683.671	4148.8
686.563	3767.88
689.456	3172.59
692.349	2685.01
695.242	2284.35
698.134	1910.36
701.027	1696.21
703.92	1446.77
706.812	1284.41
709.705	1111.38
712.598	875.985
715.49	612.642
718.383	402.076
721.276	274.693
724.169	158.604
727.061	68.111
729.954	56.336
732.847	6.004
735.739	24.173
738.632	21.431
741.525	37.036
744.417	46.923
747.31	7.864
750.203	14.14
753.096	31.412
755.988	13.129
758.881	73.884
761.774	55.171
764.666	31.047
767.559	48.969
770.452	59.125
773.344	67.956
776.237	84.36
779.13	107.833
782.023	60.189
784.915	58.992
787.808	66.137
790.701	56.02
793.593	59.951
796.486	60.021
799.379	61.832
802.271	60.147
805.164	27.075
808.057	20.524
810.95	41.999
813.842	33.729
816.735	80.848
819.628	94.631
822.52	58.6
825.413	27.078
828.306	32.85
831.198	17.737
834.091	44.08
836.984	24.251
839.877	81.341
842.769	93.002
845.662	83.984
848.555	59.6
851.447	50.155
854.34	98.314
857.233	57.105
860.125	104.688
863.018	81.899
865.911	46.184
868.804	100.243
871.696	35.963
874.589	37.631
877.482	84.641
880.374	106.905
883.267	74.618
886.16	81.241
889.052	107.743
891.945	39.01
894.838	120.249
897.731	49.475
900.623	49.616
903.516	25.51
906.409	68.563
909.301	6.067
912.194	44.128
915.087	34.928
917.979	16.164
920.872	66.3
923.765	51.462
926.657	127.445
929.55	138.873
932.443	62.338
935.336	34.973
938.228	29.175
941.121	25.032
944.014	14.108
946.906	37.012
949.799	91.347
952.692	92.539
955.584	179.533
958.477	207.668
961.37	133.064
964.263	179.838
967.155	237.247
970.048	276.893
972.941	484.254
975.833	960.809
978.726	1729.14
981.619	3275.33
984.511	4086.68
987.404	1755.5
990.297	526.089
993.19	265.601
996.082	80.806
998.975	101.161
1001.87	49.968
1004.76	18.081
1007.65	24.667
1010.55	42.974
1013.44	18.348
1016.33	24.787
1019.22	36.581
1022.12	19.625
1025.01	61.665
1027.9	161.432
1030.8	271.726
1033.69	476.781
1036.58	788.516
1039.47	1314.51
1042.37	1683.87
1045.26	1575.85
1048.15	1008.54
1051.04	558.923
1053.94	331.478
1056.83	269.71
1059.72	223.061
1062.61	150.173
1065.51	197.521
1068.4	220.629
1071.29	230.884
1074.18	235.561
1077.08	240.28
1079.97	197.889
1082.86	247.029
1085.76	247.211
1088.65	213.095
1091.54	212.548
1094.43	268.715
1097.33	255.125
1100.22	256.21
1103.11	180.525
1106.01	155.664
1108.9	123.884
1111.79	57.031
1114.68	54.285
1117.58	33.298
1120.47	29.387
1123.36	38.271
1126.25	38.391
1129.15	41.335
1132.04	113.061
1134.93	1.869
1137.83	63.279
1140.72	21.155
1143.61	28.22
1146.5	41.102
1149.39	83.559
1152.29	74.032
1155.18	51.136
1158.07	94.158
1160.97	35.604
1163.86	59.28
1166.75	53.573
1169.64	10.964
1172.54	0.352
1175.43	35.368
1178.32	69.993
1181.21	7.92
1184.11	67.452
1187	1.837
1189.89	46.02
1192.79	9.828
1195.68	38.549
1198.57	62.558
1201.46	33.255
1204.36	71.261
1207.25	80.6
1210.14	61.153
1213.04	53.713
1215.93	94.133
1218.82	43.511
1221.71	43.055
1224.61	76.973
1227.5	20.434
1230.39	25.209
1233.28	46.735
1236.18	57.657
1239.07	61.409
1241.96	73.694
1244.85	88.409
1247.75	124.599
1250.64	71.583
1253.53	21.317
1256.42	7.913
1259.32	107.117
1262.21	16.429
1265.1	39.045
1268	8.476
1270.89	54.752
1273.78	35.712
1276.67	0
