Measurement: Raman, 780 nm, unoriented, Raman Data Processed
Mineral: Nickeltalmessite
Rruff sample: R090023
Ideal chemistry: Ca_2_Ni^2+^(As^5+^O_4_)_2_2H_2_O
Locality: Ait Ahmane, Bou Azzer, Morocco
Source: Wiiliam W. Pinch
Description: Small pale green to colorless acicular crystals
Raman shift (cm-1)	intensity
92.3769	0
95.7518	10.2571
99.1266	99.7244
102.501	118.571
105.876	145.163
109.251	227.861
112.626	106.563
116.001	69.6525
119.376	90.2743
122.75	58.3577
126.125	2.8616
129.5	3.36508
132.875	7.6507
136.25	2.25751
139.624	4.2197
142.999	24.9125
146.374	27.3976
149.749	46.9862
153.124	80.9638
156.499	130.716
159.873	223.915
163.248	204.059
166.623	110.181
169.998	110.109
173.373	156.303
176.747	221.691
180.122	223.595
183.497	151.445
186.872	153.942
190.247	174.828
193.621	236.718
196.996	335.667
200.371	206.976
203.746	89.8801
207.121	73.1044
210.495	82.6433
213.87	101.097
217.245	70.8411
220.62	35.5088
223.995	30.2569
227.37	30.8276
230.744	62.6294
234.119	115.096
237.494	168.23
240.869	196.015
244.244	195.512
247.619	203.598
250.993	241.603
254.368	244.792
257.743	165.819
261.118	80.825
264.493	52.5448
267.867	56.1333
271.242	87.7263
274.617	112.353
277.992	88.9624
281.367	24.8762
284.741	5.05106
288.116	14.2064
291.491	0.934235
294.866	12.8592
298.241	35.6452
301.616	74.9339
304.99	112.74
308.365	132.38
311.74	71.9575
315.115	19.9676
318.49	6.33469
321.865	2.96298
325.239	3.34604
328.614	28.4147
331.989	62.5629
335.364	125.789
338.739	220.844
342.113	342.129
345.488	487.38
348.863	648.393
352.238	827.407
355.613	958.106
358.987	996.05
362.362	882.594
365.737	582.242
369.112	315.117
372.487	217.333
375.861	183.327
379.236	173.042
382.611	202.23
385.986	257.252
389.361	323.971
392.736	258.687
396.11	108.361
399.485	44.857
402.86	15.8919
406.235	0.030396
409.61	2.97617
412.985	0.55127
416.359	2.97748
419.734	9.10944
423.109	10.8158
426.484	35.356
429.859	62.5579
433.233	110.066
436.608	173.767
439.983	249.531
443.358	371.049
446.733	498.478
450.108	585.05
453.482	554.015
456.857	519.946
460.232	481.807
463.607	350.485
466.982	217.902
470.356	126.96
473.731	76.5286
477.106	44.1625
480.481	28.0883
483.856	16.4078
487.231	6.93689
490.605	11.6331
493.98	4.49248
497.355	1.62082
500.73	0.541138
504.104	7.30031
507.479	6.70786
510.854	2.10349
514.229	4.57851
517.604	1.28856
520.979	1.78761
524.354	1.5728
527.728	3.0137
531.103	3.38531
534.478	0.967804
537.853	7.71989
541.227	0.154083
544.602	7.66853
547.977	0.749588
551.352	7.82517
554.727	7.14414
558.102	11.3601
561.476	7.14293
564.851	9.36061
568.226	10.9413
571.601	8.69565
574.976	4.66327
578.351	4.12227
581.725	6.03725
585.1	7.11075
588.475	8.14095
591.85	8.57442
595.225	4.16844
598.599	5.62405
601.974	7.66676
605.349	8.97589
608.724	6.85043
612.099	7.61189
615.473	10.6721
618.848	5.94807
622.223	8.44931
625.598	10.8558
628.973	7.46945
632.347	13.248
635.722	12.1085
639.097	14.2925
642.472	14.0331
645.847	20.3745
649.222	20.0875
652.596	17.0475
655.971	16.1461
659.346	17.4447
662.721	15.9925
666.096	23.5589
669.471	24.2882
672.845	25.9176
676.22	28.6578
679.595	29.9539
682.97	28.4566
686.345	33.5089
689.719	24.9261
693.094	26.262
696.469	21.3415
699.844	16.7765
703.219	17.2347
706.593	12.3559
709.968	11.0971
713.343	10.3994
716.718	1.94742
720.093	2.49858
723.468	0.329453
726.842	7.25008
730.217	9.00497
733.592	10.9028
736.967	5.36678
740.342	6.08806
743.716	4.24696
747.091	1.09723
750.466	9.3909
753.841	23.931
757.216	46.5714
760.591	76.757
763.965	137.065
767.34	199.319
770.715	265.818
774.09	309.771
777.465	292.977
780.84	243.516
784.214	222.585
787.589	230.791
790.964	284.636
794.339	399.141
797.714	592.57
801.088	851.899
804.463	1100.2
807.838	1247.4
811.213	1202.34
814.588	1062.84
817.962	962.886
821.337	1094.72
824.712	1411.56
828.087	1849.9
831.462	2417.87
834.837	2737.45
838.211	2141.95
841.586	1081.26
844.961	502.293
848.336	256.687
851.711	140.073
855.085	96.1568
858.46	82.0471
861.835	124.872
865.21	237.907
868.585	360.302
871.96	522.486
875.334	767.683
878.709	859.201
882.084	435.949
885.459	153.754
888.834	55.1863
892.208	13.5582
895.583	0.970673
898.958	5.93947
902.333	1.65648
905.708	5.78662
909.082	3.10147
912.457	7.31015
915.832	8.07939
919.207	3.5911
922.582	0.489304
925.957	3.09789
929.331	3.78328
932.706	6.75926
936.081	6.52997
939.456	19.0359
942.831	19.6819
946.205	19.3816
949.58	24.0497
952.955	31.4017
956.33	28.5357
959.705	30.4432
963.08	26.7096
966.454	30.5943
969.829	27.696
973.204	26.8801
976.579	25.4327
979.954	23.5663
983.328	21.7515
986.703	21.3556
990.078	12.5155
993.453	19.731
996.828	13.8356
1000.2	12.8757
1003.58	13.7679
1006.95	14.8803
1010.33	15.098
1013.7	13.7998
1017.08	11.8219
1020.45	15.077
1023.83	4.62373
1027.2	9.3718
1030.58	10.6678
1033.95	6.19123
1037.33	10.9464
1040.7	13.5177
1044.08	8.84157
1047.45	5.15454
1050.83	13.9459
1054.2	12.4058
1057.57	11.03
1060.95	8.02926
1064.32	6.83372
1067.7	7.40937
1071.07	9.57436
1074.45	7.38738
1077.82	7.1
1081.2	3.65009
1084.57	1.38836
1087.95	3.37698
1091.32	2.53287
1094.7	4.52515
1098.07	1.54127
1101.45	1.04308
1104.82	8.30573
1108.2	3.44785
1111.57	6.39592
1114.95	1.15377
1118.32	4.96165
1121.7	9.11629
1125.07	2.447
1128.45	1.18355
1131.82	5.20203
1135.19	3.60832
1138.57	1.63833
1141.94	1.10236
1145.32	1.84873
1148.69	7.13944
1152.07	0.992874
1155.44	10.4104
1158.82	3.14993
1162.19	4.24361
1165.57	3.62938
1168.94	7.43841
1172.32	2.47516
1175.69	6.5831
1179.07	2.07458
1182.44	2.44988
1185.82	0.17231
1189.19	8.37096
1192.57	5.35234
1195.94	5.08495
1199.32	8.21338
1202.69	3.80796
1206.07	0.793182
1209.44	9.76912
1212.82	6.71327
1216.19	2.85069
1219.57	4.198
1222.94	4.25407
1226.32	1.68958
1229.69	5.18875
1233.07	4.49508
1236.44	7.79931
1239.81	9.54138
1243.19	4.77192
1246.56	2.59658
1249.94	3.96471
1253.31	2.2849
1256.69	2.8391
1260.06	6.77069
1263.44	6.79599
1266.81	9.025
1270.19	1.64806
1273.56	2.21461
1276.94	7.16116
1280.31	2.06532
1283.69	3.90713
