Measurement: Raman, 780 nm, unoriented, Raman Data Processed
Mineral: Nierite
Rruff sample: R120128
Ideal chemistry: Si_3_N_4_
Locality: Synthetic
Source: UBE America Inc.
Description: White powder
Raman shift (cm-1)	intensity
168.338	0
171.231	2.26648
174.124	0.034424
177.016	4.7262
179.909	3.60541
182.802	4.96185
185.694	7.50635
188.587	4.71204
191.48	12.4633
194.373	26.2498
197.265	51.0129
200.158	113.395
203.051	22.773
205.943	10.1314
208.836	1.48022
211.729	1.04071
214.621	0.145996
217.514	1.75232
220.407	8.93164
223.299	22.6581
226.192	43.6009
229.085	112.038
231.978	125.163
234.87	25.0289
237.763	14.9537
240.656	31.7629
243.548	45.9034
246.441	83.072
249.334	171.945
252.226	357.574
255.119	768.849
258.012	1604.49
260.904	971.061
263.797	137.034
266.69	51.7863
269.583	29.017
272.475	23.8168
275.368	27.9505
278.261	44.5093
281.153	72.4912
284.046	19.3367
286.939	9.22809
289.832	12.4962
292.724	24.5546
295.617	61.635
298.51	100.367
301.402	61.8176
304.295	62.5237
307.188	20.3157
310.08	4.45758
312.973	3.14594
315.866	3.00714
318.759	0.049988
321.651	0.556946
324.544	2.34998
327.437	1.04498
330.329	3.91046
333.222	5.20526
336.115	6.06158
339.007	7.96698
341.9	12.2445
344.793	32.5931
347.685	64.2467
350.578	67.8257
353.471	131.293
356.364	150.404
359.256	193.761
362.149	429.697
365.042	444.303
367.934	80.1666
370.827	42.4528
373.72	28.8589
376.613	17.3391
379.505	4.13489
382.398	2.35339
385.291	1.33679
388.183	0.33136
391.076	0.210083
393.969	1.8891
396.861	8.99878
399.754	20.4855
402.647	26.1434
405.539	6.06073
408.432	2.78388
411.325	0.227722
414.217	1.99963
417.11	1.30646
420.003	1.18372
422.896	1.41193
425.788	8.9826
428.681	2.47229
431.574	0.810547
434.466	3.93335
437.359	0.972107
440.252	1.89496
443.144	5.22467
446.037	4.24042
448.93	6.36792
451.823	10.4125
454.715	21.361
457.608	44.3647
460.501	69.8297
463.393	35.803
466.286	9.22205
469.179	17.3531
472.072	14.2605
474.964	13.6315
477.857	13.7494
480.75	17.8146
483.642	27.1223
486.535	52.7847
489.428	40.8962
492.32	34.7374
495.213	37.8957
498.106	41.2094
500.998	56.488
503.891	69.1036
506.784	103.597
509.677	165.259
512.569	191.806
515.462	76.7559
518.355	20.0294
521.247	11.0439
524.14	12.217
527.033	13.6957
529.926	13.952
532.818	0.6521
535.711	0.568909
538.604	0.524841
541.496	1.55286
544.389	0.975159
547.282	5.31287
550.174	6.40143
553.067	12.1807
555.96	18.9938
558.852	33.4788
561.745	32.5412
564.638	34.7706
567.53	42.874
570.423	13.6561
573.316	0.335876
576.209	2.33283
579.101	1.68738
581.994	2.67053
584.887	4.22162
587.779	7.19159
590.672	8.69
593.565	6.9436
596.457	14.0018
599.35	19.3837
602.243	12.9555
605.136	8.1225
608.028	2.78314
610.921	5.64111
613.814	0.244629
616.706	0.173767
619.599	3.55597
622.492	0.072388
625.385	4.04364
628.277	1.4306
631.17	0.373962
634.063	4.77087
636.955	3.09674
639.848	3.4295
642.741	2.01788
645.633	8.01538
648.526	8.37799
651.419	16.037
654.312	21.8777
657.204	40.0414
660.097	63.8519
662.99	118.079
665.882	144.987
668.775	94.0137
671.668	61.4933
674.56	66.36
677.453	59.396
680.346	54.9161
683.239	58.2624
686.131	53.747
689.024	48.2508
691.917	35.3183
694.809	16.4284
697.702	6.5224
700.595	0.251587
703.487	2.07953
706.38	0.468933
709.273	0.087158
712.165	0.183899
715.058	3.52832
717.951	4.8078
720.843	1.17071
723.736	4.90308
726.629	2.76917
729.522	4.90912
732.414	6.48267
735.307	5.8374
738.2	8.26587
741.092	6.51331
743.985	7.7746
746.878	5.61896
749.77	8.9939
752.663	6.21606
755.556	6.29102
758.449	5.81226
761.341	7.91864
764.234	8.01886
767.127	7.95544
770.019	5.1665
772.912	2.50317
775.805	3.93103
778.697	0.774048
781.59	0.356079
784.483	3.55969
787.376	3.21777
790.268	4.33655
793.161	1.98047
796.054	4.30884
798.946	6.43665
801.839	6.50207
804.732	8.15295
807.625	1.94763
810.517	0.209229
813.41	0.398438
816.303	2.97131
819.195	1.86987
822.088	1.17542
824.981	1.10266
827.873	0.612915
830.766	6.30005
833.659	5.39917
836.552	9.94031
839.444	21.5156
842.337	33.4476
845.23	44.1915
848.122	33.6075
851.015	37.038
853.908	61.41
856.8	87.217
859.693	108.561
862.586	130.831
865.479	145.96
868.371	105.122
871.264	54.5815
874.157	24.3997
877.049	10.3849
879.942	8.66931
882.835	9.60156
885.727	1.08423
888.62	0.112915
891.513	3.91418
894.405	15.6007
897.298	19.6902
900.191	25.7911
903.083	29.0862
905.976	37.1685
908.869	54.7647
911.762	69.3774
914.654	55.5819
917.547	30.3311
920.44	19.5566
923.332	10.3643
926.225	4.01306
929.118	2.0083
932.01	2.03613
934.903	7.5542
937.796	22.1157
940.689	33.5283
943.581	45.7842
946.474	67.6857
949.367	72.6406
952.259	39.1017
955.152	15.1711
958.045	5.46216
960.937	4.08057
963.83	8.85095
966.723	19.4575
969.615	37.6243
972.508	67.0789
975.401	60.2625
978.294	23.9043
981.186	11.1174
984.079	1.32996
986.972	0.157471
989.864	0.907104
992.757	0.487061
995.65	0.706665
998.543	2.35644
1001.43	0.706055
1004.33	3.73608
1007.22	0.569946
1010.11	3.03735
1013.01	8.59204
1015.9	15.0241
1018.79	18.1411
1021.68	25.8497
1024.58	40.7289
1027.47	68.4946
1030.36	98.0243
1033.26	69.7949
1036.15	29.4507
1039.04	19.3697
1041.93	9.81116
1044.83	9.57556
1047.72	5.32959
1050.61	10.9602
1053.5	16.2771
1056.4	8.32983
1059.29	6.93408
1062.18	6.05359
1065.08	3.39624
1067.97	2.27759
1070.86	6.07519
1073.75	6.1842
1076.64	1.06567
1079.54	4.39929
1082.43	4.27441
1085.32	3.9491
1088.22	3.34717
1091.11	6.14978
1094	1.30383
1096.89	8.83569
1099.79	4.51111
1102.68	0.25293
1105.57	2.13916
1108.46	0.023071
1111.36	6.04443
1114.25	5.58411
1117.14	6.04102
1120.04	5.51221
1122.93	6.57031
1125.82	1.75757
1128.71	3.93884
1131.61	1.40552
1134.5	1.68469
1137.39	6.34094
1140.29	8.43506
1143.18	7.25671
1146.07	9.41602
1148.96	5.15149
1151.86	8.03516
1154.75	7.1925
1157.64	6.86169
1160.53	9.39526
1163.43	8.54785
1166.32	8.46631
1169.21	10.1179
1172.1	13.5658
1175	10.7632
1177.89	12.3558
1180.78	8.40967
1183.67	6.8678
1186.57	9.13171
1189.46	11.6267
1192.35	7.03931
1195.25	9.61145
1198.14	11.6393
1201.03	13.0851
1203.92	9.54761
1206.82	6.33215
1209.71	7.28223
1212.6	8.97888
1215.49	6.24597
1218.39	4.9967
1221.28	5.46582
1224.17	2.55176
1227.07	0.847778
1229.96	0.221436
1232.85	3.70483
1235.74	4.12939
1238.64	3.59802
1241.53	0.216553
1244.42	1.01257
1247.32	0.809326
1250.21	0.436279
1253.1	0.996216
1255.99	5.63757
1258.88	2.521
1261.78	3.19409
1264.67	3.5061
1267.56	2.03052
1270.46	5.36438
1273.35	9.97095
1276.24	6.93933
1279.13	0.79248
1282.03	0.329224
