Measurement: Raman, 780 nm, unoriented, Raman Data Processed
Mineral: Nifontovite
Rruff sample: R080138
Ideal chemistry: Ca_3_[BO(OH)_2_]_6_2H_2_O
Locality: Charcas, San Luis Potosi, Mexico
Source: Marcus Origlieri
Description: Colorless prismatic crystal
Raman shift (cm-1)	intensity
110.657	0
114.032	10.7862
117.407	47.4631
120.782	90.9073
124.157	83.0079
127.531	52.0573
130.906	25.5667
134.281	37.0904
137.656	42.4564
141.031	25.1494
144.405	3.43268
147.78	13.1525
151.155	3.52094
154.53	3.55486
157.905	0.923946
161.28	12.05
164.654	8.08463
168.029	17.9111
171.404	18.4057
174.779	2.79234
178.154	1.33402
181.529	3.01461
184.903	11.2018
188.278	21.3372
191.653	15.9343
195.028	11.8812
198.403	14.5966
201.777	18.2916
205.152	22.2545
208.527	40.1605
211.902	60.2844
215.277	44.4013
218.651	37.2385
222.026	46.2554
225.401	35.9783
228.776	18.2767
232.151	8.72018
235.526	2.28272
238.9	0.100815
242.275	0.745108
245.65	0.458157
249.025	1.9346
252.4	3.19399
255.774	8.15586
259.149	14.5855
262.524	18.8867
265.899	21.0086
269.274	27.7536
272.649	28.7995
276.023	22.0084
279.398	9.75099
282.773	8.63997
286.148	9.01262
289.523	11.1316
292.897	18.5456
296.272	31.2873
299.647	47.3328
303.022	55.5788
306.397	52.926
309.772	29.4202
313.147	10.3587
316.521	4.02862
319.896	4.49364
323.271	1.72532
326.646	1.70365
330.021	0.911549
333.395	0.038063
336.77	0.653553
340.145	3.81908
343.52	10.1565
346.895	13.3496
350.269	10.9258
353.644	10.594
357.019	13.4355
360.394	24.8804
363.769	45.9543
367.144	67.8452
370.518	65.2676
373.893	42.7092
377.268	26.1881
380.643	24.363
384.018	28.1869
387.392	35.1698
390.767	31.6029
394.142	23.2665
397.517	22.6303
400.892	27.0398
404.267	31.6144
407.641	41.6352
411.016	63.5686
414.391	104.559
417.766	129.273
421.141	107.123
424.515	88.1089
427.89	63.5432
431.265	47.0153
434.64	34.7067
438.015	28.0546
441.39	25.7011
444.764	15.7313
448.139	6.97909
451.514	3.01548
454.889	0.191631
458.264	0.33176
461.639	1.15284
465.013	0.754215
468.388	0.048742
471.763	0.656164
475.138	0.084166
478.513	0.883295
481.887	0.397636
485.262	0.957134
488.637	0.685829
492.012	1.80669
495.387	2.32832
498.762	2.54936
502.136	3.78972
505.511	4.60655
508.886	5.4026
512.261	7.05812
515.636	8.25285
519.01	11.8762
522.385	15.2909
525.76	21.4904
529.135	31.4663
532.51	46.5876
535.885	66.8254
539.259	82.809
542.634	81.7012
546.009	68.7348
549.384	59.1794
552.759	64.936
556.133	74.345
559.508	63.298
562.883	46.3779
566.258	41.9497
569.633	48.7288
573.008	50.1474
576.382	31.477
579.757	14.9399
583.132	5.4675
586.507	1.83331
589.882	0.378283
593.256	0.126074
596.631	0.291485
600.006	0.058107
603.381	0.956099
606.756	1.00431
610.13	1.06686
613.505	0.54977
616.88	0.733719
620.255	4.79014
623.63	11.6286
627.005	20.7649
630.379	28.8179
633.754	37.0387
637.129	49.7265
640.504	72.2591
643.879	120.486
647.254	229.999
650.628	390.648
654.003	311.903
657.378	127.289
660.753	55.5088
664.128	30.1345
667.502	18.1827
670.877	13.5768
674.252	11.3648
677.627	10.4869
681.002	12.3217
684.376	12.5618
687.751	13.9484
691.126	15.4246
694.501	17.4811
697.876	21.2876
701.251	29.2758
704.625	42.4656
708	62.6151
711.375	87.9553
714.75	117.758
718.125	130.591
721.5	111.499
724.874	75.8431
728.249	42.9889
731.624	26.2311
734.999	16.7513
738.374	11.5773
741.749	9.89352
745.123	9.01643
748.498	7.87845
751.873	5.17513
755.248	4.34274
758.623	1.45881
761.997	1.25698
765.372	0.361723
768.747	0.951033
772.122	1.77452
775.497	0.264841
778.871	0.200014
782.246	1.18818
785.621	2.13635
788.996	4.45665
792.371	8.96984
795.745	10.8885
799.12	15.1152
802.495	18.0002
805.87	18.576
809.245	15.9352
812.62	13.4215
815.994	11.0712
819.369	10.2944
822.744	8.88945
826.119	7.81057
829.494	5.87541
832.869	4.94296
836.243	3.00355
839.618	1.63757
842.993	0.921503
846.368	0.711401
849.743	0.356707
853.117	0.381268
856.492	0.276932
859.867	0.106425
863.242	0.130848
866.617	0.385611
869.992	0.482237
873.366	0.117122
876.741	1.32152
880.116	2.09162
883.491	4.10554
886.866	6.36299
890.24	9.29432
893.615	9.59688
896.99	8.96095
900.365	8.47319
903.74	7.43882
907.115	6.60874
910.489	6.6064
913.864	6.39332
917.239	5.44763
920.614	5.22206
923.989	4.57816
927.364	5.22533
930.738	5.39753
934.113	4.58077
937.488	4.16537
940.863	2.27819
944.238	0.755806
947.612	0.738979
950.987	0.591436
954.362	0.001083
957.737	0.231655
961.112	0.294762
964.486	0.952972
967.861	1.5168
971.236	2.79965
974.611	2.18722
977.986	1.98288
981.361	2.53479
984.735	3.20651
988.11	2.55839
991.485	3.22335
994.86	2.301
998.235	2.43473
1001.61	2.56829
1004.98	3.05566
1008.36	4.13058
1011.73	4.24797
1015.11	5.91618
1018.48	6.47931
1021.86	7.16742
1025.23	7.9996
1028.61	7.27514
1031.98	6.69639
1035.36	6.58978
1038.73	5.28184
1042.11	4.32566
1045.48	3.31423
1048.86	1.1325
1052.23	0.744058
1055.61	0.589297
1058.98	0.503289
1062.36	0.655236
1065.73	0.555304
1069.11	0.260095
1072.48	1.19738
1075.86	0.577222
1079.23	0.690333
1082.61	0.481629
1085.98	0.250208
1089.36	0.89019
1092.73	1.12331
1096.1	1.44511
1099.48	1.76801
1102.85	2.39973
1106.23	2.76483
1109.6	2.74375
1112.98	2.74357
1116.35	2.93361
1119.73	1.79798
1123.1	0.690281
1126.48	0.767006
1129.85	0.115427
1133.23	1.18437
1136.6	1.95022
1139.98	1.65305
1143.35	3.35711
1146.73	2.80219
1150.1	3.42324
1153.48	2.889
1156.85	2.51232
1160.23	2.29368
1163.6	0.959032
1166.98	1.46906
1170.35	2.26681
1173.72	1.97106
1177.1	3.38104
1180.47	4.03334
1183.85	4.09751
1187.22	3.75984
1190.6	3.75337
1193.97	2.09707
1197.35	1.91993
1200.72	2.93253
1204.1	2.72153
1207.47	2.73496
1210.85	2.67438
1214.22	2.57729
1217.6	2.34518
1220.97	4.36045
1224.35	4.93087
1227.72	6.76486
1231.1	7.71513
1234.47	7.61898
1237.85	7.78182
1241.22	4.94377
1244.6	3.51756
1247.97	2.35292
1251.35	1.05514
1254.72	0.231025
1258.1	0.425408
1261.47	0.011852
1264.85	0.013908
1268.22	0.3981
1271.6	0.729362
1274.97	0.973481
1278.35	0.313472
1281.72	0.975372
1285.09	0.050705
