Measurement: Raman, 532 nm, unoriented, Raman Data Processed
Mineral: Nifontovite
Rruff sample: R080138
Ideal chemistry: Ca_3_[BO(OH)_2_]_6_2H_2_O
Locality: Charcas, San Luis Potosi, Mexico
Source: Marcus Origlieri
Description: Colorless prismatic crystal
Raman shift (cm-1)	intensity
110.293	0
113.667	11.8983
117.042	70.2357
120.417	159.486
123.792	121.33
127.167	59.3687
130.541	35.3302
133.916	47.3249
137.291	64.9101
140.666	33.7848
144.041	1.03119
147.416	15.753
150.79	2.39555
154.165	2.08812
157.54	12.1188
160.915	32.1429
164.29	28.7265
167.664	61.9638
171.039	65.2062
174.414	10.4957
177.789	0.875206
181.164	12.8603
184.538	38.4202
187.913	57.3238
191.288	34.687
194.663	14.436
198.038	15.3172
201.412	17.6472
204.787	24.3272
208.162	40.0128
211.537	55.451
214.912	52.2687
218.287	60.684
221.661	60.9848
225.036	43.0649
228.411	26.4716
231.786	10.5181
235.161	0.636322
238.536	4.66472
241.91	2.53717
245.285	2.87866
248.66	11.9502
252.035	26.5946
255.41	49.6905
258.784	79.9752
262.159	91.301
265.534	90.7289
268.909	93.6228
272.284	90.5833
275.659	65.1462
279.033	24.2568
282.408	12.1608
285.783	12.0257
289.158	17.1943
292.533	28.8709
295.907	47.0897
299.282	64.0786
302.657	69.9114
306.032	65.5192
309.407	33.6257
312.781	17.677
316.156	22.5177
319.531	31.6736
322.906	21.615
326.281	1.44033
329.656	0.267677
333.03	0.955055
336.405	6.07741
339.78	0.502068
343.155	12.9307
346.53	13.9162
349.904	9.11738
353.279	12.018
356.654	23.2975
360.029	46.7505
363.404	84.7554
366.779	121.393
370.153	117.054
373.528	78.0286
376.903	55.1671
380.278	55.7351
383.653	66.3867
387.027	77.2774
390.402	66.5753
393.777	53.9044
397.152	55.9858
400.527	70.8824
403.901	90.1993
407.276	125.072
410.651	176.125
414.026	247.468
417.401	306.062
420.776	339.769
424.15	331.945
427.525	261.73
430.9	201.482
434.275	153.816
437.65	129.077
441.024	115.116
444.399	71.5108
447.774	37.0014
451.149	17.9831
454.524	8.86866
457.899	3.71958
461.273	1.01508
464.648	1.13086
468.023	2.12914
471.398	1.60867
474.773	1.13526
478.147	1.19745
481.522	0.346939
484.897	1.88842
488.272	2.34253
491.647	4.4433
495.022	6.45121
498.396	7.56816
501.771	9.75198
505.146	12.2206
508.521	15.9018
511.896	22.4518
515.27	29.7825
518.645	43.2666
522.02	61.6801
525.395	88.8836
528.77	126.237
532.145	171.841
535.519	227.436
538.894	256.224
542.269	234.04
545.644	187.156
549.019	156.155
552.394	157.601
555.768	159.359
559.143	141.734
562.518	125.231
565.893	127.494
569.268	147.079
572.642	141.866
576.017	85.5736
579.392	37.6578
582.767	12.8885
586.142	1.65841
589.516	2.07135
592.891	1.83327
596.266	1.55639
599.641	0.144493
603.016	0.885849
606.39	1.60219
609.765	1.73569
613.14	5.69911
616.515	17.9926
619.89	36.2096
623.265	61.1163
626.639	95.1932
630.014	127.912
633.389	172.475
636.764	267.236
640.139	407.31
643.514	619.507
646.888	989.79
650.263	1349.32
653.638	967.21
657.013	384.534
660.388	160.311
663.762	77.5961
667.137	40.0544
670.512	21.7627
673.887	12.5309
677.262	8.96876
680.636	8.15278
684.011	11.5974
687.386	15.7468
690.761	24.9184
694.136	38.3867
697.511	62.0446
700.885	101.56
704.26	162.392
707.635	238.743
711.01	334.242
714.385	418.261
717.76	437.405
721.134	359.649
724.509	242.78
727.884	146.347
731.259	88.0638
734.634	57.9968
738.008	41.3969
741.383	34.4413
744.758	28.9695
748.133	24.4272
751.508	17.0139
754.882	11.9289
758.257	4.73814
761.632	0.488525
765.007	0.916573
768.382	3.8856
771.756	3.28951
775.131	1.03393
778.506	2.54092
781.881	5.82252
785.256	14.488
788.631	23.3815
792.005	37.2022
795.38	52.0436
798.755	68.6723
802.13	84.222
805.505	82.9415
808.88	66.3346
812.254	52.5277
815.629	46.2365
819.004	41.9393
822.379	37.5266
825.754	31.1049
829.128	24.5043
832.503	17.6081
835.878	10.2038
839.253	7.11301
842.628	3.48431
846.003	1.73814
849.377	0.750828
852.752	0.278568
856.127	0.510483
859.502	0.630569
862.877	0.933842
866.251	1.25991
869.626	0.596497
873.001	4.03094
876.376	8.56148
879.751	15.145
883.125	24.4403
886.5	34.7842
889.875	39.9085
893.25	39.0734
896.625	35.7246
900	33.7611
903.374	32.0479
906.749	32.4027
910.124	32.5339
913.499	32.0796
916.874	28.519
920.249	26.2041
923.623	25.1726
926.998	24.0785
930.373	22.4221
933.748	19.6854
937.123	14.3946
940.497	9.06821
943.872	3.86229
947.247	1.4637
950.622	0.595718
953.997	1.13121
957.371	2.42652
960.746	3.90728
964.121	4.05282
967.496	4.83939
970.871	4.59594
974.245	5.19473
977.62	5.27159
980.995	5.22499
984.37	5.66826
987.745	5.99778
991.12	4.24973
994.494	3.17231
997.869	2.91671
1001.24	4.44448
1004.62	7.7426
1007.99	11.7383
1011.37	15.5441
1014.74	17.723
1018.12	20.7053
1021.49	22.7723
1024.87	22.8862
1028.24	21.1921
1031.62	18.58
1034.99	18.5154
1038.37	15.7791
1041.74	11.9388
1045.12	7.21397
1048.49	2.46711
1051.87	0.294003
1055.24	0.16869
1058.62	2.33106
1061.99	1.99332
1065.37	1.19241
1068.74	0.013363
1072.12	2.30838
1075.49	3.61308
1078.87	4.91174
1082.24	5.673
1085.62	6.92083
1088.99	9.31081
1092.36	11.8308
1095.74	14.9237
1099.11	21.5972
1102.49	24.8816
1105.86	28.4169
1109.24	30.4272
1112.61	26.6562
1115.99	22.1018
1119.36	16.788
1122.74	13.1925
1126.11	9.24762
1129.49	8.48718
1132.86	9.63859
1136.24	11.8841
1139.61	13.4865
1142.99	15.8575
1146.36	15.3488
1149.74	15.6284
1153.11	14.1599
1156.49	10.8168
1159.86	8.09696
1163.23	7.33077
1166.61	5.9024
1169.98	6.79831
1173.36	9.06625
1176.73	12.1354
1180.11	14.5557
1183.48	14.405
1186.86	11.6126
1190.23	9.83464
1193.61	8.49892
1196.98	7.75604
1200.36	9.32524
1203.73	10.9037
1207.11	9.78834
1210.48	9.82391
1213.86	9.38959
1217.23	10.8756
1220.61	14.9291
1223.98	20.6101
1227.36	23.9898
1230.73	27.4485
1234.11	26.995
1237.48	22.0287
1240.86	15.9963
1244.23	10.4262
1247.61	5.67358
1250.98	3.15421
1254.36	0.493916
1257.73	0.002373
1261.11	0.558548
1264.48	0.774372
1267.86	0.002089
1271.23	1.00027
1274.6	1.90343
1277.98	2.84778
1281.35	2.43221
1284.73	2.16467
1288.1	1.52334
1291.48	0.350779
