Measurement: Raman, 780 nm, unoriented, Raman Data Processed
Mineral: Niksergievite
Rruff sample: R060894
Ideal chemistry: Ba_2_Al_3_(Si,Al)_4_O_10_(CO_3_)(OH)_6_nH_2_O
Locality: Tekeli mine, Karatau, Kazakhstan
Source: Michael Scott
Description: Pale blue to colorless lamellar aggregate
Raman shift (cm-1)	intensity
251.699	0
254.592	121.037
257.484	119.594
260.377	186.66
263.27	187.971
266.162	149.07
269.055	83.0117
271.948	132.191
274.841	163.697
277.733	1.79492
280.626	222.059
283.519	286.738
286.411	397.732
289.304	113.824
292.197	87.2949
295.089	21.123
297.982	25.248
300.875	246.863
303.767	355.695
306.66	446.016
309.553	407.965
312.446	229.685
315.338	182.191
318.231	102.197
321.124	50.5508
324.016	250.742
326.909	342.055
329.802	380.912
332.695	399.75
335.587	160.453
338.48	131.953
341.373	42.4727
344.265	102.953
347.158	146.867
350.051	118.93
352.943	201.551
355.836	250.932
358.729	240.606
361.622	35.3965
364.514	14.9043
367.407	12.1211
370.3	103.846
373.192	273.438
376.085	182.008
378.978	158.059
381.87	208.992
384.763	66.8945
387.656	103.541
390.549	39.3594
393.441	93.3711
396.334	267.473
399.227	279.195
402.119	171.891
405.012	130.797
407.905	107.562
410.798	17.9199
413.69	151.533
416.583	213.752
419.476	254.69
422.368	192.004
425.261	141.184
428.154	212.861
431.046	74.3477
433.939	53.5957
436.832	87.8496
439.724	110.889
442.617	79.8945
445.51	255.637
448.403	252.998
451.295	61.2988
454.188	27.2344
457.081	34.043
459.973	101.494
462.866	87.416
465.759	182.76
468.651	166.072
471.544	166.707
474.437	114.607
477.33	26.5371
480.222	69.8731
483.115	33.6582
486.008	26.5117
488.9	130.182
491.793	116.867
494.686	152.828
497.579	158.367
500.471	67.6016
503.364	79.209
506.257	47.5586
509.149	114.426
512.042	150.422
514.935	174.721
517.827	238.603
520.72	194.258
523.613	132.121
526.505	169.717
529.398	77.6152
532.291	85.8691
535.184	178.371
538.076	350.4
540.969	287.56
543.862	168.184
546.754	133.051
549.647	107.807
552.54	56.6953
555.433	127.609
558.325	202.334
561.218	151.869
564.111	241.95
567.003	96.8965
569.896	58.4355
572.789	12.4678
575.681	18.6357
578.574	141.014
581.467	23.4023
584.36	171.477
587.252	67.3037
590.145	65.6309
593.038	23.6934
595.93	68.9941
598.823	114.263
601.716	64.5195
604.609	71.2959
607.501	82.0859
610.394	12.3389
613.287	53.0947
616.179	154.69
619.072	53.7764
621.965	9.40234
624.857	92.7852
627.75	26.5254
630.643	96.7529
633.535	24.5664
636.428	169.052
639.321	193.092
642.214	28.2734
645.106	59.7539
647.999	111.573
650.892	12.7266
653.784	17.4443
656.677	22.0684
659.57	135.137
662.462	87.1973
665.355	73.8906
668.248	116.011
671.141	12.9834
674.033	115.82
676.926	85.6523
679.819	151.161
682.711	66.1133
685.604	34.3135
688.497	146.166
691.389	144.967
694.282	110.07
697.175	219.13
700.068	227.5
702.96	200.46
705.853	144.402
708.746	90.5283
711.638	78.9053
714.531	113.87
717.424	186.647
720.317	175.615
723.209	140.856
726.102	128.764
728.995	17.8086
731.887	39.3213
734.78	142.214
737.673	16.2119
740.565	66.6934
743.458	148.31
746.351	3.88965
749.244	175.098
752.136	72.6836
755.029	96.9678
757.922	99.1221
760.814	89.2363
763.707	83.0059
766.6	83.9228
769.492	78.4004
772.385	93.6728
775.278	68.3897
778.17	19.3223
781.063	112.685
783.956	121.617
786.849	177.968
789.741	128.883
792.634	154.616
795.527	55.0664
798.419	69.0596
801.312	17.501
804.205	64.3867
807.097	84.4424
809.99	68.9287
812.883	124.751
815.776	112.875
818.668	98.0322
821.561	77.4775
824.454	45.4121
827.346	140.545
830.239	64.458
833.132	64.5312
836.024	195.544
838.917	152.23
841.81	80.1299
844.703	31.8662
847.595	140.094
850.488	17.0898
853.381	106.246
856.273	41.6221
859.166	9.80957
862.059	89.8897
864.952	41.7256
867.844	91.6894
870.737	52.8506
873.63	30.7363
876.522	75.8535
879.415	39.5332
882.308	88.2012
885.2	103.579
888.093	55.5967
890.986	131.707
893.879	25.4287
896.771	19.1963
899.664	46.4102
902.557	79.1231
905.449	113.834
908.342	58.8691
911.235	107.341
914.127	172.654
917.02	76.1562
919.913	57.5029
922.806	52.9277
925.698	42.3975
928.591	10.2354
931.484	121.989
934.376	105.153
937.269	108.225
940.162	33.5742
943.054	57.8193
945.947	115.591
948.84	36.8369
951.732	91.2949
954.625	119.686
957.518	28.7178
960.411	144.742
963.303	59.6397
966.196	187.426
969.089	100.701
971.981	150.647
974.874	177.278
977.767	100.233
980.659	164.641
983.552	162.148
986.445	75.7051
989.338	71.3262
992.23	76.9902
995.123	31.9805
998.016	86.5107
1000.91	123.795
1003.8	154.824
1006.69	144.653
1009.59	128.385
1012.48	98.1269
1015.37	206.581
1018.26	123.959
1021.16	53.8848
1024.05	37.1387
1026.94	48.8008
1029.84	103.288
1032.73	51.9648
1035.62	174.345
1038.51	120.475
1041.41	55.1777
1044.3	94.9932
1047.19	106.786
1050.08	26.1201
1052.98	111.012
1055.87	166.44
1058.76	55.2012
1061.65	102.542
1064.55	28.3809
1067.44	50.3037
1070.33	81.8955
1073.23	60.6397
1076.12	96.7734
1079.01	122.606
1081.9	141.464
1084.8	137.567
1087.69	231.738
1090.58	186.787
1093.47	320.228
1096.37	305.797
1099.26	223.999
1102.15	120.752
1105.05	104.346
1107.94	75.7847
1110.83	98.9956
1113.72	121.156
1116.62	88.9477
1119.51	24.0586
1122.4	79.0024
1125.3	40.4824
1128.19	113.795
1131.08	40.0532
1133.97	50.6875
1136.87	34.1909
1139.76	67.9356
1142.65	4.24902
1145.54	32.7842
1148.44	25.1494
1151.33	51.9575
1154.22	36.0674
1157.11	22.4858
1160.01	42.9951
1162.9	67.8262
1165.79	3.05566
1168.68	107.605
1171.58	129.173
1174.47	34.4815
1177.36	142.429
1180.26	222.34
1183.15	166.956
1186.04	224.218
1188.93	392.189
1191.83	401.847
1194.72	543.328
1197.61	627.592
1200.51	671.46
1203.4	627.658
1206.29	734.163
1209.18	801.434
1212.08	861.87
1214.97	831.495
1217.86	863.823
1220.75	848.213
1223.65	811.873
1226.54	741.222
1229.43	601.537
1232.32	608.968
1235.22	301.775
1238.11	263.276
1241	197.233
1243.89	204.356
1246.79	223.333
1249.68	98.3584
1252.57	97.0977
1255.47	31.2715
1258.36	41.8267
1261.25	39.2427
1264.14	32.4365
1267.04	50.1128
1269.93	2.01465
1272.82	0
