Measurement: Raman, 780 nm, unoriented, Raman Data Processed
Mineral: Nioboaeschynite-(Ce)
Rruff sample: R110056
Ideal chemistry: (Ce,Ca)(Nb,Ti)_2_(O,OH)_6_
Locality: Upper Fir carbonatite, Kamloops mining division, British Columbia, Canada
Source: Don Doell
Description: Black platy crystals and cleavages, massive
Measured chemistry: (Ce_0.35_Ca_0.25_Nd_0.14_La_0.12_Th_0.06_Pr_0.04_Fe_0.03_Sm_0.02_Y_0.02_Gd_0.01_Sr_0.01_)_Σ=1.05_(Nb_1.13_Ti_0.86_)_Σ=1.99_O_6_
Raman shift (cm-1)	intensity
206.829	0
209.722	3.95721
212.615	3.97076
215.507	6.76379
218.4	3.32342
221.293	11.6951
224.186	4.8291
227.078	3.42328
229.971	0.402954
232.864	2.0014
235.756	0.595703
238.649	2.45557
241.542	5.2594
244.435	8.92578
247.327	16.2543
250.22	23.4996
253.113	22.7304
256.005	28.6321
258.898	41.844
261.791	54.1079
264.683	61.4463
267.576	69.8606
270.469	69.1054
273.361	75.2432
276.254	78.0673
279.147	78.9313
282.04	75.5464
284.932	71.5123
287.825	63.9766
290.718	52.4208
293.61	48.837
296.503	35.423
299.396	27.8519
302.288	13.6065
305.181	1.89673
308.074	2.38721
310.967	0.140625
313.859	1.28638
316.752	10.8514
319.645	22.9397
322.537	36.7269
325.43	52.4402
328.323	80.163
331.216	107.53
334.108	142.498
337.001	178.996
339.894	207.431
342.786	246.023
345.679	279.783
348.572	300.867
351.464	311.101
354.357	319.717
357.25	317.554
360.142	312.138
363.035	286.202
365.928	254.978
368.821	228.555
371.713	193.363
374.606	156.159
377.499	129.032
380.391	87.7849
383.284	64.3881
386.177	35.1959
389.07	20.42
391.962	8.02417
394.855	4.54053
397.748	6.12256
400.64	11.9744
403.533	4.56677
406.426	1.38623
409.318	10.8648
412.211	26.6464
415.104	44.7026
417.997	59.1172
420.889	91.155
423.782	103.425
426.675	127.777
429.567	145.815
432.46	170.438
435.353	195.614
438.245	228.628
441.138	255.825
444.031	285.819
446.923	309.129
449.816	339.082
452.709	355.256
455.602	382.751
458.494	398.48
461.387	404.951
464.28	410.28
467.172	407.81
470.065	391.493
472.958	370.9
475.851	339.816
478.743	300.389
481.636	258.425
484.529	223.021
487.421	172.373
490.314	140.019
493.207	107.33
496.099	74.7173
498.992	56.9873
501.885	32.1616
504.777	26.4773
507.67	11.406
510.563	11.2456
513.456	10.5972
516.348	16.1943
519.241	15.7068
522.134	21.9802
525.026	37.6145
527.919	57.5906
530.812	68.0908
533.705	81.3981
536.597	91.1704
539.49	95.1094
542.383	95.8262
545.275	86.7041
548.168	84.041
551.061	78.8746
553.953	80.5186
556.846	63.3706
559.739	60.2989
562.631	45.2128
565.524	36.6938
568.417	29.8317
571.31	13.4952
574.202	7.40869
577.095	4.03845
579.988	4.66565
582.88	7.4696
585.773	1.19934
588.666	6.20325
591.558	8.40894
594.451	2.76599
597.344	3.04895
600.237	3.90784
603.129	8.45984
606.022	19.4497
608.915	32.1167
611.807	40.29
614.7	61.1805
617.593	79.6195
620.486	94.4349
623.378	118.861
626.271	139.808
629.164	169.114
632.056	189.318
634.949	220.346
637.842	240.261
640.734	262.186
643.627	277.81
646.52	301.185
649.413	317.374
652.305	333.46
655.198	337.538
658.091	349.318
660.983	347.164
663.876	356.613
666.769	355.096
669.661	349.397
672.554	339.426
675.447	332.818
678.34	314.666
681.232	298.302
684.125	283.683
687.018	280.328
689.91	247.918
692.803	229.571
695.696	202.624
698.588	184.376
701.481	162.597
704.374	151.987
707.266	126.389
710.159	111.849
713.052	91.3822
715.945	82.3867
718.837	64.9343
721.73	54.5211
724.623	38.2747
727.515	33.314
730.408	23.4648
733.301	16.6803
736.193	10.3323
739.086	1.09485
741.979	0.339844
744.872	6.22436
747.764	6.0155
750.657	5.71216
753.55	3.68103
756.442	0.611572
759.335	0.526123
762.228	12.6945
765.12	7.20862
768.013	15.723
770.906	14.0925
773.799	26.3296
776.691	31.6188
779.584	35.7366
782.477	40.6046
785.369	48.5248
788.262	54.2747
791.155	52.1873
794.048	61.0292
796.94	62.6129
799.833	53.0787
802.726	59.0472
805.618	54.9225
808.511	52.3635
811.404	45.2956
814.296	42.3425
817.189	45.8118
820.082	42.0074
822.975	36.0408
825.867	31.7429
828.76	25.421
831.653	26.9382
834.545	22.4333
837.438	18.7754
840.331	14.2663
843.223	9.22321
846.116	10.438
849.009	3.83502
851.902	3.39392
854.794	3.65906
857.687	0.963989
860.58	0.346008
863.472	1.21594
866.365	2.41333
869.258	0.341736
872.15	2.98462
875.043	0.863342
877.936	1.52246
880.829	4.41321
883.721	5.30109
886.614	5.48688
889.507	11.0978
892.399	10.5104
895.292	15.5129
898.185	14.4648
901.077	17.8342
903.97	19.6021
906.863	23.1045
909.756	23.0129
912.648	26.7175
915.541	27.0765
918.434	27.8342
921.326	26.425
924.219	25.3149
927.112	20.8025
930.005	22.8444
932.897	19.766
935.79	17.1515
938.683	16.9882
941.575	15.6967
944.468	11.4729
947.361	9.94961
950.253	11.1271
953.146	8.60941
956.039	9.40109
958.932	4.75516
961.824	2.01929
964.717	3.13776
967.61	0.480438
970.502	0.579437
973.395	1.11963
976.288	2.65109
979.18	1.03018
982.073	0.511841
984.966	0.736206
987.859	1.43817
990.751	2.12881
993.644	0.941528
996.537	1.12283
999.429	0.296417
1002.32	4.13736
1005.22	2.55411
1008.11	1.8558
1011	3.71008
1013.89	2.03775
1016.78	4.86231
1019.68	2.63049
1022.57	4.11871
1025.46	1.86575
1028.36	1.08106
1031.25	2.81708
1034.14	1.28748
1037.03	2.62537
1039.93	2.67917
1042.82	0.878998
1045.71	2.42984
1048.61	1.33472
1051.5	1.2157
1054.39	0.054962
1057.28	0.92395
1060.18	1.84702
1063.07	0.916962
1065.96	1.2164
1068.85	1.11478
1071.75	2.98254
1074.64	5.61197
1077.53	3.58502
1080.42	4.33661
1083.32	6.3309
1086.21	5.92169
1089.1	6.79376
1092	7.94904
1094.89	7.65051
1097.78	10.4254
1100.67	12.0251
1103.57	10.5088
1106.46	13.1734
1109.35	15.135
1112.24	17.5942
1115.14	15.5435
1118.03	14.6683
1120.92	18.9477
1123.82	22.6566
1126.71	19.9531
1129.6	24.8133
1132.49	27.606
1135.39	27.8114
1138.28	28.2965
1141.17	29.8224
1144.06	31.1293
1146.96	32.8458
1149.85	36.9153
1152.74	33.3078
1155.63	35.8497
1158.53	36.712
1161.42	34.9787
1164.31	40.005
1167.21	39.9551
1170.1	52.3788
1172.99	59.9813
1175.88	58.7968
1178.78	58.3256
1181.67	59.7033
1184.56	65.1735
1187.45	61.7455
1190.35	61.9079
1193.24	60.1551
1196.13	58.585
1199.03	54.1702
1201.92	52.4288
1204.81	44.2878
1207.7	42.1061
1210.6	41.0084
1213.49	34.7036
1216.38	24.0488
1219.27	15.3678
1222.17	8.30823
1225.06	5.5387
1227.95	18.234
1230.85	4.62976
1233.74	17.2318
1236.63	33.8148
1239.52	36.5887
1242.42	44.5127
1245.31	56.4153
1248.2	65.3577
1251.09	66.3711
1253.99	62.5256
1256.88	57.5686
1259.77	41.8462
1262.66	37.7183
1265.56	38.8586
1268.45	29.7117
1271.34	15.6704
1274.24	9.88477
1277.13	12.4646
1280.02	10.6753
1282.91	12.4802
