Measurement: Raman, 532 nm, unoriented, Raman Data Processed
Mineral: Niocalite
Rruff sample: R070150
Ideal chemistry: Ca_7_Nb(Si_2_O_7_)_2_O_3_F
Locality: MolyCorp Trench, Oka, Deux-Montagnes County, Quebec, Canada
Source: James Shigley
Description: Yellow prismatic crystals on calcite matrix
Measured chemistry: (Ca_6.20_Na_0.16_Mn_0.12_Mg_0.07_Fe_0.06_Ce_0.03_La_0.01_Nd_0.01_Pr_0.01_)_Σ=6.67_(Nb_0.99_Zr_0.03_Ta_0.02_Ti_0.01_)_Σ=1.05_(Si_2_O_7_)_1.96_[O_3_F_0.37_(OH)_0.51_]_Σ=3.88_
Raman shift (cm-1)	intensity
140.539	0
143.914	0.062988
147.289	81.6167
150.664	297.399
154.039	586.667
157.413	618.228
160.788	561.085
164.163	505.693
167.538	427.742
170.913	357.073
174.287	155.953
177.662	54.0127
181.037	1.94531
184.412	1.39404
187.787	19.3472
191.162	116.302
194.536	90.397
197.911	195.599
201.286	288.088
204.661	455.259
208.036	563.979
211.411	692.061
214.785	666.374
218.16	678.22
221.535	546.952
224.91	361.553
228.285	200.605
231.659	37.5039
235.034	21.001
238.409	30.5098
241.784	203.097
245.159	233.156
248.534	415.65
251.908	702.854
255.283	999.423
258.658	1274.81
262.033	1386.23
265.408	1425.28
268.782	1292.14
272.157	1122.15
275.532	856.399
278.907	592.366
282.282	338.916
285.656	191.185
289.031	238.128
292.406	369.548
295.781	576.362
299.156	728.718
302.531	912.534
305.905	819.182
309.28	744.626
312.655	646.047
316.03	627.483
319.405	735.282
322.779	762.031
326.154	699.708
329.529	612.784
332.904	434.611
336.279	320.716
339.654	173.132
343.028	116.651
346.403	60.4619
349.778	101.259
353.153	80.8408
356.528	10.081
359.902	15.9502
363.277	29.7441
366.652	88.1533
370.027	212.243
373.402	308.412
376.777	478.268
380.151	628.419
383.526	907.506
386.901	1151.47
390.276	1466.38
393.651	1837.1
397.026	2317.85
400.4	2875.39
403.775	3252.05
407.15	3595.32
410.525	3732.31
413.9	3547.61
417.274	3178.42
420.649	2949.08
424.024	2695.62
427.399	2314.07
430.774	1922.16
434.149	1427.26
437.523	1087.42
440.898	928.881
444.273	822.718
447.648	687.938
451.023	605.799
454.397	389.755
457.772	255.267
461.147	233.561
464.522	125.909
467.897	192.664
471.272	0.292969
474.646	65.4639
478.021	27.1914
481.396	19.4375
484.771	100.438
488.146	211.227
491.52	220.523
494.895	296.055
498.27	383.649
501.645	414.154
505.02	626.4
508.395	811.43
511.769	986.281
515.144	1063.34
518.519	1151.53
521.894	1154.41
525.269	1164.49
528.643	1212.32
532.018	1448.87
535.393	1618.15
538.768	1902.74
542.143	1804.16
545.518	1616.07
548.892	1436.08
552.267	1347.96
555.642	1324.99
559.017	1164.26
562.392	1122.09
565.766	1135.08
569.141	1056.09
572.516	991.682
575.891	858.47
579.266	488.521
582.641	237.613
586.015	97.3301
589.39	10.7773
592.765	68.3799
596.14	51.0664
599.515	34.6885
602.889	46.8711
606.264	33.2822
609.639	97.4981
613.014	225.155
616.389	386.481
619.764	563.213
623.138	779.304
626.513	1083.6
629.888	1375.95
633.263	1547.41
636.638	1775.5
640.013	1891.65
643.387	2169.44
646.762	2668.03
650.137	3189.91
653.512	3856.75
656.886	4546.42
660.261	5214.31
663.636	5788.37
667.011	5959.51
670.386	5603.15
673.761	5041.39
677.135	4356.35
680.51	3819.41
683.885	3499.57
687.26	3061.33
690.635	2509.99
694.01	2040.78
697.384	1378
700.759	925.981
704.134	661.543
707.509	376.651
710.884	196.409
714.259	1.14844
717.633	127.237
721.008	131.056
724.383	76.0488
727.758	366.94
731.133	863.291
734.507	1919.89
737.882	3438.6
741.257	5546
744.632	8404.81
748.007	12312.1
751.381	16959
754.756	22127.1
758.131	27157.7
761.506	31528.6
764.881	34745.4
768.256	35379.7
771.63	32324.1
775.005	26452.6
778.38	20290.6
781.755	14513.8
785.13	9779.77
788.505	6308.71
791.879	3969.94
795.254	2499.33
798.629	1609.95
802.004	969.629
805.379	537.067
808.753	217.761
812.128	77.0811
815.503	66.2744
818.878	85.1992
822.253	65.4482
825.628	34.4629
829.002	268.815
832.377	673.006
835.752	1167.61
839.127	1694.89
842.502	1929.55
845.876	1969.18
849.251	1701.91
852.626	1440.36
856.001	1130.27
859.376	791.32
862.75	692.91
866.125	406.817
869.5	201.999
872.875	79.7734
876.25	8.69434
879.625	58.1318
882.999	110.855
886.374	32.4785
889.749	234.56
893.124	714.639
896.499	1422.27
899.874	2338.37
903.248	3675.63
906.623	5552.29
909.998	7595.05
913.373	9915.25
916.748	12167.2
920.122	12449
923.497	10259
926.872	7014.53
930.247	4512.92
933.622	3306.21
936.996	2552.59
940.371	2116.41
943.746	1742.29
947.121	1440.86
950.496	1374.03
953.871	1150.67
957.245	978.552
960.62	756.447
963.995	517.257
967.37	302.331
970.745	287.898
974.12	317.059
977.494	262.744
980.869	259.613
984.244	336.316
987.619	379.16
990.994	478.625
994.368	457.732
997.743	261.365
1001.12	154.945
1004.49	110.691
1007.87	61.1582
1011.24	104.379
1014.62	121.939
1017.99	26.3672
1021.37	1.01758
1024.74	54.584
1028.12	171.356
1031.49	169.578
1034.87	237.147
1038.24	354.709
1041.62	284.268
1044.99	418.1
1048.37	572.312
1051.74	705.303
1055.12	940.646
1058.49	1243.4
1061.87	1653.97
1065.24	1690.67
1068.61	1796.13
1071.99	1636.68
1075.36	1724.3
1078.74	2191.8
1082.11	2501.2
1085.49	3106.81
1088.86	2494.55
1092.24	1935.6
1095.61	1687.67
1098.99	1715.2
1102.36	1446.73
1105.74	1394.81
1109.11	1137.83
1112.49	954.727
1115.86	922.59
1119.24	803.955
1122.61	506.982
1125.99	519.225
1129.36	382.85
1132.74	324.455
1136.11	241.728
1139.49	138.322
1142.86	85.418
1146.23	44.9395
1149.61	72.0176
1152.98	26.0254
1156.36	71.793
1159.73	33.8184
1163.11	76.6953
1166.48	4.82422
1169.86	91.7832
1173.23	28.9512
1176.61	109.625
1179.98	49.3828
1183.36	37.2363
1186.73	12.1602
1190.11	185.381
1193.48	128.231
1196.86	34.3203
1200.23	129.141
1203.61	137.158
1206.98	263.375
1210.36	209.912
1213.73	192.016
1217.11	247.576
1220.48	208.92
1223.86	298.123
1227.23	216.975
1230.61	236.914
1233.98	291.83
1237.36	250.861
1240.73	264.912
1244.11	329.838
1247.48	314.955
1250.86	203.506
1254.23	250.285
1257.6	310.297
1260.98	395.283
1264.35	302.084
1267.73	305.562
1271.1	224.312
1274.48	181.674
1277.85	254.453
1281.23	261.981
1284.6	210.76
1287.98	188.139
1291.35	259.856
1294.73	201.051
1298.1	143.736
1301.48	55.2969
1304.85	91.4609
1308.23	110.967
1311.6	18.2559
1314.98	12.0605
