Measurement: Raman, 532 nm, unoriented, Raman Data Processed
Mineral: Nissonite
Rruff sample: R100068
Ideal chemistry: Cu_2_Mg_2_(PO_4_)_2_(OH)_2_5H_2_O
Locality: Boss mine, Goodsprings district, Clark County, Nevada, USA
Source: Bob Jenkins
Description: Pale blue bladed crystals associated with green malachite
Raman shift (cm-1)	intensity
142.561	0
145.936	39.564
149.31	634.697
152.685	1728.9
156.06	674.431
159.435	499.23
162.81	811.41
166.185	392.863
169.559	307.443
172.934	402.797
176.309	338.773
179.684	105.356
183.059	26.1035
186.433	30.2416
189.808	50.9141
193.183	176.624
196.558	61.0748
199.933	28.7841
203.308	102.731
206.682	209.122
210.057	402.007
213.432	725.813
216.807	1166.25
220.182	1055.62
223.556	594.989
226.931	542.839
230.306	390.36
233.681	366.009
237.056	464.99
240.43	442.942
243.805	424.881
247.18	532.1
250.555	748.159
253.93	688.828
257.305	343.688
260.679	162.115
264.054	70.9984
267.429	43.0406
270.804	63.4346
274.179	118.09
277.553	184.436
280.928	254.466
284.303	274.822
287.678	247.32
291.053	226.388
294.428	170.727
297.802	88.0416
301.177	19.4165
304.552	12.3646
307.927	20.1997
311.302	16.2854
314.676	3.17481
318.051	39.3164
321.426	80.698
324.801	134.263
328.176	194.403
331.55	222.868
334.925	229.478
338.3	278.401
341.675	357.108
345.05	402.795
348.425	344.635
351.799	233.459
355.174	144.964
358.549	89.6582
361.924	64.5588
365.299	52.6852
368.673	46.4832
372.048	52.207
375.423	61.8527
378.798	67.6117
382.173	36.6317
385.548	18.9482
388.922	2.67627
392.297	6.94556
395.672	14.9083
399.047	22.5024
402.422	12.9547
405.796	13.6389
409.171	46.6187
412.546	102.035
415.921	165.726
419.296	252.766
422.671	323.071
426.045	370.357
429.42	346.278
432.795	298.085
436.17	275.312
439.545	289.576
442.92	338.149
446.294	398.46
449.669	477.277
453.044	561.542
456.419	591.039
459.793	596.587
463.168	651.48
466.543	787.062
469.918	1013.2
473.293	1318.96
476.668	1650.05
480.042	1829.82
483.417	1672.56
486.792	1355.83
490.167	1162.42
493.542	1139.25
496.916	1240.6
500.291	1409.96
503.666	1544.33
507.041	1554.65
510.416	1371.28
513.791	939.127
517.165	520.363
520.54	285.547
523.915	154.213
527.29	86.1494
530.665	39.9523
534.04	14.9097
537.414	4.2707
540.789	15.3072
544.164	14.2301
547.539	16.0823
550.914	5.53247
554.288	11.1046
557.663	35.9781
561.038	66.4831
564.413	106.123
567.788	156.707
571.163	194.262
574.537	219.615
577.912	221.158
581.287	198.63
584.662	158.949
588.037	117.241
591.411	76.08
594.786	48.2029
598.161	31.884
601.536	23.8035
604.911	14.4871
608.285	12.4407
611.66	11.4487
615.035	9.8103
618.41	5.12622
621.785	4.18579
625.159	2.16321
628.534	3.23669
631.909	4.30093
635.284	0.34053
638.659	1.99805
642.034	4.29456
645.408	2.8197
648.783	1.92188
652.158	3.07544
655.533	7.15222
658.908	10.2784
662.283	9.1012
665.657	12.288
669.032	13.5769
672.407	14.9838
675.782	14.9988
679.157	15.0326
682.531	12.1405
685.906	13.551
689.281	13.6487
692.656	11.4399
696.031	17.3269
699.405	21.3962
702.78	12.1765
706.155	14.5856
709.53	20.0297
712.905	29.5072
716.28	29.322
719.654	35.5127
723.029	36.9645
726.404	40.7358
729.779	51.7017
733.154	65.1481
736.529	86.9759
739.903	104.736
743.278	137.153
746.653	167.025
750.028	197.465
753.403	204.387
756.777	174.879
760.152	134.69
763.527	94.8674
766.902	63.5538
770.277	44.896
773.652	30.2333
777.026	25.6127
780.401	18.7729
783.776	13.0654
787.151	11.24
790.526	4.2428
793.9	5.00305
797.275	2.31421
800.65	0.393433
804.025	0.91272
807.4	6.32361
810.774	8.08215
814.149	7.28906
817.524	6.47082
820.899	1.13708
824.274	2.30005
827.649	2.07019
831.023	11.9825
834.398	21.88
837.773	43.9
841.148	62.2877
844.523	98.4973
847.898	141.861
851.272	191.771
854.647	245.16
858.022	304.418
861.397	372.035
864.771	456.289
868.146	559.183
871.521	687.055
874.896	808.022
878.271	860.742
881.646	806.577
885.02	685.7
888.395	552.96
891.77	453.727
895.145	384.864
898.52	335.904
901.894	308.656
905.269	290.708
908.644	292.298
912.019	310.396
915.394	346.107
918.769	390.786
922.143	448.427
925.518	508.323
928.893	574.92
932.268	583.63
935.643	539.756
939.018	440.364
942.392	329.237
945.767	221.907
949.142	140.957
952.517	86.7716
955.892	48.8648
959.266	23.287
962.641	6.97925
966.016	3.82324
969.391	7.69934
972.766	13.7043
976.14	5.0011
979.515	3.62586
982.89	11.1589
986.265	28.326
989.64	61.4568
993.015	117.918
996.389	176.666
999.764	168.959
1003.14	132.02
1006.51	143.048
1009.89	187.3
1013.26	292.8
1016.64	455.905
1020.01	682.534
1023.39	979.654
1026.76	1101.46
1030.14	681.386
1033.51	280.495
1036.89	113.108
1040.26	40.2638
1043.64	12.201
1047.01	0.919495
1050.39	5.00891
1053.76	1.35681
1057.14	13.0778
1060.51	32.7691
1063.89	75.4159
1067.26	136.76
1070.63	220.035
1074.01	301.464
1077.38	256.932
1080.76	140.947
1084.13	71.2304
1087.51	32.8588
1090.88	16.0113
1094.26	27.2331
1097.63	48.5377
1101.01	87.3005
1104.38	110.177
1107.76	58.139
1111.13	13.0211
1114.51	1.22992
1117.88	0.728027
1121.26	15.9644
1124.63	34.9571
1128.01	80.4145
1131.38	162.358
1134.76	294.401
1138.13	487.156
1141.51	516.47
1144.88	275.628
1148.26	126.077
1151.63	71.8299
1155.01	40.7858
1158.38	29.7791
1161.76	13.4278
1165.13	7.84393
1168.51	9.21832
1171.88	6.74542
1175.26	4.91058
1178.63	0.419896
1182	0.975647
1185.38	3.16693
1188.75	0.576965
1192.13	0.845581
1195.5	0.274231
1198.88	3.50482
1202.25	0.101868
1205.63	3.34784
1209	4.31366
1212.38	4.33112
1215.75	5.00269
1219.13	5.42401
1222.5	6.07178
1225.88	4.8186
1229.25	11.7122
1232.63	7.50372
1236	8.08166
1239.38	8.23767
1242.75	6.83685
1246.13	8.05072
1249.5	11.5826
1252.88	11.4869
1256.25	8.65466
1259.62	6.65088
1263	8.32043
1266.38	8.60645
1269.75	7.06116
1273.12	3.20441
1276.5	0.34137
1279.87	1.36627
1283.25	6.14874
1286.62	0.889404
1290	1.72846
1293.37	4.26117
1296.75	3.69238
1300.12	5.33325
