Measurement: Raman, 532 nm, unoriented, Raman Data Processed
Mineral: Niter
Rruff sample: R090001
Ideal chemistry: KNO_3_
Locality: Searcy County, Arkansas, USA
Source: James Shigley
Description: Unconsolidated, granular fragments exhibiting a sandy color
Raman shift (cm-1)	intensity
140.184	0
143.559	34.389
146.933	19.9645
150.308	13.6092
153.683	10.8317
157.058	12.4777
160.433	8.41141
163.807	21.1227
167.182	9.1196
170.557	16.935
173.932	12.2094
177.307	15.6138
180.681	5.17502
184.056	6.83127
187.431	4.82922
190.806	4.74396
194.181	0.660553
197.556	4.68265
200.93	2.47162
204.305	16.7904
207.68	20.5547
211.055	23.9143
214.43	27.2194
217.804	27.0094
221.179	32.0471
224.554	41.1178
227.929	35.3518
231.304	39.3958
234.679	37.4678
238.053	39.3832
241.428	39.843
244.803	39.0974
248.178	29.883
251.553	34.6117
254.928	27.1895
258.302	26.7747
261.677	24.4832
265.052	23.0909
268.427	23.9614
271.802	18.7437
275.176	22.9038
278.551	26.3043
281.926	19.8158
285.301	17.0934
288.676	18.7575
292.05	19.1812
295.425	11.9503
298.8	16.6499
302.175	12.6081
305.55	11.1509
308.925	7.42307
312.299	5.28067
315.674	4.36685
319.049	5.58853
322.424	4.65158
325.799	8.85669
329.173	4.84601
332.548	3.72769
335.923	2.28461
339.298	3.18475
342.673	0.979065
346.048	4.54816
349.422	4.86881
352.797	4.77881
356.172	2.16141
359.547	3.1391
362.922	6.40814
366.296	6.91589
369.671	9.60397
373.046	3.25928
376.421	6.13071
379.796	2.68625
383.171	6.16238
386.545	5.86301
389.92	3.45343
393.295	2.17835
396.67	4.28979
400.045	4.1297
403.419	2.336
406.794	0.025543
410.169	0.781158
413.544	0.334778
416.919	3.38117
420.293	6.44952
423.668	7.8175
427.043	6.00653
430.418	4.26651
433.793	6.76462
437.168	7.90143
440.542	4.39523
443.917	3.45123
447.292	6.09638
450.667	3.5462
454.042	7.21899
457.416	8.01016
460.791	0.80838
464.166	5.37735
467.541	9.77084
470.916	1.45196
474.291	2.89066
477.665	6.62958
481.04	4.87653
484.415	9.03412
487.79	3.57645
491.165	5.20667
494.539	3.45783
497.914	4.21634
501.289	0.55011
504.664	10.1333
508.039	2.8717
511.413	2.26669
514.788	6.71304
518.163	1.17307
521.538	5.19092
524.913	5.88306
528.288	3.37457
531.663	1.30957
535.037	2.94263
538.412	6.41281
541.787	3.47339
545.162	4.34793
548.537	7.85474
551.911	1.18118
555.286	4.81278
558.661	5.15729
562.036	8.67062
565.411	1.51965
568.785	6.8808
572.16	1.75128
575.535	2.48901
578.91	8.04941
582.285	6.1456
585.659	5.69772
589.034	7.3822
592.409	1.93646
595.784	1.63684
599.159	2.25247
602.534	4.54361
605.908	6.09369
609.283	6.15686
612.658	0.276337
616.033	4.80212
619.408	3.02447
622.783	9.15726
626.157	2.86426
629.532	9.0159
632.907	5.56531
636.282	4.60544
639.657	8.72369
643.031	4.0025
646.406	8.81122
649.781	4.69659
653.156	1.1286
656.531	5.17075
659.905	3.37765
663.28	3.30121
666.655	8.53537
670.03	1.92328
673.405	8.20438
676.779	4.28299
680.154	4.23782
683.529	1.75632
686.904	5.85339
690.279	6.51968
693.654	6.9205
697.028	5.40588
700.403	24.9607
703.778	130.8
707.153	191.38
710.528	485.619
713.903	822.011
717.277	891.54
720.652	60.6348
724.027	25.1447
727.402	12.0518
730.777	9.81406
734.151	2.41336
737.526	7.30319
740.901	4.2908
744.276	3.12872
747.651	4.36041
751.025	6.95071
754.4	4.44275
757.775	2.14484
761.15	2.12231
764.525	6.28503
767.9	4.38287
771.274	2.96396
774.649	5.83521
778.024	3.91818
781.399	2.39624
784.774	3.8266
788.149	10.4279
791.523	0.102905
794.898	9.70322
798.273	1.42932
801.648	6.20419
805.023	1.7612
808.397	10.9355
811.772	2.26099
815.147	2.33344
818.522	15.4878
821.897	11.6231
825.271	10.0546
828.646	5.73758
832.021	2.41681
835.396	9.03455
838.771	2.621
842.146	4.68072
845.52	9.72687
848.895	5.24219
852.27	13.5802
855.645	7.29819
859.02	6.7084
862.394	1.62985
865.769	3.90723
869.144	4.15707
872.519	1.3298
875.894	3.59946
879.269	2.52246
882.643	9.3056
886.018	3.43906
889.393	4.86414
892.768	10.3267
896.143	8.35544
899.518	4.65671
902.892	5.31396
906.267	7.62643
909.642	7.54367
913.017	8.08295
916.391	9.05017
919.766	6.62534
923.141	5.35324
926.516	2.94763
929.891	4.55689
933.266	1.80435
936.64	1.21057
940.015	4.68631
943.39	2.31378
946.765	1.65219
950.14	1.95035
953.514	3.41187
956.889	9.52222
960.264	4.47641
963.639	8.07571
967.014	4.28635
970.389	1.01663
973.763	4.12036
977.138	6.68747
980.513	5.5842
983.888	9.14328
987.263	8.35306
990.638	8.70236
994.012	7.63171
997.387	4.73907
1000.76	7.27789
1004.14	5.6875
1007.51	7.67563
1010.89	16.0942
1014.26	5.81424
1017.64	9.68698
1021.01	18.6801
1024.39	36.7336
1027.76	67.6941
1031.13	156.201
1034.51	74.4824
1037.88	269.984
1041.26	1802.73
1044.63	2904.81
1048.01	8409.74
1051.38	18825.7
1054.76	734.151
1058.13	140.018
1061.51	60.592
1064.88	36.739
1068.26	26.6684
1071.63	14.8278
1075.01	9.53064
1078.38	6.55673
1081.76	4.35416
1085.13	1.02451
1088.51	0.981812
1091.88	0.060669
1095.26	1.6796
1098.63	5.08249
1102.01	7.32468
1105.38	1.90164
1108.76	0.944885
1112.13	4.69717
1115.51	1.53265
1118.88	4.52701
1122.26	8.27039
1125.63	3.40503
1129.01	7.0657
1132.38	12.3577
1135.76	9.45935
1139.13	5.56534
1142.5	0.657349
1145.88	5.59112
1149.25	6.77341
1152.63	12.0165
1156	5.74118
1159.38	2.59128
1162.75	9.29385
1166.13	4.12067
1169.5	7.16312
1172.88	6.33984
1176.25	10.0196
1179.63	1.13516
1183	5.48904
1186.38	9.24499
1189.75	5.48599
1193.13	6.18274
1196.5	4.84387
1199.88	6.94455
1203.25	3.32419
1206.63	9.49533
1210	6.50882
1213.38	0.523743
1216.75	6.53186
1220.12	3.70898
1223.5	5.49493
1226.88	0.219604
1230.25	4.68311
1233.62	0.836395
1237	4.94318
1240.37	12.6811
1243.75	4.02533
1247.12	6.40051
1250.5	5.1929
1253.87	5.22937
1257.25	6.88864
1260.62	6.86289
1264	13.8352
1267.37	9.50397
1270.75	6.69397
1274.12	10.1607
1277.5	5.53204
1280.87	7.51608
1284.25	7.63095
1287.62	0.230957
1291	5.75378
1294.37	13.2342
1297.75	1.84949
1301.12	5.99356
