Measurement: Raman, 780 nm, unoriented, Raman Data Processed
Mineral: Niter
Rruff sample: R090001
Ideal chemistry: KNO_3_
Locality: Searcy County, Arkansas, USA
Source: James Shigley
Description: Unconsolidated, granular fragments exhibiting a sandy color
Raman shift (cm-1)	intensity
140.066	0
142.959	0.20752
145.852	3.02197
148.744	11.7432
151.637	12.2822
154.53	11.4283
157.423	16.9963
160.315	15.6007
163.208	20.6105
166.101	23.1502
168.994	10.9979
171.886	12.4519
174.779	2.93005
177.672	0.110962
180.564	1.65942
183.457	5.71741
186.35	2.59863
189.242	1.85632
192.135	1.09973
195.028	1.97742
197.921	0.293091
200.813	3.70581
203.706	11.5311
206.599	14.2422
209.491	24.3326
212.384	22.8666
215.277	22.062
218.169	24.9321
221.062	20.3508
223.955	25.9866
226.847	28.8585
229.74	32.8096
232.633	30.7191
235.526	27.647
238.418	23.9707
241.311	30.7888
244.204	19.8878
247.096	24.9139
249.989	29.4977
252.882	24.0808
255.774	22.0164
258.667	19.952
261.56	17.7875
264.453	25.7662
267.345	19.4537
270.238	14.7449
273.131	13.2275
276.023	6.60449
278.916	13.2216
281.809	8.58325
284.702	19.2307
287.594	17.3636
290.487	12.0526
293.38	17.5796
296.272	12.2959
299.165	15.1887
302.058	10.796
304.95	8.40588
307.843	5.04627
310.736	7.75561
313.628	9.06421
316.521	6.97363
319.414	9.63672
322.307	3.11438
325.199	6.05664
328.092	2.6416
330.985	0.473999
333.877	3.08777
336.77	0.037842
339.663	7.1654
342.556	8.11621
345.448	6.17712
348.341	2.62085
351.234	5.95667
354.126	2.34692
357.019	1.54651
359.912	2.40027
362.805	5.08215
365.697	6.36597
368.59	3.29028
371.483	11.0549
374.375	10.9457
377.268	8.078
380.161	5.33191
383.053	2.73779
385.946	1.02588
388.839	5.51978
391.731	4.3009
394.624	4.03455
397.517	0.160889
400.41	4.72363
403.302	6.34644
406.195	0.795898
409.088	6.29614
411.98	1.01379
414.873	0.134155
417.766	1.91711
420.659	4.03381
423.551	6.34485
426.444	0.438477
429.337	1.74316
432.229	4.72888
435.122	9.71021
438.015	4.91211
440.907	8.27502
443.8	2.52112
446.693	2.24219
449.586	4.77869
452.478	6.53296
455.371	7.33191
458.264	1.99304
461.156	4.40015
464.049	12.3648
466.942	11.2362
469.834	4.40381
472.727	2.9679
475.62	5.802
478.513	4.37512
481.405	12.9607
484.298	8.92798
487.191	8.98303
490.083	7.1991
492.976	5.29419
495.869	5.91223
498.762	2.26587
501.654	4.62354
504.547	3.99951
507.44	5.16565
510.332	5.16858
513.225	4.34509
516.118	3.47473
519.01	6.70935
521.903	1.90381
524.796	7.70288
527.688	0.124512
530.581	2.82947
533.474	7.40039
536.367	0.390747
539.259	1.39087
542.152	2.06543
545.045	1.7063
547.937	1.16199
550.83	1.2196
553.723	0.561035
556.615	4.31177
559.508	0.571167
562.401	8.87073
565.294	0.418945
568.186	0.178589
571.079	1.11475
573.972	0.924316
576.864	3.49994
579.757	6.90149
582.65	7.54834
585.543	4.93579
588.435	7.05633
591.328	1.16901
594.221	2.5451
597.113	3.84125
600.006	5.76428
602.899	9.27563
605.791	8.49774
608.684	7.14862
611.577	4.56641
614.47	4.94385
617.362	2.38763
620.255	6.28308
623.148	8.64325
626.04	8.73584
628.933	2.40216
631.826	3.10687
634.718	6.58771
637.611	10.0611
640.504	3.64923
643.397	3.60895
646.289	5.29541
649.182	1.01465
652.075	9.51233
654.967	1.08667
657.86	2.39526
660.753	2.21924
663.645	1.91821
666.538	4.29541
669.431	6.33148
672.324	1.20612
675.216	6.37207
678.109	1.1095
681.002	1.59723
683.894	2.21832
686.787	5.5249
689.68	3.92664
692.572	1.78925
695.465	9.33771
698.358	3.25739
701.251	29.4411
704.143	51.3449
707.036	54.0502
709.929	89.7654
712.821	180.806
715.714	366.161
718.607	96.3799
721.5	14.5408
724.392	8.00934
727.285	2.01776
730.178	3.75751
733.07	10.8926
735.963	2.77685
738.856	1.82489
741.749	5.42029
744.641	7.04944
747.534	2.89899
750.427	8.01343
753.319	7.09467
756.212	2.39819
759.105	2.20844
761.997	4.15039
764.89	4.43494
767.783	2.9068
770.676	5.58478
773.568	3.57806
776.461	0.202698
779.354	3.97943
782.246	4.51147
785.139	4.88977
788.032	2.61981
790.924	0.342163
793.817	10.501
796.71	11.5649
799.602	1.74487
802.495	7.28796
805.388	2.46448
808.281	4.69928
811.173	6.65411
814.066	4.26587
816.959	2.60712
819.851	7.65405
822.744	3.66412
825.637	8.05457
828.529	1.25128
831.422	4.06226
834.315	3.59644
837.208	1.4054
840.1	4.25067
842.993	6.66992
845.886	8.35535
848.778	3.07648
851.671	0.560364
854.564	5.81451
857.457	1.65424
860.349	6.6261
863.242	0.220825
866.135	4.23358
869.027	5.66248
871.92	4.02374
874.813	4.86713
877.705	4.58887
880.598	5.28766
883.491	3.17157
886.384	9.67401
889.276	2.35449
892.169	0.319214
895.062	2.86066
897.954	3.19159
900.847	6.11542
903.74	5.69702
906.632	2.50549
909.525	8.10388
912.418	3.8421
915.311	0.16864
918.203	0.662476
921.096	4.24036
923.989	1.14667
926.881	2.38385
929.774	3.98303
932.667	3.31995
935.559	0.299011
938.452	6.15045
941.345	5.75665
944.238	3.49316
947.13	3.25617
950.023	1.1817
952.916	3.2724
955.808	3.10217
958.701	5.01288
961.594	6.55682
964.486	10.6319
967.379	3.16992
970.272	6.22382
973.165	5.86017
976.057	3.51367
978.95	1.90497
981.843	0.027222
984.735	4.94904
987.628	0.366272
990.521	2.62408
993.413	0.264648
996.306	7.23041
999.199	0.844116
1002.09	3.48944
1004.98	3.9057
1007.88	4.20898
1010.77	4.80603
1013.66	1.36322
1016.55	4.87787
1019.45	7.05475
1022.34	9.46021
1025.23	13.718
1028.13	15.8526
1031.02	37.1411
1033.91	29.0076
1036.8	68.2833
1039.7	374.542
1042.59	457.604
1045.48	803.134
1048.38	1515.85
1051.27	4729.72
1054.16	455.995
1057.05	48.8858
1059.95	22.8578
1062.84	17.4089
1065.73	10.2219
1068.62	5.88507
1071.52	6.05682
1074.41	6.20575
1077.3	3.37158
1080.19	1.03992
1083.09	3.09656
1085.98	4.61444
1088.87	2.52466
1091.77	5.55633
1094.66	2.55725
1097.55	6.11548
1100.44	3.96985
1103.34	9.04187
1106.23	0.425293
1109.12	4.2832
1112.01	6.67188
1114.91	1.7204
1117.8	1.02075
1120.69	1.67645
1123.59	6.27386
1126.48	5.46075
1129.37	6.95898
1132.26	5.69202
1135.16	3.47144
1138.05	4.03784
1140.94	6.00769
1143.83	7.03418
1146.73	5.08533
1149.62	4.28113
1152.51	4.26184
1155.4	1.74744
1158.3	4.94415
1161.19	4.4165
1164.08	7.55103
1166.98	5.48535
1169.87	10.3334
1172.76	8.31732
1175.65	8.12176
1178.55	7.46692
1181.44	6.13422
1184.33	6.18237
1187.22	5.56
1190.12	6.1391
1193.01	4.63647
1195.9	3.30457
1198.8	7.37396
1201.69	8.05774
1204.58	4.85205
1207.47	11.0541
1210.37	2.63879
1213.26	0.142883
1216.15	3.0636
1219.04	2.86682
1221.94	4.8454
1224.83	0.911621
1227.72	5.4209
1230.62	6.47595
1233.51	4.98144
1236.4	1.46149
1239.29	1.82758
1242.19	2.70563
1245.08	0.010925
1247.97	1.85461
1250.86	4.46722
1253.76	4.7605
1256.65	2.13086
1259.54	4.09302
1262.43	4.57654
1265.33	4.00745
1268.22	4.008
1271.11	7.56781
1274.01	1.45654
1276.9	3.14996
1279.79	5.29901
1282.68	1.67365
1285.58	3.26245
