Measurement: Raman, 532 nm, unoriented, Raman Data Processed
Mineral: Nitratine
Rruff sample: R050394
Ideal chemistry: NaNO_3_
Locality: Tarapaca, Chile
Source: Mark Candee
Description: Colorless coarse powder
Measured chemistry: Na_1.00_NO_3_ ; = darker grains. The lighter grains are NaCl ; N not analyzed but estimated by difference and stiochiometry
Raman shift (cm-1)	intensity
126.102	0
129.476	0.674896
132.851	5.68295
136.226	20.6706
139.601	47.8563
142.976	98.9791
146.351	155.25
149.725	249.389
153.1	364.571
156.475	514.077
159.85	742.649
163.225	1061.84
166.6	1466.78
169.974	1981.12
173.349	2524.04
176.724	3167.01
180.099	3845.6
183.474	4353.67
186.848	4304.43
190.223	3569.17
193.598	2643.33
196.973	1894.41
200.348	1366.21
203.722	988.532
207.097	735.287
210.472	546.439
213.847	398.687
217.222	277.918
220.596	190.908
223.971	133.666
227.346	89.8652
230.721	62.3244
234.096	36.402
237.471	23.7386
240.845	14.1089
244.22	11.5976
247.595	3.35039
250.97	4.32158
254.345	5.11058
257.719	3.61974
261.094	3.12588
264.469	5.97438
267.844	5.67522
271.219	0.918137
274.594	2.08827
277.968	0.532471
281.343	2.3383
284.718	5.07854
288.093	9.85848
291.468	8.64476
294.842	16.1188
298.217	18.4888
301.592	14.0511
304.967	20.156
308.342	22.4719
311.717	18.7343
315.091	20.3317
318.466	24.7649
321.841	22.081
325.216	24.4362
328.591	23.685
331.966	17.697
335.34	19.0806
338.715	18.4512
342.09	19.1497
345.465	19.8073
348.84	15.5753
352.214	13.9586
355.589	16.2727
358.964	13.7827
362.339	11.7195
365.714	9.15182
369.089	5.83913
372.463	9.98602
375.838	11.8724
379.213	5.68199
382.588	5.18414
385.963	7.53715
389.337	7.72787
392.712	7.13649
396.087	9.73128
399.462	10.1988
402.837	6.4763
406.212	5.29024
409.586	5.21151
412.961	3.19482
416.336	4.38702
419.711	2.88467
423.086	4.25697
426.46	3.94545
429.835	3.02927
433.21	6.41518
436.585	2.18674
439.96	1.54761
443.334	2.42663
446.709	1.97078
450.084	1.02627
453.459	3.09926
456.834	1.35745
460.209	1.5974
463.583	2.17099
466.958	3.77537
470.333	0.998367
473.708	1.97625
477.083	0.921387
480.457	3.00265
483.832	4.18189
487.207	1.09615
490.582	3.09602
493.957	1.46545
497.332	1.53742
500.706	2.40853
504.081	2.27966
507.456	5.77335
510.831	0.270233
514.206	4.20029
517.58	4.96395
520.955	3.73885
524.33	2.85187
527.705	3.11719
531.08	2.91696
534.455	3.9468
537.829	2.2317
541.204	0.792458
544.579	5.782
547.954	3.73902
551.329	2.33897
554.703	6.42709
558.078	2.01424
561.453	3.03751
564.828	4.40698
568.203	0.468613
571.577	3.19365
574.952	3.93967
578.327	1.3413
581.702	0.022156
585.077	3.21809
588.452	3.7098
591.826	0.523697
595.201	5.29522
598.576	2.38984
601.951	6.0888
605.326	6.07547
608.7	3.91905
612.075	5.85702
615.45	5.36295
618.825	6.10503
622.2	4.038
625.574	4.3822
628.949	1.95303
632.324	2.12502
635.699	4.31135
639.074	4.13107
642.449	6.75905
645.823	2.64221
649.198	4.56861
652.573	2.99516
655.948	4.99509
659.323	6.15365
662.697	1.60171
666.072	5.29311
669.447	3.54977
672.822	1.06384
676.197	5.3884
679.572	1.7873
682.946	3.24321
686.321	3.68726
689.696	6.7272
693.071	1.71739
696.446	2.48698
699.821	4.93019
703.195	8.43272
706.57	19.4251
709.945	80.861
713.32	161.38
716.695	234.627
720.069	444.171
723.444	931.111
726.819	481.229
730.194	39.9954
733.569	14.2326
736.943	6.01668
740.318	4.34065
743.693	0.850403
747.068	1.75011
750.443	3.28748
753.818	11.168
757.192	6.70332
760.567	1.93145
763.942	5.89711
767.317	8.10286
770.692	5.00417
774.067	4.44569
777.441	7.28183
780.816	6.00014
784.191	4.90115
787.566	3.73211
790.941	6.86331
794.315	3.64294
797.69	5.62028
801.065	3.56087
804.44	3.38888
807.815	1.02151
811.189	1.46667
814.564	3.45191
817.939	0.267265
821.314	2.7525
824.689	2.62087
828.063	0.327469
831.438	0.705727
834.813	1.06776
838.188	2.46567
841.563	1.12804
844.938	0.88694
848.312	2.33548
851.687	2.93662
855.062	3.38571
858.437	3.58553
861.812	1.96763
865.187	0.246986
868.561	2.58358
871.936	5.35961
875.311	3.14352
878.686	4.52043
882.061	1.0722
885.435	0.222031
888.81	2.0799
892.185	2.54761
895.56	2.97154
898.935	4.08837
902.309	4.63677
905.684	4.99101
909.059	6.05352
912.434	6.64556
915.809	6.79038
919.184	7.34116
922.558	3.17123
925.933	5.28376
929.308	5.53851
932.683	5.33253
936.058	6.62201
939.433	2.99419
942.807	5.086
946.182	3.45715
949.557	0.613518
952.932	2.90697
956.307	3.32051
959.681	0.351517
963.056	1.95687
966.431	2.52251
969.806	1.08305
973.181	2.06987
976.556	4.192
979.93	2.60514
983.305	2.17966
986.68	4.79456
990.055	7.10455
993.43	5.30201
996.804	4.96582
1000.18	2.99255
1003.55	3.43451
1006.93	4.99527
1010.3	9.71773
1013.68	11.0093
1017.05	12.8746
1020.43	9.87198
1023.8	16.7074
1027.18	17.647
1030.55	23.8289
1033.93	32.6528
1037.3	53.9603
1040.68	76.6617
1044.05	126.282
1047.43	268.188
1050.8	365.483
1054.18	605.729
1057.55	2684.68
1060.93	4214.36
1064.3	7964.79
1067.68	20280.3
1071.05	4315.09
1074.42	510.363
1077.8	197.064
1081.17	103.42
1084.55	57.7176
1087.92	37.1501
1091.3	22.8619
1094.67	16.8239
1098.05	8.86073
1101.42	4.70486
1104.8	3.5523
1108.17	2.62064
1111.55	1.81528
1114.92	1.04019
1118.3	0.598724
1121.67	0.386024
1125.05	2.23003
1128.42	1.2972
1131.8	0.9216
1135.17	0.246552
1138.55	0.430756
1141.92	3.58932
1145.3	3.62573
1148.67	3.12318
1152.05	4.28303
1155.42	2.8005
1158.8	5.79895
1162.17	9.53202
1165.55	7.66801
1168.92	5.3364
1172.3	7.54434
1175.67	6.70552
1179.04	3.56847
1182.42	4.92835
1185.79	6.53372
1189.17	5.75562
1192.54	5.27072
1195.92	2.69971
1199.29	2.63879
1202.67	3.0116
1206.04	3.75779
1209.42	4.43047
1212.79	4.26138
1216.17	3.85175
1219.54	4.43104
1222.92	5.83717
1226.29	1.59139
1229.67	2.35377
1233.04	0.94738
1236.42	4.84449
1239.79	1.57544
1243.17	2.36181
1246.54	1.63052
1249.92	4.50535
1253.29	5.40771
1256.66	0.623405
1260.04	2.72688
1263.41	7.13194
1266.79	6.06766
1270.16	4.4007
1273.54	2.02483
1276.91	7.03293
1280.29	0.522057
1283.66	2.19155
