Measurement: Raman, 532 nm, unoriented, Raman Data Processed
Mineral: Nitratine
Rruff sample: R050658
Ideal chemistry: NaNO_3_
Locality: Peru
Source: University of Arizona Mineral Museum
Description: Group of colorless crystals
Measured chemistry: Na_0.92_N_1.00_O_2.96_ ; N not measured but estimated by difference and stoichiometry
Raman shift (cm-1)	intensity
124.486	0
127.861	13.5137
131.235	44.6624
134.61	117.579
137.985	192.008
141.36	355.669
144.735	579.767
148.109	767.292
151.484	1024.06
154.859	1373.14
158.234	1958.26
161.609	2700.82
164.984	3688.56
168.358	5121.5
171.733	6621.81
175.108	8279.47
178.483	10183.3
181.858	11822.6
185.232	12211.1
188.607	10580.6
191.982	7987.41
195.357	5700.54
198.732	3996.13
202.107	2928.31
205.481	2139.96
208.856	1520.26
212.231	1121.92
215.606	803.691
218.981	549.316
222.355	366.3
225.73	249.259
229.105	164.486
232.48	97.6119
235.855	78.6418
239.23	18.2231
242.604	11.09
245.979	11.8129
249.354	10.7315
252.729	1.57019
256.103	30.6533
259.478	29.2167
262.853	5.22784
266.228	7.80389
269.603	9.48938
272.978	16.9285
276.352	22.8765
279.727	20.7385
283.102	21.2154
286.477	49.2415
289.852	39.9962
293.226	41.3601
296.601	47.1178
299.976	60.5791
303.351	70.6783
306.726	73.4579
310.101	85.2235
313.475	70.1859
316.85	75.1649
320.225	89.9223
323.6	79.2224
326.975	79.5949
330.349	53.9421
333.724	40.5567
337.099	67.1244
340.474	64.7129
343.849	64.2011
347.224	56.5654
350.598	49.815
353.973	49.6749
357.348	41.3998
360.723	33.2221
364.098	41.4364
367.472	47.2779
370.847	42.5096
374.222	36.9125
377.597	32.7647
380.972	27.6703
384.346	30.8846
387.721	40.0126
391.096	6.86533
394.471	28.0751
397.846	29.0355
401.221	10.4223
404.595	3.21042
407.97	26.0614
411.345	22.2347
414.72	17.5754
418.095	37.8533
421.469	19.7208
424.844	15.6439
428.219	20.6792
431.594	24.5644
434.969	13.7841
438.344	19.5731
441.718	9.01291
445.093	11.4155
448.468	3.74573
451.843	16.9698
455.217	6.79147
458.592	9.32025
461.967	5.29388
465.342	20.5447
468.717	2.92837
472.092	5.56024
475.466	6.29404
478.841	13.0889
482.216	0.071075
485.591	0.500244
488.966	7.21976
492.341	24.4454
495.715	20.4648
499.09	12.4572
502.465	17.0924
505.84	11.7745
509.215	31.4713
512.589	21.5405
515.964	14.4325
519.339	19.0834
522.714	13.4033
526.089	14.7096
529.463	19.7937
532.838	11.9855
536.213	24.0966
539.588	16.2998
542.963	19.8534
546.337	24.9872
549.712	22.2631
553.087	4.51004
556.462	13.1919
559.837	6.21997
563.212	13.0481
566.586	16.1172
569.961	14.7389
573.336	7.54608
576.711	11.4241
580.086	10.4888
583.46	4.39349
586.835	15.9342
590.21	11.5757
593.585	11.8111
596.96	2.03839
600.335	13.9158
603.709	26.8025
607.084	14.7426
610.459	19.5617
613.834	1.21976
617.209	14.4695
620.583	10.879
623.958	27.4436
627.333	20.1146
630.708	1.18839
634.083	11.3224
637.457	31.7495
640.832	7.43338
644.207	11.5783
647.582	18.1538
650.957	12.1784
654.332	8.96161
657.706	19.9877
661.081	7.48196
664.456	8.63007
667.831	16.7514
671.206	2.62988
674.58	1.05887
677.955	6.19098
681.33	3.72525
684.705	13.8773
688.08	11.331
691.455	9.08188
694.829	8.87695
698.204	23.2938
701.579	28.937
704.954	47.3808
708.329	121.577
711.703	352.245
715.078	495.638
718.453	758.193
721.828	1583.71
725.203	1656.27
728.577	168.752
731.952	42.2805
735.327	17.7811
738.702	9.78595
742.077	2.33502
745.452	16.707
748.826	0.981262
752.201	0.445862
755.576	12.8693
758.951	10.473
762.326	27.6085
765.7	27.4424
769.075	20.4001
772.45	29.2844
775.825	8.69898
779.2	15.3636
782.574	21.4529
785.949	21.7416
789.324	19.7787
792.699	17.8514
796.074	4.05707
799.448	5.14526
802.823	13.6779
806.198	16.6063
809.573	11.4968
812.948	17.5659
816.323	18.0555
819.697	11.1484
823.072	12.9895
826.447	15.7887
829.822	21.8904
833.197	3.57519
836.572	35.325
839.946	15.7719
843.321	29.8791
846.696	24.9618
850.071	27.7848
853.446	21.8619
856.82	27.569
860.195	19.6041
863.57	14.274
866.945	4.87408
870.32	9.79675
873.694	18.188
877.069	24.9492
880.444	0.302307
883.819	10.9683
887.194	16.3066
890.568	16.2949
893.943	16.9066
897.318	15.4337
900.693	18.7541
904.068	35.7268
907.443	20.6153
910.817	28.3986
914.192	24.5196
917.567	37.5483
920.942	21.652
924.317	17.2584
927.692	1.03571
931.066	16.994
934.441	28.5716
937.816	12.6155
941.191	13.7469
944.566	10.5889
947.94	7.59729
951.315	19.4859
954.69	25.3793
958.065	9.26453
961.44	14.1946
964.814	15.4157
968.189	6.61877
971.564	5.85809
974.939	1.8175
978.314	11.8574
981.688	20.2645
985.063	17.5008
988.438	1.66949
991.813	10.192
995.188	11.6401
998.563	11.4944
1001.94	16.218
1005.31	33.6167
1008.69	19.7395
1012.06	31.7068
1015.44	20.5138
1018.81	31.6622
1022.19	36.7366
1025.56	39.401
1028.94	47.3971
1032.31	57.013
1035.69	84.0503
1039.06	132.23
1042.43	209.139
1045.81	376.896
1049.18	411.481
1052.56	697.918
1055.93	3142.53
1059.31	6349.35
1062.68	11977.6
1066.06	29779
1069.43	19499.2
1072.81	1736.43
1076.18	530.065
1079.56	257.219
1082.93	163.938
1086.31	95.8578
1089.68	65.0057
1093.06	48.4575
1096.43	16.218
1099.81	16.3707
1103.18	1.51538
1106.56	0.947144
1109.93	8.9549
1113.31	2.68109
1116.68	13.0223
1120.06	1.81811
1123.43	6.59699
1126.81	8.30402
1130.18	12.0315
1133.56	2.75147
1136.93	1.17273
1140.31	14.0213
1143.68	6.95026
1147.05	21.959
1150.43	11.0919
1153.8	34.6409
1157.18	0.862122
1160.55	19.6426
1163.93	20.2728
1167.3	24.8601
1170.68	41.5844
1174.05	3.06287
1177.43	40.3819
1180.8	36.3227
1184.18	25.5908
1187.55	28.2611
1190.93	9.24158
1194.3	33.3312
1197.68	15.2419
1201.05	34.436
1204.43	9.6394
1207.8	23.9095
1211.18	14.9069
1214.55	17.4747
1217.92	4.24774
1221.3	13.2985
1224.67	35.202
1228.05	18.9187
1231.42	0.233032
1234.8	18.7791
1238.17	30.9584
1241.55	33.9977
1244.92	5.89838
1248.3	10.8947
1251.67	0.830811
1255.05	19.2057
1258.42	18.0558
1261.8	18.5152
1265.17	36.1813
1268.55	25.9034
1271.92	11.075
1275.3	22.2655
1278.67	26.0621
1282.05	7.87958
1285.42	26.3869
