Measurement: Raman, 780 nm, unoriented, Raman Data Processed
Mineral: Nitratine
Rruff sample: R050658
Ideal chemistry: NaNO_3_
Locality: Peru
Source: University of Arizona Mineral Museum
Description: Group of colorless crystals
Measured chemistry: Na_0.92_N_1.00_O_2.96_ ; N not measured but estimated by difference and stoichiometry
Raman shift (cm-1)	intensity
87.2175	0
90.5923	97.4509
93.9671	612.172
97.3419	1864.08
100.717	3066.45
104.092	1998.57
107.466	1025.29
110.841	466.711
114.216	243.713
117.591	114.323
120.966	20.961
124.341	13.6484
127.715	17.8516
131.09	14.4042
134.465	9.86139
137.84	30.402
141.215	88.3146
144.589	157.079
147.964	276.303
151.339	359.792
154.714	538.039
158.089	814.318
161.464	1093.99
164.838	1565.06
168.213	2125.93
171.588	2945.73
174.963	4010.81
178.338	5181.56
181.712	6319.25
185.087	6817.9
188.462	6113.54
191.837	4699.09
195.212	3434.5
198.586	2470.1
201.961	1807.36
205.336	1316.66
208.711	961.72
212.086	741.814
215.46	489.19
218.835	351.127
222.21	223.674
225.585	185.573
228.96	126.473
232.335	72.8655
235.709	43.6933
239.084	41.3665
242.459	1.25195
245.834	4.43726
249.209	1.70978
252.583	12.6715
255.958	2.06216
259.333	3.39728
262.708	0.204224
266.083	8.48529
269.458	11.9097
272.832	17.3519
276.207	0.779083
279.582	19.1865
282.957	15.2111
286.332	6.09271
289.707	19.4586
293.081	23.8233
296.456	33.4904
299.831	14.0802
303.206	13.2465
306.581	33.8156
309.955	17.0179
313.33	33.1331
316.705	39.5782
320.08	53.2973
323.455	43.1678
326.829	20.9439
330.204	35.4524
333.579	34.7641
336.954	43.4132
340.329	56.6866
343.704	41.083
347.078	26.5694
350.453	33.9038
353.828	30.7846
357.203	30.67
360.578	30.8608
363.952	27.7042
367.327	27.1202
370.702	23.8485
374.077	22.86
377.452	23.7604
380.827	23.962
384.201	1.07074
387.576	16.8798
390.951	21.2826
394.326	21.3657
397.701	13.752
401.075	1.86078
404.45	35.4894
407.825	9.64195
411.2	17.0121
414.575	6.58427
417.95	20.3452
421.324	18.5844
424.699	25.9939
428.074	11.1367
431.449	12.8799
434.824	5.68401
438.199	21.761
441.573	16.3639
444.948	6.21271
448.323	16.2973
451.698	5.96068
455.073	2.7626
458.447	32.5873
461.822	1.51546
465.197	21.8611
468.572	10.0623
471.947	3.07085
475.322	20.7902
478.696	3.70596
482.071	3.08964
485.446	9.42453
488.821	0.590683
492.196	4.39917
495.57	17.6689
498.945	14.4104
502.32	26.8137
505.695	18.1581
509.07	8.54372
512.444	13.3653
515.819	3.55598
519.194	7.53319
522.569	8.71401
525.944	19.5821
529.318	1.56136
532.693	15.123
536.068	7.54167
539.443	24.2236
542.818	4.37909
546.193	23.4227
549.567	32.6644
552.942	13.2873
556.317	28.9993
559.692	9.90527
563.067	21.0471
566.442	12.524
569.816	7.55496
573.191	16.9076
576.566	30.3796
579.941	28.0404
583.316	19.2314
586.69	12.469
590.065	15.2879
593.44	5.99213
596.815	18.3712
600.19	3.44437
603.564	14.7067
606.939	11.5663
610.314	11.1645
613.689	5.85774
617.064	8.33121
620.439	10.0608
623.813	9.41422
627.188	23.75
630.563	2.59085
633.938	22.0612
637.313	19.2756
640.688	16.4948
644.062	19.1507
647.437	27.4275
650.812	13.0116
654.187	28.5276
657.562	8.9808
660.936	8.58005
664.311	23.737
667.686	22.0987
671.061	19.7457
674.436	0.488052
677.811	24.0295
681.185	20.4925
684.56	25.9937
687.935	7.03172
691.31	14.7492
694.685	22.3544
698.059	27.1715
701.434	34.5149
704.809	37.0003
708.184	61.5834
711.559	127.854
714.933	459.927
718.308	906.682
721.683	2868.04
725.058	3524.43
728.433	505.711
731.808	93.706
735.182	51.973
738.557	38.6564
741.932	12.5943
745.307	35.4781
748.682	23.8985
752.057	23.1316
755.431	8.67552
758.806	7.01398
762.181	20.814
765.556	15.3024
768.931	17.3567
772.305	3.35437
775.68	12.5946
779.055	5.02393
782.43	7.66603
785.805	34.1221
789.179	32.7438
792.554	32.8309
795.929	23.3712
799.304	28.2054
802.679	9.06108
806.053	13.9869
809.428	18.3582
812.803	2.93813
816.178	39.7939
819.553	8.61441
822.928	2.50563
826.303	23.8434
829.677	7.10573
833.052	10.5157
836.427	7.92584
839.802	0.415634
843.177	25.8811
846.551	5.68143
849.926	15.3913
853.301	29.8883
856.676	19.9946
860.051	12.7627
863.426	9.43428
866.8	9.33165
870.175	24.8313
873.55	2.36984
876.925	16.708
880.3	4.13106
883.674	7.40977
887.049	5.89912
890.424	20.4609
893.799	30.4666
897.174	16.7032
900.548	11.3103
903.923	13.2817
907.298	15.4321
910.673	0.246445
914.048	25.7234
917.423	11.9046
920.797	0.728485
924.172	18.5242
927.547	24.8275
930.922	13.4478
934.297	24.8657
937.671	0.549011
941.046	9.54102
944.421	22.334
947.796	26.2622
951.171	20.0475
954.545	5.96297
957.92	3.256
961.295	15.9488
964.67	0.805756
968.045	19.3056
971.42	13.8015
974.794	2.33553
978.169	7.65016
981.544	2.84114
984.919	2.02182
988.294	6.95616
991.668	5.53868
995.043	10.2788
998.418	3.78831
1001.79	1.41302
1005.17	3.80106
1008.54	20.0238
1011.92	20.5228
1015.29	19.2757
1018.67	20.6675
1022.04	31.0802
1025.42	43.7433
1028.79	44.8303
1032.17	64.7427
1035.54	106.686
1038.92	127.066
1042.29	213.492
1045.67	398.545
1049.04	405.998
1052.41	466.037
1055.79	1111.16
1059.16	4584.48
1062.54	14103.3
1065.91	40408.3
1069.29	26035
1072.66	3323.01
1076.04	702.781
1079.41	354.067
1082.79	224.087
1086.16	142.01
1089.54	110.481
1092.91	59.0268
1096.29	53.2445
1099.66	42.5408
1103.04	6.37579
1106.41	22.8575
1109.79	12.398
1113.16	7.31793
1116.54	2.83719
1119.91	3.58057
1123.29	17.8568
1126.66	8.8483
1130.04	18.5274
1133.41	3.78726
1136.79	3.13011
1140.16	14.131
1143.54	0.699554
1146.91	15.1417
1150.29	7.186
1153.66	14.7852
1157.04	16.6859
1160.41	23.4054
1163.78	15.4777
1167.16	6.81996
1170.53	11.0078
1173.91	11.902
1177.28	20.7986
1180.66	9.74257
1184.03	8.17117
1187.41	7.75046
1190.78	11.1487
1194.16	23.3929
1197.53	26.04
1200.91	8.67036
1204.28	14.1479
1207.66	17.8582
1211.03	19.9886
1214.41	7.09673
1217.78	36.8976
1221.16	28.7934
1224.53	8.53339
1227.91	18.2586
1231.28	13.8825
1234.65	0.242416
1238.03	15.5958
1241.4	17.0311
1244.78	18.8378
1248.15	29.0671
1251.53	21.1709
1254.9	30.3916
1258.28	16.7083
1261.65	20.1058
1265.03	21.5444
1268.4	8.80479
1271.78	19.7972
1275.15	3.55156
1278.53	11.9317
