Measurement: Raman, 780 nm, unoriented, Raman Data Processed
Mineral: Nitrobarite
Rruff sample: R060622
Ideal chemistry: Ba(NO_3_)_2_
Locality: Hüttenberg, Kärnten, Austria
Source: Michael Scott
Description: Colorless distorted octahedra
Raman shift (cm-1)	intensity
135.429	0
138.322	1124.55
141.214	3096.38
144.107	2665.18
147	1316.49
149.893	318.089
152.785	52.6085
155.678	75.2286
158.571	13.9357
161.464	32.8829
164.356	65.6135
167.249	52.4132
170.142	4.74537
173.034	3.59957
175.927	37.9774
178.82	114.055
181.712	15.1363
184.605	195.712
187.498	307.673
190.391	432.364
193.283	556.77
196.176	738.072
199.069	889.938
201.961	1112.46
204.854	1235.23
207.747	1248.01
210.639	1198.79
213.532	1129.54
216.425	1036.42
219.317	965.913
222.21	854.85
225.103	778.179
227.996	620.734
230.888	613.088
233.781	505.7
236.674	513.641
239.566	408.988
242.459	409.296
245.352	349.488
248.244	331.557
251.137	356.043
254.03	368.656
256.923	270.833
259.815	286.367
262.708	230.144
265.601	253.523
268.493	196.952
271.386	167.475
274.279	137.762
277.171	189.601
280.064	84.2355
282.957	62.9585
285.85	98.8719
288.742	122.589
291.635	117.916
294.528	123.521
297.42	60.5143
300.313	55.167
303.206	28.1909
306.099	12.7671
308.991	12.8731
311.884	20.6333
314.777	18.8888
317.669	17.9539
320.562	8.07782
323.455	14.5353
326.347	13.346
329.24	68.968
332.133	3.8632
335.026	18.2468
337.918	0.143107
340.811	21.6319
343.704	9.3226
346.596	20.9057
349.489	1.21524
352.382	99.1696
355.274	95.2581
358.167	8.12686
361.06	32.5607
363.952	43.3218
366.845	25.8929
369.738	87.2373
372.631	70.5105
375.523	49.1306
378.416	81.9292
381.309	12.5569
384.201	38.0576
387.094	44.1861
389.987	28.0532
392.88	40.9309
395.772	5.31059
398.665	52.9787
401.558	63.5814
404.45	83.2025
407.343	25.3572
410.236	8.27341
413.128	52.5469
416.021	53.1337
418.914	104.323
421.807	56.7436
424.699	4.89011
427.592	13.7312
430.485	30.6188
433.377	13.6853
436.27	100.377
439.163	28.053
442.055	55.1456
444.948	71.994
447.841	34.7015
450.733	50.088
453.626	35.5551
456.519	19.2379
459.412	77.7728
462.304	46.5521
465.197	38.7367
468.09	33.6001
470.982	48.5618
473.875	77.0843
476.768	105.517
479.661	81.9863
482.553	59.53
485.446	53.7464
488.339	15.5467
491.231	50.5179
494.124	88.0795
497.017	20.9471
499.909	52.6033
502.802	61.7744
505.695	53.3617
508.587	78.969
511.48	16.5833
514.373	24.7239
517.266	77.1919
520.158	5.5001
523.051	57.3607
525.944	69.6403
528.836	8.2307
531.729	19.5964
534.622	15.5206
537.514	48.373
540.407	32.7819
543.3	22.3216
546.193	43.7544
549.085	9.38538
551.978	10.1738
554.871	34.1355
557.763	27.5615
560.656	45.9416
563.549	21.9782
566.442	35.9904
569.334	2.91079
572.227	42.4001
575.12	36.4379
578.012	4.37655
580.905	44.7237
583.798	71.7245
586.69	1.19526
589.583	9.70896
592.476	57.3744
595.369	36.6538
598.261	85.6137
601.154	58.7749
604.047	44.5746
606.939	11.6036
609.832	55.6923
612.725	4.14613
615.617	54.9791
618.51	6.03736
621.403	28.8413
624.295	20.561
627.188	41.0843
630.081	70.1874
632.974	69.4751
635.866	31.705
638.759	21.5821
641.652	2.08481
644.544	5.47616
647.437	70.547
650.33	6.70816
653.222	23.402
656.115	0.547908
659.008	21.0683
661.901	6.01433
664.793	45.7238
667.686	38.8748
670.579	24.7222
673.471	34.3099
676.364	19.7907
679.257	31.9951
682.149	3.92767
685.042	56.9472
687.935	3.35902
690.828	39.474
693.72	26.2292
696.613	45.2914
699.506	70.5884
702.398	42.8512
705.291	13.8409
708.184	40.7688
711.077	11.6325
713.969	7.96117
716.862	87.0386
719.755	148.074
722.647	336.964
725.54	483.368
728.433	937.665
731.325	1391.24
734.218	750.242
737.111	184.691
740.004	55.1116
742.896	32.9652
745.789	24.535
748.682	64.3724
751.574	30.5138
754.467	42.8765
757.36	7.67073
760.252	4.07907
763.145	25.7049
766.038	1.97927
768.931	24.1292
771.823	6.4295
774.716	9.57009
777.609	42.213
780.501	19.8244
783.394	22.7256
786.287	31.3347
789.179	41.6876
792.072	22.1844
794.965	2.64892
797.857	11.995
800.75	15.7954
803.643	1.68444
806.536	101.182
809.428	43.561
812.321	20.8813
815.214	76.8589
818.106	66.4506
820.999	52.9764
823.892	57.2978
826.784	53.4531
829.677	35.5774
832.57	44.977
835.463	33.8756
838.355	53.4238
841.248	46.9069
844.141	54.396
847.034	67.4947
849.926	73.8514
852.819	25.1756
855.712	89.1614
858.604	35.2127
861.497	14.9752
864.39	50.3881
867.282	45.5881
870.175	18.6735
873.068	36.9897
875.961	2.53418
878.853	54.4126
881.746	13.8261
884.639	10.6127
887.531	18.9961
890.424	62.3313
893.317	22.6572
896.209	8.33782
899.102	47.8724
901.995	30.0196
904.888	18.5166
907.78	49.5732
910.673	37.4786
913.566	50.4276
916.458	29.2653
919.351	23.839
922.244	0.024013
925.136	25.6628
928.029	26.696
930.922	39.5438
933.814	54.0545
936.707	53.2737
939.6	34.819
942.493	18.3744
945.385	2.46241
948.278	13.7524
951.171	1.17922
954.063	20.9527
956.956	7.48457
959.849	50.6383
962.741	1.38576
965.634	28.565
968.527	41.2959
971.42	5.52657
974.312	9.29523
977.205	40.1959
980.098	27.1071
982.99	6.0807
985.883	12.124
988.776	8.61286
991.668	10.6366
994.561	0.446423
997.454	1.14088
1000.35	18.3071
1003.24	22.7004
1006.13	37.4304
1009.02	3.81081
1011.92	7.8804
1014.81	22.1434
1017.7	22.8798
1020.6	39.6682
1023.49	72.0034
1026.38	92.4094
1029.27	94.7439
1032.17	105.468
1035.06	209.947
1037.95	828.929
1040.84	2187.66
1043.74	4319.92
1046.63	8638.13
1049.52	3804
1052.41	867.753
1055.31	120.774
1058.2	48.7008
1061.09	42.8876
1063.99	74.6275
1066.88	26.9514
1069.77	37.0786
1072.66	56.114
1075.56	36.137
1078.45	1.1317
1081.34	2.13991
1084.23	4.06374
1087.13	8.28669
1090.02	6.32394
1092.91	4.75934
1095.81	24.8433
1098.7	9.96063
1101.59	1.21583
1104.48	30.8675
1107.38	23.6168
1110.27	28.0491
1113.16	68.3161
1116.06	33.4048
1118.95	32.1379
1121.84	19.0285
1124.73	15.019
1127.62	37.6173
1130.52	44.7327
1133.41	23.0973
1136.3	33.8574
1139.2	25.0094
1142.09	18.6483
1144.98	35.9301
1147.87	29.4159
1150.77	23.0138
1153.66	22.0019
1156.55	34.2082
1159.44	16.9492
1162.34	30.9501
1165.23	55.0094
1168.12	40.5932
1171.02	1.75954
1173.91	1.79357
1176.8	12.55
1179.69	12.6644
1182.59	59.0229
1185.48	18.0219
1188.37	33.0944
1191.27	7.05849
1194.16	26.7346
1197.05	4.95154
1199.94	20.6274
1202.84	12.3804
1205.73	24.0836
1208.62	22.3166
1211.51	39.9006
1214.41	21.6582
1217.3	36.5386
1220.19	6.34841
1223.09	12.7827
1225.98	18.3356
1228.87	2.33121
1231.76	7.02035
1234.65	21.8678
1237.55	1.43453
1240.44	19.2757
1243.33	25.0658
1246.23	40.6097
1249.12	32.7614
1252.01	45.7483
1254.9	9.48406
1257.8	35.1713
1260.69	33.2
1263.58	35.8795
1266.47	43.6529
1269.37	37.0294
1272.26	32.6927
1275.15	17.4982
