Measurement: Raman, 532 nm, unoriented, Raman Data Processed
Mineral: Nitrobarite
Rruff sample: R060622
Ideal chemistry: Ba(NO_3_)_2_
Locality: Hüttenberg, Kärnten, Austria
Source: Michael Scott
Description: Colorless distorted octahedra
Raman shift (cm-1)	intensity
134.058	0
136.951	2237.46
139.844	7689.42
142.736	8331.85
145.629	3426.53
148.522	1089.59
151.414	328.708
154.307	56.3027
157.2	106.38
160.092	62.4919
162.985	44.3101
165.878	24.3758
168.77	55.2906
171.663	111.571
174.556	208.039
177.449	197.372
180.341	215.029
183.234	253.421
186.127	266.323
189.019	240.499
191.912	297.87
194.805	640.894
197.697	913.718
200.59	1179.09
203.483	1343.47
206.376	1447.76
209.268	1483.62
212.161	1437.72
215.054	1387.05
217.946	1278.55
220.839	1184.41
223.732	1113.06
226.624	992.54
229.517	972.657
232.41	878.393
235.303	842.391
238.195	780.956
241.088	718.188
243.981	669.692
246.873	607.366
249.766	604.004
252.659	565.268
255.551	535.95
258.444	458.612
261.337	438.046
264.229	391.25
267.122	352.073
270.015	318.248
272.908	265.959
275.8	237.556
278.693	190.327
281.586	185.924
284.478	143.592
287.371	139.574
290.264	118.162
293.156	73.3862
296.049	61.5315
298.942	84.838
301.835	66.297
304.727	27.7093
307.62	34.346
310.513	29.8886
313.405	43.4055
316.298	0.984123
319.191	10.5669
322.083	12.7675
324.976	22.305
327.869	3.92583
330.762	15.7916
333.654	11.0752
336.547	3.80983
339.44	1.23933
342.332	0.816223
345.225	0.954521
348.118	10.8776
351.01	13.7573
353.903	13.1723
356.796	4.52103
359.689	1.32915
362.581	27.5559
365.474	5.2852
368.367	26.4477
371.259	8.41556
374.152	15.9626
377.045	7.83035
379.938	7.17427
382.83	9.39712
385.723	49.368
388.616	29.5679
391.508	34.6599
394.401	43.7098
397.294	66.3617
400.186	52.039
403.079	41.8759
405.972	54.2425
408.865	64.6414
411.757	50.1462
414.65	37.2778
417.543	35.0637
420.435	30.6827
423.328	49.9403
426.221	46.585
429.113	59.6102
432.006	72.5862
434.899	63.0542
437.791	41.7231
440.684	55.0831
443.577	48.4021
446.47	61.9353
449.362	59.2773
452.255	26.4092
455.148	24.0062
458.04	48.1704
460.933	23.7663
463.826	42.0845
466.718	37.6145
469.611	30.7162
472.504	32.5431
475.397	21.9806
478.289	50.0168
481.182	24.2329
484.075	42.6194
486.967	48.6928
489.86	47.2833
492.753	35.5265
495.645	20.9954
498.538	17.0404
501.431	30.2565
504.323	18.0955
507.216	35.0136
510.109	10.4861
513.002	19.2147
515.894	11.5379
518.787	20.5524
521.68	22.0483
524.572	22.9168
527.465	22.2849
530.358	26.9819
533.25	10.5769
536.143	0.856689
539.036	17.8307
541.929	31.0302
544.821	5.32733
547.714	25.0827
550.607	32.7932
553.499	19.3417
556.392	6.02802
559.285	15.6795
562.177	36.2366
565.07	5.11491
567.963	38.1602
570.856	22.8063
573.748	28.4062
576.641	5.16019
579.534	20.8921
582.426	41.5383
585.319	11.3727
588.212	13.7082
591.104	6.73083
593.997	7.33112
596.89	24.4841
599.783	8.36198
602.675	45.6042
605.568	38.983
608.461	35.0621
611.353	13.1609
614.246	24.3734
617.139	20.042
620.031	41.3151
622.924	25.7124
625.817	2.70631
628.71	9.11307
631.602	26.8374
634.495	20.6972
637.388	19.7401
640.28	16.7152
643.173	34.6263
646.066	15.3618
648.958	11.7049
651.851	48.2309
654.744	29.6558
657.636	50.1067
660.529	9.61047
663.422	6.57573
666.315	19.0191
669.207	13.1273
672.1	13.925
674.993	6.36653
677.885	28.0317
680.778	5.6353
683.671	21.1975
686.563	11.5348
689.456	38.7233
692.349	22.7109
695.242	24.4826
698.134	47.7361
701.027	38.3183
703.92	10.8216
706.812	36.0432
709.705	51.9543
712.598	51.6474
715.49	132.167
718.383	296.964
721.276	533.442
724.169	986.155
727.061	1847.39
729.954	4206.54
732.847	8035.25
735.739	1421.2
738.632	248.826
741.525	135.868
744.417	53.5376
747.31	55.7304
750.203	39.8007
753.096	15.697
755.988	23.3375
758.881	6.08024
761.774	33.8167
764.666	3.85361
767.559	6.60463
770.452	29.3102
773.344	42.1345
776.237	35.025
779.13	15.5726
782.023	5.04592
784.915	16.1287
787.808	8.25263
790.701	14.9467
793.593	3.60992
796.486	11.8065
799.379	10.0208
802.271	14.078
805.164	21.3037
808.057	45.3083
810.95	2.56048
813.842	43.0843
816.735	20.5311
819.628	52.4298
822.52	27.7179
825.413	26.9796
828.306	10.2548
831.198	9.20175
834.091	12.3438
836.984	7.22527
839.877	6.31643
842.769	11.9051
845.662	5.76286
848.555	36.9335
851.447	19.1776
854.34	4.0523
857.233	30.6534
860.125	11.5827
863.018	24.5954
865.911	15.9945
868.804	18.1003
871.696	18.8541
874.589	5.58083
877.482	4.76101
880.374	8.83977
883.267	11.1795
886.16	16.7424
889.052	29.0292
891.945	33.946
894.838	41.163
897.731	36.6301
900.623	33.4054
903.516	28.6195
906.409	34.7422
909.301	30.025
912.194	11.8803
915.087	19.3124
917.979	17.8168
920.872	25.2053
923.765	6.02935
926.657	27.2785
929.55	25.5135
932.443	20.8501
935.336	14.2164
938.228	18.7296
941.121	17.5363
944.014	19.9342
946.906	21.5937
949.799	13.269
952.692	15.7061
955.584	22.1212
958.477	24.2228
961.37	17.0225
964.263	26.3897
967.155	18.8688
970.048	12.0037
972.941	22.1369
975.833	31.1761
978.726	39.3668
981.619	35.4326
984.511	34.1456
987.404	12.0004
990.297	11.1462
993.19	30.1426
996.082	21.2711
998.975	2.83136
1001.87	5.48363
1004.76	20.7313
1007.65	53.0974
1010.55	48.2896
1013.44	39.0444
1016.33	52.2389
1019.22	88.8432
1022.12	156.822
1025.01	230.553
1027.9	586.383
1030.8	271.427
1033.69	631.291
1036.58	2519.33
1039.47	5668.12
1042.37	12669.5
1045.26	25835.6
1048.15	76452.3
1051.04	3778.59
1053.94	606.992
1056.83	260.82
1059.72	162.393
1062.61	108.798
1065.51	80.8759
1068.4	47.5887
1071.29	58.4326
1074.18	34.9256
1077.08	46.864
1079.97	15.7901
1082.86	37.5202
1085.76	19.9819
1088.65	1.0827
1091.54	18.018
1094.43	11.1238
1097.33	27.9706
1100.22	11.6615
1103.11	15.0046
1106.01	14.5196
1108.9	11.1799
1111.79	7.17487
1114.68	3.74711
1117.58	5.64991
1120.47	12.6994
1123.36	20.7944
1126.25	11.3049
1129.15	17.0456
1132.04	47.2168
1134.93	24.8938
1137.83	25.6388
1140.72	22.9838
1143.61	13.7029
1146.5	24.02
1149.39	36.6727
1152.29	2.34914
1155.18	17.2319
1158.07	33.5174
1160.97	29.8222
1163.86	2.31761
1166.75	39.2679
1169.64	22.505
1172.54	31.7207
1175.43	27.3882
1178.32	47.9515
1181.21	35.0424
1184.11	12.3698
1187	26.2825
1189.89	15.5658
1192.79	31.5863
1195.68	23.525
1198.57	36.0142
1201.46	49.5314
1204.36	28.3194
1207.25	15.8928
1210.14	55.0247
1213.04	35.0394
1215.93	45.4372
1218.82	30.8841
1221.71	39.2543
1224.61	13.8523
1227.5	12.9889
1230.39	19.939
1233.28	7.06378
1236.18	13.9742
1239.07	5.87857
1241.96	35.0869
1244.85	40.3154
1247.75	48.7774
1250.64	35.0182
1253.53	39.7224
1256.42	25.1242
1259.32	49.9531
1262.21	25.9173
1265.1	5.44834
1268	20.1345
1270.89	37.4372
1273.78	31.6269
1276.67	23.2849
1279.57	26.3796
1282.46	2.8956
1285.35	5.88573
