Measurement: Raman, 785 nm, unoriented, Raman Data Processed
Mineral: Nitratine
Rruff sample: R050658
Ideal chemistry: NaNO_3_
Locality: Peru
Source: University of Arizona Mineral Museum
Description: Group of colorless crystals
Measured chemistry: Na_0.92_N_1.00_O_2.96_ ; N not measured but estimated by difference and stoichiometry
Raman shift (cm-1)	intensity
90.612	0
93.987	8.832
97.362	10.514
100.737	9.761
104.111	44.395
107.486	30.75
110.861	12.911
114.236	0.282
117.61	4.781
120.985	9.585
124.36	45.865
127.735	75.411
131.11	73.952
134.485	56.788
137.859	106.346
141.234	225.172
144.609	349.571
147.984	419.677
151.359	492.854
154.734	556.588
158.108	730.475
161.483	1021.08
164.858	1432.8
168.233	1919.65
171.608	2659.97
174.982	3658.41
178.357	5155.51
181.732	6782.81
185.107	7491.81
188.482	6675.26
191.857	5127.02
195.231	3702.85
198.606	2731.41
201.981	1998.94
205.356	1505.83
208.731	1136.06
212.105	874.14
215.48	648.99
218.855	462.475
222.23	354.303
225.605	260.213
228.98	187.769
232.354	157.922
235.729	117.776
239.104	90.284
242.479	60.012
245.854	49.17
249.228	26.431
252.603	20.381
255.978	2.071
259.353	8.889
262.728	2.792
266.103	4.254
269.477	10.67
272.852	8.716
276.227	7.302
279.602	2.779
282.977	5.294
286.351	1.463
289.726	9.372
293.101	2.969
296.476	5.076
299.851	13.74
303.225	14.467
306.6	4.288
309.975	17.517
313.35	12.282
316.725	21.826
320.1	25.208
323.474	23.945
326.849	17.842
330.224	24.775
333.599	22.899
336.974	19.801
340.349	22.524
343.723	24.131
347.098	30.034
350.473	24.19
353.848	30.577
357.223	19.783
360.597	23.355
363.972	22.936
367.347	16.681
370.722	22.389
374.097	21.859
377.471	27.666
380.846	21.527
384.221	11.712
387.596	15.033
390.971	21.668
394.346	14.926
397.72	17.715
401.095	15.473
404.47	14.909
407.845	13.8
411.22	4.336
414.595	11.54
417.969	14.045
421.344	2.901
424.719	13.833
428.094	15.342
431.469	10.886
434.843	12.471
438.218	12.682
441.593	18.952
444.968	4.526
448.343	9.311
451.717	0.944
455.092	7.637
458.467	14.843
461.842	8.78
465.217	1.897
468.592	8.884
471.966	7.327
475.341	7.677
478.716	10.389
482.091	3.158
485.466	6.495
488.841	10.967
492.215	5.127
495.59	5.83
498.965	1.954
502.34	12.298
505.715	4.824
509.089	7.478
512.464	4.744
515.839	6.581
519.214	9.439
522.589	7.7
525.963	4.891
529.338	4.236
532.713	8.786
536.088	3.468
539.463	4.462
542.838	5.558
546.212	4.22
549.587	9.299
552.962	6.337
556.337	2.848
559.712	0.266
563.086	2.658
566.461	1.927
569.836	0.069
573.211	4.167
576.586	9.33
579.961	6.939
583.335	7.417
586.71	3.06
590.085	0.799
593.46	10.962
596.835	5.762
600.209	1.236
603.584	4.475
606.959	3.481
610.334	9.547
613.709	4.806
617.083	3.734
620.458	8.475
623.833	2.765
627.208	10.968
630.583	2.601
633.958	5.518
637.332	1.747
640.707	4.176
644.082	0.242
647.457	8.793
650.832	8.929
654.206	7.973
657.581	2.261
660.956	2.543
664.331	3.545
667.706	3.815
671.081	7.876
674.455	7.07
677.83	7.204
681.205	9.968
684.58	4.763
687.955	4.52
691.33	1.284
694.704	9.308
698.079	6.585
701.454	12.418
704.829	25.106
708.204	28.488
711.578	51.75
714.953	192.007
718.328	517.778
721.703	1513.78
725.078	1697.4
728.453	117.519
731.827	44.775
735.202	21.823
738.577	17.533
741.952	13.337
745.326	5.764
748.701	1.444
752.076	11.002
755.451	11.283
758.826	15.622
762.201	15.301
765.575	0.302
768.95	8.633
772.325	6.422
775.7	6.638
779.075	5.88
782.45	12.77
785.824	4.404
789.199	12.864
792.574	12.252
795.949	11.211
799.324	7.394
802.698	0.812
806.073	8.913
809.448	4.787
812.823	6.775
816.198	4.982
819.573	7.544
822.947	9.166
826.322	1.663
829.697	4.842
833.072	4.133
836.447	1.88
839.821	13.17
843.196	14.682
846.571	10.479
849.946	7.782
853.321	7.11
856.696	2.952
860.07	3.308
863.445	15.108
866.82	3.21
870.195	8.17
873.57	5.996
876.945	5.431
880.319	1.996
883.694	9.226
887.069	5.603
890.444	8.644
893.818	4.03
897.193	4.999
900.568	10.675
903.943	8.093
907.318	8.161
910.693	5.643
914.067	2.325
917.442	3.521
920.817	7.672
924.192	5.982
927.567	13.715
930.942	7.813
934.316	15.165
937.691	13.592
941.066	4.626
944.441	8.801
947.816	2.756
951.19	1.511
954.565	15.092
957.94	13.343
961.315	9.443
964.69	3.039
968.065	7.31
971.439	5.754
974.814	20.263
978.189	2.564
981.564	3.292
984.939	0.972
988.313	1.857
991.688	5.543
995.063	1.031
998.438	1.562
1001.81	19.299
1005.19	2.325
1008.56	11.343
1011.94	8.415
1015.31	4.158
1018.69	3.79
1022.06	13.99
1025.44	9.423
1028.81	29.724
1032.19	31.244
1035.56	41.16
1038.94	58.105
1042.31	91.733
1045.68	219.469
1049.06	168.432
1052.43	173.574
1055.81	388.744
1059.18	1287.25
1062.56	6213.48
1065.93	22696.9
1069.31	8820.76
1072.68	733.388
1076.06	276.739
1079.43	131.172
1082.81	75.439
1086.18	60.326
1089.56	38.837
1092.93	18.829
1096.31	20.734
1099.68	10.967
1103.06	0.947
1106.43	13.022
1109.81	7.441
1113.18	6.295
1116.56	0.97
1119.93	10.364
1123.31	5.258
1126.68	6.012
1130.06	1.798
1133.43	6.189
1136.81	4.825
1140.18	8.588
1143.56	3.062
1146.93	4.136
1150.31	2.418
1153.68	12.243
1157.05	18.928
1160.43	5.714
1163.8	3.028
1167.18	4.258
1170.55	7.821
1173.93	2.67
1177.3	8.319
1180.68	6.009
1184.05	11.186
1187.43	4.744
1190.8	7.092
1194.18	12.03
1197.55	8.73
1200.93	5.528
1204.3	8.068
1207.68	7.159
1211.05	7.187
1214.43	0.815
1217.8	9.773
1221.18	3.819
1224.55	14.957
1227.92	10.389
1231.3	10.878
1234.67	8.24
1238.05	11.433
1241.42	8.158
1244.8	5.863
1248.17	0.463
1251.55	5.21
1254.92	5.802
1258.3	13.015
1261.67	5.282
1265.05	10.483
1268.42	15.211
1271.8	2.43
