Measurement: Raman, 780 nm, unoriented, Raman Data Processed
Mineral: Nitratine
Rruff sample: R050394
Ideal chemistry: NaNO_3_
Locality: Tarapaca, Chile
Source: Mark Candee
Description: Colorless coarse powder
Measured chemistry: Na_1.00_NO_3_ ; = darker grains. The lighter grains are NaCl ; N not analyzed but estimated by difference and stiochiometry
Raman shift (cm-1)	intensity
121.45	0
124.343	11.7556
127.236	1.23668
130.129	2.28543
133.021	4.96493
135.914	20.9284
138.807	33.9284
141.699	65.17
144.592	99.4383
147.485	151.798
150.377	209.463
153.27	293.217
156.163	394.554
159.055	529.571
161.948	712.966
164.841	933.376
167.734	1212.9
170.626	1557.24
173.519	1937.46
176.412	2399.15
179.304	2940.3
182.197	3489.16
185.09	3868.09
187.982	3790.15
190.875	3242.66
193.768	2520.75
196.661	1891.61
199.553	1414.34
202.446	1076.41
205.339	826.173
208.231	633.491
211.124	493.465
214.017	368.437
216.91	279.899
219.802	207.145
222.695	154.876
225.588	116.114
228.48	84.2147
231.373	65.5112
234.266	49.5511
237.158	33.2951
240.051	23.545
242.944	17.9296
245.837	7.73309
248.729	5.13324
251.622	3.31782
254.515	0.635971
257.407	3.49589
260.3	4.6923
263.193	3.23991
266.085	3.77464
268.978	2.34644
271.871	4.02318
274.764	3.76376
277.656	1.50553
280.549	1.40282
283.442	1.62148
286.334	2.92346
289.227	4.80162
292.12	6.31622
295.012	7.45955
297.905	8.18449
300.798	9.73479
303.69	12.1053
306.583	10.9619
309.476	13.9405
312.369	16.01
315.261	15.5036
318.154	17.2409
321.047	15.3661
323.939	13.745
326.832	14.7024
329.725	14.887
332.618	12.0971
335.51	11.8218
338.403	11.8778
341.296	11.6278
344.188	9.61703
347.081	10.8493
349.974	9.62734
352.866	9.98976
355.759	8.38169
358.652	8.96873
361.545	8.74811
364.437	7.63639
367.33	6.04566
370.223	8.20674
373.115	4.81051
376.008	6.15535
378.901	3.47364
381.793	3.78916
384.686	4.05559
387.579	3.61989
390.471	3.55516
393.364	3.32793
396.257	3.56188
399.15	2.68496
402.042	2.14968
404.935	1.56462
407.828	2.77906
410.72	2.91543
413.613	3.17088
416.506	1.95928
419.399	0.574278
422.291	1.66614
425.184	2.00586
428.077	1.44863
430.969	2.66902
433.862	1.55635
436.755	0.21681
439.647	0.642067
442.54	1.50749
445.433	0.433472
448.325	0.664013
451.218	1.57092
454.111	0.280748
457.004	0.208828
459.896	1.78239
462.789	0.849129
465.682	1.08049
468.574	1.02253
471.467	0.205006
474.36	1.16321
477.252	0.028625
480.145	0.696661
483.038	0.628706
485.931	0.114239
488.823	1.36673
491.716	0.065907
494.609	0.006433
497.501	1.32703
500.394	0.022251
503.287	0.516384
506.18	0.01899
509.072	0.386108
511.965	0.602362
514.858	0.24272
517.75	2.4277
520.643	1.7128
523.536	1.77181
526.428	1.72141
529.321	3.03185
532.214	2.82677
535.106	0.489952
537.999	2.09811
540.892	1.28817
543.785	2.6139
546.677	0.752653
549.57	1.54737
552.463	1.41617
555.355	1.03071
558.248	1.70737
561.141	3.41526
564.034	2.04476
566.926	1.96419
569.819	1.67321
572.712	0.898224
575.604	2.49201
578.497	0.651154
581.39	2.25521
584.282	0.094734
587.175	0.924791
590.068	0.13402
592.961	1.55082
595.853	1.0472
598.746	0.661861
601.639	0.400951
604.531	1.17741
607.424	1.23299
610.317	2.09404
613.209	3.04243
616.102	1.16221
618.995	0.396128
621.888	2.32466
624.78	0.850481
627.673	1.30275
630.566	2.5966
633.458	2.21669
636.351	1.96592
639.244	1.58048
642.136	2.40478
645.029	3.86095
647.922	1.87107
650.814	0.866446
653.707	1.26609
656.6	1.77095
659.493	2.51336
662.385	0.643536
665.278	3.35939
668.171	1.76586
671.063	1.88423
673.956	0.900749
676.849	1.14367
679.741	2.18423
682.634	0.221847
685.527	2.38887
688.42	0.70402
691.312	0.354615
694.205	1.35919
697.098	0.157341
699.99	2.14945
702.883	1.2873
705.776	3.68862
708.668	11.5936
711.561	22.9969
714.454	31.2619
717.347	48.5276
720.239	70.3211
723.132	159.97
726.025	319.366
728.917	51.6626
731.81	9.34627
734.703	5.68337
737.596	2.57495
740.488	1.63667
743.381	3.16783
746.274	1.67378
749.166	2.4024
752.059	1.71531
754.952	2.39871
757.844	3.46802
760.737	3.855
763.63	4.28285
766.523	3.22051
769.415	4.41199
772.308	2.84877
775.201	1.62964
778.093	6.22988
780.986	4.05109
783.879	4.78919
786.771	4.77888
789.664	1.20471
792.557	4.02386
795.449	1.14307
798.342	2.49447
801.235	1.56694
804.128	1.84922
807.02	3.63255
809.913	0.907238
812.806	0.457657
815.698	1.5484
818.591	0.429183
821.484	1.44253
824.376	1.6996
827.269	2.16786
830.162	1.73311
833.055	1.29553
835.947	0.290822
838.84	0.85108
841.733	2.8068
844.625	0.245561
847.518	0.634908
850.411	3.4634
853.303	3.51096
856.196	1.21566
859.089	1.41565
861.982	2.91076
864.874	2.54112
867.767	3.2135
870.66	2.99812
873.552	2.09784
876.445	4.30166
879.338	2.35381
882.231	3.45724
885.123	1.97574
888.016	3.75872
890.909	0.886704
893.801	1.70438
896.694	2.83292
899.587	1.24308
902.479	2.28442
905.372	0.830746
908.265	1.90819
911.158	0.409577
914.05	2.07257
916.943	1.7866
919.836	1.44059
922.728	2.66951
925.621	1.68345
928.514	3.46147
931.406	2.09593
934.299	3.84508
937.192	3.12068
940.085	1.93321
942.977	3.04429
945.87	1.30683
948.763	1.9484
951.655	2.22512
954.548	1.55852
957.441	0.828642
960.333	1.56035
963.226	1.6935
966.119	0.336686
969.011	0.057072
971.904	0.557121
974.797	2.51753
977.69	0.949311
980.582	0.779436
983.475	1.15869
986.368	0.973207
989.26	0.032979
992.153	1.72471
995.046	0.873365
997.938	0.805149
1000.83	2.15393
1003.72	1.67052
1006.62	2.67569
1009.51	1.41185
1012.4	1.77597
1015.29	0.61053
1018.19	1.96257
1021.08	1.64508
1023.97	0.735456
1026.87	0.742775
1029.76	0.237201
1032.65	4.31585
1035.54	5.62178
1038.44	6.38169
1041.33	11.6195
1044.22	24.2815
1047.11	44.4207
1050.01	111.877
1052.9	91.8622
1055.79	161.496
1058.68	298.845
1061.58	451.224
1064.47	895.938
1067.36	2117.13
1070.26	2987.77
1073.15	248.069
1076.04	63.9458
1078.93	28.7141
1081.83	15.4406
1084.72	11.1236
1087.61	9.97884
1090.51	6.79059
1093.4	3.12599
1096.29	2.07895
1099.18	4.58507
1102.08	4.38189
1104.97	0.261636
1107.86	3.08749
1110.75	2.63077
1113.65	0.779298
1116.54	0.437887
1119.43	0.359944
1122.33	0.099644
1125.22	1.40408
1128.11	3.18024
1131	3.08878
1133.89	0.112854
1136.79	2.90782
1139.68	0.13579
1142.57	1.61281
1145.47	3.21619
1148.36	5.52873
1151.25	4.61632
1154.14	3.32171
1157.04	5.03552
1159.93	3.31344
1162.82	2.37359
1165.71	5.10858
1168.61	5.08578
1171.5	4.88862
1174.39	3.88314
1177.29	3.82592
1180.18	4.3326
1183.07	6.85238
1185.96	1.02547
1188.86	2.77712
1191.75	6.70517
1194.64	1.31313
1197.54	0.601273
1200.43	2.81262
1203.32	0.28797
1206.21	1.62781
1209.11	4.94873
1212	4.56335
1214.89	3.09636
1217.78	1.50067
1220.68	3.86063
1223.57	2.77709
1226.46	1.43338
1229.35	3.11787
1232.25	1.13905
1235.14	3.46933
1238.03	4.68369
1240.92	1.40168
1243.82	3.27168
1246.71	5.10895
1249.6	2.16614
1252.5	2.67212
1255.39	4.21931
1258.28	3.46713
1261.17	5.78479
1264.07	2.75559
1266.96	2.42535
1269.85	2.16784
