Measurement: Raman, 785 nm, unoriented, Raman Data Processed
Mineral: Nobleite
Rruff sample: R060847
Ideal chemistry: CaB_6_O_9_(OH)_2_3H_2_O
Locality: Hard Scramble claim, Death Valley USA
Source: Michael Scott
Description: Colorless platy crystals
Measured chemistry: Ca_1.00_B_6_O_9_((OH)_1.60_F_0.40_)_Σ=2_·3H_2_O ; trace amounts of Fe; B not measured but assumed by stoichiometry; OH estimated as 2-F
Raman shift (cm-1)	intensity
137.437	0
140.33	69.0591
143.223	1370.1
146.115	3351.63
149.008	5009.11
151.901	5011.4
154.793	4007.5
157.686	3226.62
160.579	2940.65
163.472	2504.41
166.364	2121.63
169.257	1652.15
172.15	922.061
175.042	291.677
177.935	10.9307
180.828	11.2417
183.72	167.012
186.613	505.004
189.506	898.249
192.399	1184.2
195.291	1767.05
198.184	2042.26
201.077	2178.51
203.969	1959.01
206.862	1394.93
209.755	794.117
212.648	323.664
215.54	93.749
218.433	14.3423
221.326	93.2798
224.218	19.5259
227.111	35.0671
230.004	153.282
232.896	345.005
235.789	347.524
238.682	209.512
241.575	254.318
244.467	359.237
247.36	519.016
250.253	570.678
253.145	686.643
256.038	920.965
258.931	910.402
261.823	610.259
264.716	334.008
267.609	113.516
270.502	45.6585
273.394	30.4287
276.287	37.4648
279.18	19.8377
282.072	98.8455
284.965	83.6802
287.858	57.0696
290.75	68.6758
293.643	24.7742
296.536	7.49365
299.428	118.457
302.321	351.411
305.214	689.761
308.107	1112.73
310.999	1439.35
313.892	1267.83
316.785	998.086
319.677	1104.91
322.57	1460.38
325.463	2198.9
328.356	2871.86
331.248	2805.72
334.141	2100.94
337.034	1619.88
339.926	1208.49
342.819	849.333
345.712	677.338
348.604	657.717
351.497	737.912
354.39	725.619
357.283	881.967
360.175	1210.53
363.068	1728.11
365.961	2150.64
368.853	2737.77
371.746	3656.24
374.639	5005.02
377.531	6647.73
380.424	7939.35
383.317	7241.07
386.209	4889.2
389.102	2731.81
391.995	1603.83
394.888	970.705
397.78	551.586
400.673	269.799
403.566	80.3994
406.458	65.6616
409.351	64.7239
412.244	18.2058
415.137	141.634
418.029	396.406
420.922	539.179
423.815	334.06
426.707	230.688
429.6	306.527
432.493	390.616
435.385	459.146
438.278	353.808
441.171	272.688
444.063	351.698
446.956	695.275
449.849	1421.46
452.742	2564.62
455.634	4031.85
458.527	5165.65
461.42	4318.08
464.312	2298.45
467.205	1146.18
470.098	580.687
472.99	452.147
475.883	291.978
478.776	172.566
481.669	50.48
484.561	1.46973
487.454	0.408203
490.347	1.54492
493.239	7.28345
496.132	12.8745
499.025	85.1702
501.918	77.459
504.81	170.95
507.703	266.338
510.596	419.097
513.488	657.686
516.381	1198.96
519.274	1898.88
522.166	2784.59
525.059	3198.4
527.952	2174.64
530.845	992.002
533.737	338.828
536.63	109.853
539.523	69.7505
542.415	35.5632
545.308	28.656
548.201	19.9934
551.093	69.1711
553.986	22.8189
556.879	70.0474
559.771	150.046
562.664	267.546
565.557	421.428
568.45	637.607
571.342	1093
574.235	1334.91
577.128	1001.94
580.02	522.428
582.913	276.952
585.806	139.636
588.699	56.6045
591.591	129.569
594.484	220.946
597.377	392.81
600.269	739.64
603.162	1071.72
606.055	1327.93
608.947	1211.34
611.84	869.905
614.733	759.814
617.626	896.249
620.518	1285.19
623.411	1916.98
626.304	2977.3
629.196	4795.26
632.089	7357.2
634.982	8997.77
637.875	7525.26
640.767	4570.63
643.66	2594.63
646.553	1635.88
649.445	1045.67
652.338	755.129
655.231	518.166
658.123	405.567
661.016	281.37
663.909	228.359
666.802	149.403
669.694	188.426
672.587	138.376
675.48	128.606
678.372	80.3333
681.265	41.4895
684.158	26.0535
687.05	25.1973
689.943	22.2859
692.836	37.8782
695.729	24.468
698.621	41.032
701.514	7.52197
704.407	18.9045
707.299	98.2742
710.192	184.419
713.085	232.947
715.977	336.039
718.87	444.854
721.763	680.628
724.655	998.863
727.548	1365.11
730.441	1590.41
733.334	1905.4
736.226	2667.18
739.119	4024.79
742.012	5963.66
744.904	6580.28
747.797	4474.65
750.69	2248.72
753.582	1113.64
756.475	630.778
759.368	399.126
762.261	292.097
765.153	180.91
768.046	48.3922
770.939	44.4111
773.831	51.5201
776.724	13.9724
779.617	11.0985
782.51	5.76807
785.402	53.9545
788.295	12.4786
791.188	92.8928
794.08	89.7714
796.973	113.514
799.866	246.955
802.758	258.708
805.651	387.175
808.544	406.156
811.437	381.65
814.329	341.928
817.222	397.748
820.115	626.969
823.007	973.695
825.9	1225.14
828.793	992.014
831.685	542.348
834.578	247.588
837.471	76.7299
840.364	80.5066
843.256	32.2687
846.149	33.2173
849.042	31.4226
851.934	93.806
854.827	66.5806
857.72	103.479
860.612	86.3407
863.505	120.556
866.398	51.6998
869.29	2.67139
872.183	53.7141
875.076	29.9131
877.969	3.3988
880.861	80.4865
883.754	33.3306
886.647	107.117
889.539	218.076
892.432	341.663
895.325	579.697
898.217	568.982
901.11	451.752
904.003	275.932
906.896	133.331
909.788	99.5175
912.681	48.1417
915.574	18.2073
918.466	15.0403
921.359	21.4145
924.252	62.0914
927.145	16.141
930.037	19.4752
932.93	77.5663
935.823	18.5756
938.715	18.2398
941.608	6.11841
944.501	5.47485
947.394	27.0931
950.286	36.7211
953.179	1.57446
956.072	26.5308
958.964	11.9249
961.857	41.0511
964.75	118.139
967.642	229.054
970.535	395.736
973.428	709.013
976.321	1149.13
979.213	1403.78
982.106	1241.56
984.999	1109.52
987.891	1382.76
990.784	1810.21
993.677	2185.16
996.569	2165.68
999.462	1543.85
1002.36	981.34
1005.25	562.312
1008.14	335.291
1011.03	233.501
1013.93	169.106
1016.82	184.385
1019.71	179.637
1022.6	158.079
1025.5	173.726
1028.39	387.538
1031.28	512.741
1034.17	626.222
1037.07	734.383
1039.96	685.374
1042.85	616.428
1045.74	496.507
1048.64	393.73
1051.53	266.66
1054.42	174.019
1057.32	132.388
1060.21	116.601
1063.1	78.4729
1065.99	41.7779
1068.89	23.1372
1071.78	20.6218
1074.67	31.9998
1077.57	42.5574
1080.46	73.4899
1083.35	194.877
1086.24	290.46
1089.14	449.511
1092.03	539.952
1094.92	549.725
1097.81	463.871
1100.71	336.886
1103.6	208.787
1106.49	83.1287
1109.38	29.5135
1112.28	2.74646
1115.17	37.2645
1118.06	12.7756
1120.96	33.7028
1123.85	60.7245
1126.74	47.7446
1129.63	29.8146
1132.53	107.721
1135.42	32.641
1138.31	14.342
1141.2	9.88562
1144.1	52.6394
1146.99	94.5131
1149.88	240.04
1152.78	302.51
1155.67	350.933
1158.56	347.343
1161.45	408.714
1164.35	412.78
1167.24	336.103
1170.13	325.534
1173.02	249.462
1175.92	230.422
1178.81	206.852
1181.7	185.859
1184.6	187.786
1187.49	140.624
1190.38	119.561
1193.27	152.594
1196.17	115.933
1199.06	110.175
1201.95	105.753
1204.84	36.3569
1207.74	61.7621
1210.63	94.4102
1213.52	79.4187
1216.41	92.7549
1219.31	87.7474
1222.2	95.1516
1225.09	94.1083
1227.98	115.718
1230.88	110.205
1233.77	85.0509
1236.66	36.8232
1239.56	18.0586
1242.45	81.401
1245.34	93.7071
1248.23	77.1754
1251.13	89.8943
1254.02	94.3131
1256.91	68.0227
1259.81	17.3611
1262.7	4.03235
1265.59	68.6049
1268.48	28.2466
1271.38	36.4117
