Measurement: Raman, 532 nm, unoriented, Raman Data Processed
Mineral: Nobleite
Rruff sample: R060847
Ideal chemistry: CaB_6_O_9_(OH)_2_3H_2_O
Locality: Hard Scramble claim, Death Valley USA
Source: Michael Scott
Description: Colorless platy crystals
Measured chemistry: Ca_1.00_B_6_O_9_((OH)_1.60_F_0.40_)_Σ=2_·3H_2_O ; trace amounts of Fe; B not measured but assumed by stoichiometry; OH estimated as 2-F
Raman shift (cm-1)	intensity
121.523	0
124.898	588.49
128.272	558.704
131.647	117.956
135.022	27.7217
138.397	519.495
141.772	1221.87
145.146	1996.25
148.521	2558.65
151.896	2749.62
155.271	2759.87
158.646	2722.71
162.02	2070.59
165.395	1275.73
168.77	829.469
172.145	407.033
175.52	89.6851
178.895	12.9373
182.269	31.396
185.644	198.527
189.019	540.56
192.394	909.018
195.769	1277.37
199.143	1562.36
202.518	1560.02
205.893	1379.5
209.268	801.21
212.643	382.005
216.018	130.053
219.392	5.8811
222.767	46.5923
226.142	21.0178
229.517	126.76
232.892	277.121
236.266	288.978
239.641	110.294
243.016	130.72
246.391	201.963
249.766	246.373
253.141	237.552
256.515	252.454
259.89	317.322
263.265	211.415
266.64	61.5791
270.015	22.165
273.389	6.78101
276.764	20.9971
280.139	20.2109
283.514	36.4575
286.889	18.6423
290.264	43.6062
293.638	26.0786
297.013	54.7114
300.388	139.687
303.763	353.685
307.137	648.106
310.512	959.004
313.887	902.547
317.262	643.325
320.637	642.324
324.012	910.832
327.386	1328.26
330.761	1550.81
334.136	1179.53
337.511	879.718
340.886	724.366
344.26	419.371
347.635	305.25
351.01	346.846
354.385	502.455
357.76	568.11
361.135	898.082
364.509	1266.99
367.884	1620.53
371.259	2195.44
374.634	3032.73
378.009	4023.78
381.384	4807.52
384.758	3916.67
388.133	2199.37
391.508	1141.7
394.883	640.291
398.257	333.973
401.632	142.914
405.007	23.8655
408.382	21.0178
411.757	38.8818
415.132	21.4863
418.506	162.258
421.881	226.307
425.256	78.7881
428.631	68.521
432.006	96.1875
435.38	164.92
438.755	107.607
442.13	110.632
445.505	167.068
448.88	475.406
452.255	869.158
455.629	1570.68
459.004	2143.18
462.379	1621.2
465.754	725.85
469.129	351.422
472.503	221.126
475.878	186.722
479.253	121.402
482.628	70.6338
486.003	16.6352
489.377	7.38379
492.752	34.2637
496.127	16.9922
499.502	124.582
502.877	137.802
506.252	198.462
509.626	317.067
513.001	501.174
516.376	806.701
519.751	1332.5
523.126	2001.22
526.5	2058.63
529.875	1008.19
533.25	401.543
536.625	127.01
540	34.2866
543.375	8.64648
546.749	10.7822
550.124	34.1836
553.499	33.6636
556.874	44.5772
560.249	86.6318
563.623	138.478
566.998	278.558
570.373	558.668
573.748	835.966
577.123	611.5
580.497	285.378
583.872	161.442
587.247	75.478
590.622	125.577
593.997	130.626
597.372	293.643
600.746	451.731
604.121	718.64
607.496	857.835
610.871	751.698
614.246	572.892
617.62	756.03
620.995	1120.99
624.37	1645.5
627.745	2411.04
631.12	3816.43
634.495	5253.44
637.869	4673.78
641.244	2633.67
644.619	1376.18
647.994	863.186
651.369	557.731
654.743	362.085
658.118	228.092
661.493	175.544
664.868	76.2393
668.243	74.2856
671.617	106.561
674.992	79.854
678.367	27.749
681.742	18.3774
685.117	17.7725
688.492	41.8472
691.866	0.092773
695.241	23.2993
698.616	12.4966
701.991	42.5996
705.366	52.7056
708.74	89.5786
712.115	132.503
715.49	279.809
718.865	400.198
722.24	606.779
725.615	961.504
728.989	1375.12
732.364	1687.14
735.739	2059.15
739.114	2993.08
742.489	4458.95
745.863	4879.62
749.238	2587.45
752.613	972.025
755.988	575.528
759.363	358.946
762.737	181.102
766.112	112.463
769.487	103.708
772.862	91.6089
776.237	7.79492
779.612	10.9399
782.986	30.042
786.361	17.564
789.736	47.2441
793.111	1.30615
796.486	104.601
799.86	171.908
803.235	275.074
806.61	314.7
809.985	348.923
813.36	233.858
816.735	366.465
820.109	496.173
823.484	822.839
826.859	1090.98
830.234	655.3
833.609	255.408
836.983	167.256
840.358	60.6191
843.733	6.51611
847.108	56.7974
850.483	97.7422
853.857	76.1763
857.232	99.3936
860.607	139.156
863.982	40.9902
867.357	48.5342
870.731	12.5903
874.106	29.7056
877.481	32.7676
880.856	73.3101
884.231	95.5244
887.606	162.125
890.98	234.198
894.355	319.738
897.73	400.033
901.105	293.102
904.48	191.081
907.855	113.272
911.229	43.1226
914.604	24.5435
917.979	7.19678
921.354	53.3603
924.729	50.8237
928.103	34.6929
931.478	41.5239
934.853	3.04492
938.228	46.249
941.603	31.4858
944.977	20.5503
948.352	11.751
951.727	13.3657
955.102	34.602
958.477	31.8887
961.851	95.8794
965.226	150.088
968.601	234.805
971.976	372.836
975.351	625.569
978.726	990.028
982.1	948.655
985.475	1033.87
988.85	1305.53
992.225	1763.66
995.6	1958.6
998.975	1515.41
1002.35	829.799
1005.72	485.218
1009.1	289.855
1012.47	238.914
1015.85	150.635
1019.22	184.348
1022.6	229.654
1025.97	300.215
1029.35	379.48
1032.72	491.608
1036.1	582.301
1039.47	552.048
1042.85	484.761
1046.22	325.798
1049.6	300
1052.97	183.513
1056.35	108.778
1059.72	80.582
1063.1	44.8511
1066.47	34.1226
1069.85	26.3652
1073.22	6.99463
1076.6	19.4087
1079.97	45.6963
1083.35	164.471
1086.72	288.011
1090.09	436.406
1093.47	511.433
1096.84	526.545
1100.22	360.393
1103.59	222.237
1106.97	127.487
1110.34	6.28271
1113.72	15.8862
1117.09	16.2485
1120.47	56.8086
1123.84	113.02
1127.22	62.9131
1130.59	156.876
1133.97	3.88721
1137.34	50.0478
1140.72	20.1645
1144.09	43.9014
1147.47	70.4199
1150.84	100.265
1154.22	191.409
1157.59	242.38
1160.97	201.852
1164.34	239.319
1167.71	143.29
1171.09	149.697
1174.46	150.024
1177.84	155.363
1181.21	96.9277
1184.59	168.099
1187.96	128.94
1191.34	40.9438
1194.71	9.55078
1198.09	20.6079
1201.46	36.3003
1204.84	23.167
1208.21	1.93799
1211.59	47.4033
1214.96	51.1274
1218.34	21.3325
1221.71	51.0723
1225.09	19.1504
1228.46	7.39404
1231.84	23.2388
1235.21	0.098633
1238.59	96.6064
1241.96	67.1221
1245.34	94.2983
1248.71	96.6763
1252.09	80.0381
1255.46	95.5019
1258.84	57.7153
1262.21	0.099609
1265.59	18.8584
1268.96	42.584
1272.33	94.3198
1275.71	81.4761
1279.08	57.9419
1282.46	34.6216
1285.83	117.266
1289.21	54.6899
1292.58	27.1401
