Measurement: Raman, 532 nm, unoriented, Raman Data Processed
Mineral: Nontronite
Rruff sample: R070286
Ideal chemistry: Na_0.3_Fe^3+^_2_(Si,Al)_4_O_10_(OH)_2_nH_2_O
Locality: Andreasberg, Sachsen, Germany
Source: Michael Scott
Description: Green granular massive mixed with quartz
Measured chemistry: (Ca_0.19_Na_0.02_)_Σ=0.21_(Fe^3+^_1.93_Mg_0.07_)_Σ=2_(Si_3.67_Fe^3+^_0.21_Al_0.12_)_Σ=4_O_10_(OH)_2_·2.67H_2_O; OH estimated by charge balance; H_2_O by difference
Raman shift (cm-1)	intensity
151.59	0
154.483	237.652
157.376	778.249
160.268	1122.72
163.161	1194.84
166.054	1267.94
168.946	1411.95
171.839	1662.96
174.732	1974.92
177.625	2368.61
180.517	2379.52
183.41	1953.95
186.303	1424.27
189.195	852.792
192.088	356.571
194.981	65.1973
197.874	-0.779114
200.766	17.0171
203.659	38.2371
206.552	77.8125
209.444	221.944
212.337	541.049
215.23	845.72
218.122	1475.69
221.015	2279.12
223.908	3079.64
226.8	3351.24
229.693	3881.48
232.586	4265.65
235.479	4074.99
238.371	3411.17
241.264	2661.68
244.157	2000.89
247.049	1453.15
249.942	1209.46
252.835	1152.65
255.727	1186.37
258.62	1317.44
261.513	1491.58
264.406	1778.26
267.298	2191.14
270.191	2511.46
273.084	2705.17
275.976	3109.89
278.869	3626.11
281.762	4115.56
284.655	4103.19
287.547	3415.81
290.44	2442.75
293.333	1566.61
296.225	904.737
299.118	488.773
302.011	157.838
304.904	14.3164
307.796	86.6963
310.689	44.5303
313.582	42.0088
316.474	48.7109
319.367	86.0352
322.26	101.84
325.152	196.996
328.045	144.448
330.938	122.39
333.83	155.544
336.723	190.23
339.616	141.856
342.509	207.975
345.401	293.052
348.294	338.382
351.187	591.357
354.079	691.31
356.972	932.559
359.865	864.665
362.757	839.334
365.65	536.269
368.543	301.533
371.436	163.286
374.328	9.58008
377.221	21.7998
380.114	30.5947
383.006	42.1914
385.899	67.3359
388.792	172.257
391.685	293.713
394.577	457.524
397.47	561.659
400.363	682.668
403.255	829.732
406.148	928.636
409.041	1175.94
411.933	1363.14
414.826	1625.42
417.719	1874.14
420.611	2053.21
423.504	2119.15
426.397	2128.19
429.29	1896.34
432.182	1683.63
435.075	1345.25
437.968	1056.59
440.86	772.04
443.753	601.574
446.646	368.8
449.538	377.875
452.431	191.723
455.324	142.253
458.217	86.5352
461.109	26.5059
464.002	12.9229
466.895	36.4228
469.787	78.1279
472.68	30.2129
475.573	23.501
478.466	8.25488
481.358	119.416
484.251	227.477
487.144	275.517
490.036	461.021
492.929	625.873
495.822	730.453
498.714	903.102
501.607	1050.43
504.5	1167.41
507.393	1209.54
510.285	1191.06
513.178	1196.9
516.071	1132.77
518.963	1062.59
521.856	1000.8
524.749	937.815
527.641	909.513
530.534	762.773
533.427	717.844
536.32	687.403
539.212	561.732
542.105	444.101
544.998	423.844
547.89	414.737
550.783	379.882
553.676	418.282
556.568	411.308
559.461	398.946
562.354	509.996
565.247	614.818
568.139	606.284
571.032	632.243
573.925	687.974
576.817	812.201
579.71	772.308
582.603	856.664
585.495	754.572
588.388	745.367
591.281	677.91
594.174	563.823
597.066	522.284
599.959	494.685
602.852	533.924
605.744	423.262
608.637	347.606
611.53	288.601
614.423	237.504
617.315	126.216
620.208	113.037
623.101	42.5791
625.993	7.33691
628.886	35.8369
631.779	38.7949
634.671	3.98633
637.564	19.6006
640.457	69.959
643.35	96.6055
646.242	60.21
649.135	179.298
652.028	195.178
654.92	184.414
657.813	390.406
660.706	472.28
663.598	549.472
666.491	779.492
669.384	955.01
672.277	1156.95
675.169	1293.37
678.062	1413.54
680.955	1255.06
683.847	1258.84
686.74	922.821
689.633	653.489
692.525	478.772
695.418	471.005
698.311	351.974
701.204	366.043
704.096	287.772
706.989	259.743
709.882	103.009
712.774	167.516
715.667	163.296
718.56	119.941
721.452	62.6211
724.345	104.308
727.238	100.434
730.131	111.506
733.023	69.8506
735.916	81.3838
738.809	3.52148
741.701	86.4482
744.594	16.0781
747.487	64.2422
750.38	37.5879
753.272	63.1367
756.165	55.3701
759.058	48.0693
761.95	180.346
764.843	120.738
767.736	211.992
770.628	198.053
773.521	310.871
776.414	281.552
779.307	199.494
782.199	213.037
785.092	359.445
787.985	328.376
790.877	165.769
793.77	283.856
796.663	269.026
799.555	282.712
802.448	392.469
805.341	389.668
808.234	462.325
811.126	483.103
814.019	433.504
816.912	429.899
819.804	336.147
822.697	254.885
825.59	168.001
828.482	61.1143
831.375	129.485
834.268	8.06934
837.16	45.7998
840.053	47.582
842.946	25.752
845.839	16.0977
848.731	6.30469
851.624	60.9053
854.517	32.0938
857.409	150.873
860.302	137.401
863.195	343.758
866.087	589.244
868.98	865.875
871.873	1010.47
874.766	1418.87
877.658	1573.33
880.551	1678.53
883.444	1685.29
886.337	1545.75
889.229	1234.36
892.122	966.622
895.015	759.284
897.907	438.282
900.8	396.884
903.693	183.533
906.585	26.7109
909.478	14.4229
912.371	79.6758
915.264	16.2236
918.156	22.9844
921.049	23.1279
923.942	8.35352
926.834	6.74609
929.727	98.582
932.62	140.808
935.512	199.895
938.405	95.3926
941.298	132.698
944.191	131.56
947.083	252.185
949.976	305.872
952.869	357.817
955.761	344.656
958.654	351.853
961.547	351.844
964.439	401.366
967.332	446.687
970.225	415.396
973.117	344.411
976.01	411.322
978.903	319.102
981.796	320.579
984.688	300.298
987.581	196.862
990.474	184.139
993.366	119.219
996.259	60.0039
999.152	12.8223
1002.04	52.8379
1004.94	92.3809
1007.83	74.2373
1010.72	7.18945
1013.62	186.381
1016.51	341.863
1019.4	470.475
1022.29	744.782
1025.19	980.946
1028.08	1148.18
1030.97	1235.65
1033.86	1248.98
1036.76	1048.37
1039.65	867.406
1042.54	720.559
1045.43	584.098
1048.33	457.514
1051.22	398.445
1054.11	216.353
1057.01	241.31
1059.9	88.6875
1062.79	195.045
1065.68	14.8828
1068.58	3.38477
1071.47	25.6016
1074.36	48.0938
1077.26	13.8281
1080.15	36.3203
1083.04	5.68359
1085.93	34.1016
1088.83	127.562
1091.72	32.123
1094.61	100.787
1097.5	73.0488
1100.4	151.647
1103.29	18.0059
1106.18	84.8555
1109.07	110.172
1111.97	80.082
1114.86	159.887
1117.75	206.894
1120.64	112.039
1123.54	149.125
1126.43	97.0098
1129.32	117.914
1132.22	50.3398
1135.11	102.789
1138	107.846
1140.89	141.012
1143.79	136.486
1146.68	78.1074
1149.57	96.1211
1152.46	145.715
1155.36	76.3809
1158.25	3.70703
1161.14	5.01562
1164.04	19.2812
1166.93	202.338
1169.82	13.9434
1172.71	163.18
1175.61	68.3203
1178.5	63.2207
1181.39	3.89648
1184.29	82.9316
1187.18	194.647
1190.07	147.201
1192.96	203.078
1195.86	109.658
1198.75	203.799
1201.64	108.826
1204.53	204.977
1207.43	173.652
1210.32	139.732
1213.21	80.4219
1216.1	56.5156
1219	115.731
1221.89	138.566
1224.78	12.2734
1227.67	144.955
1230.57	78.7383
1233.46	91.7812
1236.35	78.041
1239.25	90.832
1242.14	73.9199
1245.03	72.7969
1247.92	61.7969
1250.82	9.83984
1253.71	54.5762
1256.6	81.8047
1259.49	46.4531
1262.39	127.912
1265.28	220.117
1268.17	71.0762
1271.07	130.062
1273.96	127.996
1276.85	70.5586
1279.74	22.502
1282.64	118.019
1285.53	180.69
1288.42	158.654
1291.32	26.3047
1294.21	22.1406
1297.1	64.3965
1299.99	28.166
1302.88	116.217
1305.78	24.8867
