Measurement: Raman, 785 nm, unoriented, Raman Data Processed
Mineral: Nontronite
Rruff sample: R070286
Ideal chemistry: Na_0.3_Fe^3+^_2_(Si,Al)_4_O_10_(OH)_2_nH_2_O
Locality: Andreasberg, Sachsen, Germany
Source: Michael Scott
Description: Green granular massive mixed with quartz
Measured chemistry: (Ca_0.19_Na_0.02_)_Σ=0.21_(Fe^3+^_1.93_Mg_0.07_)_Σ=2_(Si_3.67_Fe^3+^_0.21_Al_0.12_)_Σ=4_O_10_(OH)_2_·2.67H_2_O; OH estimated by charge balance; H_2_O by difference
Raman shift (cm-1)	intensity
166.338	0
169.231	55.6743
172.124	290.623
175.017	396.188
177.909	635.617
180.802	701.613
183.695	713.075
186.587	504.438
189.48	281.795
192.373	141.26
195.265	11.3135
198.158	30.5684
201.051	17.833
203.944	14.8779
206.836	61.1045
209.729	92.791
212.622	250.839
215.514	417.868
218.407	704.154
221.3	1030.41
224.192	1213.82
227.085	1484.71
229.978	1769.19
232.87	1984.6
235.763	1974.11
238.656	1787.34
241.549	1359.52
244.441	1079.57
247.334	761.207
250.227	626.528
253.119	504.237
256.012	548.063
258.905	659.479
261.798	781.034
264.69	839.918
267.583	1057.91
270.476	1195.41
273.368	1366.23
276.261	1482.21
279.154	1638.6
282.046	1894.6
284.939	2095.56
287.832	1881.57
290.724	1370.92
293.617	868.543
296.51	507.556
299.403	283.014
302.295	167.455
305.188	155.147
308.081	62.8213
310.973	14.3477
313.866	62.5361
316.759	24.0654
319.651	50.1435
322.544	81.793
325.437	56.8262
328.33	34.9775
331.222	47.1748
334.115	9.54785
337.008	58.7129
339.9	53.5869
342.793	81.6182
345.686	84.2383
348.579	123.675
351.471	185.185
354.364	406.45
357.257	451.398
360.149	499.59
363.042	375.538
365.935	231.217
368.827	90.4541
371.72	97.3897
374.613	77.5713
377.505	20.7607
380.398	23.1885
383.291	39.3935
386.184	27.0742
389.076	134.993
391.969	143.77
394.862	220.474
397.754	319.023
400.647	315.945
403.54	368.218
406.433	461.266
409.325	432.102
412.218	617.364
415.111	621.777
418.003	775.007
420.896	758.811
423.789	814.724
426.681	782.441
429.574	717.381
432.467	628.453
435.36	524.1
438.252	452.806
441.145	319.56
444.038	286.474
446.93	192.285
449.823	133.085
452.716	78.0147
455.608	39.0869
458.501	20.7021
461.394	11.7002
464.286	30.1641
467.179	1.44141
470.072	28.4326
472.965	9.55469
475.857	38.8057
478.75	18.3193
481.643	9.74951
484.535	3.58398
487.428	77.6411
490.321	146.421
493.214	217.25
496.106	348.173
498.999	337.88
501.892	450.789
504.784	535.756
507.677	536.241
510.57	564.235
513.462	588.166
516.355	485.512
519.248	486.149
522.14	532.904
525.033	412.332
527.926	368.416
530.819	344.09
533.711	325.084
536.604	285.206
539.497	200.914
542.389	212.087
545.282	143.487
548.175	199.054
551.067	90.3062
553.96	106.62
556.853	88.5293
559.745	97.8311
562.638	227.597
565.531	196.64
568.424	203.282
571.316	181.812
574.209	205.878
577.102	199.746
579.994	240.28
582.887	270.927
585.78	271.649
588.673	240.608
591.565	180.976
594.458	223.452
597.351	191.53
600.243	142.889
603.136	172.509
606.029	173.606
608.921	90.2402
611.814	120.649
614.707	85.1987
617.6	18.5234
620.492	25.6138
623.385	81.8086
626.278	110.16
629.17	14.3813
632.063	75.519
634.956	19.6528
637.848	44.0649
640.741	29.6499
643.634	28.9629
646.527	62.2197
649.419	75.6909
652.312	68.0225
655.205	178.889
658.097	109.377
660.99	266.269
663.883	246.009
666.775	422.02
669.668	447.658
672.561	610.662
675.454	757.17
678.346	844.022
681.239	819.589
684.132	786.578
687.024	613.663
689.917	494.942
692.81	365.532
695.702	284.434
698.595	297.233
701.488	191.594
704.381	150.993
707.273	115.317
710.166	105.526
713.059	133.956
715.951	68.1299
718.844	38.793
721.737	67.1968
724.63	67.3643
727.522	39.6841
730.415	35.3379
733.308	44.8555
736.2	26.8584
739.093	49.0395
741.986	21.8442
744.878	54.3779
747.771	38.3062
750.664	2.70557
753.557	3.45947
756.449	41.9722
759.342	27.5142
762.235	53.4023
765.127	33.9531
768.02	67.6216
770.913	28.3686
773.805	132.17
776.698	123.013
779.591	115.991
782.484	58.9341
785.376	107.227
788.269	147.287
791.162	42.8706
794.054	83.562
796.947	68.4883
799.84	144.001
802.732	205.221
805.625	165.486
808.518	183.069
811.41	192.025
814.303	286.093
817.196	242.556
820.089	164.074
822.981	175.827
825.874	88.1572
828.767	118.256
831.659	0.709473
834.552	39.4673
837.445	20.897
840.337	33.1836
843.23	20.8061
846.123	1.74121
849.016	58.2842
851.908	25.1221
854.801	33.8491
857.694	58.6812
860.586	46.6787
863.479	144.557
866.372	105.335
869.264	145.15
872.157	245.605
875.05	276.08
877.943	395.743
880.835	491.137
883.728	624.737
886.621	607.38
889.513	609.717
892.406	501.068
895.299	406.215
898.192	315.665
901.084	197.707
903.977	155.304
906.87	54.354
909.762	80.2471
912.655	29.9663
915.548	1.3501
918.44	34.7886
921.333	8.90088
924.226	39.2197
927.119	36.4517
930.011	62.8921
932.904	97.5034
935.797	32.6836
938.689	88.9302
941.582	93.5615
944.475	122.756
947.367	91.6704
950.26	143.214
953.153	122.442
956.045	173.549
958.938	190.644
961.831	184.657
964.724	183.124
967.616	224.986
970.509	227.642
973.402	162.147
976.294	179.239
979.187	195.933
982.08	133.725
984.972	189.109
987.865	101.123
990.758	78.375
993.651	83.374
996.543	78.5957
999.436	7.62451
1002.33	32.5815
1005.22	24.7539
1008.11	42.9697
1011.01	35.7505
1013.9	15.9077
1016.79	31.6968
1019.68	96.4385
1022.58	37.081
1025.47	144.407
1028.36	158.072
1031.26	150.857
1034.15	193.598
1037.04	223.8
1039.93	196.907
1042.83	120.096
1045.72	121.166
1048.61	145.762
1051.51	86.4922
1054.4	94.1113
1057.29	73.3877
1060.18	70.0127
1063.08	64.9126
1065.97	3.45117
1068.86	28.2651
1071.75	53.9829
1074.65	21.3838
1077.54	35.0059
1080.43	41.1543
1083.32	1.92383
1086.22	23.1387
1089.11	11.7012
1092	35.5562
1094.89	4.13721
1097.79	0.083008
1100.68	45.3389
1103.57	49.8784
1106.47	1.6792
1109.36	5.8374
1112.25	46.4551
1115.14	32.7612
1118.04	13.0332
1120.93	36.4727
1123.82	76.6011
1126.71	42.6567
1129.61	8.86328
1132.5	30.1499
1135.39	54.9795
1138.29	22.9448
1141.18	65.5122
1144.07	28.2222
1146.96	45.812
1149.86	55.6992
1152.75	46.7246
1155.64	49.8291
1158.53	26.5137
1161.43	35.0483
1164.32	64.3106
1167.21	55.1245
1170.11	66.686
1173	25.3296
1175.89	36.2788
1178.78	17.1455
1181.68	13.063
1184.57	41.6133
1187.46	4.78076
1190.35	41.2148
1193.25	58.4419
1196.14	41.6587
1199.03	61.3057
1201.92	12.4702
1204.82	2.16553
1207.71	54.1274
1210.6	25.8994
1213.5	57.2734
1216.39	95.1865
1219.28	39.2949
1222.17	92.1768
1225.07	10.855
