Measurement: Raman, 514 nm, unoriented, Raman Data Processed
Mineral: Norbergite
Rruff sample: R050280
Ideal chemistry: Mg_3_SiO_4_F_2_
Locality: Sterling mine, Ogdensburg, New Jersey, USA
Source: Marcus Origlieri
Description: Brownish-orange granular
Measured chemistry: (Mg_0.993_Fe_0.006_Ca_0.001_)_3_(SiO_4_)(F_0.704_OH_0.296_)_2_
Raman shift (cm-1)	intensity
121.203	0
125.369	113.796
129.534	125.416
133.696	258.887
137.857	301.965
142.016	105.526
146.172	136.095
150.327	196.309
154.48	205.754
158.63	230.13
162.779	175.505
166.926	154.248
171.07	110.385
175.213	118.193
179.354	222.835
183.493	312.443
187.63	970.552
191.765	1985.04
195.898	1988.67
200.029	868.857
204.158	450.914
208.285	350.221
212.41	177.707
216.533	307.439
220.654	280.609
224.773	354.967
228.891	268.65
233.006	237.664
237.119	111.021
241.231	169.705
245.34	252.715
249.448	270.021
253.553	161.609
257.657	1.506
261.758	10.693
265.858	36.215
269.956	73.021
274.052	57.873
278.146	55.334
282.237	64.297
286.327	154.98
290.416	313.531
294.502	391.396
298.586	108.885
302.668	13.654
306.749	31.736
310.827	46.01
314.903	69.564
318.978	144.4
323.051	256.486
327.121	498.752
331.19	421.268
335.257	487.053
339.322	279.17
343.385	273.664
347.446	305.385
351.505	448.221
355.563	615.129
359.618	433.959
363.672	442.49
367.723	363.24
371.773	571.303
375.821	883.275
379.866	776.211
383.91	331.051
387.952	450.189
391.992	220.801
396.031	345.752
400.067	440.033
404.101	486.521
408.134	345.254
412.165	687.195
416.193	624.949
420.22	803.02
424.245	972.135
428.268	1257.81
432.289	1351.19
436.309	1246.87
440.326	1246.82
444.342	1322.87
448.355	1099.27
452.367	915.666
456.377	882.061
460.385	860.459
464.391	758.23
468.395	887.434
472.398	616.67
476.398	763.881
480.397	781.48
484.394	716.162
488.389	814.012
492.382	566.91
496.373	223.764
500.362	280.039
504.349	158.225
508.335	118.488
512.319	154.461
516.3	175.721
520.28	18.818
524.259	39.738
528.235	74.465
532.209	201.832
536.182	87.773
540.152	116.891
544.121	136.854
548.088	642.754
552.053	1026.06
556.017	536.053
559.978	388.521
563.938	359.566
567.895	452.418
571.851	634.611
575.805	888.564
579.758	562.852
583.708	746.453
587.657	499.17
591.603	587.525
595.548	554.24
599.491	691.045
603.432	1250.47
607.372	2165.75
611.309	1933.23
615.245	1330.55
619.179	771.477
623.111	705.01
627.041	201.127
630.97	23.18
634.896	110.945
638.821	88.518
642.744	145.564
646.665	14.072
650.584	107.908
654.502	72.02
658.418	44.812
662.331	72.559
666.244	289.391
670.154	693.779
674.062	1401.75
677.969	1528.93
681.874	641.387
685.777	419.197
689.678	381.471
693.577	70.678
697.475	80.525
701.371	57.379
705.265	11.574
709.157	280.648
713.047	154.193
716.936	147.244
720.823	110.932
724.708	27.777
728.591	91.027
732.472	121.504
736.352	279.615
740.23	536.336
744.106	574.707
747.98	243.727
751.853	743.385
755.723	685.695
759.592	601.672
763.459	1210.31
767.325	1311.5
771.188	1032.56
775.05	1054.26
778.91	673.33
782.768	569.385
786.625	800.188
790.479	968.602
794.332	813.418
798.183	980.178
802.033	807.494
805.88	646.705
809.726	901.152
813.57	861.287
817.413	731.945
821.253	788.895
825.092	998.432
828.929	999.771
832.764	1218.15
836.598	1930.54
840.429	3704.98
844.259	6989.39
848.088	14757.3
851.914	20879.4
855.739	14548.6
859.562	7049.43
863.383	3590.04
867.203	2140.61
871.02	1251.92
874.836	1407.69
878.65	1873.91
882.463	2345.83
886.274	1992.84
890.083	1930.74
893.89	1960.11
897.695	1521.75
901.499	1138.48
905.301	420.834
909.102	317.039
912.9	578.645
916.697	377.672
920.492	312.062
924.285	385.369
928.077	357.086
931.867	268.678
935.655	319.209
939.442	179.549
943.226	529.959
947.009	1132.65
950.791	1537.05
954.57	1105.68
958.348	1605.19
962.124	1358.61
965.899	840.348
969.671	1362.12
973.442	3545.4
977.211	3674.96
980.979	1821.27
984.745	521.375
988.509	321.684
992.271	605.555
996.032	670.77
999.791	19.375
1003.55	348.098
1007.3	448.598
1011.06	410.578
1014.81	340.746
1018.56	347.188
1022.31	583.328
1026.06	517.488
1029.8	909.535
1033.55	423.637
1037.29	502.383
1041.03	847.125
1044.77	896.684
1048.5	822.668
1052.24	1130.63
1055.97	895.125
1059.7	531.379
1063.43	724.621
1067.16	361.715
1070.89	446.555
1074.61	534.758
1078.34	411.742
1082.06	410.848
1085.78	587.875
1089.5	354.797
1093.21	314.617
1096.93	126.285
1100.64	350.09
1104.35	209.172
1108.06	613.621
1111.77	250.848
1115.48	94.344
1119.18	356.102
1122.89	833.535
1126.59	68.047
1130.29	219.047
1133.99	221.977
1137.68	222.629
1141.38	105.691
1145.07	35.402
1148.76	229.055
1152.45	227.25
1156.14	500.039
1159.83	44.703
1163.51	172.352
1167.19	234.781
1170.88	232.266
1174.56	103.934
1178.23	568.789
1181.91	382.855
1185.59	336.383
1189.26	366.121
1192.93	656.418
1196.6	249.117
1200.27	658.617
1203.94	218.391
1207.6	739.953
1211.27	686.574
1214.93	441
1218.59	788.676
1222.25	591.828
1225.9	561.055
1229.56	724.926
1233.21	274.637
1236.86	138.16
1240.51	626.348
1244.16	533.242
1247.81	625.168
1251.45	344.781
1255.1	383.953
1258.74	490.355
1262.38	331.035
1266.02	386.52
1269.66	423.965
1273.29	193.602
1276.93	424.59
1280.56	204.535
1284.19	148.43
1287.82	59.801
1291.45	469.266
1295.07	307.117
1298.7	206.043
1302.32	211
1305.94	0
