Measurement: Raman, 780 nm, unoriented, Raman Data Processed
Mineral: Norbergite
Rruff sample: R050280
Ideal chemistry: Mg_3_SiO_4_F_2_
Locality: Sterling mine, Ogdensburg, New Jersey, USA
Source: Marcus Origlieri
Description: Brownish-orange granular
Measured chemistry: (Mg_0.993_Fe_0.006_Ca_0.001_)_3_(SiO_4_)(F_0.704_OH_0.296_)_2_
Raman shift (cm-1)	intensity
134.617	0
137.51	0.516884
140.402	2.85408
143.295	1.10598
146.188	1.98019
149.081	2.23105
151.973	2.10288
154.866	4.12228
157.759	3.44779
160.651	1.18939
163.544	0.010155
166.437	1.55249
169.329	0.257057
172.222	0.232918
175.115	0.64357
178.007	0.468536
180.9	1.79302
183.793	1.67179
186.686	4.10612
189.578	1.9295
192.471	1.47517
195.364	1.21008
198.256	1.88075
201.149	0.798553
204.042	1.11774
206.935	1.92753
209.827	1.21166
212.72	1.31873
215.613	3.14432
218.505	3.0075
221.398	3.00279
224.291	2.87537
227.183	3.92269
230.076	2.91822
232.969	3.42938
235.862	3.45748
238.754	3.38937
241.647	5.34196
244.54	4.81424
247.432	6.86696
250.325	3.78229
253.218	2.24151
256.11	1.49202
259.003	1.1331
261.896	0.562447
264.788	0.385574
267.681	1.1031
270.574	1.39854
273.467	0.343727
276.359	0.294525
279.252	1.82636
282.145	1.00981
285.037	2.72868
287.93	4.97806
290.823	5.64759
293.716	4.27744
296.608	2.80325
299.501	0.348351
302.394	0.394989
305.286	0.014854
308.179	1.49865
311.072	0.035805
313.964	1.35157
316.857	2.76025
319.75	4.41257
322.642	6.9693
325.535	9.1544
328.428	13.6099
331.321	15.6329
334.213	10.6372
337.106	6.00386
339.999	2.8132
342.891	1.01556
345.784	0.420425
348.677	0.91246
351.57	1.94298
354.462	0.647202
357.355	2.46259
360.248	2.43483
363.14	1.52284
366.033	2.51295
368.926	3.31421
371.818	5.66325
374.711	8.0874
377.604	14.7835
380.497	12.5735
383.389	5.66711
386.282	1.89317
389.175	1.0852
392.067	0.888565
394.96	0.351822
397.853	0.365631
400.745	0.46463
403.638	0.476936
406.531	1.90122
409.423	3.59011
412.316	4.95146
415.209	6.35816
418.102	10.7583
420.994	14.9286
423.887	19.5357
426.78	24.9455
429.672	27.0595
432.565	24.0491
435.458	22.2227
438.351	19.9783
441.243	15.0305
444.136	12.21
447.029	7.79098
449.921	4.50242
452.814	2.74046
455.707	1.92882
458.599	1.44284
461.492	2.61076
464.385	1.7412
467.277	1.84492
470.17	3.39376
473.063	3.09708
475.956	3.87687
478.848	4.08206
481.741	4.55048
484.634	7.09544
487.526	5.41268
490.419	4.60435
493.312	1.78839
496.204	1.24283
499.097	1.73491
501.99	1.06048
504.882	0.13472
507.775	0.449463
510.668	0.284218
513.561	0.244682
516.453	0.281357
519.346	0.189262
522.239	1.25378
525.131	0.605339
528.024	0.394974
530.917	0.042992
533.81	2.22043
536.702	3.706
539.595	4.2455
542.488	5.71704
545.38	7.43237
548.273	10.7951
551.166	15.1491
554.058	14.2991
556.951	10.4618
559.844	8.16622
562.737	9.21182
565.629	11.0892
568.522	11.7219
571.415	12.7978
574.307	11.1142
577.2	8.71168
580.093	6.38007
582.986	4.90447
585.878	3.0944
588.771	2.63019
591.663	3.4739
594.556	2.61269
597.449	3.12911
600.342	4.58528
603.234	9.51688
606.127	11.6405
609.02	16.4988
611.912	15.704
614.805	10.2933
617.698	5.19152
620.591	2.38271
623.483	3.93261
626.376	2.03336
629.269	1.37236
632.161	0.519409
635.054	0.706703
637.947	1.11918
640.839	1.11768
643.732	0.224739
646.625	0.321213
649.518	0.25219
652.41	0.465797
655.303	1.35638
658.196	1.07883
661.088	0.286186
663.981	1.45992
666.874	1.34998
669.766	1.33778
672.659	1.50013
675.552	0.980812
678.444	0.089394
681.337	0.76268
684.23	2.44353
687.123	1.12557
690.015	2.44367
692.908	0.055771
695.801	2.80918
698.693	2.32007
701.586	0.599823
704.479	0.132835
707.371	0.938103
710.264	1.573
713.157	0.459999
716.05	0.660011
718.942	0.396988
721.835	0.009682
724.728	0.608948
727.62	0.11412
730.513	0.553169
733.406	0.626854
736.298	1.35632
739.191	0.73568
742.084	0.683472
744.977	1.60115
747.869	1.83707
750.762	2.12145
753.655	2.68089
756.547	1.07832
759.44	3.39832
762.333	1.27642
765.226	1.78413
768.118	1.49143
771.011	0.707123
773.904	0.621979
776.796	0.223679
779.689	0.693024
782.582	0.045502
785.474	1.64753
788.367	0.627197
791.26	0.799377
794.153	2.26415
797.045	1.80711
799.938	0.375374
802.831	0.75853
805.723	2.26733
808.616	3.6743
811.509	5.49223
814.401	7.58688
817.294	8.95017
820.187	11.2497
823.08	13.461
825.972	16.0639
828.865	22.3719
831.758	31.3894
834.65	46.2204
837.543	76.1936
840.436	114.338
843.328	166.204
846.221	246.499
849.114	364.38
852.006	427.562
854.899	315.582
857.792	175.441
860.685	95.154
863.577	59.0027
866.47	39.5422
869.363	26.7868
872.255	21.1516
875.148	19.0088
878.041	20.2906
880.933	25.1085
883.826	29.1612
886.719	22.4525
889.612	20.6116
892.504	24.4214
895.397	27.6429
898.29	23.5538
901.182	14.871
904.075	6.65329
906.968	2.59755
909.861	0.681473
912.753	2.53543
915.646	1.41818
918.539	0.537231
921.431	0.020844
924.324	1.06718
927.217	0.756828
930.109	0.282219
933.002	0.679298
935.895	0.86235
938.788	0.699364
941.68	3.63583
944.573	4.73972
947.466	9.34815
950.358	16.4304
953.251	18.017
956.144	12.4859
959.036	13.3516
961.929	14.8586
964.822	14.4201
967.715	16.1098
970.607	24.7903
973.5	41.7338
976.393	47.2137
979.285	21.6175
982.178	9.74271
985.071	4.68479
987.963	1.92696
990.856	2.46106
993.749	0.47509
996.641	1.27202
999.534	0.991386
1002.43	1.10561
1005.32	0.244698
1008.21	0.456329
1011.11	2.20648
1014	0.540604
1016.89	1.28818
1019.78	0.742462
1022.68	1.3037
1025.57	1.79613
1028.46	0.946228
1031.35	0.647598
1034.25	0.999565
1037.14	0.595894
1040.03	1.11101
1042.92	1.30042
1045.82	0.000282
1048.71	0.838737
1051.6	2.07288
1054.49	1.44137
1057.39	1.75759
1060.28	1.1845
1063.17	1.81915
1066.07	1.15968
1068.96	0.598289
1071.85	0.284317
1074.74	2.09934
1077.64	1.61665
1080.53	1.2005
1083.42	1.20718
1086.32	1.42202
1089.21	1.07427
1092.1	2.08376
1094.99	2.20768
1097.89	1.76338
1100.78	0.820847
1103.67	2.60039
1106.56	0.020042
1109.46	0.215546
1112.35	1.48553
1115.24	2.48412
1118.13	0.118126
1121.03	0.676674
1123.92	0.405266
1126.81	0.521469
1129.71	0.097137
1132.6	0.871994
1135.49	0.348297
1138.38	1.69025
1141.28	0.812042
1144.17	0.748894
1147.06	0.052124
1149.95	0.425308
1152.85	0.346924
1155.74	1.19044
1158.63	0.204422
1161.53	0.612328
1164.42	1.03259
1167.31	0.439323
1170.2	1.33057
1173.1	1.48243
1175.99	1.82867
1178.88	1.10001
1181.77	0.116257
1184.67	0.946938
1187.56	1.09932
1190.45	0.182335
1193.35	2.32696
1196.24	1.16476
1199.13	0.819
1202.02	2.05491
1204.92	0.366859
1207.81	0.684402
1210.7	1.56469
1213.59	1.44438
1216.49	2.31468
1219.38	0.914108
1222.27	1.12604
1225.16	0.946678
1228.06	1.40664
1230.95	1.77995
1233.84	2.14389
1236.74	2.01121
1239.63	1.44791
1242.52	1.38
1245.41	1.79858
1248.31	0.174942
1251.2	1.38593
1254.09	0.930565
1256.98	1.75765
1259.88	1.05138
1262.77	0.736847
1265.66	1.62025
1268.56	1.13704
1271.45	0.045441
1274.34	0.432617
1277.23	1.06707
1280.13	0.306206
1283.02	1.07369
1285.91	0.366493
