Measurement: Raman, 532 nm, unoriented, Raman Data Processed
Mineral: Norbergite
Rruff sample: R050280
Ideal chemistry: Mg_3_SiO_4_F_2_
Locality: Sterling mine, Ogdensburg, New Jersey, USA
Source: Marcus Origlieri
Description: Brownish-orange granular
Measured chemistry: (Mg_0.993_Fe_0.006_Ca_0.001_)_3_(SiO_4_)(F_0.704_OH_0.296_)_2_
Raman shift (cm-1)	intensity
134.486	0
137.378	0.625
140.271	21.8931
143.164	14.4384
146.056	39.7426
148.949	6.1777
151.842	40.1757
154.734	20.5656
157.627	13.1242
160.52	14.526
163.412	13.0982
166.305	37.1454
169.198	18.5477
172.09	34.1989
174.983	25.129
177.876	15.0815
180.769	12.064
183.661	31.7792
186.554	25.9864
189.447	36.004
192.339	22.9779
195.232	45.1072
198.125	10.8787
201.018	15.6677
203.91	7.70773
206.803	37.066
209.696	10.8224
212.588	19.0954
215.481	12.1687
218.374	45.6133
221.266	30.3767
224.159	50.1388
227.052	43.225
229.945	52.9898
232.837	23.7914
235.73	34.418
238.623	39.711
241.515	26.2466
244.408	22.7221
247.301	39.948
250.193	28.0513
253.086	21.0594
255.979	14.0031
258.872	17.4746
261.764	24.0448
264.657	13.4857
267.55	7.52954
270.442	6.48743
273.335	2.09119
276.228	6.08319
279.12	26.6271
282.013	24.7891
284.906	42.0503
287.798	48.2074
290.691	106.61
293.584	78.4784
296.477	25.0207
299.369	11.0635
302.262	29.4014
305.155	15.4261
308.047	10.0123
310.94	5.20075
313.833	13.0408
316.726	7.93066
319.618	28.7614
322.511	19.7794
325.404	65.4147
328.296	57.0762
331.189	79.0466
334.082	82.8538
336.974	29.5701
339.867	31.1363
342.76	2.66473
345.652	16.4973
348.545	22.5995
351.438	19.2752
354.331	30.5687
357.223	10.9795
360.116	28.2242
363.009	15.7344
365.901	35.9426
368.794	24.7698
371.687	11.5238
374.579	71.9664
377.472	95.0482
380.365	83.8114
383.258	76.2741
386.15	38.6168
389.043	6.39429
391.936	8.00928
394.828	1.04163
397.721	17.217
400.614	13.2841
403.507	3.82587
406.399	21.5513
409.292	47.2246
412.185	23.6386
415.077	78.232
417.97	53.7661
420.863	72.2164
423.755	86.4066
426.648	121.734
429.541	132.241
432.433	133.696
435.326	138.861
438.219	140.035
441.112	116.049
444.004	99.2467
446.897	56.1099
449.79	56.9677
452.682	47.3189
455.575	46.8403
458.468	42.8279
461.361	50.8964
464.253	3.02118
467.146	24.8014
470.039	9.09638
472.931	6.69446
475.824	29.444
478.717	12.2679
481.609	30.5645
484.502	36.9078
487.395	38.6544
490.288	44.2218
493.18	4.09729
496.073	23.4482
498.966	32.9371
501.858	22.6338
504.751	14.347
507.644	12.795
510.536	17.5399
513.429	10.4383
516.322	30.4869
519.215	14.7567
522.107	31.823
525	25.007
527.893	0.589844
530.785	12.9368
533.678	50.6669
536.571	11.488
539.463	26.3433
542.356	29.2235
545.249	39.9501
548.141	80.8992
551.034	116.566
553.927	139.021
556.82	121.585
559.712	95.7116
562.605	76.8156
565.498	52.3043
568.39	107.049
571.283	98.5654
574.176	115.369
577.068	105.4
579.961	89.4303
582.854	99.4392
585.747	71.846
588.639	46.9077
591.532	8.10303
594.425	77.8822
597.317	53.1242
600.21	83.1041
603.103	92.2501
605.995	153.602
608.888	183.455
611.781	248.642
614.673	158.95
617.566	142.203
620.459	66.2267
623.352	40.7502
626.244	7.39136
629.137	23.6577
632.03	19.8976
634.922	2.06616
637.815	0.005493
640.708	3.06201
643.601	19.8879
646.493	2.36865
649.386	7.01013
652.279	23.5158
655.171	20.052
658.064	27.4762
660.957	44.1962
663.849	56.3397
666.742	46.8517
669.635	2.45203
672.528	33.3488
675.42	27.9852
678.313	38.3492
681.206	32.9565
684.098	56.8761
686.991	46.6277
689.884	13.8292
692.776	24.2781
695.669	18.558
698.562	31.8061
701.455	36.4005
704.347	6.12207
707.24	6.42615
710.133	16.2557
713.025	16.2709
715.918	27.248
718.811	21.874
721.703	4.95215
724.596	26.2148
727.489	51.5247
730.381	3.63745
733.274	39.4507
736.167	32.74
739.06	57.8716
741.952	31.8852
744.845	68.5029
747.738	32.6316
750.63	54.0154
753.523	59.6201
756.416	61.259
759.308	75.1965
762.201	62.937
765.094	66.1145
767.987	74.6677
770.879	47.3765
773.772	41.9878
776.665	12.5459
779.557	1.02954
782.45	12.6257
785.343	35.1448
788.236	32.9619
791.128	48.3733
794.021	9.36328
796.914	2.81055
799.806	63.5823
802.699	34.5054
805.592	56.7109
808.484	45.9688
811.377	0.512695
814.27	19.3992
817.163	60.3088
820.055	42.1807
822.948	13.8772
825.841	6.56201
828.733	55.2034
831.626	108.698
834.519	235.897
837.411	337.87
840.304	657.452
843.197	1003.94
846.09	1535.03
848.982	2336.98
851.875	3006.75
854.768	2731.69
857.66	1650.32
860.553	904.005
863.446	474.825
866.338	343.531
869.231	207.765
872.124	169.563
875.016	96.5256
877.909	150.778
880.802	183.637
883.695	289.435
886.587	216.976
889.48	205.229
892.373	200.236
895.265	269.968
898.158	270.665
901.051	171.771
903.943	54.575
906.836	20.9534
909.729	48.5493
912.622	5.16186
915.514	37.6108
918.407	36.5823
921.3	16.4712
924.192	12.7168
927.085	21.5591
929.978	26.3931
932.87	47.1428
935.763	33.2319
938.656	20.3308
941.549	2.99414
944.441	43.9993
947.334	53.3269
950.227	129.216
953.119	213.407
956.012	195.902
958.905	190.22
961.798	219.135
964.69	109.61
967.583	84.1304
970.476	81.9282
973.368	156.248
976.261	209.174
979.154	121.085
982.046	109.332
984.939	36.4102
987.832	2.99707
990.724	61.1167
993.617	45.2744
996.51	32.7295
999.403	48.5835
1002.29	23.2388
1005.19	20.5708
1008.08	29.9331
1010.97	2.06836
1013.87	28.6343
1016.76	51.165
1019.65	28.6387
1022.54	87.5229
1025.44	18.2134
1028.33	84.1064
1031.22	46.7671
1034.12	43.4351
1037.01	38.4038
1039.9	41.2568
1042.79	26.438
1045.69	41.2876
1048.58	44.0972
1051.47	32.4727
1054.36	11.6372
1057.26	54.2114
1060.15	87.0625
1063.04	14.3413
1065.93	65.418
1068.83	64.4878
1071.72	63.6074
1074.61	37.1977
1077.51	9.09521
1080.4	51.939
1083.29	81.4453
1086.18	21.6943
1089.08	25.292
1091.97	76.6035
1094.86	35.1582
1097.75	70.3384
1100.65	70.6851
1103.54	64.9917
1106.43	33.3315
1109.33	62.0137
1112.22	46.8916
1115.11	8.67773
1118	77.7305
1120.9	82.7954
1123.79	52.6206
1126.68	37.0024
1129.57	65.0562
1132.47	119.903
1135.36	117.272
1138.25	42.939
1141.14	78.8237
1144.04	11.0425
1146.93	27.498
1149.82	11.6489
1152.72	13.4512
1155.61	72.5859
1158.5	47.9043
1161.39	105.93
1164.29	75.0644
1167.18	117.631
1170.07	44.6196
1172.96	173.405
1175.86	64.2109
1178.75	64.9189
1181.64	96.9204
1184.54	33.8198
1187.43	86.9531
1190.32	93.4175
1193.21	82.7427
1196.11	79.4736
1199	62.3477
1201.89	71.2378
1204.78	71.8745
1207.68	111.276
1210.57	94.854
1213.46	48.9888
1216.36	82.1899
1219.25	90.0601
1222.14	68.9976
1225.03	53.9648
1227.93	47.8042
1230.82	76.2607
1233.71	114.175
1236.6	124.228
1239.5	7.83545
1242.39	57.543
1245.28	93.5742
1248.17	61.3047
1251.07	107.571
1253.96	99.0547
1256.85	94.2969
1259.74	44.7393
1262.64	33.4414
1265.53	74.5742
1268.42	70.5039
1271.32	95.9893
1274.21	58.6641
1277.1	92.6231
1279.99	16.2227
1282.89	62.206
1285.78	31.7646
