Measurement: Raman, 780 nm, unoriented, Raman Data Processed
Mineral: Nordstrandite
Rruff sample: R050592
Ideal chemistry: Al(OH)_3_
Locality: Cerro Sapo, Cochabamba Department, Bolivia
Source: Marcus Origlieri
Description: Single crystals as colorless radiating clusters and tan thick tabular crystals
Measured chemistry: Al_1.00_(OH)_3_; trace amounts of Fe; H_2_O estimated by difference
Raman shift (cm-1)	intensity
140.277	0
143.17	0.000437
146.062	0.324934
148.955	0.400084
151.848	0.523539
154.741	1.26521
157.633	0.464289
160.526	2.08764
163.419	2.52064
166.311	3.19868
169.204	4.47476
172.097	6.95006
174.989	10.5115
177.882	20.8575
180.775	21.8276
183.667	4.89576
186.56	1.97426
189.453	0.07023
192.346	0.389431
195.238	0.304783
198.131	1.15332
201.024	0.128805
203.916	0.316311
206.809	1.0053
209.702	1.72608
212.595	2.07182
215.487	4.32988
218.38	8.91779
221.273	19.13
224.165	33.7515
227.058	64.9308
229.951	49.1332
232.843	62.3191
235.736	123.472
238.629	163.888
241.522	59.0007
244.414	41.4616
247.307	64.9852
250.2	109.331
253.092	44.3951
255.985	11.0275
258.878	7.97115
261.77	15.1523
264.663	31.0328
267.556	18.3132
270.449	8.62412
273.341	8.80537
276.234	13.7696
279.127	24.6751
282.019	48.5478
284.912	88.6461
287.805	84.4285
290.697	93.2856
293.59	127.776
296.483	194.225
299.375	316.638
302.268	519.433
305.161	558.998
308.054	297.535
310.946	206.205
313.839	148.249
316.732	59.1178
319.624	27.7096
322.517	14.1249
325.41	7.0516
328.302	2.61153
331.195	0.64333
334.088	1.48049
336.981	1.95243
339.873	1.49877
342.766	0.79726
345.659	1.07146
348.551	5.43878
351.444	6.80556
354.337	4.91666
357.229	5.68638
360.122	9.59413
363.015	15.6896
365.908	23.5994
368.8	38.3294
371.693	65.7289
374.586	107.118
377.478	142.924
380.371	141.56
383.264	154.364
386.156	207.902
389.049	247.772
391.942	168.939
394.834	82.6085
397.727	45.0066
400.62	32.3101
403.513	30.4941
406.405	37.0989
409.298	46.2172
412.191	40.6928
415.083	24.954
417.976	21.2904
420.869	24.0889
423.762	22.6066
426.654	22.0083
429.547	26.1563
432.44	38.0225
435.332	40.8153
438.225	28.9638
441.118	29.4264
444.01	30.7544
446.903	10.8439
449.796	1.50936
452.688	1.24175
455.581	1.34096
458.474	1.53601
461.366	1.37143
464.259	1.00111
467.152	0.325762
470.045	0.625429
472.937	2.80015
475.83	9.41007
478.723	15.478
481.615	23.5915
484.508	36.3271
487.401	53.6556
490.293	72.6808
493.186	87.4599
496.079	93.3456
498.972	100.795
501.864	110.072
504.757	114.359
507.65	100.469
510.542	76.0692
513.435	58.708
516.328	51.6384
519.221	58.506
522.113	74.5813
525.006	106.766
527.899	155.137
530.791	229.813
533.684	317.828
536.577	381.797
539.469	370.371
542.362	298.588
545.255	207.513
548.148	123.531
551.04	67.5453
553.933	38.4487
556.826	22.083
559.718	11.0934
562.611	3.84587
565.504	1.0079
568.396	3.30104
571.289	1.8242
574.182	1.49165
577.074	6.1907
579.967	13.9476
582.86	25.0993
585.753	41.2754
588.645	58.419
591.538	77.5089
594.431	92.0499
597.323	94.8464
600.216	87.6201
603.109	70.9468
606.001	52.3318
608.894	36.3724
611.787	24.6788
614.68	17.1092
617.572	12.7722
620.465	12.4368
623.358	12.9873
626.25	16.3416
629.143	20.7172
632.036	24.2974
634.928	28.6577
637.821	30.097
640.714	29.8023
643.606	29.9698
646.499	31.204
649.392	34.0525
652.285	35.7214
655.177	34.4644
658.07	28.6507
660.963	20.3209
663.855	12.2002
666.748	6.39765
669.641	2.35509
672.534	0.492735
675.426	0.82184
678.319	1.30788
681.212	0.668131
684.104	0.453838
686.997	0.39406
689.89	0.140726
692.782	0.619353
695.675	1.16043
698.568	1.21853
701.461	2.16453
704.353	3.4418
707.246	4.04315
710.139	5.20076
713.031	5.87958
715.924	7.77742
718.817	8.86403
721.709	9.46704
724.602	10.1406
727.495	9.59675
730.388	8.94457
733.28	8.86582
736.173	7.61493
739.066	6.76107
741.958	5.61031
744.851	6.05425
747.744	4.40404
750.636	3.11307
753.529	2.38731
756.422	1.41183
759.314	0.991112
762.207	0.405707
765.1	0.374905
767.993	0.21798
770.885	0.231106
773.778	1.01448
776.671	0.420357
779.563	0.369116
782.456	1.02642
785.349	0.147482
788.241	0.687054
791.134	0.57226
794.027	2.36743
796.919	2.52732
799.812	2.39362
802.705	2.5394
805.598	2.46571
808.49	3.32105
811.383	4.64644
814.276	6.17378
817.168	8.85296
820.061	12.6695
822.954	16.8717
825.846	23.3792
828.739	31.6057
831.632	40.7388
834.525	52.2125
837.417	62.8722
840.31	71.0747
843.203	71.8123
846.095	63.7548
848.988	53.7691
851.881	45.2488
854.774	38.881
857.666	31.7328
860.559	27.6584
863.452	22.0552
866.344	18.942
869.237	17.0645
872.13	14.4956
875.022	13.658
877.915	13.3972
880.808	14.6854
883.7	15.5455
886.593	19.7139
889.486	23.9389
892.379	30.5187
895.271	37.6746
898.164	47.7543
901.057	56.9512
903.949	63.6827
906.842	64.6192
909.735	58.674
912.627	45.9609
915.52	33.732
918.413	24.2441
921.306	15.9292
924.198	10.2742
927.091	6.07009
929.984	3.37676
932.876	1.17662
935.769	0.159388
938.662	1.0276
941.554	0.673967
944.447	0.908373
947.34	1.41257
950.232	0.555439
953.125	0.139172
956.018	1.04725
958.911	1.91107
961.803	4.1462
964.696	6.11618
967.589	9.07902
970.481	12.7638
973.374	16.8768
976.267	22.2994
979.159	26.7351
982.052	30.6066
984.945	30.3136
987.838	26.2844
990.73	20.039
993.623	14.2691
996.516	10.7722
999.408	7.71948
1002.3	6.07198
1005.19	5.30382
1008.09	4.85003
1010.98	5.66148
1013.87	5.95398
1016.76	5.0455
1019.66	4.71197
1022.55	2.67783
1025.44	1.59821
1028.34	1.93491
1031.23	1.09433
1034.12	0.758687
1037.01	0.589605
1039.91	0.191998
1042.8	0.273471
1045.69	0.082309
1048.58	0.185329
1051.48	0.163896
1054.37	0.621555
1057.26	1.19753
1060.15	2.11616
1063.05	2.21199
1065.94	3.05066
1068.83	3.61169
1071.73	4.19068
1074.62	3.90628
1077.51	2.93288
1080.4	3.30456
1083.3	2.96532
1086.19	2.95718
1089.08	2.39281
1091.97	2.50939
1094.87	2.3406
1097.76	1.27534
1100.65	0.847987
1103.55	1.15354
1106.44	0.066388
1109.33	0.894723
1112.22	0.316538
1115.12	0.221212
1118.01	0.359996
1120.9	0.139943
1123.79	0.362597
1126.69	0.082276
1129.58	0.04218
1132.47	0.068994
1135.37	0.3711
1138.26	0.366364
1141.15	0.572135
1144.04	0.160382
1146.94	0.370896
1149.83	0.606173
1152.72	0.862456
1155.61	0.584096
1158.51	0.208045
1161.4	0.700236
1164.29	0.621669
1167.18	0.238496
1170.08	0.594743
1172.97	0.793886
1175.86	0.542994
1178.76	0.860464
1181.65	0.583743
1184.54	0.44284
1187.43	0.614956
1190.33	0.430859
1193.22	0.479922
1196.11	0.449781
1199.01	0.721546
1201.9	0.399363
1204.79	0.84478
1207.68	0.518471
1210.58	0.425356
1213.47	0.326498
1216.36	0.136387
1219.25	0.319274
1222.15	0.463745
1225.04	0.826114
1227.93	0.913825
1230.82	0.454666
1233.72	0.218405
1236.61	0.704394
1239.5	0.49276
1242.39	0.619266
1245.29	0.189861
1248.18	0.336106
1251.07	0.454513
1253.97	0.244969
1256.86	0.135039
1259.75	0.612016
1262.64	0.085193
1265.54	0.567436
1268.43	0.454483
1271.32	0.661348
1274.21	0.634331
1277.11	0.143226
1280	0.258692
1282.89	0.4607
1285.79	0.153462
