Measurement: Raman, 532 nm, unoriented, Raman Data Processed
Mineral: Nordstrandite
Rruff sample: R130093
Ideal chemistry: Al(OH)_3_
Locality: Mont St. Hilaire, Quebec, Canada
Source: Donald Doell
Description: Aggregates of colorless to white tabular crystals, associated with white natrolite, apatite, dark prismatic aegirine and annite
Raman shift (cm-1)	intensity
90.3259	0
93.7007	2.56149
97.0755	1.39287
100.45	3.79089
103.825	1.11223
107.2	4.92155
110.575	6.69061
113.95	7.76535
117.324	10.7799
120.699	12.4122
124.074	12.0789
127.449	10.1652
130.824	9.22491
134.198	4.41863
137.573	2.49795
140.948	0.189095
144.323	2.83165
147.698	1.83668
151.073	2.20773
154.447	4.78983
157.822	5.51837
161.197	7.07019
164.572	9.38574
167.947	12.0631
171.321	17.0446
174.696	18.6301
178.071	22.773
181.446	24.1311
184.821	26.7274
188.196	26.6489
191.57	28.3253
194.945	23.0365
198.32	12.4696
201.695	7.48137
205.07	3.27218
208.445	2.91853
211.819	1.7075
215.194	1.71265
218.569	1.87114
221.944	4.05865
225.319	10.4344
228.693	12.5685
232.068	5.51342
235.443	10.1639
238.818	13.4959
242.193	9.80065
245.567	20.2054
248.942	42.4813
252.317	31.7884
255.692	5.73944
259.067	2.72694
262.442	4.93124
265.816	6.48807
269.191	0.137306
272.566	0.169815
275.941	3.20251
279.316	10.626
282.69	25.4472
286.065	34.1127
289.44	20.691
292.815	26.4005
296.19	45.9065
299.565	90.1526
302.939	148.897
306.314	117.393
309.689	63.9256
313.064	50.1508
316.439	17.1467
319.813	6.60064
323.188	2.51837
326.563	1.49643
329.938	0.604145
333.313	0.498678
336.688	1.08044
340.062	0.849461
343.437	0.02833
346.812	3.49929
350.187	5.18646
353.562	2.70645
356.936	2.09892
360.311	3.27969
363.686	6.5763
367.061	11.0514
370.436	22.1407
373.81	39.6205
377.185	53.0272
380.56	39.005
383.935	28.6844
387.31	28.4876
390.685	24.2205
394.059	13.0418
397.434	8.39582
400.809	8.50853
404.184	13.0597
407.559	21.0217
410.933	26.1559
414.308	16.8628
417.683	10.0565
421.058	8.65783
424.433	8.42356
427.808	7.93769
431.182	10.5499
434.557	12.7486
437.932	7.59388
441.307	5.63205
444.682	5.14351
448.057	1.48138
451.431	0.171146
454.806	0.288359
458.181	0.86447
461.556	0.230169
464.93	0.086788
468.305	0.164331
471.68	1.14055
475.055	1.91375
478.43	3.73201
481.805	6.11995
485.179	10.4845
488.554	14.9256
491.929	20.3875
495.304	23.1492
498.679	24.497
502.053	26.6366
505.428	27.2707
508.803	22.7741
512.178	15.9758
515.553	12.8904
518.928	13.1883
522.302	17.4505
525.677	26.7992
529.052	44.1638
532.427	66.9208
535.802	91.8253
539.177	97.0934
542.551	80.6803
545.926	54.36
549.301	30.3926
552.676	15.9432
556.051	9.16729
559.425	5.36015
562.8	2.22153
566.175	0.154715
569.55	0.595589
572.925	0.002687
576.299	0.314413
579.674	1.30672
583.049	3.9391
586.424	8.02405
589.799	12.8452
593.174	17.0784
596.548	19.0635
599.923	16.9258
603.298	13.6626
606.673	8.74836
610.048	4.64493
613.423	3.2516
616.797	2.27217
620.172	1.43982
623.547	3.3881
626.922	4.37247
630.297	6.28514
633.671	7.43054
637.046	9.01617
640.421	8.66602
643.796	11.2468
647.171	12.5861
650.545	14.8966
653.92	16.3529
657.295	14.7429
660.67	11.437
664.045	6.09766
667.42	3.50485
670.794	1.19938
674.169	0.830015
677.544	0.103237
680.919	0.681337
684.294	0.286572
687.668	0.201187
691.043	0.139641
694.418	0.328844
697.793	0.772387
701.168	0.626291
704.543	1.74372
707.917	3.08625
711.292	3.218
714.667	5.82137
718.042	5.66286
721.417	6.0869
724.791	6.28529
728.166	5.0857
731.541	4.31263
734.916	3.35537
738.291	2.29518
741.665	1.94049
745.04	1.41063
748.415	1.49425
751.79	0.369167
755.165	0.172457
758.54	0.223379
761.914	0.107647
765.289	0.304487
768.664	0.051321
772.039	0.328299
775.414	0.086636
778.788	0.858242
782.163	1.23299
785.538	1.50069
788.913	1.81427
792.288	2.88413
795.663	3.2671
799.037	2.63044
802.412	1.74358
805.787	1.3794
809.162	0.377359
812.537	0.915651
815.912	0.269506
819.286	0.492353
822.661	1.11682
826.036	3.11862
829.411	4.25051
832.786	6.50116
836.16	9.46041
839.535	12.2839
842.91	12.7778
846.285	12.5333
849.66	10.2775
853.034	8.62251
856.409	7.81378
859.784	5.89385
863.159	4.98284
866.534	3.89249
869.909	3.40922
873.283	2.94045
876.658	3.38284
880.033	4.01562
883.408	4.50485
886.783	5.86487
890.158	8.46767
893.532	12.3181
896.907	16.5679
900.282	21.7661
903.657	27.6864
907.032	27.3177
910.406	24.332
913.781	18.1163
917.156	12.801
920.531	8.48881
923.906	5.06793
927.28	3.51345
930.655	1.0657
934.03	1.19354
937.405	0.313002
940.78	0.085255
944.154	0.310268
947.529	0.305841
950.904	0.364714
954.279	0.068651
957.654	0.182365
961.029	0.609636
964.403	1.53408
967.778	2.97582
971.153	4.52576
974.528	6.06351
977.903	7.74936
981.278	9.59369
984.652	9.62113
988.027	8.57209
991.402	5.74318
994.777	4.81555
998.152	3.176
1001.53	2.74736
1004.9	2.87014
1008.28	2.77039
1011.65	3.08232
1015.03	2.91441
1018.4	2.62861
1021.77	2.27019
1025.15	1.66468
1028.53	1.39835
1031.9	0.919344
1035.28	0.404171
1038.65	0.436369
1042.02	0.373943
1045.4	0.225565
1048.77	0.50849
1052.15	0.815266
1055.52	0.861134
1058.9	0.491764
1062.27	1.05594
1065.65	1.00822
1069.02	1.87431
1072.4	1.39983
1075.77	2.13305
1079.15	1.61758
1082.52	2.0781
1085.9	2.22626
1089.27	1.83001
1092.65	1.30864
1096.02	1.29032
1099.4	1.09431
1102.77	0.837916
1106.15	0.499612
1109.52	0.688018
1112.89	0.002651
1116.27	0.326636
1119.64	0.598602
1123.02	0.211676
1126.39	0.202397
1129.77	0.104405
1133.14	0.064418
1136.52	0.233725
1139.89	0.469975
1143.27	0.59908
1146.64	0.35463
1150.02	0.292925
1153.39	0.77373
1156.77	0.185833
1160.14	0.689033
1163.52	0.413702
1166.89	0.132751
1170.27	0.430532
1173.64	0.835797
1177.02	0.637829
1180.39	0.757809
1183.77	0.165287
1187.14	0.125855
1190.52	0.304098
1193.89	0.652281
1197.27	0.010159
1200.64	0.498762
1204.02	0.441018
1207.39	0.444948
1210.77	0.480864
1214.14	1.14717
1217.52	0.23672
1220.89	0.134473
1224.26	0.984852
1227.64	0.351225
1231.01	0.358284
1234.39	0.44214
1237.76	0.870635
1241.14	0.495888
1244.51	0.390389
1247.89	0.160126
1251.26	0.817922
1254.64	0.134385
1258.01	0.12412
1261.39	0.338737
1264.76	0.62466
1268.14	1.13277
1271.51	0.813546
1274.89	0.691325
1278.26	0.426187
1281.64	0.347195
1285.01	0.750484
1288.39	0.405816
1291.76	1.33146
1295.13	0.794519
1298.51	0.817801
1301.88	0
