Measurement: Raman, 785 nm, unoriented, Raman Data Processed
Mineral: Nordenskioldine
Rruff sample: R061079
Ideal chemistry: CaSn^4+^(BO_3_)_2_
Locality: MW Claim, Cassiar Mountains, Yukon, Canada
Source: Lloyd Twaites
Description: Colorless aggregates of tabular crystals
Raman shift (cm-1)	intensity
157.205	0
160.097	3.44617
162.99	57.1785
165.883	12.8451
168.776	33.9721
171.668	21.4038
174.561	18.0864
177.454	21.4988
180.346	31.0514
183.239	20.7419
186.132	10.6682
189.024	12.1213
191.917	33.6814
194.81	27.907
197.703	75.5918
200.595	104.139
203.488	171.418
206.381	385.327
209.273	761.002
212.166	1328.27
215.059	1359.01
217.951	426.984
220.844	148.454
223.737	79.9001
226.63	36.0068
229.522	23.4618
232.415	30.4939
235.308	7.6842
238.2	6.22992
241.093	24.6406
243.986	12.4631
246.878	10.4424
249.771	29.8699
252.664	18.9615
255.556	54.7408
258.449	66.0233
261.342	95.3994
264.235	168.31
267.127	399.556
270.02	923.061
272.913	1789.07
275.805	2828.25
278.698	1483.11
281.591	473.476
284.484	289.362
287.376	204.294
290.269	154.437
293.162	120.523
296.054	99.2829
298.947	86.6479
301.84	69.3682
304.733	24.5325
307.625	34.2432
310.518	22.4397
313.411	17.9709
316.303	2.05804
319.196	0.420532
322.089	0.083984
324.981	5.92896
327.874	8.42218
330.767	15.015
333.659	9.84991
336.552	4.85352
339.445	9.98718
342.337	16.8693
345.23	24.1371
348.123	35.4095
351.016	41.1416
353.908	21.0139
356.801	20.9634
359.694	20.1216
362.586	2.93695
365.479	43.8654
368.372	58.3319
371.264	72.0043
374.157	120.944
377.05	265.014
379.943	513.686
382.835	1055.26
385.728	1732.52
388.621	2362.13
391.513	1974.55
394.406	922.726
397.299	395.416
400.192	214.514
403.084	97.5631
405.977	51.8975
408.87	42.6201
411.762	80.9865
414.655	103.965
417.548	159.222
420.44	252.889
423.333	370.555
426.226	564.472
429.118	876.991
432.011	1351.99
434.904	2311.62
437.797	4219.76
440.689	7787.44
443.582	13001.9
446.475	18114.1
449.367	19197.6
452.26	12087.9
455.153	5944.38
458.046	3179.83
460.938	1933.31
463.831	1244.44
466.724	874.404
469.616	611.845
472.509	429.52
475.402	278.439
478.294	212.233
481.187	148.765
484.08	75.1847
486.973	71.6011
489.865	41.0562
492.758	9.12354
495.651	16.2971
498.543	5.54163
501.436	9.68286
504.329	3.67334
507.221	7.87659
510.114	11.8096
513.007	15.6359
515.899	4.50134
518.792	3.54517
521.685	3.78833
524.578	4.60388
527.47	23.9463
530.363	7.66956
533.256	0.282593
536.148	0.545898
539.041	26.2477
541.934	15.4322
544.827	10.6766
547.719	28.5397
550.612	28.9824
553.505	45.8614
556.397	23.0585
559.29	42.6962
562.183	39.1737
565.075	42.7911
567.968	30.511
570.861	23.1786
573.754	55.3243
576.646	38.361
579.539	48.7181
582.432	32.9998
585.324	32.4927
588.217	28.3468
591.11	21.6588
594.002	22.6364
596.895	18.1974
599.788	19.141
602.681	29.4898
605.573	26.0753
608.466	6.7721
611.359	25.6154
614.251	7.81506
617.144	23.0864
620.037	34.1522
622.929	48.0571
625.822	52.9225
628.715	41.8016
631.607	58.7159
634.5	59.9832
637.393	80.053
640.286	156.889
643.178	235.583
646.071	252.554
648.964	234.595
651.856	131.283
654.749	99.1339
657.642	56.5489
660.534	37.3204
663.427	39.0747
666.32	31.3519
669.213	28.6776
672.105	13.6655
674.998	27.458
677.891	1.03564
680.783	10.0467
683.676	18.519
686.569	8.88721
689.462	8.88452
692.354	7.40894
695.247	1.71997
698.14	20.2498
701.032	1.27991
703.925	2.30798
706.818	10.715
709.71	18.5028
712.603	19.8024
715.496	34.5151
718.389	14.6974
721.281	20.776
724.174	16.0178
727.067	12.3287
729.959	52.6469
732.852	95.7465
735.745	222.852
738.637	552.635
741.53	1217.39
744.423	2231.87
747.316	3100.47
750.208	1666
753.101	715.57
755.994	454.502
758.886	378.054
761.779	458.405
764.672	753.074
767.564	934.603
770.457	512.366
773.35	196.504
776.242	89.7433
779.135	52.1435
782.028	28.3254
784.921	28.8452
787.813	6.95654
790.706	2.8053
793.599	7.01978
796.491	15.0397
799.384	2.1206
802.277	13.7729
805.169	33.0312
808.062	0.247314
810.955	11.1726
813.848	14.2412
816.74	24.8806
819.633	21.2245
822.526	29.0826
825.418	51.5095
828.311	20.6013
831.204	7.27747
834.096	17.6132
836.989	31.9873
839.882	16.1692
842.775	55.2056
845.667	25.462
848.56	49.4193
851.453	25.3048
854.345	47.6464
857.238	48.4628
860.131	41.6503
863.024	40.0262
865.916	29.2546
868.809	20.5645
871.702	23.6896
874.594	22.715
877.487	34.434
880.38	37.5314
883.272	26.1068
886.165	44.6948
889.058	12.2771
891.951	39.0855
894.843	2.07422
897.736	9.78442
900.629	39.7496
903.521	6.42493
906.414	19.3246
909.307	20.6743
912.199	22.3485
915.092	22.264
917.985	11.4352
920.877	42.4086
923.77	19.3624
926.663	59.288
929.556	18.459
932.448	37.1386
935.341	32.3442
938.234	62.7552
941.126	17.1735
944.019	26.0332
946.912	45.0469
949.804	44.9702
952.697	66.7222
955.59	57.7676
958.482	110.098
961.375	74.8897
964.268	38.7353
967.161	5.08862
970.053	4.05078
972.946	6.70606
975.839	19.2893
978.731	20.2842
981.624	32.5815
984.517	38.5859
987.409	30.3069
990.302	26.8145
993.195	22.188
996.088	4.97461
998.98	20.1377
1001.87	31.9265
1004.77	5.85303
1007.66	14.1763
1010.55	0.461914
1013.44	41.0178
1016.34	32.1118
1019.23	52.2852
1022.12	45.3027
1025.02	33.0112
1027.91	84.0691
1030.8	101.189
1033.69	106.841
1036.59	137.433
1039.48	142.444
1042.37	184.208
1045.26	177.591
1048.16	123.194
1051.05	134.674
1053.94	118.957
1056.83	45.1375
1059.73	65.4773
1062.62	65.6914
1065.51	37.0559
1068.4	16.8967
1071.3	47.5176
1074.19	27.5449
1077.08	15.1096
1079.98	23.8398
1082.87	2.30078
1085.76	19.624
1088.65	11.1299
1091.55	19.4397
1094.44	15.1126
1097.33	33.97
1100.22	58.2031
1103.12	50.356
1106.01	101.195
1108.9	126.187
1111.8	193.547
1114.69	227.205
1117.58	254.57
1120.47	310.443
1123.37	364.731
1126.26	350.849
1129.15	302.885
1132.05	244.057
1134.94	172.325
1137.83	126.916
1140.72	70.7466
1143.62	26.0786
1146.51	0.536621
1149.4	15.9915
1152.29	18.9668
1155.19	21.229
1158.08	20.178
1160.97	99.8318
1163.86	179.707
1166.76	207.981
1169.65	261.437
1172.54	226.32
1175.43	222.022
1178.33	188.393
1181.22	223.749
1184.11	226.369
1187.01	215.823
1189.9	220.313
1192.79	178.302
1195.68	155.577
1198.58	59.7185
1201.47	86.3755
1204.36	25.3027
