Measurement: Raman, 532 nm, unoriented, Raman Data Processed
Mineral: Nordenskioldine
Rruff sample: R130017
Ideal chemistry: CaSn^4+^(BO_3_)_2_
Locality: Brooks Mountain, Seward Peninsula, Nome Borough, Alaska, USA
Source: Robert Lavinsky
Description: Colorless to tan sheaf, associated with diopside, vesuvianite, and hulsite, R130016
Raman shift (cm-1)	intensity
214.712	0
217.605	1.83977
220.497	0.082764
223.39	1.48326
226.283	5.20865
229.175	5.55658
232.068	4.1331
234.961	2.73929
237.854	2.27403
240.746	5.44531
243.639	6.11743
246.532	6.13847
249.424	6.696
252.317	6.14333
255.21	7.68729
258.103	7.15112
260.995	10.9198
263.888	12.5669
266.781	16.0516
269.673	24.2837
272.566	50.6145
275.459	113.348
278.351	101.843
281.244	28.9475
284.137	13.8185
287.029	9.18228
289.922	7.55084
292.815	6.20473
295.708	4.90205
298.6	3.36458
301.493	2.51028
304.386	2.11766
307.278	2.16611
310.171	0.426361
313.064	1.78563
315.957	1.41069
318.849	0.994919
321.742	0.052246
324.635	0.878098
327.527	0.169418
330.42	0.094345
333.313	1.01289
336.205	0.569214
339.098	1.40494
341.991	0.048126
344.884	0.483582
347.776	0.713379
350.669	0.851471
353.562	0.416138
356.454	2.9856
359.347	0.301147
362.24	1.40027
365.132	1.8876
368.025	3.78
370.918	5.66556
373.81	11.744
376.703	19.7801
379.596	31.7662
382.489	47.7001
385.381	82.1469
388.274	131.996
391.167	149.359
394.059	79.1122
396.952	36.3407
399.845	19.872
402.738	11.0013
405.63	8.55475
408.523	5.46164
411.416	5.3753
414.308	7.55933
417.201	11.2812
420.094	12.8158
422.986	18.781
425.879	30.193
428.772	46.1727
431.664	76.9802
434.557	127.728
437.45	201.513
440.343	310.469
443.235	504.038
446.128	825.965
449.021	1103.11
451.913	825.778
454.806	403.308
457.699	208.016
460.591	120.671
463.484	78.8262
466.377	53.4998
469.27	38.339
472.162	27.6241
475.055	20.278
477.948	13.6793
480.84	11.4819
483.733	6.48227
486.626	4.19464
489.519	2.10785
492.411	0.382904
495.304	0.433655
498.197	1.64212
501.089	0.174683
503.982	0.60675
506.875	0.604614
509.767	0.682007
512.66	1.6301
515.553	0.04303
518.446	0.034302
521.338	0.2258
524.231	1.33087
527.124	1.58255
530.016	1.46314
532.909	0.951233
535.802	1.32791
538.694	0.877533
541.587	1.95572
544.48	0.947388
547.372	1.54309
550.265	3.3747
553.158	0.305695
556.051	1.47562
558.943	1.99591
561.836	2.96179
564.729	1.82983
567.621	1.48318
570.514	3.11975
573.407	2.9592
576.299	0.636932
579.192	3.04636
582.085	1.84228
584.978	2.49582
587.87	1.8472
590.763	2.35193
593.656	0.722717
596.548	1.48373
599.441	3.01679
602.334	0.592926
605.226	1.45218
608.119	1.33627
611.012	0.923615
613.905	0.705811
616.797	1.38892
619.69	2.3706
622.583	3.34866
625.475	0.500916
628.368	0.519836
631.261	2.06021
634.154	2.63327
637.046	2.62683
639.939	4.49161
642.832	7.97073
645.724	10.9205
648.617	10.4177
651.51	7.17606
654.402	5.70297
657.295	3.50769
660.188	1.8306
663.081	1.65433
665.973	1.67038
668.866	0.157837
671.759	0.782562
674.651	1.24707
677.544	0.485443
680.437	0.079315
683.329	1.02148
686.222	1.31348
689.115	1.40964
692.008	1.40533
694.9	1.02203
697.793	1.87888
700.686	0.382843
703.578	0.227661
706.471	1.168
709.364	0.530457
712.256	0.932526
715.149	0.710297
718.042	1.62051
720.934	1.37942
723.827	2.10608
726.72	2.97446
729.613	2.9404
732.505	5.77139
735.398	12.5118
738.291	22.8578
741.183	42.2484
744.076	90.6886
746.969	184.146
749.861	145.881
752.754	55.5121
755.647	29.5698
758.54	22.3829
761.432	21.183
764.325	34.1337
767.218	58.9505
770.11	47.4554
773.003	19.5485
775.896	7.97211
778.788	3.203
781.681	1.22971
784.574	0.907867
787.467	0.313995
790.359	0.45462
793.252	1.47626
796.145	0.859406
799.037	0.907318
801.93	1.88928
804.823	0.726227
807.716	2.85733
810.608	1.18338
813.501	3.47113
816.394	0.366882
819.286	1.30408
822.179	2.99026
825.072	1.88025
827.964	0.738068
830.857	2.01868
833.75	1.53406
836.643	1.69641
839.535	1.89801
842.428	2.73096
845.321	1.33936
848.213	2.18533
851.106	1.32532
853.999	1.92013
856.891	2.56549
859.784	2.25598
862.677	2.20877
865.569	1.76822
868.462	0.278442
871.355	0.649017
874.248	1.80801
877.14	0.725037
880.033	0.175903
882.926	0.259766
885.818	1.48419
888.711	0.400452
891.604	1.4274
894.496	1.37711
897.389	0.899536
900.282	1.58075
903.175	0.117706
906.067	2.40533
908.96	1.74246
911.853	1.19641
914.745	1.39712
917.638	1.83328
920.531	1.48083
923.423	0.692169
926.316	1.7753
929.209	0.842743
932.102	1.5881
934.994	0.025208
937.887	0.373962
940.78	0.702332
943.672	1.02228
946.565	0.935699
949.458	1.68039
952.351	0.952362
955.243	0.371674
958.136	0.322571
961.029	0.755981
963.921	0.854614
966.814	0.934814
969.707	2.35257
972.599	1.59552
975.492	2.33704
978.385	0.354889
981.278	0.017761
984.17	1.43683
987.063	2.20792
989.956	0.160095
992.848	0.987122
995.741	1.56818
998.634	0.533691
1001.53	2.45596
1004.42	2.21848
1007.31	2.40387
1010.21	2.13431
1013.1	1.91861
1015.99	1.88907
1018.88	1.10821
1021.77	0.593262
1024.67	1.65796
1027.56	3.25882
1030.45	2.60278
1033.35	0.796356
1036.24	0.198334
1039.13	0.017578
1042.02	0.636566
1044.92	2.5647
1047.81	1.50592
1050.7	1.24051
1053.6	0.86615
1056.49	0.031952
1059.38	1.13788
1062.27	0.028992
1065.17	2.25357
1068.06	1.87283
1070.95	0.72641
1073.84	1.0524
1076.74	0.325989
1079.63	1.69235
1082.52	3.30331
1085.41	1.74017
1088.31	0.856476
1091.2	1.70291
1094.09	1.48444
1096.99	3.0846
1099.88	3.02084
1102.77	2.39148
1105.66	2.88336
1108.56	1.07037
1111.45	0.535889
1114.34	1.98184
1117.23	0.756714
1120.13	2.29993
1123.02	1.36188
1125.91	1.27316
1128.81	6.7504
1131.7	4.11273
1134.59	1.8107
1137.48	2.04205
1140.38	2.78729
1143.27	1.39365
1146.16	2.59714
1149.05	4.18143
1151.95	5.0033
1154.84	4.0386
1157.73	3.43936
1160.62	2.57648
1163.52	2.31094
1166.41	0.610291
1169.3	1.06329
1172.2	2.34287
1175.09	2.11441
1177.98	1.16419
1180.87	1.61108
1183.77	1.4042
1186.66	1.4483
1189.55	1.40945
1192.44	0.30954
1195.34	0.560822
1198.23	2.70947
1201.12	2.74176
1204.02	2.27103
1206.91	2.85074
1209.8	3.06729
1212.69	7.54627
1215.59	11.8343
1218.48	17.2133
1221.37	21.2038
1224.26	15.553
1227.16	9.45676
1230.05	7.21075
1232.94	5.0358
1235.84	2.60318
1238.73	4.0014
1241.62	2.17139
1244.51	2.64407
1247.41	0.431274
1250.3	0.906769
1253.19	0.782562
1256.08	1.36868
1258.98	2.49658
1261.87	1.52255
1264.76	2.03473
1267.65	1.46753
1270.55	0.614899
1273.44	1.23282
1276.33	2.22147
1279.23	0.016418
1282.12	2.004
1285.01	1.85196
1287.9	2.16562
1290.8	1.82959
1293.69	0.376923
1296.58	1.06375
1299.47	1.19937
