Measurement: Raman, 780 nm, unoriented, Raman Data Processed
Mineral: Nordstrandite
Rruff sample: R130093
Ideal chemistry: Al(OH)_3_
Locality: Mont St. Hilaire, Quebec, Canada
Source: Donald Doell
Description: Aggregates of colorless to white tabular crystals, associated with white natrolite, apatite, dark prismatic aegirine and annite
Raman shift (cm-1)	intensity
91.1996	0
94.5744	4.66179
97.9492	4.57684
101.324	1.08739
104.699	0.340828
108.074	1.97634
111.448	5.24348
114.823	21.1858
118.198	42.0485
121.573	20.7276
124.948	7.34747
128.322	5.49295
131.697	2.21143
135.072	1.45463
138.447	1.25833
141.822	0.002163
145.197	1.21102
148.571	1.92588
151.946	0.824306
155.321	3.97745
158.696	4.20448
162.071	4.55921
165.446	5.52145
168.82	5.49301
172.195	7.07306
175.57	8.71606
178.945	11.4829
182.32	7.42895
185.694	6.83712
189.069	6.61705
192.444	6.01031
195.819	6.12787
199.194	5.56228
202.569	6.20234
205.943	4.74237
209.318	4.44301
212.693	4.06581
216.068	4.8092
219.442	5.54459
222.817	7.06508
226.192	12.1159
229.567	7.72257
232.942	7.38763
236.317	11.3762
239.691	9.51891
243.066	8.09044
246.441	12.9729
249.816	23.2504
253.191	7.74691
256.565	2.62226
259.94	1.9677
263.315	2.57386
266.69	1.0915
270.065	0.483551
273.44	0.075737
276.814	1.28425
280.189	4.89715
283.564	13.3236
286.939	9.698
290.314	7.20225
293.688	11.1234
297.063	20.424
300.438	39.5155
303.813	52.981
307.188	29.0972
310.562	19.9938
313.937	12.3306
317.312	3.37571
320.687	0.717754
324.062	0.532854
327.437	0.572706
330.811	0.235033
334.186	0.23703
337.561	0.004532
340.936	0.448282
344.311	0.16724
347.685	1.20263
351.06	1.11592
354.435	1.14979
357.81	0.655495
361.185	1.22384
364.56	2.54832
367.934	4.0548
371.309	8.7382
374.684	15.0681
378.059	17.7894
381.434	12.77
384.808	12.6649
388.183	13.6206
391.558	7.81631
394.933	4.18008
398.308	2.87644
401.683	2.93799
405.057	4.52159
408.432	8.34534
411.807	7.71009
415.182	3.69515
418.557	3.77196
421.931	2.45359
425.306	2.80856
428.681	3.31057
432.056	4.27704
435.431	4.39756
438.805	2.4488
442.18	3.33408
445.555	1.38726
448.93	0.02782
452.305	0.018403
455.68	0.270294
459.054	0.031379
462.429	0.103839
465.804	0.225023
469.179	0.290041
472.554	0.482497
475.928	0.739648
479.303	2.01425
482.678	2.91629
486.053	4.82543
489.428	6.93807
492.803	7.95655
496.177	8.61218
499.552	9.16657
502.927	9.64389
506.302	9.0741
509.677	6.8011
513.051	4.90195
516.426	3.7435
519.801	4.32849
523.176	6.87561
526.551	11.8824
529.926	18.6755
533.3	28.0754
536.675	33.8982
540.05	31.7264
543.425	24.8483
546.799	15.0503
550.174	8.5192
553.549	4.86054
556.924	2.8672
560.299	1.951
563.674	0.302891
567.048	0.151651
570.423	0.123716
573.798	0.260347
577.173	0.244957
580.548	0.788808
583.923	1.61314
587.297	3.00628
590.672	4.81686
594.047	5.68834
597.422	6.05811
600.797	4.95304
604.171	3.6258
607.546	1.52771
610.921	1.72706
614.296	1.23927
617.671	0.640567
621.045	0.570245
624.42	0.91313
627.795	1.5129
631.17	1.71545
634.545	2.56416
637.919	2.01344
641.294	3.22676
644.669	3.4653
648.044	3.95182
651.419	4.42749
654.794	5.1103
658.168	3.94981
661.543	2.42271
664.918	1.60069
668.293	0.318789
671.668	0.293729
675.043	0.043268
678.417	0.284302
681.792	0.395392
685.167	0.23644
688.542	0.174862
691.917	0.100793
695.291	0.421581
698.666	0.227303
702.041	0.474055
705.416	0.271326
708.791	0.374866
712.165	1.19319
715.54	1.92714
718.915	2.37715
722.29	2.61282
725.665	2.30478
729.039	1.75203
732.414	1.56421
735.789	2.18394
739.164	1.136
742.539	1.48995
745.914	0.826681
749.288	0.687675
752.663	0.885914
756.038	0.157586
759.413	0.248178
762.788	0.260487
766.163	0.722132
769.537	0.036497
772.912	0.018055
776.287	0.409042
779.662	0.037089
783.037	0.785421
786.411	0.24915
789.786	0.789668
793.161	0.097988
796.536	0.270766
799.911	0.628038
803.285	0.750463
806.66	0.307634
810.035	0.098521
813.41	0.361871
816.785	0.254295
820.159	0.989087
823.534	0.529137
826.909	0.702049
830.284	1.91159
833.659	2.94288
837.034	3.28643
840.408	3.71108
843.783	3.81399
847.158	3.45038
850.533	2.91812
853.908	2.12635
857.283	2.19172
860.657	1.16271
864.032	1.61006
867.407	1.17104
870.782	1.30597
874.157	0.71002
877.531	0.541512
880.906	0.745234
884.281	1.63573
887.656	2.72417
891.031	2.92327
894.405	3.78085
897.78	6.05628
901.155	7.18318
904.53	7.75205
907.905	7.15751
911.279	6.0491
914.654	4.35368
918.029	3.27757
921.404	2.12009
924.779	1.1671
928.154	0.459051
931.528	0.129769
934.903	0.787423
938.278	0.107943
941.653	0.033333
945.028	0.207685
948.403	0.044528
951.777	0.041464
955.152	0.03169
958.527	0.584772
961.902	0.904832
965.277	1.28577
968.651	1.23013
972.026	1.62912
975.401	2.38712
978.776	3.06746
982.151	3.09588
985.525	3.47042
988.9	2.54046
992.275	2.34564
995.65	1.78282
999.025	1.06163
1002.4	1.27874
1005.77	1.23206
1009.15	1.33888
1012.52	1.39632
1015.9	0.329113
1019.27	0.529327
1022.65	1.27089
1026.02	0.352896
1029.4	0.248882
1032.77	0.096553
1036.15	0.113433
1039.52	0.335647
1042.9	0.094933
1046.27	0.860235
1049.65	0.184404
1053.02	0.528353
1056.4	0.282195
1059.77	0.811234
1063.15	0.938107
1066.52	0.671003
1069.9	1.07892
1073.27	0.992455
1076.64	0.972735
1080.02	0.445213
1083.39	1.28676
1086.77	1.23068
1090.14	1.35326
1093.52	0.902631
1096.89	0.76784
1100.27	0.541453
1103.64	0.359846
1107.02	0.405409
1110.39	0.475801
1113.77	0.048615
1117.14	0.125091
1120.52	0.085317
1123.89	0.002614
1127.27	0.486026
1130.64	0.493713
1134.02	0.150032
1137.39	0.677143
1140.77	0.330846
1144.14	0.83185
1147.52	0.713714
1150.89	0.237063
1154.27	0.513513
1157.64	0.129019
1161.02	0.419237
1164.39	0.958806
1167.77	0.685834
1171.14	0.753387
1174.52	0.453145
1177.89	0.733549
1181.27	0.2525
1184.64	0.051871
1188.01	0.855289
1191.39	0.597584
1194.76	0.671684
1198.14	0.709976
1201.51	0.643032
1204.89	0.448513
1208.26	0.917416
1211.64	0.827497
1215.01	0.923454
1218.39	0.794803
1221.76	0.435156
1225.14	0.976716
1228.51	0.343692
1231.89	0.004766
1235.26	0.540286
1238.64	0.890847
1242.01	0.706275
1245.39	0.558326
1248.76	0.641327
1252.14	0.543612
1255.51	0.880266
1258.88	1.27707
1262.26	1.01331
1265.63	0.4836
1269.01	0.405567
1272.38	0.011625
1275.76	0.488836
1279.13	0.067982
1282.51	0.198542
