Measurement: Raman, 532 nm, unoriented, Raman Data Processed
Mineral: Nordstrandite
Rruff sample: R050592
Ideal chemistry: Al(OH)_3_
Locality: Cerro Sapo, Cochabamba Department, Bolivia
Source: Marcus Origlieri
Description: Single crystals as colorless radiating clusters and tan thick tabular crystals
Measured chemistry: Al_1.00_(OH)_3_; trace amounts of Fe; H_2_O estimated by difference
Raman shift (cm-1)	intensity
140.773	0
144.148	0.104641
147.523	6.05783
150.898	6.99131
154.273	7.83772
157.647	6.06826
161.022	8.27886
164.397	13.1496
167.772	15.4988
171.147	22.5458
174.522	32.0855
177.896	57.6765
181.271	63.0928
184.646	12.3689
188.021	3.7774
191.396	0.344307
194.77	0.480949
198.145	1.63664
201.52	1.71381
204.895	1.73419
208.27	1.2785
211.645	5.87675
215.019	12.2131
218.394	20.9435
221.769	45.1826
225.144	96.9284
228.519	152.245
231.893	71.1465
235.268	122.319
238.643	194.811
242.018	114.519
245.393	153.287
248.768	302.963
252.142	360.558
255.517	71.2509
258.892	30.4962
262.267	44.4834
265.642	70.5288
269.017	30.1418
272.391	32.5537
275.766	53.7962
279.141	99.5149
282.516	199.532
285.891	317.636
289.265	225.222
292.64	267.55
296.015	404.584
299.39	699.358
302.765	1118.84
306.14	1074.65
309.514	542.148
312.889	431.309
316.264	179.58
319.639	65.2175
323.014	26.0529
326.389	8.09071
329.763	0.862038
333.138	4.59272
336.513	5.81857
339.888	3.85152
343.263	1.51617
346.637	15.5259
350.012	34.586
353.387	28.0812
356.762	18.8347
360.137	30.0736
363.512	56.58
366.886	97.1733
370.261	161.524
373.636	277.738
377.011	396.059
380.386	354.573
383.76	291.068
387.135	323.949
390.51	307.31
393.885	167.355
397.26	99.3795
400.635	95.3682
404.009	117.337
407.384	171.551
410.759	213.757
414.134	150.479
417.509	94.2689
420.884	88.6469
424.258	81.8676
427.633	79.6962
431.008	99.7698
434.383	121.122
437.758	83.9712
441.132	58.4063
444.507	54.1123
447.882	15.907
451.257	0.71357
454.632	2.12167
458.007	3.11014
461.381	4.20446
464.756	3.16469
468.131	1.03697
471.506	4.66183
474.881	13.5252
478.255	29.8045
481.63	52.6359
485.005	88.2214
488.38	133.533
491.755	181.673
495.13	208.058
498.504	220.759
501.879	242.179
505.254	250.425
508.629	211.59
512.004	155.146
515.379	124.735
518.753	128.788
522.128	175.588
525.503	275.126
528.878	444.665
532.253	669.429
535.627	889.965
539.002	940.654
542.377	782.235
545.752	529.764
549.127	299.774
552.501	158.233
555.876	86.9075
559.251	48.7035
562.626	20.4067
566.001	2.14371
569.376	6.99774
572.75	6.9261
576.125	0.664185
579.5	16.7291
582.875	42.1033
586.25	78.6386
589.625	123.82
592.999	166.077
596.374	187.292
599.749	173.781
603.124	138.886
606.499	95.4056
609.874	62.1965
613.248	40.8561
616.623	29.7122
619.998	27.0306
623.373	34.2718
626.748	47.7557
630.122	62.4887
633.497	77.9179
636.872	88.9626
640.247	98.2321
643.622	107.899
646.996	124.296
650.371	143.68
653.746	153.792
657.121	137.512
660.496	99.7792
663.871	62.2724
667.245	33.4546
670.62	16.233
673.995	5.55916
677.37	0.844193
680.745	1.46535
684.12	2.74266
687.494	3.38105
690.869	1.07412
694.244	0.586868
697.619	3.09908
700.994	7.70296
704.369	14.2594
707.743	21.8135
711.118	30.3332
714.493	38.6805
717.868	44.3698
721.243	47.2248
724.617	43.9568
727.992	38.4675
731.367	31.4672
734.742	24.377
738.117	20.3652
741.491	15.8848
744.866	12.66
748.241	8.21706
751.616	4.92838
754.991	2.13005
758.366	0.634911
761.74	0.749367
765.115	2.06741
768.49	2.44222
771.865	1.42818
775.24	0.358276
778.615	1.86412
781.989	4.1171
785.364	9.08165
788.739	14.6623
792.114	20.1943
795.489	21.0529
798.864	19.7623
802.238	15.956
805.613	10.8475
808.988	7.16939
812.363	4.62042
815.737	5.98016
819.112	10.6872
822.487	17.1669
825.862	31.1569
829.237	49.4139
832.612	75.7786
835.986	103.09
839.361	124.554
842.736	137.272
846.111	126.823
849.486	112.806
852.861	95.2745
856.235	79.0095
859.61	64.3709
862.985	52.8506
866.36	44.427
869.735	39.3764
873.11	36.3206
876.484	36.742
879.859	42.7512
883.234	53.0072
886.609	72.1569
889.984	98.0934
893.359	134.049
896.733	181.263
900.108	228.925
903.483	265.443
906.858	265.557
910.232	229.5
913.607	170.524
916.982	115.947
920.357	75.019
923.732	46.2466
927.107	26.2346
930.481	13.5758
933.856	6.30865
937.231	1.18459
940.606	2.94913
943.981	3.85745
947.356	3.60803
950.73	0.798416
954.105	1.1006
957.48	7.43242
960.855	12.9367
964.23	21.8597
967.605	33.3063
970.979	47.3335
974.354	69.4951
977.729	90.2212
981.104	107.299
984.479	110.925
987.854	96.121
991.228	70.8774
994.603	50.0228
997.978	34.8134
1001.35	27.0392
1004.73	24.7579
1008.1	24.4825
1011.48	24.2533
1014.85	24.4933
1018.23	21.0723
1021.6	16.147
1024.98	9.44244
1028.35	6.93072
1031.73	2.96438
1035.1	2.4059
1038.48	0.006516
1041.85	0.866501
1045.22	0.047867
1048.6	0.608253
1051.97	0.869041
1055.35	2.59586
1058.72	3.21996
1062.1	6.32731
1065.47	10.8944
1068.85	13.8917
1072.22	15.0549
1075.6	14.602
1078.97	13.6043
1082.35	12.4311
1085.72	12.9773
1089.1	10.9461
1092.47	8.74696
1095.85	6.29463
1099.22	4.28262
1102.6	3.32741
1105.97	2.23764
1109.35	0.689369
1112.72	0.394135
1116.1	0.755592
1119.47	0.85257
1122.85	0.427429
1126.22	0.815422
1129.6	0.365326
1132.97	0.080727
1136.35	0.749939
1139.72	0.071617
1143.1	0.83078
1146.47	1.92065
1149.85	1.00589
1153.22	1.10655
1156.59	1.55775
1159.97	1.60379
1163.34	1.09607
1166.72	1.16847
1170.09	1.54731
1173.47	0.830635
1176.84	0.544472
1180.22	0.988136
1183.59	0.969681
1186.97	0.464394
1190.34	0.062904
1193.72	0.809471
1197.09	0.249855
1200.47	0.129204
1203.84	1.12699
1207.22	0.588882
1210.59	0.0899723
1213.97	1.34299
1217.34	1.97449
1220.72	1.22058
1224.09	1.26899
1227.47	1.66486
1230.84	0.013367
1234.21	0.972626
1237.59	0.306046
1240.96	0.438545
1244.34	0.00071
1247.71	0.147423
1251.09	1.08238
1254.46	1.07806
1257.84	0.617935
1261.21	0.11087
1264.59	1.27576
1267.96	1.00839
1271.34	1.10244
1274.71	0.771782
1278.09	0.852707
1281.46	0.693542
1284.84	1.27554
1288.21	1.69027
1291.59	0.844917
1294.96	1.04537
1298.34	0.639748
1301.71	0.677383
