Measurement: Raman, 532 nm, unoriented, Raman Data Processed
Mineral: Nordenskioldine
Rruff sample: R061079
Ideal chemistry: CaSn^4+^(BO_3_)_2_
Locality: MW Claim, Cassiar Mountains, Yukon, Canada
Source: Lloyd Twaites
Description: Colorless aggregates of tabular crystals
Raman shift (cm-1)	intensity
140.807	0
143.7	7.63892
146.592	39.2129
149.485	9.63232
152.378	0.251953
155.27	5.88525
158.163	14.708
161.056	9.45996
163.948	72.4981
166.841	14.3257
169.734	53.385
172.626	3.79639
175.519	54.666
178.412	54.9351
181.305	19.5881
184.197	28.9722
187.09	46.5691
189.983	18.6028
192.875	29.6201
195.768	75.7666
198.661	131.408
201.553	290.527
204.446	696.496
207.339	1346.58
210.232	1905.17
213.124	2814.68
216.017	2342.56
218.91	669.361
221.802	238.655
224.695	126.033
227.588	110.182
230.48	41.0527
233.373	53.6643
236.266	20.3289
239.159	47.5635
242.051	0.305176
244.944	53.8889
247.837	56.7685
250.729	60.9473
253.622	59.7647
256.515	74.3103
259.407	99.5254
262.3	286.829
265.193	675.937
268.086	1643.43
270.978	2554
273.871	3740.32
276.764	5341.18
279.656	2068.04
282.549	701.456
285.442	382.412
288.334	271.637
291.227	231.925
294.12	239.498
297.012	176.618
299.905	152.895
302.798	109.597
305.691	72.5027
308.583	71.6528
311.476	63.4209
314.369	67.9741
317.261	37.0955
320.154	30.6335
323.047	27.876
325.94	25.9824
328.832	1.74048
331.725	19.123
334.618	14.9519
337.51	46.5325
340.403	18.4827
343.296	49.2239
346.188	11.2798
349.081	13.293
351.974	37.5818
354.866	2.72217
357.759	19.7053
360.652	62.4099
363.545	112.34
366.437	128.051
369.33	199.829
372.223	325.146
375.115	639.688
378.008	1214.78
380.901	2231.18
383.793	3266.52
386.686	4347.46
389.579	5293.05
392.471	3979.26
395.364	1753.7
398.257	791.787
401.15	430.824
404.042	302.173
406.935	222.895
409.828	226.672
412.72	296.184
415.613	403.045
418.506	566.867
421.399	833.838
424.291	1279.49
427.184	1899.36
430.077	3037.14
432.969	5171.3
435.862	9221.62
438.755	15639.8
441.647	23051.2
444.54	31878.1
447.433	40729.7
450.325	39273.2
453.218	22127.7
456.111	10879.6
459.004	6015.44
461.896	3771.22
464.789	2553.31
467.682	1782.21
470.574	1279.77
473.467	874.98
476.36	626.62
479.252	457.748
482.145	308.921
485.038	229.503
487.93	160.575
490.823	83.7671
493.716	48.8364
496.609	32.2837
499.501	18.6968
502.394	18.8074
505.287	15.657
508.179	26.1064
511.072	7.68872
513.965	1.09204
516.857	14.041
519.75	15.1807
522.643	17.7205
525.536	20.6321
528.428	36.1855
531.321	32.0791
534.214	0.848145
537.106	3.78809
539.999	30.6846
542.892	2.17725
545.784	4.20264
548.677	26.1887
551.57	49.9634
554.463	72.7236
557.355	62.9775
560.248	116.896
563.141	113.404
566.033	73.1362
568.926	84.9583
571.819	102.737
574.712	92.8765
577.604	85.8203
580.497	67.8376
583.39	64.4519
586.282	25.0662
589.175	3.87012
592.068	33.042
594.96	25.8137
597.853	44.3882
600.746	26.9663
603.639	0.627686
606.531	31.6514
609.424	44.3242
612.317	16.2773
615.209	12.9365
618.102	58.8262
620.995	48.3479
623.887	95.2544
626.78	75.6846
629.673	123.716
632.565	178.83
635.458	272.971
638.351	328.046
641.244	438.716
644.136	586.869
647.029	683
649.922	522.361
652.814	279.744
655.707	156.791
658.6	129.835
661.492	105.492
664.385	70.5833
667.278	21.1414
670.17	12.4334
673.063	27.3227
675.956	18.7627
678.849	1.33447
681.741	12.3391
684.634	29.9077
687.527	58.6753
690.419	7.53638
693.312	28.6594
696.205	16.811
699.097	4.35107
701.99	27.0002
704.883	26.981
707.776	5.80591
710.668	39.1152
713.561	44.1655
716.454	73.167
719.346	21.1499
722.239	73.8672
725.132	68.479
728.024	145.022
730.917	343.779
733.81	778.166
736.703	1340.23
739.595	2202.26
742.488	3325.02
745.381	5105.99
748.273	5953.91
751.166	2859.51
754.059	1485.88
756.952	1066.76
759.844	1090.36
762.737	1280.67
765.63	1757.12
768.522	1909.22
771.415	936.27
774.308	379.022
777.2	199.065
780.093	115.718
782.986	100.783
785.878	85.4334
788.771	28.4182
791.664	54.896
794.557	26.4678
797.449	50.604
800.342	27.7019
803.235	2.31787
806.127	2.64648
809.02	5.78442
811.913	29.6431
814.805	26.9553
817.698	17.0259
820.591	79.1001
823.484	92.4231
826.376	81.8464
829.269	94.4446
832.162	108.154
835.054	119.582
837.947	138.24
840.84	122.247
843.732	119.093
846.625	163.869
849.518	122.338
852.41	154.828
855.303	115.73
858.196	96.2803
861.089	112.136
863.981	93.5862
866.874	93.7703
869.767	97.0098
872.659	74.8818
875.552	26.6067
878.445	37.627
881.337	30.0139
884.23	23.4595
887.123	75.1128
890.016	46.7375
892.908	24.2402
895.801	56.5903
898.694	19.3694
901.586	38.3818
904.479	44.6335
907.372	61.8682
910.264	29.1502
913.157	28.3791
916.05	10.439
918.943	24.0762
921.835	0.773193
924.728	0.981689
927.621	41.1626
930.513	30.051
933.406	30.9932
936.299	34.8684
939.192	14.6121
942.084	35.4331
944.977	30.2532
947.87	88.5117
950.762	154.099
953.655	249.229
956.548	406.61
959.44	524.87
962.333	281.318
965.226	111.64
968.118	46.0217
971.011	75.425
973.904	25.533
976.797	39.2427
979.689	18.0044
982.582	24.0532
985.475	10.3354
988.367	17.3784
991.26	12.3589
994.153	8.30102
997.045	16.2959
999.938	38.3674
1002.83	16.1668
1005.72	27.2712
1008.62	49.7563
1011.51	11.603
1014.4	49.8935
1017.29	48.8928
1020.19	8.81519
1023.08	69.7808
1025.97	19.6672
1028.87	62.8603
1031.76	48.3262
1034.65	72.2732
1037.54	77.5713
1040.44	74.6921
1043.33	64.9507
1046.22	54.2214
1049.11	23.7305
1052.01	35.2405
1054.9	31.772
1057.79	25.3989
1060.68	73.949
1063.58	24.7712
1066.47	1.32617
1069.36	16.9316
1072.26	3.64697
1075.15	45.596
1078.04	9.92358
1080.93	42.4182
1083.83	12.2146
1086.72	30.3967
1089.61	59.6648
1092.5	93.9937
1095.4	158.872
1098.29	93.3096
1101.18	51.1189
1104.08	62.9978
1106.97	21.3699
1109.86	22.0125
1112.75	26.8403
1115.65	27.2307
1118.54	28.9456
1121.43	6.71021
1124.32	23.2317
1127.22	53.9194
1130.11	11.4104
1133	27.6543
1135.89	2.21167
1138.79	7.80176
1141.68	3.84473
1144.57	14.6589
1147.47	27.4199
1150.36	54.9658
1153.25	28.5156
1156.14	30.5435
1159.04	3.58765
1161.93	51.5835
1164.82	31.6067
1167.71	25.3208
1170.61	1.40845
1173.5	22.6216
1176.39	44.6248
1179.29	4.83765
1182.18	9.90894
1185.07	51.4919
1187.96	35.8118
1190.86	52.3508
1193.75	58.5952
1196.64	87.0503
1199.53	206.334
1202.43	183.935
1205.32	271.832
1208.21	360.607
1211.11	712.077
1214	1263.68
1216.89	1935.04
1219.78	2545.73
1222.68	2167.34
1225.57	1280.54
1228.46	755.186
1231.35	489.758
1234.25	387.184
1237.14	241.265
1240.03	183.255
1242.92	106.277
1245.82	103.924
1248.71	86.2664
1251.6	74.7346
1254.49	61.2139
1257.39	45.7454
1260.28	40.8875
1263.17	2.69409
1266.07	1.39136
1268.96	42.2644
1271.85	41.115
1274.74	52.6848
1277.64	40.9224
1280.53	38.0388
1283.42	11.0037
1286.32	38.6323
1289.21	25.4175
