Measurement: Raman, 780 nm, unoriented, Raman Data Processed
Mineral: Nordenskioldine
Rruff sample: R130017
Ideal chemistry: CaSn^4+^(BO_3_)_2_
Locality: Brooks Mountain, Seward Peninsula, Nome Borough, Alaska, USA
Source: Robert Lavinsky
Description: Colorless to tan sheaf, associated with diopside, vesuvianite, and hulsite, R130016
Raman shift (cm-1)	intensity
91.1996	0
94.5744	4.6348
97.9492	1.39647
101.324	2.30707
104.699	0.171387
108.074	0.619125
111.448	0.77327
114.823	3.57233
118.198	2.78317
121.573	6.63873
124.948	3.53729
128.322	3.76279
131.697	3.24438
135.072	1.38329
138.447	0.412949
141.822	0.174057
145.197	0.351845
148.571	1.1672
151.946	1.69329
155.321	2.09673
158.696	3.4216
162.071	3.33529
165.446	4.91475
168.82	3.87383
172.195	4.17725
175.57	4.74828
178.945	4.03664
182.32	4.65277
185.694	4.33727
189.069	5.2222
192.444	4.79591
195.819	5.4617
199.194	6.0011
202.569	8.12573
205.943	15.2294
209.318	25.0731
212.693	47.832
216.068	25.4298
219.442	6.89342
222.817	3.45308
226.192	3.2402
229.567	1.88695
232.942	2.51197
236.317	3.74484
239.691	2.97311
243.066	2.61003
246.441	3.28565
249.816	0.863731
253.191	0.805878
256.565	1.52895
259.94	3.09518
263.315	5.67128
266.69	12.9976
270.065	31.1556
273.44	80.2733
276.814	106.158
280.189	22.8035
283.564	9.09646
286.939	4.89469
290.314	3.42178
293.688	3.24628
297.063	2.05355
300.438	1.3457
303.813	0.276062
307.188	0.22345
310.562	0.44931
313.937	0.328049
317.312	0.821861
320.687	1.2743
324.062	0.395096
327.437	0.062943
330.811	0.075775
334.186	0.411507
337.561	0.35553
340.936	0.849495
344.311	1.38757
347.685	0.148369
351.06	0.156075
354.435	0.527512
357.81	0.455086
361.185	1.52294
364.56	2.67049
367.934	4.17551
371.309	6.10933
374.684	10.7125
378.059	18.996
381.434	35.6772
384.808	64.8949
388.183	105.529
391.558	80.6595
394.933	31.4864
398.308	13.7769
401.683	8.13641
405.057	4.31029
408.432	3.16213
411.807	3.82609
415.182	6.31075
418.557	8.08653
421.931	13.5438
425.306	20.7993
428.681	34.5323
432.056	63.6107
435.431	110.167
438.805	202.951
442.18	379.959
445.555	671.958
448.93	789.067
452.305	414.699
455.68	181.101
459.054	94.4291
462.429	57.2415
465.804	36.4326
469.179	24.0637
472.554	16.934
475.928	11.2777
479.303	7.1968
482.678	3.99874
486.053	3.1465
489.428	1.92013
492.803	0.801987
496.177	0.85643
499.552	0.03484
502.927	0.063244
506.302	0.291462
509.677	0.774864
513.051	0.668869
516.426	0.196327
519.801	0.372189
523.176	0.576775
526.551	0.191776
529.926	0.391273
533.3	0.077152
536.675	0.124302
540.05	0.626251
543.425	0.583305
546.799	0.43494
550.174	0.813015
553.549	0.357914
556.924	0.555759
560.299	1.36853
563.674	1.05546
567.048	0.387993
570.423	1.45766
573.798	1.02148
577.173	1.87443
580.548	1.87975
583.923	1.77108
587.297	1.64309
590.672	1.15997
594.047	0.909515
597.422	0.680481
600.797	0.814785
604.171	0.521957
607.546	0.337292
610.921	0.766949
614.296	0.577175
617.671	0.052464
621.045	0.595974
624.42	0.264389
627.795	1.14003
631.17	1.78088
634.545	2.54241
637.919	2.83999
641.294	5.80054
644.669	7.52491
648.044	7.35027
651.419	3.97618
654.794	3.15843
658.168	1.74826
661.543	1.47355
664.918	1.18426
668.293	1.05506
671.668	0.189724
675.043	0.842247
678.417	0.632015
681.792	0.40934
685.167	0.156139
688.542	0.565674
691.917	0.524727
695.291	0.338123
698.666	0.233734
702.041	0.134216
705.416	0.022957
708.791	0.505814
712.165	0.42886
715.54	0.469669
718.915	0.469601
722.29	0.749237
725.665	1.72089
729.039	2.06637
732.414	3.93189
735.789	8.03505
739.164	21.4725
742.539	54.815
745.914	125.508
749.288	72.8212
752.663	25.8064
756.038	15.5944
759.413	12.7102
762.788	19.0036
766.163	39.91
769.537	23.7853
772.912	7.51519
776.287	2.4562
779.662	2.08986
783.037	1.12903
786.411	0.302338
789.786	0.686691
793.161	0.08226
796.536	0.739857
799.911	0.732361
803.285	0.940128
806.66	0.369537
810.035	0.408875
813.41	0.001419
816.785	0.413879
820.159	0.619965
823.534	0.185272
826.909	0.031918
830.284	0.962231
833.659	0.783131
837.034	1.12471
840.408	0.839169
843.783	1.44778
847.158	0.502319
850.533	0.977295
853.908	0.613857
857.283	0.859776
860.657	1.64797
864.032	1.0369
867.407	0.753593
870.782	1.04576
874.157	0.406422
877.531	0.04472
880.906	0.260651
884.281	0.932964
887.656	0.558777
891.031	0.981133
894.405	1.15098
897.78	0.067539
901.155	0.725433
904.53	0.814938
907.905	0.639439
911.279	1.71903
914.654	0.611847
918.029	1.201
921.404	0.624973
924.779	0.480976
928.154	0.619221
931.528	1.16826
934.903	1.65043
938.278	0.93417
941.653	0.822094
945.028	0.255535
948.403	1.04083
951.777	0.602562
955.152	1.37596
958.527	1.30157
961.902	0.84618
965.277	0.896618
968.651	0.691513
972.026	0.798866
975.401	0.148643
978.776	0.51461
982.151	0.53265
985.525	0.112385
988.9	0.474434
992.275	0.572533
995.65	1.31449
999.025	0.911533
1002.4	0.314995
1005.77	0.52314
1009.15	0.9496
1012.52	1.51956
1015.9	1.28759
1019.27	1.4618
1022.65	0.429989
1026.02	0.892075
1029.4	1.35315
1032.77	1.74202
1036.15	0.720409
1039.52	0.875141
1042.9	0.4855
1046.27	1.90598
1049.65	0.884892
1053.02	1.60305
1056.4	1.09332
1059.77	0.967148
1063.15	0.625778
1066.52	0.416088
1069.9	0.193535
1073.27	0.056168
1076.64	0.375797
1080.02	0.975273
1083.39	0.922653
1086.77	0.55629
1090.14	1.0697
1093.52	1.21779
1096.89	0.240665
1100.27	0.451618
1103.64	0.236343
1107.02	0.689903
1110.39	0.256981
1113.77	0.323921
1117.14	0.026169
1120.52	0.598671
1123.89	0.248478
1127.27	1.12538
1130.64	0.35907
1134.02	0.154945
1137.39	1.02631
1140.77	0.294765
1144.14	0.869335
1147.52	0.528065
1150.89	0.564423
1154.27	0.237549
1157.64	0.026012
1161.02	0.309441
1164.39	0.148968
1167.77	0.986893
1171.14	0.619541
1174.52	1.26625
1177.89	0.236546
1181.27	0.215271
1184.64	1.15778
1188.01	0.804558
1191.39	0.811787
1194.76	0.345676
1198.14	0.848148
1201.51	1.62754
1204.89	1.52018
1208.26	1.30735
1211.64	2.99655
1215.01	7.95371
1218.39	15.068
1221.76	13.3822
1225.14	7.89053
1228.51	3.21252
1231.89	1.70467
1235.26	1.24647
1238.64	1.38904
1242.01	1.19549
1245.39	0.647148
1248.76	0.238106
1252.14	0.341068
1255.51	0.291199
1258.88	1.09018
1262.26	0.604824
1265.63	1.06024
1269.01	0.829372
1272.38	1.13652
1275.76	0.085007
1279.13	1.71165
1282.51	0.722366
