Measurement: Raman, 780 nm, unoriented, Raman Data Processed
Mineral: Normandite
Rruff sample: R120066
Ideal chemistry: NaCa(Mn,Fe)(Ti,Nb,Zr)(Si_2_O_7_)OF
Locality: Partomchorr Mt., Khibiny Massif, Kola Peninsula, Murmanskaja Oblast', Northern Region, Russia
Source: Donald Doell
Description: Radiating aggregate of brown bladed crystals, twinned around (001)
Raman shift (cm-1)	intensity
103.174	0
106.549	19.8336
109.924	2.35983
113.299	21.1653
116.674	84.9511
120.048	172.111
123.423	297.192
126.798	445.717
130.173	562.028
133.548	543.365
136.923	488.93
140.297	422.538
143.672	316.213
147.047	296.172
150.422	312.189
153.797	320.161
157.171	323.271
160.546	307.547
163.921	277.063
167.296	226.482
170.671	192.458
174.046	164.486
177.42	121.578
180.795	64.9761
184.17	25.5659
187.545	10.5334
190.92	19.4595
194.294	34.5244
197.669	34.4926
201.044	13.4012
204.419	12.2669
207.794	17.3712
211.168	1.82733
214.543	28.1824
217.918	65.9158
221.293	105.325
224.668	130.557
228.042	135.896
231.417	142.768
234.792	160.184
238.167	198.228
241.542	237.194
244.917	276.03
248.291	310.58
251.666	319.724
255.041	323.418
258.416	320.23
261.791	320.918
265.166	297.761
268.54	253.213
271.915	196.652
275.29	147.483
278.665	113.689
282.04	95.2054
285.414	85.4472
288.789	91.824
292.164	106.727
295.539	122.126
298.914	144.147
302.288	165.248
305.663	176.905
309.038	166.264
312.413	135.239
315.788	91.409
319.163	50.18
322.537	19.8479
325.912	0.59259
329.287	7.18045
332.662	11.3068
336.037	4.2325
339.411	7.54188
342.786	22.8121
346.161	45.0112
349.536	72.7464
352.911	105.722
356.286	140.12
359.66	164.146
363.035	179.252
366.41	173.386
369.785	160.255
373.16	146.369
376.534	133.431
379.909	127.096
383.284	120.754
386.659	117.633
390.034	112.772
393.409	110.384
396.783	111.941
400.158	110.351
403.533	97.8087
406.908	80.8121
410.283	58.8062
413.658	38.287
417.032	23.827
420.407	9.22841
423.782	1.79602
427.157	2.52255
430.532	2.00204
433.906	0.472649
437.281	4.73016
440.656	11.0658
444.031	19.2848
447.406	27.4278
450.781	28.1034
454.155	29.8893
457.53	33.4779
460.905	43.3305
464.28	46.9659
467.654	40.0112
471.029	26.8608
474.404	15.6675
477.779	9.24112
481.154	6.24442
484.529	3.89038
487.903	0.083458
491.278	1.53113
494.653	2.28777
498.028	9.3613
501.403	17.559
504.777	21.9278
508.152	21.366
511.527	17.8784
514.902	11.6816
518.277	5.33622
521.652	0.853081
525.026	2.718
528.401	1.77692
531.776	0.02449
535.151	5.0761
538.526	10.9499
541.9	11.94
545.275	10.1465
548.65	8.78436
552.025	11.4168
555.4	13.3143
558.775	12.8089
562.149	11.1138
565.524	8.3309
568.899	5.58826
572.274	3.45998
575.649	2.28408
579.024	5.08533
582.398	13.3328
585.773	26.6446
589.148	48.5508
592.523	79.8095
595.898	125.063
599.272	191.804
602.647	261.146
606.022	268.231
609.397	189.429
612.772	98.523
616.146	42.9642
619.521	14.5205
622.896	5.14509
626.271	0.641663
629.646	0.713371
633.021	3.42529
636.395	7.99942
639.77	12.4062
643.145	22.1906
646.52	33.1105
649.895	47.9169
653.269	61.9944
656.644	74.5908
660.019	70.8926
663.394	49.7865
666.769	30.1213
670.144	18.4585
673.518	11.2808
676.893	5.42673
680.268	3.00859
683.643	1.55877
687.018	1.14265
690.393	4.11482
693.767	3.73272
697.142	2.39889
700.517	1.92894
703.892	0.58886
707.266	4.2579
710.641	7.28789
714.016	10.2531
717.391	17.1778
720.766	24.1476
724.141	31.6779
727.515	44.764
730.89	61.3633
734.265	81.1241
737.64	105.399
741.015	136.264
744.389	170.862
747.764	209.202
751.139	256.943
754.514	309.344
757.889	377.506
761.264	474.993
764.638	607.678
768.013	777.558
771.388	940.034
774.763	1086.54
778.138	1146.63
781.513	1105.16
784.887	990.021
788.262	844.706
791.637	726.446
795.012	589.399
798.387	455.986
801.761	334.073
805.136	221.582
808.511	136.304
811.886	74.7098
815.261	31.5361
818.635	7.91746
822.01	4.2883
825.385	8.52745
828.76	4.80843
832.135	4.79097
835.51	16.117
838.884	31.1862
842.259	44.9652
845.634	57.2635
849.009	70.7135
852.384	90.0142
855.759	101.055
859.133	97.904
862.508	89.229
865.883	99.9172
869.258	131.143
872.633	174.673
876.007	223.953
879.382	258.086
882.757	273.219
886.132	283.025
889.507	274.243
892.881	261.982
896.256	225.732
899.631	181.635
903.006	136.794
906.381	106.533
909.756	83.9963
913.13	65.517
916.505	45.9332
919.88	25.2549
923.255	7.78088
926.63	2.17693
930.005	5.56712
933.379	3.67674
936.754	0.911728
940.129	0.961311
943.504	3.06142
946.879	5.08594
950.253	8.87952
953.628	13.9871
957.003	19.4714
960.378	28.2746
963.753	40.2796
967.127	52.252
970.502	66.3597
973.877	73.7967
977.252	73.2283
980.627	70.3299
984.001	65.0036
987.376	56.1351
990.751	52.3835
994.126	56.9834
997.501	63.7927
1000.88	71.4944
1004.25	72.3647
1007.62	68.5771
1011	58.1645
1014.38	50.0406
1017.75	43.203
1021.12	38.3858
1024.5	36.1463
1027.87	37.0287
1031.25	42.1374
1034.62	44.2296
1038	45.18
1041.37	36.874
1044.75	23.3493
1048.12	12.7294
1051.5	6.163
1054.87	3.79272
1058.25	2.92411
1061.62	0.379581
1065	0.134895
1068.37	0.452644
1071.75	0.299946
1075.12	0.774296
1078.5	0.800343
1081.87	1.00705
1085.25	0.508831
1088.62	1.05901
1092	1.19017
1095.37	1.4259
1098.74	0.278687
1102.12	0.155315
1105.49	0.783321
1108.87	0.183727
1112.24	0.470249
1115.62	0.80822
1118.99	0.13419
1122.37	1.13081
1125.74	0.572744
1129.12	1.70456
1132.49	1.54001
1135.87	1.08087
1139.24	1.42059
1142.62	1.20056
1145.99	1.19565
1149.37	2.4462
1152.74	1.28504
1156.12	1.51159
1159.49	2.0648
1162.87	2.62839
1166.24	1.75039
1169.62	3.00849
1172.99	1.96789
1176.37	0.90484
1179.74	1.32268
1183.12	1.3724
1186.49	1.42922
1189.87	0.40403
1193.24	1.62642
1196.62	1.12603
1199.99	1.45861
1203.37	1.8505
1206.74	1.63399
1210.11	1.75235
1213.49	1.39912
1216.86	1.85846
1220.24	1.52677
1223.61	0.933073
1226.99	1.18532
1230.36	0.289137
1233.74	0.152479
1237.11	3.80214
1240.49	3.65905
1243.86	1.66288
1247.24	1.81243
1250.61	0.347839
1253.99	0.117893
1257.36	1.22081
1260.74	2.15839
1264.11	0.094131
1267.49	0.027512
1270.86	1.18732
1274.24	3.4994
1277.61	0.039087
1280.98	0.302084
1284.36	0.490751
