Measurement: Raman, 532 nm, unoriented, Raman Data Processed
Mineral: Normandite
Rruff sample: R120066
Ideal chemistry: NaCa(Mn,Fe)(Ti,Nb,Zr)(Si_2_O_7_)OF
Locality: Partomchorr Mt., Khibiny Massif, Kola Peninsula, Murmanskaja Oblast', Northern Region, Russia
Source: Donald Doell
Description: Radiating aggregate of brown bladed crystals, twinned around (001)
Raman shift (cm-1)	intensity
174.863	0
177.755	0.892288
180.648	0.174751
183.541	0.587715
186.433	4.72472
189.326	10.663
192.219	14.7309
195.112	19.608
198.004	20.812
200.897	18.7985
203.79	14.6099
206.682	13.7122
209.575	14.6691
212.468	19.5838
215.36	25.2098
218.253	33.7247
221.146	41.2764
224.038	47.5602
226.931	48.8575
229.824	45.9474
232.717	45.4761
235.609	49.237
238.502	53.6015
241.395	59.0273
244.287	66.3744
247.18	72.8749
250.073	77.2858
252.965	77.4451
255.858	75.3049
258.751	74.5808
261.644	74.0593
264.536	73.3531
267.429	64.5982
270.322	55.0903
273.214	45.0069
276.107	37.0183
279	29.7248
281.892	25.9535
284.785	22.6323
287.678	23.4413
290.571	26.0906
293.463	28.7326
296.356	34.1983
299.249	38.7165
302.141	43.1608
305.034	47.0426
307.927	47.2603
310.82	41.1673
313.712	33.7362
316.605	23.5801
319.498	13.7174
322.39	6.68082
325.283	1.77853
328.176	1.57502
331.068	3.07407
333.961	2.58657
336.854	1.59804
339.747	0.051048
342.639	2.3597
345.532	6.72311
348.425	11.477
351.317	19.8087
354.21	26.5344
357.103	34.8538
359.995	40.2962
362.888	43.9022
365.781	42.8083
368.673	41.0064
371.566	37.7617
374.459	35.5858
377.352	33.0329
380.244	32.0562
383.137	30.5464
386.03	30.573
388.922	29.3657
391.815	28.2482
394.708	28.6642
397.601	29.7608
400.493	29.3779
403.386	27.5692
406.279	23.0398
409.171	20.2484
412.064	14.4259
414.957	9.6661
417.849	6.10984
420.742	3.25647
423.635	0.933468
426.527	0.740707
429.42	0.890892
432.313	1.18291
435.206	0.288956
438.098	1.14302
440.991	2.76944
443.884	4.24511
446.776	6.37645
449.669	7.76249
452.562	8.64504
455.454	10.5413
458.347	12.7595
461.24	14.6798
464.133	15.093
467.025	14.4296
469.918	11.3968
472.811	8.20577
475.703	5.79182
478.596	3.84933
481.489	3.28286
484.382	2.33161
487.274	1.23225
490.167	0.06497
493.06	0.22094
495.952	0.295391
498.845	2.45854
501.738	3.99386
504.63	4.58193
507.523	6.27492
510.416	5.09299
513.308	4.29647
516.201	2.56034
519.094	0.788221
521.987	0.261276
524.879	0.130781
527.772	0.738573
530.665	0.441839
533.557	0.352987
536.45	2.07846
539.343	2.8802
542.236	2.54214
545.128	2.46261
548.021	3.31452
550.914	4.01374
553.806	3.62207
556.699	4.69124
559.592	4.43128
562.484	3.53018
565.377	2.99429
568.27	1.88289
571.163	1.62483
574.055	1.28319
576.948	1.38421
579.841	2.82226
582.733	3.96151
585.626	8.05713
588.519	12.5239
591.411	20.5324
594.304	32.5951
597.197	47.3043
600.09	65.12
602.982	80.5885
605.875	84.7366
608.768	67.0764
611.66	42.3146
614.553	22.5583
617.446	10.8547
620.338	4.75296
623.231	2.08387
626.124	0.124847
629.016	0.048191
631.909	0.764214
634.802	1.43624
637.695	1.99748
640.587	3.39379
643.48	5.30961
646.373	7.69114
649.265	9.63574
652.158	13.2163
655.051	16.0723
657.943	16.7891
660.836	14.9369
663.729	11.4903
666.622	8.17014
669.514	5.49935
672.407	4.63063
675.3	2.39374
678.192	1.8637
681.085	0.639149
683.978	0.102406
686.87	0.883427
689.763	0.996864
692.656	1.43027
695.549	1.29447
698.441	1.06808
701.334	0.699303
704.227	0.140461
707.119	1.48487
710.012	2.81974
712.905	4.29229
715.798	6.23484
718.69	8.49255
721.583	10.5317
724.476	14.1969
727.368	18.9529
730.261	24.9122
733.154	32.1795
736.046	39.9901
738.939	51.2984
741.832	63.1287
744.725	76.524
747.617	91.3133
750.51	109.018
753.403	129.101
756.295	152.639
759.188	184.762
762.081	225.764
764.973	277.144
767.866	341.817
770.759	410.683
773.652	473.572
776.544	514.472
779.437	524.937
782.33	502.065
785.222	457.052
788.115	399.529
791.008	345.307
793.9	294.978
796.793	243.248
799.686	194.783
802.578	145.53
805.471	105.204
808.364	69.5388
811.257	43.7475
814.149	25.0463
817.042	11.9135
819.935	4.17327
822.827	1.28699
825.72	3.15311
828.613	3.1684
831.505	1.4357
834.398	1.83428
837.291	5.78596
840.184	8.92288
843.076	13.403
845.969	18.0055
848.862	23.8842
851.754	25.3971
854.647	30.2839
857.54	32.9841
860.433	30.6454
863.325	28.1206
866.218	30.9212
869.111	40.2521
872.003	52.9329
874.896	68.1094
877.789	81.4533
880.681	91.8087
883.574	96.1205
886.467	97.4751
889.36	96.0118
892.252	94.5452
895.145	88.7007
898.038	75.6519
900.93	62.1145
903.823	50.4952
906.716	42.704
909.608	36.2655
912.501	31.7455
915.394	24.9388
918.287	17.2108
921.179	10.2804
924.072	2.94024
926.965	0.029823
929.857	1.8486
932.75	1.49011
935.643	0.876797
938.535	0.364597
941.428	0.509975
944.321	0.14679
947.213	1.42434
950.106	2.36923
952.999	3.22782
955.892	5.22713
958.784	7.11357
961.677	10.1563
964.57	14.8925
967.462	20.0066
970.355	25.0708
973.248	29.0535
976.14	30.9167
979.033	32.2737
981.926	31.839
984.819	30.5602
987.711	30.4702
990.604	32.2158
993.497	34.8715
996.389	39.7555
999.282	43.8003
1002.17	47.3556
1005.07	47.8282
1007.96	45.1165
1010.85	41.2151
1013.75	34.6487
1016.64	30.1283
1019.53	26.2651
1022.42	24.7173
1025.32	23.1368
1028.21	24.3536
1031.1	25.6871
1033.99	27.3254
1036.89	27.9728
1039.78	25.5949
1042.67	19.2709
1045.57	13.3017
1048.46	7.96236
1051.35	5.12373
1054.24	3.20936
1057.14	2.7314
1060.03	1.36581
1062.92	1.59058
1065.81	0.633741
1068.71	0.407434
1071.6	0.09635
1074.49	0.597317
1077.38	0.784092
1080.28	0.656433
1083.17	0.829729
1086.06	0.45088
1088.96	1.30114
1091.85	0.104515
1094.74	0.11264
1097.63	0.094896
1100.53	0.114037
1103.42	0.106756
1106.31	0.133709
1109.2	0.604023
1112.1	0.215572
1114.99	0.199587
1117.88	0.158617
1120.78	0.107697
1123.67	0.162859
1126.56	0.27273
1129.45	0.517784
1132.35	0.386068
1135.24	0.677691
1138.13	0.412266
1141.02	1.25203
1143.92	1.61956
1146.81	1.63917
1149.7	1.77949
1152.6	1.69358
1155.49	1.61071
1158.38	1.7788
1161.27	1.85608
1164.17	1.33362
1167.06	1.69616
1169.95	1.35589
1172.84	1.3457
1175.74	1.36083
1178.63	0.994846
1181.52	1.38189
1184.41	1.17317
1187.31	1.1092
1190.2	0.830177
1193.09	1.04981
1195.99	0.806126
1198.88	0.798744
1201.77	1.17779
1204.66	0.755272
1207.56	1.18398
1210.45	1.10979
1213.34	1.20864
1216.23	0.761906
1219.13	1.03687
1222.02	1.02231
1224.91	0.857269
1227.81	0.517397
1230.7	0.683474
1233.59	1.00279
1236.48	0.607559
1239.38	0.070726
1242.27	0.496208
1245.16	0.511419
1248.05	0.596325
1250.95	0.156069
1253.84	1.01529
1256.73	0.674133
1259.62	0.617426
1262.52	0.626066
1265.41	0.328705
1268.3	0.609409
1271.2	0.454897
1274.09	0.275995
1276.98	1.03495
1279.87	0.555708
1282.77	0.724722
1285.66	0.378584
1288.55	0.806049
1291.44	0.739353
1294.34	0.381708
1297.23	0.06369
1300.12	0.172878
1303.02	0
