Measurement: Raman, 780 nm, unoriented, Raman Data Processed
Mineral: Norrishite
Rruff sample: R130089
Ideal chemistry: KLiMn^3+^_2_Si_4_O_12_
Locality: Wessels mine, Kalahari Manganese Field, South Africa
Source: Marcus Origlieri
Description: Dark brown platy massive cleavages associated with sugilite
Raman shift (cm-1)	intensity
113.377	0
116.752	0.479828
120.127	2.09586
123.501	2.37988
126.876	1.11217
130.251	4.25182
133.626	4.07724
137.001	5.71484
140.375	1.71018
143.75	0.266876
147.125	0.319695
150.5	0.433197
153.875	0.233658
157.25	0.184883
160.624	2.15169
163.999	5.45945
167.374	13.0224
170.749	18.4947
174.124	28.7391
177.498	44.3008
180.873	57.6127
184.248	68.1469
187.623	50.3564
190.998	18.8561
194.373	13.7607
197.747	18.9716
201.122	30.7845
204.497	43.3697
207.872	26.0919
211.247	34.9202
214.621	51.4217
217.996	71.4262
221.371	62.121
224.746	20.0826
228.121	14.1189
231.495	18.7275
234.87	30.4212
238.245	40.0488
241.62	6.86861
244.995	0.490437
248.369	1.48181
251.744	0.215469
255.119	0.004795
258.494	2.8558
261.869	4.29827
265.244	10.1436
268.618	16.0128
271.993	26.1187
275.368	25.3473
278.743	5.37839
282.118	3.06482
285.493	4.78667
288.867	7.59828
292.242	12.7308
295.617	19.3232
298.992	25.3465
302.366	18.9609
305.741	4.12381
309.116	1.43453
312.491	0.080673
315.866	0.402809
319.241	1.99116
322.615	2.17102
325.99	4.68169
329.365	6.50599
332.74	5.96674
336.115	8.14236
339.49	12.541
342.864	11.3705
346.239	7.83339
349.614	8.17918
352.989	9.10508
356.364	11.0849
359.738	12.6997
363.113	14.9753
366.488	19.4971
369.863	9.25819
373.238	2.90058
376.613	0.183575
379.987	0.063435
383.362	0.923489
386.737	0.05452
390.112	0.611977
393.486	2.26896
396.861	3.44954
400.236	3.68355
403.611	2.51345
406.986	3.00414
410.361	3.86394
413.735	4.76827
417.11	5.48421
420.485	6.98705
423.86	8.20209
427.235	9.86294
430.61	10.6207
433.984	7.21755
437.359	3.73646
440.734	3.05597
444.109	2.53286
447.484	1.4875
450.858	0.273113
454.233	0.391529
457.608	0.320938
460.983	0.761097
464.358	1.93572
467.733	1.3592
471.107	2.53325
474.482	5.19519
477.857	8.42013
481.232	13.984
484.606	21.5264
487.981	28.1719
491.356	29.357
494.731	20.3751
498.106	11.8469
501.481	9.89637
504.855	8.17126
508.23	4.71108
511.605	2.75272
514.98	0.396042
518.355	0.306267
521.73	0.019348
525.104	1.13032
528.479	1.2116
531.854	1.95505
535.229	2.88789
538.604	5.52084
541.978	9.36956
545.353	10.7446
548.728	5.5435
552.103	1.81107
555.478	1.45525
558.852	2.89569
562.227	4.29631
565.602	4.33112
568.977	2.49369
572.352	0.158829
575.726	1.10197
579.101	0.300644
582.476	0.336006
585.851	1.57701
589.226	3.9446
592.601	8.35085
595.975	14.7257
599.35	28.7126
602.725	54.2536
606.1	83.8451
609.475	129.417
612.85	185.795
616.224	206.901
619.599	129.728
622.974	59.3796
626.349	29.4188
629.723	15.7995
633.098	9.95659
636.473	6.42287
639.848	5.17944
643.223	6.58549
646.598	10.5236
649.972	15.8282
653.347	23.8114
656.722	30.1083
660.097	27.4
663.472	17.8086
666.846	7.89645
670.221	3.02368
673.596	1.18099
676.971	2.34465
680.346	2.89262
683.721	5.85858
687.095	13.1788
690.47	22.9445
693.845	37.1146
697.22	60.4227
700.595	82.4973
703.97	60.4826
707.344	24.9624
710.719	11.9945
714.094	6.97031
717.469	3.63534
720.843	1.37044
724.218	0.072006
727.593	1.17429
730.968	0.373093
734.343	0.975983
737.718	0.155472
741.092	0.104446
744.467	0.273331
747.842	0.663002
751.217	0.53009
754.592	1.6888
757.966	3.31074
761.341	6.39926
764.716	7.51917
768.091	5.32806
771.466	4.98368
774.841	3.74164
778.215	1.00987
781.59	2.29811
784.965	1.17556
788.34	0.548653
791.715	2.15789
795.089	0.797768
798.464	0.351334
801.839	0.683853
805.214	0.886696
808.589	1.04816
811.963	0.559799
815.338	0.760483
818.713	0.830109
822.088	1.37403
825.463	0.96347
828.838	1.02347
832.212	1.36867
835.587	2.6406
838.962	2.81263
842.337	5.06752
845.712	7.04313
849.087	9.13908
852.461	10.4138
855.836	9.36208
859.211	6.67137
862.586	5.31323
865.961	2.95953
869.335	1.76567
872.71	1.76037
876.085	0.757767
879.46	0.408958
882.835	0.673981
886.209	1.07059
889.584	0.752335
892.959	1.18716
896.334	1.35769
899.709	1.41081
903.083	0.519012
906.458	0.289146
909.833	0.221375
913.208	0.802597
916.583	0.608269
919.958	0.426094
923.332	0.052155
926.707	0.151337
930.082	0.447433
933.457	2.56457
936.832	2.79916
940.207	4.91174
943.581	7.83448
946.956	11.1486
950.331	15.9607
953.706	22.4732
957.081	24.0934
960.455	18.0629
963.83	13.4411
967.205	13.0479
970.58	12.3885
973.955	7.8802
977.329	7.20744
980.704	6.25661
984.079	4.92252
987.454	4.9435
990.829	2.2615
994.203	3.96812
997.578	3.34576
1000.95	2.28522
1004.33	2.15662
1007.7	4.75635
1011.08	5.28619
1014.45	7.38131
1017.83	11.4755
1021.2	13.2187
1024.58	14.6832
1027.95	14.711
1031.33	12.2679
1034.7	5.39943
1038.08	3.57454
1041.45	1.93392
1044.83	2.69171
1048.2	0.206215
1051.58	0.886887
1054.95	0.75
1058.33	0.915108
1061.7	1.56239
1065.08	1.05679
1068.45	0.489059
1071.82	2.8829
1075.2	3.93387
1078.57	6.27476
1081.95	3.78989
1085.32	1.5452
1088.7	0.906891
1092.07	1.0705
1095.45	1.2332
1098.82	1.88704
1102.2	3.99095
1105.57	0.964554
1108.95	3.36484
1112.32	6.61452
1115.7	12.4792
1119.07	18.8494
1122.45	16.4253
1125.82	10.2278
1129.2	4.51298
1132.57	2.03842
1135.95	2.30661
1139.32	2.90062
1142.69	0.036865
1146.07	0.963959
1149.44	0.338562
1152.82	0.368057
1156.19	0.031448
1159.57	0.357727
1162.94	1.0621
1166.32	1.2995
1169.69	1.67891
1173.07	3.38048
1176.44	1.08106
1179.82	0.455719
1183.19	0.653854
1186.57	0.939133
1189.94	0.677521
1193.32	0.016235
1196.69	2.4084
1200.07	2.05627
1203.44	3.71651
1206.82	0.916229
1210.19	0.541168
1213.57	1.12881
1216.94	0.328033
1220.32	1.08278
1223.69	2.7926
1227.07	2.40765
1230.44	0.782486
1233.82	0.397247
1237.19	1.07069
1240.57	0.595383
1243.94	2.69615
1247.32	0.241318
1250.69	2.30786
1254.06	1.76289
1257.44	0.378601
1260.81	0.192642
1264.19	4.32753
1267.56	1.77895
1270.94	0.7612
1274.31	3.04848
1277.69	0.243805
1281.06	1.88519
