Measurement: Raman, 532 nm, unoriented, Raman Data Processed
Mineral: Norrishite
Rruff sample: R130089
Ideal chemistry: KLiMn^3+^_2_Si_4_O_12_
Locality: Wessels mine, Kalahari Manganese Field, South Africa
Source: Marcus Origlieri
Description: Dark brown platy massive cleavages associated with sugilite
Raman shift (cm-1)	intensity
171.804	0
174.696	0.914097
177.589	1.25173
180.482	1.32452
183.374	4.2779
186.267	5.44652
189.16	6.92475
192.053	5.60095
194.945	4.08976
197.838	3.71407
200.731	3.80817
203.623	5.56999
206.516	4.51805
209.409	3.16555
212.301	1.83198
215.194	2.74211
218.087	4.42791
220.98	7.61829
223.872	5.73712
226.765	5.46342
229.658	5.56402
232.55	6.46153
235.443	10.8386
238.336	16.8125
241.228	9.30071
244.121	2.39083
247.014	0.377914
249.906	0.550425
252.799	0.447151
255.692	0.825157
258.585	0.424837
261.477	0.222313
264.37	1.11346
267.263	0.359419
270.155	0.853973
273.048	1.91237
275.941	2.11121
278.834	0.728102
281.726	0.761108
284.619	1.58917
287.512	2.66398
290.404	3.45709
293.297	3.93057
296.19	7.14078
299.082	13.422
301.975	18.9969
304.868	7.19558
307.76	1.73478
310.653	0.841175
313.546	2.02179
316.439	1.92955
319.331	3.09163
322.224	4.09982
325.117	6.72699
328.009	9.95903
330.902	12.3952
333.795	8.81926
336.688	6.8254
339.58	8.25816
342.473	8.79243
345.366	5.44356
348.258	1.97842
351.151	1.49404
354.044	0.433376
356.936	0.847128
359.829	1.55516
362.722	2.46556
365.615	4.27153
368.507	4.86941
371.4	1.57651
374.293	0.45022
377.185	0.09842
380.078	0.531339
382.971	0.38359
385.863	2.12983
388.756	3.73506
391.649	4.59198
394.541	6.98445
397.434	10.3511
400.327	12.8977
403.22	9.53149
406.112	4.16479
409.005	1.60383
411.898	0.69896
414.79	0.73115
417.683	0.7118
420.576	1.14292
423.469	0.165057
426.361	2.00164
429.254	2.10256
432.147	2.77851
435.039	4.22396
437.932	5.66763
440.825	4.03567
443.717	1.37482
446.61	1.30653
449.503	2.02201
452.396	0.728803
455.288	0.156588
458.181	0.103943
461.074	0.542662
463.966	0.039321
466.859	0.011234
469.752	0.101146
472.644	0.849627
475.537	1.67669
478.43	1.98138
481.322	3.01524
484.215	4.01695
487.108	6.82779
490.001	8.47085
492.893	9.07657
495.786	7.21593
498.679	4.75123
501.571	4.6758
504.464	4.10296
507.357	3.84268
510.25	2.88086
513.142	1.98994
516.035	0.920684
518.928	0.420566
521.82	0.121407
524.713	0.513689
527.606	0.368503
530.498	1.23948
533.391	0.61587
536.284	0.675985
539.177	0.166829
542.069	0.223283
544.962	0.071002
547.855	0.325572
550.747	0.257673
553.64	0.12248
556.533	0.474678
559.425	0.174421
562.318	0.598583
565.211	0.55965
568.104	0.373505
570.996	0.673193
573.889	0.330057
576.782	1.3282
579.674	0.803964
582.567	1.51424
585.46	1.18771
588.352	1.88793
591.245	2.47079
594.138	3.96968
597.03	5.08437
599.923	8.38099
602.816	12.4142
605.709	19.4624
608.601	28.313
611.494	39.3568
614.387	51.6721
617.279	57.4866
620.172	45.2847
623.065	25.6361
625.957	12.9941
628.85	8.24578
631.743	5.23716
634.636	3.61931
637.528	2.06174
640.421	1.54011
643.314	0.762785
646.206	0.298539
649.099	0.084283
651.992	0.018145
654.885	0.271226
657.777	0.717448
660.67	0.263278
663.563	0.226047
666.455	0.011239
669.348	0.38738
672.241	0.618174
675.133	0.08053
678.026	1.49077
680.919	1.243
683.812	2.09782
686.704	3.17726
689.597	6.65808
692.49	10.1385
695.382	15.0867
698.275	23.3405
701.168	30.9785
704.06	29.6855
706.953	19.0062
709.846	9.3017
712.739	4.80098
715.631	3.02955
718.524	2.2302
721.417	1.78976
724.309	1.21816
727.202	1.1379
730.095	0.102355
732.987	0.764654
735.88	0.856696
738.773	0.067888
741.665	0.025841
744.558	0.158314
747.451	0.392677
750.344	0.895297
753.236	1.04809
756.129	1.53609
759.022	1.259
761.914	1.90858
764.807	3.34886
767.7	3.32509
770.592	2.727
773.485	2.74195
776.378	1.28695
779.271	0.945836
782.163	0.666698
785.056	1.2056
787.949	0.559499
790.841	0.668363
793.734	0.63881
796.627	0.513641
799.519	0.708351
802.412	0.740029
805.305	0.010777
808.198	1.43004
811.09	0.556743
813.983	1.27908
816.876	0.935608
819.768	0.519603
822.661	1.44015
825.554	1.34881
828.447	0.704508
831.339	1.053
834.232	0.962852
837.125	1.17666
840.017	1.18873
842.91	1.60396
845.803	1.32868
848.695	1.68218
851.588	2.07285
854.481	1.89162
857.374	1.56313
860.266	0.716413
863.159	1.46388
866.052	0.865595
868.944	1.97568
871.837	0.994576
874.73	1.36957
877.622	1.63197
880.515	1.05004
883.408	0.485338
886.301	0.701919
889.193	0.154683
892.086	0.537792
894.979	0.509389
897.871	0.033384
900.764	0.308355
903.657	0.282625
906.549	0.419252
909.442	0.307981
912.335	0.346649
915.227	0.296843
918.12	0.060344
921.013	0.547199
923.906	0.749627
926.798	1.06919
929.691	1.01341
932.584	1.84552
935.476	2.53634
938.369	2.94909
941.262	4.28054
944.154	6.94302
947.047	10.1378
949.94	14.3048
952.833	19.1015
955.725	23.2369
958.618	23.2649
961.511	17.1289
964.403	12.218
967.296	10.7219
970.189	10.944
973.082	8.43198
975.974	4.50702
978.867	3.05829
981.76	1.59821
984.652	1.45336
987.545	0.933329
990.438	0.453412
993.33	0.233092
996.223	0.664284
999.116	0.373161
1002.01	0.219346
1004.9	0.537727
1007.79	0.064996
1010.69	0.49288
1013.58	0.010351
1016.47	0.081766
1019.37	0.056116
1022.26	0.103552
1025.15	0.636897
1028.04	0.574244
1030.94	0.556611
1033.83	0.254063
1036.72	0.152661
1039.61	0.470049
1042.51	0.386229
1045.4	0.272634
1048.29	0.032543
1051.18	0.086524
1054.08	0.774011
1056.97	0.149605
1059.86	0.571902
1062.76	0.523379
1065.65	0.395364
1068.54	1.78537
1071.43	3.30537
1074.33	4.68974
1077.22	7.25616
1080.11	9.27101
1083	5.69471
1085.9	2.72472
1088.79	1.64393
1091.68	0.508451
1094.58	0.541442
1097.47	1.08684
1100.36	0.735374
1103.25	0.802749
1106.15	0.894123
1109.04	1.88061
1111.93	4.01953
1114.82	5.02715
1117.72	7.76666
1120.61	10.37
1123.5	9.63306
1126.39	6.56338
1129.29	3.82352
1132.18	2.15633
1135.07	1.56747
1137.96	1.29723
1140.86	0.731534
1143.75	0.450238
1146.64	0.429342
1149.54	0.833417
1152.43	1.10523
1155.32	0.484244
1158.21	0.053691
1161.11	0.248568
1164	0.637322
1166.89	0.15399
1169.79	0.472116
1172.68	0.66921
1175.57	0.061487
1178.46	0.550738
1181.36	0.804336
1184.25	0.339571
1187.14	0.551962
1190.03	0.285767
1192.93	0.561824
1195.82	0.290631
1198.71	0.388635
1201.61	0.235885
1204.5	0.567839
1207.39	1.15493
1210.28	0.695158
1213.18	1.07438
1216.07	1.17431
1218.96	0.852479
1221.85	0.7912
1224.75	0.293734
1227.64	0.657872
1230.53	0.2513
1233.42	0.615857
1236.32	0.61929
1239.21	1.03124
1242.1	0.474837
1244.99	0.731453
1247.89	0.587357
1250.78	0.282712
1253.67	0.768217
1256.57	0.019672
1259.46	0.88864
1262.35	0.139902
1265.24	0.163778
1268.14	0.453159
1271.03	0.823401
1273.92	0.297224
1276.82	0.482588
1279.71	0.654085
1282.6	0.57078
1285.49	0.125608
1288.39	0.099601
1291.28	0.525759
1294.17	0.606666
1297.06	0.394085
1299.96	0.36841
