Measurement: Raman, 532 nm, unoriented, Raman Data Processed
Mineral: Norrishite
Rruff sample: R060368
Ideal chemistry: KLiMn^3+^_2_Si_4_O_12_
Locality: Hoskins mine, Grenfell, New South Wales, Australia
Source: Michael Scott
Description: Black flaky massive
Raman shift (cm-1)	intensity
131.954	0
135.329	0.00581
138.704	1.31376
142.079	0.428076
145.453	2.98731
148.828	0.763344
152.203	4.28776
155.578	8.54898
158.953	4.17248
162.328	5.98561
165.702	8.86462
169.077	7.53472
172.452	9.34765
175.827	7.43676
179.202	8.52869
182.577	9.16887
185.951	9.70865
189.326	8.43291
192.701	8.02997
196.076	5.46214
199.451	7.46475
202.825	14.3725
206.2	20.9091
209.575	13.0712
212.95	16.6027
216.325	22.8175
219.699	41.9278
223.074	43.2403
226.449	17.2593
229.824	9.00819
233.199	10.8564
236.573	19.1955
239.948	29.2423
243.323	8.18553
246.698	0.849808
250.073	0.686516
253.448	3.12835
256.822	10.7354
260.197	23.2343
263.572	31.7793
266.947	43.5781
270.322	72.6626
273.697	125.093
277.071	115.558
280.446	32.9187
283.821	10.4103
287.196	4.30978
290.571	2.43634
293.945	5.22735
297.32	8.16384
300.695	16.1866
304.07	13.9796
307.445	1.50181
310.82	1.64651
314.194	0.039223
317.569	1.07193
320.944	1.27389
324.319	2.95335
327.694	6.51068
331.068	9.58404
334.443	6.07369
337.818	3.7836
341.193	5.25322
344.568	4.26257
347.942	3.29084
351.317	8.1965
354.692	12.0779
358.067	17.0537
361.442	25.6418
364.817	40.3443
368.191	55.4609
371.566	37.2062
374.941	10.2585
378.316	3.13046
381.691	2.41068
385.065	0.719444
388.44	0.772823
391.815	2.61963
395.19	8.26723
398.565	13.5344
401.94	14.2832
405.314	6.92851
408.689	1.00412
412.064	0.306044
415.439	0.851604
418.814	0.749725
422.188	0.537523
425.563	0.418224
428.938	1.57817
432.313	2.43805
435.688	4.87357
439.062	6.10878
442.437	4.1627
445.812	1.67673
449.187	1.71392
452.562	0.001112
455.937	0.316833
459.311	2.4862
462.686	0.526678
466.061	2.30144
469.436	1.41942
472.811	0.82579
476.185	4.35984
479.56	6.34701
482.935	9.40907
486.31	13.3721
489.685	18.7971
493.06	20.1119
496.434	16.2991
499.809	11.2098
503.184	8.15161
506.559	6.85767
509.934	4.77271
513.308	3.6499
516.683	2.28704
520.058	2.07513
523.433	0.760349
526.808	0.291134
530.183	0.516024
533.557	1.08235
536.932	1.09397
540.307	1.365
543.682	0.532495
547.057	0.557144
550.432	0.642658
553.806	0.30567
557.181	1.18432
560.556	1.93986
563.931	3.70647
567.306	4.28208
570.68	5.79479
574.055	6.99398
577.43	7.66596
580.805	8.00268
584.18	12.8923
587.554	14.8834
590.929	19.5466
594.304	27.2644
597.679	42.0881
601.054	69.5805
604.428	113.82
607.803	164.951
611.178	236.934
614.553	318.055
617.928	357.027
621.303	257.7
624.677	130.514
628.052	68.6437
631.427	38.9479
634.802	22.2111
638.177	14.6676
641.552	8.47365
644.926	4.70608
648.301	3.2219
651.676	0.957232
655.051	0.58102
658.426	0.231983
661.8	0.381166
665.175	1.08187
668.55	0.261736
671.925	1.2632
675.3	2.01236
678.674	0.04159
682.049	3.25965
685.424	5.8158
688.799	11.821
692.174	21.0246
695.549	32.2572
698.923	45.2687
702.298	57.475
705.673	41.4027
709.048	20.3019
712.423	10.6121
715.798	5.29768
719.172	2.1451
722.547	3.0544
725.922	2.17852
729.297	2.14376
732.672	1.14971
736.046	1.55241
739.421	0.265533
742.796	0.272593
746.171	0.460543
749.546	1.5331
752.92	1.99638
756.295	3.67589
759.67	2.56237
763.045	5.18143
766.42	3.68205
769.795	4.07695
773.169	3.63988
776.544	3.19655
779.919	1.32601
783.294	0.62285
786.669	1.76584
790.043	1.08109
793.418	0.842804
796.793	0.691475
800.168	0.295288
803.543	1.41726
806.918	0.062954
810.292	0.211025
813.667	1.12788
817.042	0.971895
820.417	0.286137
823.792	1.07091
827.166	1.75523
830.541	1.67517
833.916	0.44404
837.291	1.59286
840.666	1.77074
844.04	0.837801
847.415	0.737932
850.79	1.92986
854.165	0.241987
857.54	1.59816
860.915	1.01546
864.289	1.71314
867.664	1.94585
871.039	1.48984
874.414	1.64599
877.789	0.432638
881.163	2.78279
884.538	0.270876
887.913	2.4551
891.288	1.54793
894.663	2.861
898.038	0.93733
901.412	1.28843
904.787	0.868263
908.162	2.65905
911.537	0.454494
914.912	1.44396
918.287	0.067093
921.661	0.946936
925.036	1.53841
928.411	2.06664
931.786	4.07871
935.161	5.99606
938.535	6.23362
941.91	6.49657
945.285	7.5832
948.66	9.28825
952.035	11.3309
955.409	14.8779
958.784	15.2079
962.159	12.2633
965.534	9.1702
968.909	7.68841
972.284	6.03369
975.658	4.26568
979.033	3.83572
982.408	0.970289
985.783	1.62522
989.158	2.30527
992.533	1.91868
995.907	1.10064
999.282	0.833082
1002.66	0.993649
1006.03	0.303265
1009.41	1.83651
1012.78	0.293386
1016.16	2.73475
1019.53	1.86713
1022.91	1.31123
1026.28	0.864914
1029.66	0.276299
1033.03	0.234806
1036.4	0.251707
1039.78	0.524918
1043.15	0.443546
1046.53	0.851847
1049.9	1.06418
1053.28	1.45809
1056.65	0.449228
1060.03	2.04414
1063.4	2.50333
1066.78	1.47991
1070.15	1.93816
1073.53	3.50417
1076.9	6.18986
1080.28	8.29324
1083.65	5.70754
1087.03	4.06388
1090.4	1.27956
1093.78	1.85597
1097.15	2.79843
1100.53	3.53845
1103.9	3.64131
1107.28	4.26046
1110.65	8.13925
1114.03	13.486
1117.4	18.2008
1120.78	20.0199
1124.15	12.7031
1127.53	7.27535
1130.9	5.85492
1134.28	3.53438
1137.65	1.14288
1141.02	1.15507
1144.4	2.2749
1147.77	1.02478
1151.15	0.246016
1154.52	2.22632
1157.9	1.47987
1161.27	0.635664
1164.65	0.787308
1168.02	1.00086
1171.4	1.0022
1174.77	1.16638
1178.15	0.791378
1181.52	0.780949
1184.9	1.45992
1188.27	0.085936
1191.65	1.50784
1195.02	0.367197
1198.4	0.645782
1201.77	1.24629
1205.15	1.34356
1208.52	1.22429
1211.9	1.75649
1215.27	0.990211
1218.64	1.65098
1222.02	0.233877
1225.39	1.33404
1228.77	0.275679
1232.14	1.52038
1235.52	1.14632
1238.89	1.86449
1242.27	1.56146
1245.64	1.79115
1249.02	0.982855
1252.39	0.224459
1255.77	0.619186
1259.14	1.47812
1262.52	0.227262
1265.89	1.17414
1269.27	2.20661
1272.64	1.73751
1276.02	1.83383
1279.39	1.62954
1282.77	1.78676
1286.14	1.37788
1289.52	2.16767
1292.89	1.79608
1296.27	0.355988
1299.64	0.180841
1303.02	0
