Measurement: Raman, 780 nm, unoriented, Raman Data Processed
Mineral: Norrishite
Rruff sample: R060368
Ideal chemistry: KLiMn^3+^_2_Si_4_O_12_
Locality: Hoskins mine, Grenfell, New South Wales, Australia
Source: Michael Scott
Description: Black flaky massive
Raman shift (cm-1)	intensity
150.351	0
153.244	2.34636
156.137	1.20538
159.03	1.61587
161.922	0.174721
164.815	0.025017
167.708	2.17966
170.6	0.883224
173.493	1.90517
176.386	1.60025
179.278	3.586
182.171	5.52033
185.064	7.15523
187.957	6.02407
190.849	2.97232
193.742	6.34978
196.635	6.53244
199.527	12.1597
202.42	16.6011
205.313	12.1971
208.205	8.30721
211.098	6.71103
213.991	12.1937
216.884	14.1665
219.776	17.5719
222.669	13.3625
225.562	8.74947
228.454	8.32406
231.347	10.778
234.24	14.6079
237.132	15.5398
240.025	12.5128
242.918	3.47033
245.811	2.28559
248.703	0.02314
251.596	0.019817
254.489	1.88199
257.381	3.10058
260.274	3.82941
263.167	6.97425
266.059	9.92118
268.952	12.0569
271.845	15.5018
274.738	14.9312
277.63	5.57077
280.523	0.813995
283.416	3.73409
286.308	1.75286
289.201	2.09587
292.094	1.80309
294.986	4.8335
297.879	5.09321
300.772	5.8537
303.665	3.22672
306.557	0.32098
309.45	1.35276
312.343	0.046188
315.235	0.95108
318.128	0.737484
321.021	2.41222
323.913	2.68985
326.806	2.5095
329.699	4.35807
332.592	2.30572
335.484	3.19803
338.377	1.44259
341.27	2.56749
344.162	2.44426
347.055	3.5459
349.948	1.16573
352.841	4.2785
355.733	5.51251
358.626	5.85851
361.519	8.50193
364.411	8.8316
367.304	9.43554
370.197	7.23284
373.089	4.04102
375.982	1.10492
378.875	0.790123
381.767	1.31957
384.66	0.382446
387.553	1.43842
390.446	0.015089
393.338	1.73864
396.231	2.88004
399.124	2.66478
402.016	2.37381
404.909	2.17047
407.802	0.566238
410.695	0.482527
413.587	0.599844
416.48	2.10434
419.373	1.13486
422.265	0.88969
425.158	1.13134
428.051	1.74416
430.943	2.64949
433.836	1.2558
436.729	2.00964
439.622	2.09416
442.514	2.49285
445.407	2.27066
448.3	3.05663
451.192	0.671513
454.085	0.185881
456.978	1.84078
459.87	3.58215
462.763	1.32568
465.656	2.19785
468.548	1.44391
471.441	1.3706
474.334	3.55197
477.227	4.23319
480.119	5.70312
483.012	6.51887
485.905	7.61102
488.797	9.3185
491.69	8.28178
494.583	7.34295
497.476	6.85717
500.368	5.61991
503.261	4.36832
506.154	3.74
509.046	2.94469
511.939	2.91917
514.832	0.999565
517.724	1.16753
520.617	1.1178
523.51	0.900871
526.403	0.664656
529.295	0.277456
532.188	0.805027
535.081	0.71871
537.973	0.921732
540.866	1.8521
543.759	0.711292
546.651	1.16803
549.544	2.55789
552.437	1.94966
555.33	1.5133
558.222	1.43938
561.115	1.83217
564.008	2.0221
566.9	2.9497
569.793	3.40073
572.686	2.73985
575.578	3.32515
578.471	4.91964
581.364	4.49733
584.256	5.57719
587.149	6.40503
590.042	7.96884
592.935	8.67187
595.827	15.4008
598.72	23.7055
601.613	37.529
604.505	51.4266
607.398	66.3216
610.291	83.4953
613.183	95.3315
616.076	95.2824
618.969	72.9835
621.862	46.1602
624.754	27.4488
627.647	16.9684
630.54	10.1265
633.432	7.50573
636.325	6.74978
639.218	2.52055
642.111	3.08595
645.003	2.40794
647.896	0.879852
650.789	1.88389
653.681	1.17147
656.574	1.51935
659.467	0.557728
662.359	0.812279
665.252	0.52116
668.145	0.348984
671.038	0.474781
673.93	0.700943
676.823	0.426352
679.716	2.27313
682.608	3.17821
685.501	7.1331
688.394	9.60888
691.286	12.8412
694.179	18.4779
697.072	22.1639
699.965	25.1717
702.857	19.7455
705.75	12.0557
708.643	7.16661
711.535	4.59884
714.428	3.05335
717.321	1.01006
720.213	1.57065
723.106	1.27737
725.999	2.15176
728.891	0.128284
731.784	0.64595
734.677	0.213993
737.57	0.187849
740.462	0.814392
743.355	1.89481
746.248	0.231802
749.14	0.462902
752.033	2.39265
754.926	1.25315
757.818	2.21978
760.711	1.06422
763.604	0.920162
766.497	2.82105
769.389	2.30047
772.282	2.49111
775.175	0.178888
778.067	1.62855
780.96	0.885023
783.853	0.477512
786.745	1.62193
789.638	0.302612
792.531	0.525951
795.424	0.206522
798.316	1.7667
801.209	1.42861
804.102	1.66852
806.994	0.987181
809.887	1.50093
812.78	1.75364
815.673	1.81369
818.565	0.848545
821.458	1.02911
824.351	1.53515
827.243	1.38309
830.136	1.64585
833.029	3.14175
835.921	1.41598
838.814	2.46501
841.707	1.17373
844.6	2.94724
847.492	2.56426
850.385	3.7134
853.278	1.75838
856.17	3.23509
859.063	1.91349
861.956	3.12228
864.848	2.70278
867.741	2.98248
870.634	1.75357
873.527	2.47155
876.419	1.80902
879.312	2.04361
882.205	3.04536
885.097	1.47717
887.99	2.33602
890.883	0.851664
893.775	2.1279
896.668	1.51665
899.561	0.121605
902.454	2.36462
905.346	0.984158
908.239	1.41293
911.132	0.622366
914.024	0.431812
916.917	0.434591
919.81	0.42675
922.702	0.929169
925.595	0.460548
928.488	1.63494
931.381	1.13278
934.273	2.3121
937.166	0.924269
940.059	2.88283
942.951	2.90801
945.844	3.72254
948.737	3.87368
951.63	4.4697
954.522	6.4147
957.415	5.70888
960.308	3.76113
963.2	2.95964
966.093	2.3088
968.986	3.18476
971.878	2.54358
974.771	1.06658
977.664	1.7037
980.557	1.26953
983.449	2.0412
986.342	2.82423
989.235	0.684175
992.127	0.309399
995.02	1.67541
997.913	0.955252
1000.8	1.90965
1003.7	0.60178
1006.59	2.70574
1009.48	0.392687
1012.38	1.30073
1015.27	0.843325
1018.16	2.60518
1021.05	0.48214
1023.95	0.395624
1026.84	1.01289
1029.73	1.33457
1032.62	0.902775
1035.52	2.78556
1038.41	1.21481
1041.3	2.09751
1044.2	2.10829
1047.09	1.15232
1049.98	3.13813
1052.87	2.2392
1055.77	1.29485
1058.66	1.38956
1061.55	0.752275
1064.44	1.10432
1067.34	1.51367
1070.23	1.46726
1073.12	2.91653
1076.02	3.80302
1078.91	1.90874
1081.8	2.65795
1084.69	1.54913
1087.59	0.490011
1090.48	3.03803
1093.37	1.33982
1096.27	0.741272
1099.16	0.165392
1102.05	1.85317
1104.94	2.45941
1107.84	3.58771
1110.73	5.05006
1113.62	6.13718
1116.51	8.53351
1119.41	6.90097
1122.3	6.27569
1125.19	1.7853
1128.08	1.24899
1130.98	2.199
1133.87	1.53723
1136.76	3.62189
1139.65	0.139372
1142.55	2.05043
1145.44	0.0529
1148.33	0.215315
1151.23	0.664423
1154.12	0.576599
1157.01	0.858171
1159.9	2.19923
1162.8	1.68633
1165.69	0.143578
1168.58	1.00741
1171.47	1.75087
1174.37	0.617817
1177.26	1.468
1180.15	0.743889
1183.05	0.778427
1185.94	1.24933
1188.83	1.10821
1191.72	0.661366
1194.62	1.45333
1197.51	1.04878
1200.4	2.41216
1203.29	1.93331
1206.19	1.04171
1209.08	1.44856
1211.97	2.10086
1214.87	2.53246
1217.76	0.929605
1220.65	2.05043
1223.54	2.23993
1226.44	2.31962
1229.33	3.18025
1232.22	1.12941
1235.11	0.731575
1238.01	0.050976
1240.9	0.341896
1243.79	1.30528
1246.68	0.935221
1249.58	2.11518
1252.47	0.640934
1255.36	0.895374
1258.26	1.91291
1261.15	2.9886
1264.04	0.413254
1266.93	0.230104
1269.83	0.605907
1272.72	1.46947
1275.61	1.67475
1278.51	1.69548
1281.4	0.167871
1284.29	0.775965
