Measurement: Raman, 780 nm, unoriented, Raman Data Processed
Mineral: Northupite
Rruff sample: R060156
Ideal chemistry: Na_3_Mg(CO_3_)_2_Cl
Locality: Searles Lake, San Bernardino County, California, USA
Source: Marcus Origlieri
Description: Gray octahedron
Measured chemistry: (Na_2.98_Ca_0.02_)_Î£=3_Mg_1.00_(CO_3_)_2_Cl_1.00_
Raman shift (cm-1)	intensity
130.595	0
133.487	7.75122
136.38	1.29785
139.273	8.02685
142.166	0.648315
145.058	0.088745
147.951	0.630127
150.844	8.08423
153.736	17.2926
156.629	18.239
159.522	15.5215
162.414	19.7598
165.307	31.2665
168.2	43.2256
171.093	64.0244
173.985	98.9658
176.878	148.991
179.771	158.111
182.663	101.767
185.556	48.5815
188.449	22.7452
191.341	5.76831
194.234	8.69531
197.127	9.95532
200.019	10.7072
202.912	15.8608
205.805	29.417
208.697	50.2953
211.59	54.2197
214.483	54.5535
217.376	39.0915
220.268	18.5129
223.161	9.24475
226.054	5.07739
228.946	3.53906
231.839	9.58118
234.732	11.777
237.625	13.8184
240.517	27.5456
243.41	45.8278
246.303	69.2206
249.195	82.6992
252.088	60.0902
254.981	30.2417
257.873	18.9347
260.766	10.958
263.659	12.1328
266.551	5.77502
269.444	1.2196
272.337	2.19873
275.23	0.208252
278.122	7.44727
281.015	16.4286
283.908	24.5188
286.8	22.8474
289.693	22.1382
292.586	17.2467
295.478	17.0142
298.371	20.4009
301.264	31.1829
304.157	35.9419
307.049	30.7218
309.942	23.3055
312.835	18.8823
315.727	10.6479
318.62	7.52319
321.513	2.9469
324.406	4.02075
327.298	0.887207
330.191	1.08606
333.084	0.164917
335.976	3.11914
338.869	3.36414
341.762	1.31531
344.654	2.01672
347.547	3.28064
350.44	2.18372
353.332	5.53882
356.225	7.71668
359.118	3.3833
362.01	4.02454
364.903	2.28565
367.796	4.2301
370.689	4.70972
373.581	2.83679
376.474	1.93311
379.367	2.32153
382.259	0.638916
385.152	1.54748
388.045	0.022095
390.938	0.97998
393.83	0.726074
396.723	2.27271
399.616	1.33179
402.508	1.48792
405.401	2.09045
408.294	2.49548
411.186	1.31982
414.079	2.49658
416.972	4.745
419.865	2.50378
422.757	11.6825
425.65	6.9165
428.543	3.61719
431.435	3.53845
434.328	6.04675
437.221	4.37183
440.113	6.35608
443.006	6.42004
445.899	5.00354
448.791	4.16272
451.684	4.47302
454.577	4.87415
457.47	5.7915
460.362	7.65173
463.255	13.76
466.148	9.22815
469.04	9.77002
471.933	5.66248
474.826	6.94446
477.719	7.41699
480.611	5.32019
483.504	5.80029
486.397	4.75915
489.289	3.62683
492.182	5.4325
495.075	4.54443
497.967	6.83838
500.86	2.24658
503.753	3.51074
506.645	3.06897
509.538	4.30737
512.431	5.37781
515.323	5.00561
518.216	2.88611
521.109	4.73364
524.002	7.74133
526.894	2.92688
529.787	0.998047
532.68	4.27942
535.572	0.845093
538.465	3.33032
541.358	4.14624
544.25	0.708374
547.143	1.47534
550.036	0.271484
552.929	2.32935
555.821	5.25342
558.714	6.2843
561.607	0.831787
564.499	0.951782
567.392	0.94751
570.285	3.93445
573.178	0.456421
576.07	6.3512
578.963	3.25708
581.856	5.56824
584.748	2.49609
587.641	4.68201
590.534	5.13611
593.426	8.17798
596.319	4.09778
599.212	4.04187
602.105	3.63123
604.997	4.39978
607.89	5.255
610.783	5.76611
613.675	3.89929
616.568	4.78076
619.461	5.38147
622.353	3.72009
625.246	8.64441
628.139	5.10693
631.031	5.76416
633.924	5.81091
636.817	6.05359
639.71	8.77356
642.602	5.651
645.495	5.34558
648.388	7.91626
651.28	7.42383
654.173	6.49329
657.066	2.82153
659.958	3.52441
662.851	0.819946
665.744	4.05981
668.636	2.1626
671.529	1.87073
674.422	3.33386
677.315	3.38757
680.207	6.90295
683.1	1.81909
685.993	3.67944
688.885	3.27319
691.778	3.05457
694.671	3.72241
697.563	5.70312
700.456	5.39258
703.349	9.71033
706.242	11.2233
709.134	22.5813
712.027	29.9741
714.92	38.0395
717.812	31.1776
720.705	21.5087
723.598	12.3428
726.49	5.62976
729.383	1.63428
732.276	5.75854
735.169	5.90857
738.061	5.08533
740.954	6.2887
743.847	7.22766
746.739	8.69751
749.632	7.72656
752.525	2.09924
755.418	0.267944
758.31	3.04053
761.203	1.97022
764.096	0.340576
766.988	1.57471
769.881	1.79102
772.774	2.85486
775.666	0.196045
778.559	2.48193
781.452	2.24878
784.345	5.98645
787.237	0.5802
790.13	2.49463
793.023	9.37463
795.915	6.95019
798.808	7.36939
801.701	6.82239
804.593	5.92151
807.486	5.60901
810.379	7.40967
813.271	6.01538
816.164	4.29663
819.057	3.72693
821.949	3.89417
824.842	6.03821
827.735	4.29944
830.628	3.97705
833.52	5.72522
836.413	4.04346
839.306	4.40723
842.198	6.05481
845.091	2.453
847.984	0.610352
850.876	0.243042
853.769	3.58386
856.662	1.96899
859.555	0.668457
862.447	1.65222
865.34	1.724
868.233	2.54871
871.125	1.48962
874.018	0.197388
876.911	2.60632
879.803	3.11646
882.696	2.47595
885.589	4.26758
888.482	5.33508
891.374	1.00452
894.267	0.026123
897.16	2.48547
900.052	5.37122
902.945	3.93872
905.838	2.21912
908.731	5.43518
911.623	3.7511
914.516	6.00171
917.409	3.49304
920.301	5.97217
923.194	0.312012
926.087	2.01282
928.979	4.70373
931.872	4.34912
934.765	4.92688
937.658	1.3374
940.55	3.97461
943.443	2.57617
946.336	0.118408
949.228	0.324951
952.121	5.34412
955.014	4.63647
957.906	4.12781
960.799	4.82336
963.692	6.10376
966.584	1.0072
969.477	2.36694
972.37	0.517822
975.263	3.74146
978.155	0.835205
981.048	0.821899
983.941	2.08545
986.833	1.4165
989.726	1.71289
992.619	0.194214
995.511	4.79944
998.404	4.04968
1001.3	0.061523
1004.19	3.59387
1007.08	5.85486
1009.98	4.03857
1012.87	2.45618
1015.76	6.00842
1018.65	3.3125
1021.55	3.75647
1024.44	2.5802
1027.33	2.06592
1030.22	2.2417
1033.12	4.47424
1036.01	1.40198
1038.9	4.93286
1041.8	1.27124
1044.69	2.64587
1047.58	4.56262
1050.47	6.76221
1053.37	0.409424
1056.26	4.08313
1059.15	9.64563
1062.04	5.10852
1064.94	3.36035
1067.83	1.52759
1070.72	5.33386
1073.61	0.542114
1076.51	3.00647
1079.4	3.07947
1082.29	5.26794
1085.18	4.60217
1088.08	7.38525
1090.97	13.3826
1093.86	19.6118
1096.76	21.6364
1099.65	34.0188
1102.54	64.9688
1105.43	137.046
1108.33	168.106
1111.22	215.553
1114.11	498.833
1117.01	699.459
1119.9	144.951
1122.79	35.7738
1125.68	14.4049
1128.58	10.9235
1131.47	3.17481
1134.36	0.952637
1137.25	0.562012
1140.15	0.606201
1143.04	0.857788
1145.93	3.3429
1148.82	3.39075
1151.72	0.947876
1154.61	0.225464
1157.5	3.32471
1160.39	2.22107
1163.29	5.21179
1166.18	4.1134
1169.07	3.70081
1171.97	3.2356
1174.86	7.27649
1177.75	3.01636
1180.64	7.02661
1183.54	5.1239
1186.43	6.85156
1189.32	9.12097
1192.21	8.60657
1195.11	7.8396
1198	7.56104
1200.89	8.21533
1203.79	7.91394
1206.68	7.89026
1209.57	6.01025
1212.46	7.16248
1215.36	5.65991
1218.25	7.4425
1221.14	6.08118
1224.04	6.6554
1226.93	9.79822
1229.82	5.82532
1232.71	6.94226
1235.61	6.04163
1238.5	3.09924
1241.39	2.60791
1244.28	2.3916
1247.18	4.7207
1250.07	6.64636
1252.96	1.14514
1255.85	1.25769
1258.75	1.22046
1261.64	0.246582
1264.53	2.47668
1267.42	4.53259
1270.32	3.28369
1273.21	2.96802
1276.1	5.89441
1279	1.88965
1281.89	0.405029
1284.78	0.032104
