Measurement: Raman, 532 nm, unoriented, Raman Data Processed
Mineral: Northupite
Rruff sample: R060156
Ideal chemistry: Na_3_Mg(CO_3_)_2_Cl
Locality: Searles Lake, San Bernardino County, California, USA
Source: Marcus Origlieri
Description: Gray octahedron
Measured chemistry: (Na_2.98_Ca_0.02_)_Î£=3_Mg_1.00_(CO_3_)_2_Cl_1.00_
Raman shift (cm-1)	intensity
143.297	0
146.671	26.5529
150.046	240.877
153.421	367.829
156.796	376.969
160.171	378.634
163.546	377.92
166.92	390.24
170.295	440.105
173.67	497.345
177.045	588.288
180.42	494.318
183.794	270.292
187.169	171.494
190.544	118.131
193.919	97.5438
197.294	110.73
200.668	102.703
204.043	131.09
207.418	159.18
210.793	161.653
214.168	136.825
217.543	72.3982
220.917	13.8888
224.292	15.1213
227.667	21.832
231.042	10.7726
234.417	19.7031
237.792	58.3028
241.166	82.2382
244.541	113.95
247.916	152.443
251.291	116.611
254.666	39.2466
258.041	24.2496
261.415	5.38795
264.79	18.0107
268.165	36.8745
271.54	56.5215
274.915	48.0999
278.289	45.6683
281.664	35.0745
285.039	42.3359
288.414	39.1435
291.789	38.68
295.163	35.8576
298.538	64.1808
301.913	77.0877
305.288	89.7092
308.663	74.7587
312.038	60.8266
315.413	45.0533
318.787	23.5909
322.162	23.4674
325.537	12.8628
328.912	15.302
332.287	5.08085
335.661	11.635
339.036	0.794231
342.411	3.50371
345.786	1.03416
349.161	18.4071
352.536	19.1232
355.91	11.0872
359.285	10.1172
362.66	9.16186
366.035	16.3379
369.41	24.7083
372.784	28.95
376.159	18.8191
379.534	11.0967
382.909	2.94126
386.284	6.84266
389.659	7.30965
393.033	11.8787
396.408	15.7944
399.783	1.58594
403.158	11.8649
406.533	7.462
409.908	19.8184
413.282	20.7767
416.657	23.2994
420.032	13.5601
423.407	9.9214
426.782	9.30711
430.156	12.2724
433.531	1.10158
436.906	2.90599
440.281	0.574916
443.656	2.4101
447.031	3.39005
450.405	2.37738
453.78	0.214112
457.155	18.5388
460.53	4.3403
463.905	3.89171
467.279	2.57001
470.654	1.30494
474.029	2.15955
477.404	3.97872
480.779	17.6815
484.154	8.36497
487.528	1.58337
490.903	6.87552
494.278	9.01767
497.653	18.8721
501.028	29.2759
504.402	13.5706
507.777	4.10825
511.152	5.04809
514.527	13.1095
517.902	19.9295
521.277	13.0225
524.651	0.823028
528.026	4.55731
531.401	10.6826
534.776	5.05895
538.151	3.02987
541.525	5.32759
544.9	6.22971
548.275	20.6454
551.65	18.3726
555.025	11.2304
558.4	12.3036
561.774	13.096
565.149	15.7825
568.524	19.5814
571.899	14.3259
575.274	11.3923
578.649	13.388
582.023	23.1193
585.398	26.9607
588.773	14.1594
592.148	10.4949
595.523	19.719
598.898	17.7093
602.272	12.7565
605.647	20.2036
609.022	11.6463
612.397	5.64345
615.771	1.26038
619.146	1.77004
622.521	12.1031
625.896	15.2427
629.271	12.9118
632.646	22.5618
636.02	18.0582
639.395	1.64133
642.77	2.28573
646.145	1.87652
649.52	1.58817
652.895	0.79995
656.269	6.4913
659.644	16.1234
663.019	13.0305
666.394	13.2209
669.769	14.5621
673.144	11.6398
676.518	5.01478
679.893	3.26593
683.268	7.12661
686.643	19.1886
690.018	18.4294
693.393	12.7157
696.767	45.6212
700.142	62.4867
703.517	75.6696
706.892	97.9808
710.266	107.108
713.641	146.297
717.016	131.927
720.391	62.7722
723.766	29.2398
727.141	18.2498
730.515	7.5734
733.89	13.6968
737.265	16.6659
740.64	34.7056
744.015	12.9346
747.39	10.1483
750.764	2.44101
754.139	0.066694
757.514	9.96311
760.889	18.6242
764.264	13.6693
767.639	2.19051
771.013	5.1506
774.388	8.45271
777.763	0.894466
781.138	5.48656
784.513	23.2518
787.888	16.5373
791.262	12.7012
794.637	10.9624
798.012	1.61008
801.387	8.58066
804.761	18.8384
808.136	13.4381
811.511	2.23028
814.886	3.32627
818.261	9.12235
821.636	7.51993
825.01	14.1153
828.385	20.7248
831.76	24.9469
835.135	18.8918
838.51	12.1575
841.885	20.7414
845.259	10.2316
848.634	9.92001
852.009	12.5647
855.384	13.7172
858.759	2.14638
862.134	4.19784
865.508	3.88919
868.883	9.42496
872.258	13.8547
875.633	6.15975
879.008	2.6813
882.382	0.744373
885.757	10.2936
889.132	19.5673
892.507	18.1436
895.882	18.696
899.256	19.6305
902.631	29.8158
906.006	20.3959
909.381	18.2382
912.756	26.2234
916.131	37.9731
919.505	27.6812
922.88	11.9013
926.255	18.1001
929.63	2.7005
933.005	1.46561
936.38	11.3766
939.754	24.2126
943.129	11.1601
946.504	17.71
949.879	4.39836
953.254	3.61615
956.629	0.963657
960.003	15.883
963.378	4.07362
966.753	1.25468
970.128	3.31211
973.503	32.3073
976.877	39.691
980.252	45.1164
983.627	25.3484
987.002	27.6304
990.377	17.6558
993.751	17.5135
997.126	22.5108
1000.5	37.195
1003.88	14.139
1007.25	7.26102
1010.63	14.0536
1014	1.43679
1017.38	0.844752
1020.75	16.7893
1024.12	3.19192
1027.5	2.08273
1030.88	6.35438
1034.25	1.00398
1037.62	10.1127
1041	2.962
1044.37	9.38621
1047.75	11.9346
1051.12	18.709
1054.5	12.0173
1057.87	7.40994
1061.25	5.02463
1064.62	12.727
1068	27.3155
1071.37	48.4717
1074.75	16.5369
1078.12	7.9694
1081.5	3.61956
1084.87	31.5438
1088.25	63.7188
1091.62	70.9697
1095	150.228
1098.37	258.263
1101.75	486.738
1105.12	1171.38
1108.49	1489.67
1111.87	2153.25
1115.24	3602.81
1118.62	932.875
1121.99	181.404
1125.37	66.5793
1128.74	48.9333
1132.12	29.7591
1135.49	28.3858
1138.87	3.70008
1142.24	2.19069
1145.62	35.0903
1148.99	35.8185
1152.37	20.5473
1155.74	3.00761
1159.12	0.606021
1162.49	3.5862
1165.87	17.0582
1169.24	3.65285
1172.62	3.02713
1175.99	26.4442
1179.37	0.62167
1182.74	1.63145
1186.12	0.436886
1189.49	4.15734
1192.87	24.7475
1196.24	16.9262
1199.62	19.3687
1202.99	18.4433
1206.37	28.1885
1209.74	18.1584
1213.12	36.5944
1216.49	18.2168
1219.87	28.5158
1223.24	31.2035
1226.61	25.2611
1229.99	13.7889
1233.36	22.4339
1236.74	15.7896
1240.11	0.719121
1243.49	1.83727
1246.86	22.4642
1250.24	14.2862
1253.61	9.32656
1256.99	13.3733
1260.36	17.928
1263.74	26.6843
1267.11	35.7513
1270.49	56.4218
1273.86	29.6729
1277.24	17.2019
1280.61	14.6528
1283.99	18.6462
1287.36	16.5666
1290.74	8.14481
1294.11	22.2656
1297.48	11.7163
1300.86	10.7085
