Measurement: Raman, 532 nm, unoriented, Raman Data Processed
Mineral: Nosean
Rruff sample: R050422
Ideal chemistry: Na_8_(Si_6_Al_6_)O_24_(SO_4_)H_2_O
Locality: Laacher See, Mendig Area, Eifel Mountains, Rhineland-Palatinate, Germany
Source: Marcus Origlieri
Description: Colorless prismatic single crystals
Measured chemistry: (Na_0.92_Ca_0.03_[box]_0.03_K_0.01_)_8_Al_5.99_Si_6.01_O_24_(S_1.00_O_4_)Â·H_2_O
Raman shift (cm-1)	intensity
147.898	0
150.79	6.73328
153.683	8.44708
156.576	7.15997
159.468	6.14844
162.361	3.50037
165.254	8.83234
168.147	11.6404
171.039	10.0241
173.932	11.2401
176.825	13.93
179.717	11.0833
182.61	11.1065
185.503	17.3439
188.395	14.6658
191.288	15.0024
194.181	18.8746
197.073	14.6979
199.966	13.653
202.859	13.8852
205.752	11.8058
208.644	8.01318
211.537	3.49127
214.43	6.43487
217.322	3.9184
220.215	5.0675
223.108	6.71857
226	8.88904
228.893	4.61639
231.786	5.35736
234.679	3.30933
237.571	9.80188
240.464	8.46057
243.357	4.61719
246.249	4.45422
249.142	2.078
252.035	1.84607
254.928	1.84753
257.82	0.517944
260.713	1.573
263.606	0.99292
266.498	2.53186
269.391	5.85449
272.284	1.07666
275.176	3.96655
278.069	2.04614
280.962	3.18811
283.854	7.90479
286.747	8.37036
289.64	8.3689
292.533	10.2831
295.425	5.90845
298.318	4.24646
301.211	6.36951
304.103	6.85693
306.996	2.89856
309.889	7.32214
312.781	8.0426
315.674	7.98193
318.567	3.24487
321.46	3.5094
324.352	3.80127
327.245	0.38623
330.138	0.02771
333.03	0.25647
335.923	1.87439
338.816	1.40784
341.709	3.38745
344.601	0.133789
347.494	0.375
350.387	2.28052
353.279	7.32227
356.172	7.03699
359.065	4.3186
361.957	4.73279
364.85	2.68323
367.743	1.30103
370.635	2.38245
373.528	2.99438
376.421	4.01807
379.314	5.21997
382.206	9.33777
385.099	11.3497
387.992	18.5223
390.884	21.9434
393.777	24.0718
396.67	23.4901
399.562	30.8743
402.455	33.1261
405.348	47.9697
408.241	66.6038
411.133	94.8505
414.026	120.399
416.919	150.284
419.811	182.481
422.704	208.034
425.597	238.106
428.49	264.797
431.382	281.4
434.275	288.092
437.168	286.697
440.06	275.335
442.953	256.739
445.846	230.95
448.738	206.273
451.631	179.167
454.524	148.114
457.416	130.441
460.309	111.812
463.202	94.0328
466.095	85.1624
468.987	67.1313
471.88	56.0909
474.773	47.0615
477.665	37.679
480.558	30.6072
483.451	28.1322
486.344	22.1272
489.236	16.2285
492.129	13.6017
495.022	8.1521
497.914	4.18555
500.807	2.6239
503.7	0.414917
506.592	2.86194
509.485	0.001831
512.378	0.0802
515.27	1.0238
518.163	1.32068
521.056	3.68384
523.949	1.41333
526.841	1.49683
529.734	0.5177
532.627	3.36096
535.519	1.36133
538.412	4.16675
541.305	2.62561
544.197	5.78992
547.09	1.44775
549.983	2.85986
552.876	2.40247
555.768	0.526245
558.661	3.84119
561.554	1.1062
564.446	2.24939
567.339	0.450562
570.232	3.92639
573.125	3.03381
576.017	3.8634
578.91	2.96338
581.803	3.98511
584.695	5.60644
587.588	8.61511
590.481	6.41138
593.373	8.61133
596.266	7.5415
599.159	10.6062
602.052	19.1034
604.944	23.0946
607.837	31.6744
610.73	45.916
613.622	49.6049
616.515	54.9029
619.408	56.239
622.3	55.1008
625.193	45.9542
628.086	34.941
630.979	28.5889
633.871	35.1227
636.764	37.1542
639.657	36.9485
642.549	21.2001
645.442	6.90832
648.335	3.61365
651.227	2.23071
654.12	4.68323
657.013	1.92261
659.905	3.67578
662.798	3.64368
665.691	5.4137
668.584	5.06555
671.476	6.95715
674.369	10.7281
677.262	8.32581
680.154	3.73022
683.047	4.3606
685.94	2.85986
688.832	2.02393
691.725	3.03809
694.618	4.94641
697.511	1.10535
700.403	2.16357
703.296	0.591553
706.189	3.16077
709.081	6.20471
711.974	6.35998
714.867	4.74109
717.76	5.29272
720.652	4.5022
723.545	8.1366
726.438	9.10584
729.33	8.59839
732.223	5.31128
735.116	8.88037
738.008	4.6991
740.901	8.00244
743.794	4.53418
746.687	0.987915
749.579	1.52356
752.472	0.395996
755.365	0.191895
758.257	0.539917
761.15	3.7832
764.043	7.31079
766.935	4.15979
769.828	3.16028
772.721	6.0603
775.614	10.1548
778.506	8.88501
781.399	6.46606
784.292	9.13147
787.184	7.81335
790.077	1.82166
792.97	2.9154
795.862	6.23389
798.755	6.41919
801.648	10.1654
804.54	13.7892
807.433	26.1704
810.326	21.0366
813.219	17.9338
816.111	18.4431
819.004	23.9041
821.897	28.424
824.789	21.5998
827.682	21.6843
830.575	20.6743
833.467	21.724
836.36	26.4169
839.253	23.9377
842.146	27.0018
845.038	18.5369
847.931	14.557
850.824	14.7234
853.716	11.8834
856.609	12.2112
859.502	11.8011
862.394	9.59778
865.287	10.2672
868.18	6.51135
871.073	5.53564
873.965	4.36365
876.858	5.07507
879.751	8.02759
882.643	1.08606
885.536	0.687622
888.429	0.065918
891.322	0.649536
894.214	0.320313
897.107	3.16858
900	0.703857
902.892	0.553101
905.785	3.31946
908.678	1.36816
911.57	3.9729
914.463	5.91577
917.356	4.96423
920.249	6.72266
923.141	8.76648
926.034	6.90588
928.927	6.99231
931.819	0.812744
934.712	2.31262
937.605	1.38928
940.497	1.97253
943.39	1.55579
946.283	3.24817
949.176	1.92847
952.068	1.29175
954.961	4.61694
957.854	7.44763
960.746	20.349
963.639	46.5829
966.532	82.4808
969.424	153.995
972.317	250.725
975.21	389.125
978.102	562.292
980.995	724.8
983.888	734.262
986.781	559.522
989.673	349.606
992.566	235.21
995.459	166.503
998.351	98.7429
1001.24	59.5868
1004.14	38.0745
1007.03	36.9319
1009.92	37.6387
1012.82	38.0035
1015.71	28.8881
1018.6	30.4744
1021.49	34.35
1024.39	29.5158
1027.28	25.4213
1030.17	17.481
1033.06	17.1328
1035.96	21.9501
1038.85	23.1826
1041.74	20.7227
1044.63	17.2956
1047.53	14.2855
1050.42	10.1691
1053.31	6.51807
1056.2	7.70447
1059.1	8.48193
1061.99	8.9668
1064.88	11.4309
1067.78	8.01843
1070.67	10.0437
1073.56	4.07568
1076.45	7.29346
1079.35	3.11963
1082.24	7.81604
1085.13	7.11389
1088.03	2.46423
1090.92	4.8158
1093.81	6.30493
1096.7	1.58398
1099.6	2.70264
1102.49	17.0989
1105.38	16.7793
1108.27	18.8011
1111.17	27.0386
1114.06	27.7255
1116.95	19.6901
1119.85	14.5981
1122.74	13.7312
1125.63	12.1456
1128.52	14.7849
1131.42	17.2895
1134.31	22.0442
1137.2	20.6101
1140.09	16.2991
1142.99	17.0481
1145.88	13.5409
1148.77	13.1349
1151.66	10.4692
1154.56	8.22729
1157.45	9.67139
1160.34	8.13489
1163.23	9.37085
1166.13	4.63769
1169.02	7.34631
1171.91	5.86914
1174.81	7.11792
1177.7	9.5105
1180.59	7.6593
1183.48	11.8375
1186.38	13.8811
1189.27	7.54822
1192.16	6.76111
1195.06	2.10535
1197.95	2.55005
1200.84	0.492676
1203.73	4.36035
1206.63	0.25354
1209.52	0.84436
1212.41	6.55005
1215.3	16.7639
1218.2	12.7684
1221.09	15.8633
1223.98	12.4416
1226.88	14.452
1229.77	14.1585
1232.66	12.3752
1235.55	6.90112
1238.44	12.2165
1241.34	7.44482
1244.23	5.81177
1247.12	4.82446
1250.02	8.30957
1252.91	5.59338
1255.8	2.89282
1258.69	3.67566
1261.59	0.478882
1264.48	0.245361
1267.37	0.392578
1270.27	6.0946
1273.16	8.69543
1276.05	17.4169
1278.94	14.9121
1281.84	7.24133
1284.73	6.06494
1287.62	9.70825
1290.51	15.2516
1293.41	3.37842
1296.3	7.00269
1299.19	8.60083
1302.09	0.110718
