Measurement: Raman, 780 nm, unoriented, Raman Data Processed
Mineral: Nosean
Rruff sample: R050422
Ideal chemistry: Na_8_(Si_6_Al_6_)O_24_(SO_4_)H_2_O
Locality: Laacher See, Mendig Area, Eifel Mountains, Rhineland-Palatinate, Germany
Source: Marcus Origlieri
Description: Colorless prismatic single crystals
Measured chemistry: (Na_0.92_Ca_0.03_[box]_0.03_K_0.01_)_8_Al_5.99_Si_6.01_O_24_(S_1.00_O_4_)Â·H_2_O
Raman shift (cm-1)	intensity
146.816	0
149.709	0.273682
152.601	2.04361
155.494	2.56064
158.387	1.99602
161.28	0.324448
164.172	0.13765
167.065	0.790726
169.958	1.14656
172.85	1.90451
175.743	2.86841
178.636	0.518906
181.529	2.29997
184.421	3.56175
187.314	1.88562
190.207	2.2791
193.099	3.80421
195.992	4.02637
198.885	4.78868
201.777	5.50583
204.67	4.58014
207.563	5.77635
210.456	5.27814
213.348	4.05403
216.241	3.56839
219.134	2.53098
222.026	2.16054
224.919	2.1855
227.812	4.56955
230.704	5.22693
233.597	5.31081
236.49	4.72472
239.382	6.52495
242.275	6.29097
245.168	5.98759
248.061	4.49023
250.953	2.8809
253.846	0.161621
256.739	1.79892
259.631	0.360352
262.524	0.968857
265.417	2.09338
268.31	0.882263
271.202	2.88019
274.095	3.24811
276.988	3.63646
279.88	3.8205
282.773	4.68497
285.666	4.75653
288.558	3.50212
291.451	3.03273
294.344	2.07079
297.237	2.20731
300.129	1.8681
303.022	1.63486
305.915	0.805344
308.807	1.39149
311.7	1.88455
314.593	0.550583
317.486	0.973877
320.378	1.58659
323.271	0.996124
326.164	0.647812
329.056	1.60538
331.949	0.019119
334.842	0.838547
337.734	0.193329
340.627	0.436066
343.52	1.00366
346.413	0.844131
349.305	0.698471
352.198	0.302338
355.091	0.179092
357.983	1.2001
360.876	0.64003
363.769	0.858002
366.661	0.605621
369.554	0.118286
372.447	1.26051
375.339	1.00427
378.232	3.39757
381.125	3.32266
384.018	5.2339
386.91	7.29901
389.803	9.99664
392.696	11.0613
395.588	11.6511
398.481	13.3936
401.374	15.2076
404.267	19.1096
407.159	25.0826
410.052	33.5867
412.945	44.3061
415.837	56.4774
418.73	70.7834
421.623	85.6019
424.515	97.9934
427.408	108.421
430.301	116.93
433.194	121.811
436.086	121.796
438.979	120.92
441.872	112.602
444.764	102.735
447.657	92.2848
450.55	80.9908
453.442	70.097
456.335	57.4412
459.228	47.9822
462.121	42.1998
465.013	33.8872
467.906	28.0136
470.799	24.0792
473.691	20.5497
476.584	17.5118
479.477	16.0169
482.37	12.7514
485.262	10.48
488.155	9.11812
491.048	6.79034
493.94	4.9335
496.833	4.21732
499.726	3.49646
502.618	1.96256
505.511	2.26262
508.404	1.33115
511.296	0.286392
514.189	0.15374
517.082	1.23893
519.975	0.509987
522.867	0.401627
525.76	0.334427
528.653	0.54763
531.545	0.676994
534.438	0.097214
537.331	0.122665
540.224	0.83725
543.116	2.38271
546.009	2.24532
548.902	2.37285
551.794	2.65617
554.687	4.0724
557.58	2.4794
560.472	2.07041
563.365	1.84347
566.258	1.32013
569.151	1.63806
572.043	2.68819
574.936	1.31107
577.829	0.412025
580.721	2.2725
583.614	1.7501
586.507	1.75809
589.399	0.88755
592.292	0.006569
595.185	0.034058
598.078	1.51391
600.97	3.05074
603.863	4.5018
606.756	5.85575
609.648	8.49828
612.541	10.3507
615.434	11.9402
618.327	16.5841
621.219	16.8044
624.112	16.9097
627.005	13.8322
629.897	13.0494
632.79	16.4159
635.683	23.0612
638.575	31.6391
641.468	23.841
644.361	13.2904
647.254	8.32152
650.146	6.97186
653.039	5.53795
655.932	3.28103
658.824	2.66195
661.717	2.95353
664.61	5.04054
667.502	5.69718
670.395	7.34573
673.288	5.23186
676.181	4.09811
679.073	2.21555
681.966	2.15059
684.859	1.51287
687.751	0.625244
690.644	0.423592
693.537	1.54758
696.429	0.587692
699.322	1.02539
702.215	0.479782
705.107	0.317268
708	0.114723
710.893	0.67334
713.786	0.391151
716.678	0.982117
719.571	0.293762
722.464	1.00275
725.356	2.14728
728.249	3.15352
731.142	3.43404
734.034	5.04936
736.927	6.77037
739.82	2.61396
742.713	0.648697
745.605	0.308037
748.498	0.082558
751.391	0.040871
754.284	0.286095
757.176	0.58889
760.069	0.319832
762.962	0.894516
765.854	0.124428
768.747	0.398186
771.64	0.715263
774.532	0.675362
777.425	0.896187
780.318	0.125458
783.211	0.069221
786.103	1.14213
788.996	0.816071
791.889	1.68574
794.781	3.07394
797.674	5.77263
800.567	7.17221
803.459	11.8464
806.352	17.3598
809.245	19.0062
812.138	18.0095
815.03	19.1414
817.923	24.0726
820.816	28.8747
823.708	27.6921
826.601	26.1733
829.494	24.699
832.386	25.4544
835.279	25.6032
838.172	26.0285
841.065	23.6592
843.957	20.374
846.85	17.186
849.743	14.6776
852.635	11.4534
855.528	9.59724
858.421	9.01519
861.313	8.03419
864.206	6.96979
867.099	5.91228
869.992	5.11977
872.884	4.02733
875.777	3.92505
878.67	3.22388
881.562	2.34554
884.455	2.14729
887.348	1.96586
890.24	0.810341
893.133	0.414833
896.026	0.112846
898.919	0.677658
901.811	0.172447
904.704	0.736206
907.597	0.513306
910.489	0.956261
913.382	2.60886
916.275	3.28285
919.168	1.55845
922.06	0.834312
924.953	0.910378
927.846	2.30637
930.738	2.84123
933.631	4.55609
936.524	3.01528
939.416	2.4978
942.309	1.35807
945.202	0.196892
948.095	0.974808
950.987	0.501976
953.88	0.437553
956.773	1.8658
959.665	3.6934
962.558	10.196
965.451	16.7642
968.343	35.0402
971.236	58.5302
974.129	93.8761
977.021	143.661
979.914	198.89
982.807	226.077
985.7	197.058
988.592	131.179
991.485	84.7223
994.378	59.6679
997.27	37.4283
1000.16	21.0631
1003.06	14.375
1005.95	12.1529
1008.84	10.9432
1011.73	10.9317
1014.63	12.0935
1017.52	10.2492
1020.41	10.4019
1023.3	8.91633
1026.2	7.62434
1029.09	7.9076
1031.98	8.29659
1034.88	10.5943
1037.77	13.5138
1040.66	13.0559
1043.55	11.1082
1046.45	5.83106
1049.34	5.09946
1052.23	4.19022
1055.12	3.86967
1058.02	2.22318
1060.91	1.91099
1063.8	1.67827
1066.69	0.212479
1069.59	0.64389
1072.48	0.687393
1075.37	1.1695
1078.27	0.752907
1081.16	0.286308
1084.05	0.87867
1086.94	1.44875
1089.84	1.545
1092.73	0.70105
1095.62	1.02885
1098.52	2.26829
1101.41	3.58315
1104.3	7.75709
1107.19	13.3048
1110.09	22.4471
1112.98	25.7092
1115.87	21.3767
1118.76	14.4209
1121.66	9.77509
1124.55	5.77762
1127.44	5.52078
1130.34	3.6777
1133.23	2.07079
1136.12	3.84019
1139.01	3.66544
1141.91	3.67059
1144.8	5.14957
1147.69	5.46201
1150.58	4.5682
1153.48	4.32592
1156.37	3.7333
1159.26	2.90849
1162.15	3.63946
1165.05	4.1101
1167.94	3.41222
1170.83	3.64189
1173.72	3.27367
1176.62	4.68143
1179.51	8.02994
1182.4	14.6278
1185.3	18.8617
1188.19	16.7197
1191.08	10.5297
1193.97	5.21592
1196.87	0.082909
1199.76	0.396774
1202.65	0.612106
1205.55	0.03875
1208.44	1.85197
1211.33	3.4667
1214.22	4.79427
1217.12	6.54412
1220.01	7.57981
1222.9	9.14394
1225.79	10.5341
1228.69	10.9299
1231.58	12.3762
1234.47	9.23882
1237.37	8.57591
1240.26	8.68346
1243.15	7.16026
1246.04	5.95386
1248.94	5.6888
1251.83	5.62344
1254.72	6.21309
1257.61	4.46847
1260.51	2.59715
1263.4	1.57205
1266.29	2.21692
1269.18	0.49971
1272.08	1.1317
1274.97	2.98047
1277.86	4.66975
1280.76	2.17529
1283.65	1.408
1286.54	0.585449
