Measurement: Raman, 780 nm, unoriented, Raman Data Processed
Mineral: Obradovicite-KCu
Rruff sample: R100015
Ideal chemistry: [K_2_(H_2_O)_17_Cu^2+^(H_2_O)_6_][Mo^6+^_8_As^5+^_2_Fe^3+^_3_O_34_(OH)_3_]
Locality: Chuquicamata, Chile
Source: Colorado School of Mines
Description: Aggregates of pea-green grains associated with quartz and jarosite, type material
Raman shift (cm-1)	intensity
98.4127	0
101.787	3.74589
105.162	2.71254
108.537	7.15987
111.912	6.55669
115.287	13.2466
118.662	16.7499
122.036	10.6582
125.411	2.57114
128.786	1.06354
132.161	4.76894
135.536	1.90622
138.911	4.57819
142.285	14.7006
145.66	20.2809
149.035	27.5823
152.41	32.1575
155.785	34.7219
159.159	28.5196
162.534	24.3277
165.909	14.3196
169.284	11.3231
172.659	7.39868
176.034	2.76817
179.408	3.77257
182.783	7.17142
186.158	8.68779
189.533	5.3325
192.908	12.8399
196.282	23.2937
199.657	34.5492
203.032	44.3052
206.407	68.2892
209.782	91.3176
213.156	120.298
216.531	141.484
219.906	164.275
223.281	163.669
226.656	160.284
230.031	144.374
233.405	122.335
236.78	101.989
240.155	81.0109
243.53	68.2626
246.905	66.543
250.28	62.0096
253.654	63.7983
257.029	61.8103
260.404	59.4364
263.779	53.6536
267.154	56.8164
270.528	52.1536
273.903	53.1476
277.278	59.3306
280.653	67.7135
284.028	81.8557
287.402	84.3757
290.777	75.6518
294.152	60.6544
297.527	33.4061
300.902	11.8377
304.277	2.88094
307.651	4.65273
311.026	6.32729
314.401	4.63
317.776	0.736862
321.151	8.85629
324.526	18.2331
327.9	27.2723
331.275	38.2982
334.65	49.8203
338.025	64.8659
341.399	77.6373
344.774	68.2658
348.149	67.8424
351.524	66.876
354.899	73.6472
358.274	74.9817
361.648	69.5472
365.023	57.6975
368.398	41.7792
371.773	25.5216
375.148	16.3666
378.522	12.1357
381.897	8.7659
385.272	11.6905
388.647	15.8744
392.022	25.4551
395.397	33.7299
398.771	38.4386
402.146	41.3436
405.521	40.7162
408.896	41.0523
412.271	37.6147
415.646	34.767
419.02	25.587
422.395	25.8106
425.77	22.9211
429.145	16.7199
432.52	17.0118
435.894	17.5749
439.269	9.12833
442.644	1.51364
446.019	3.09265
449.394	5.90994
452.769	3.9895
456.143	1.41054
459.518	2.91254
462.893	3.80201
466.268	8.03108
469.643	17.7012
473.017	31.3457
476.392	41.1313
479.767	56.2881
483.142	66.3157
486.517	72.2578
489.892	63.391
493.266	56.5199
496.641	42.2506
500.016	28.8841
503.391	20.192
506.766	12.8691
510.14	7.47198
513.515	7.59565
516.89	5.48809
520.265	0.577652
523.64	0.208344
527.014	0.19455
530.389	1.10719
533.764	3.56382
537.139	1.39841
540.514	1.27723
543.889	1.59695
547.263	2.22611
550.638	6.581
554.013	2.99717
557.388	5.86683
560.763	5.28718
564.138	11.4536
567.512	9.63987
570.887	14.4469
574.262	14.2333
577.637	13.0869
581.011	15.5928
584.386	14.9901
587.761	16.1746
591.136	15.4807
594.511	14.3531
597.886	10.9703
601.26	13.4242
604.635	13.2769
608.01	11.7866
611.385	9.20339
614.76	8.35848
618.135	6.63889
621.509	6.58195
624.884	5.8968
628.259	1.7676
631.634	5.09027
635.009	2.47212
638.383	3.17394
641.758	1.19468
645.133	0.529224
648.508	0.941547
651.883	2.57002
655.258	1.26629
658.632	1.2363
662.007	0.150452
665.382	0.832088
668.757	1.34982
672.132	2.00882
675.506	7.27082
678.881	10.0757
682.256	12.6172
685.631	21.5976
689.006	26.9855
692.38	33.4928
695.755	39.6975
699.13	43.4054
702.505	47.7769
705.88	48.3094
709.255	42.1427
712.629	41.7466
716.004	34.5067
719.379	30.7609
722.754	28.1056
726.129	28.8186
729.504	24.273
732.878	29.6509
736.253	32.0614
739.628	32.0724
743.003	34.0005
746.378	26.3691
749.752	17.8574
753.127	7.23363
756.502	3.3414
759.877	3.24822
763.252	1.71809
766.626	1.79554
770.001	10.5668
773.376	23.5164
776.751	32.0909
780.126	43.8897
783.5	54.2016
786.875	54.8021
790.25	51.7533
793.625	41.0746
797	29.4881
800.375	24.2981
803.75	20.6119
807.124	25.8474
810.499	34.9721
813.874	48.895
817.249	62.9251
820.624	72.8675
823.998	79.1523
827.373	79.452
830.748	74.5753
834.123	63.2243
837.498	52.2852
840.872	38.0862
844.247	25.0308
847.622	14.2433
850.997	7.54675
854.372	0.862961
857.746	0.660645
861.121	2.29063
864.496	3.88567
867.871	1.47916
871.246	1.40612
874.621	0.328827
877.995	8.27637
881.37	10.1448
884.745	18.7624
888.12	23.3764
891.495	34.9312
894.87	46.9166
898.244	62.4592
901.619	87.464
904.994	115.67
908.369	141.323
911.744	172.556
915.118	198.191
918.493	214.917
921.868	232.752
925.243	233.842
928.618	231.224
931.992	226.851
935.367	214.835
938.742	201.54
942.117	186.908
945.492	172.387
948.867	194.611
952.241	231.24
955.616	287.694
958.991	338.243
962.366	355.63
965.741	314.611
969.115	207.675
972.49	102.547
975.865	44.6356
979.24	20.0704
982.615	11.2163
985.99	2.54943
989.364	3.57861
992.739	0.626408
996.114	1.49834
999.489	2.56685
1002.86	1.57338
1006.24	0.498074
1009.61	1.09522
1012.99	1.22106
1016.36	0.47065
1019.74	0.143715
1023.11	1.42842
1026.49	2.2681
1029.86	0.110357
1033.24	0.614777
1036.61	1.93573
1039.99	2.70407
1043.36	3.69983
1046.74	4.29719
1050.11	1.43947
1053.49	3.38662
1056.86	1.99881
1060.24	4.14134
1063.61	6.08707
1066.98	4.03849
1070.36	3.47099
1073.73	3.17187
1077.11	5.44498
1080.48	3.48014
1083.86	1.66644
1087.23	3.71601
1090.61	5.68035
1093.98	2.63144
1097.36	4.79751
1100.73	3.35175
1104.11	2.73345
1107.48	4.54746
1110.86	0.518209
1114.23	2.28453
1117.61	2.29413
1120.98	1.59428
1124.36	5.04204
1127.73	2.96248
1131.11	1.67734
1134.48	2.75816
1137.86	0.200806
1141.23	6.46381
1144.61	3.62923
1147.98	4.32675
1151.36	3.54779
1154.73	3.68693
1158.11	5.05178
1161.48	2.1309
1164.86	5.35847
1168.23	4.30929
1171.6	3.33997
1174.98	4.58583
1178.35	3.41886
1181.73	5.36894
1185.1	5.66553
1188.48	4.8155
1191.85	5.28735
1195.23	5.74943
1198.6	5.31979
1201.98	3.78062
1205.35	1.17352
1208.73	1.0535
1212.1	2.57521
1215.48	4.43599
1218.85	5.94819
1222.23	2.82969
1225.6	1.13478
1228.98	5.48599
1232.35	5.03638
1235.73	2.52221
1239.1	5.44141
1242.48	3.88834
1245.85	5.66063
1249.22	3.65145
1252.6	4.39003
1255.97	4.43566
1259.35	4.7408
1262.72	1.92954
1266.1	5.1422
1269.47	5.03729
1272.85	1.22005
1276.22	3.77403
1279.6	1.71138
1282.97	3.72941
