Measurement: Raman, 532 nm, unoriented, Raman Data Processed
Mineral: Obradovicite-KCu
Rruff sample: R110015
Ideal chemistry: [K_2_(H_2_O)_17_Cu^2+^(H_2_O)_6_][Mo^6+^_8_As^5+^_2_Fe^3+^_3_O_34_(OH)_3_]
Locality: Chuquicamata, Chile
Source: William W Pinch
Description: Fine grained lime green coating on quartz
Raman shift (cm-1)	intensity
168.656	0
171.549	3.17375
174.441	0.645889
177.334	4.50287
180.227	7.99385
183.119	10.9281
186.012	13.4444
188.905	17.8973
191.798	22.8369
194.69	32.2392
197.583	46.4086
200.476	61.4216
203.369	85.3759
206.261	118.838
209.154	154.619
212.047	200.194
214.939	246.437
217.832	294.455
220.725	326.383
223.617	336.883
226.51	324.396
229.403	303.909
232.296	274.023
235.188	240.925
238.081	207.448
240.974	183.576
243.866	168.581
246.759	160.669
249.652	155.728
252.544	147.303
255.437	135.201
258.33	129.714
261.223	130.144
264.115	130.074
267.008	133.602
269.901	133.025
272.793	141.629
275.686	150.206
278.579	159.118
281.471	170.957
284.364	179.912
287.257	178.036
290.15	163.244
293.042	136.224
295.935	108.245
298.828	79.3762
301.72	55.0798
304.613	30.2165
307.506	11.9521
310.399	3.0863
313.291	1.94228
316.184	5.87215
319.077	6.60326
321.969	6.91473
324.862	6.2146
327.755	4.07445
330.647	1.47899
333.54	2.87938
336.433	6.83272
339.325	10.9046
342.218	15.1143
345.111	20.5228
348.004	21.2293
350.896	22.1223
353.789	29.707
356.682	45.8431
359.574	43.7522
362.467	48.8872
365.36	42.6434
368.253	33.9956
371.145	23.5825
374.038	11.6242
376.931	2.42944
379.823	0.768768
382.716	0.938354
385.609	8.30017
388.502	24.1033
391.394	42.9809
394.287	67.6906
397.18	93.2672
400.072	118.07
402.965	132.44
405.858	146.676
408.75	146.129
411.643	140.887
414.536	132.529
417.428	123.739
420.321	116.035
423.214	103.382
426.107	97.7972
428.999	92.7729
431.892	89.4733
434.785	85.2794
437.677	82.4286
440.57	78.7614
443.463	74.4085
446.356	68.8589
449.248	64.2079
452.141	59.8301
455.034	54.4857
457.926	55.018
460.819	52.9746
463.712	49.3261
466.604	44.2898
469.497	47.8352
472.39	50.4963
475.283	57.8361
478.175	66.3282
481.068	82.1874
483.961	93.9285
486.853	104.092
489.746	103.131
492.639	92.8593
495.531	75.6395
498.424	60.2719
501.317	46.101
504.21	37.7694
507.102	34.2683
509.995	24.2819
512.888	24.0099
515.78	18.8162
518.673	14.2237
521.566	9.01862
524.458	4.07152
527.351	0.258087
530.244	2.23512
533.137	4.30028
536.029	5.01735
538.922	5.40771
541.815	4.69124
544.707	1.11824
547.6	2.90967
550.493	9.49435
553.386	15.4877
556.278	18.4593
559.171	26.6707
562.064	31.9258
564.956	36.149
567.849	40.3634
570.742	45.8432
573.635	46.9416
576.527	50.638
579.42	50.2213
582.313	50.5545
585.205	54.0042
588.098	50.7048
590.991	48.8352
593.883	44.375
596.776	40.136
599.669	31.6479
602.562	27.3769
605.454	22.5883
608.347	17.8332
611.24	15.3736
614.132	10.8947
617.025	7.74051
619.918	7.98744
622.81	12.2977
625.703	4.05742
628.596	1.73688
631.489	2.18236
634.381	1.86864
637.274	0.061813
640.167	1.15111
643.059	0.157822
645.952	1.66576
648.845	0.084274
651.737	1.87383
654.63	5.32649
657.523	11.1892
660.416	18.6107
663.308	26.4208
666.201	36.819
669.094	50.7203
671.986	65.4079
674.879	82.1981
677.772	97.3903
680.664	110.043
683.557	117.38
686.45	120.218
689.343	124.441
692.235	119.079
695.128	111.954
698.021	104.607
700.913	95.2561
703.806	84.0638
706.699	71.3564
709.592	59.0577
712.484	42.0243
715.377	31.476
718.27	15.8589
721.162	7.83337
724.055	0.3591
726.948	4.56119
729.841	5.35053
732.733	4.23142
735.626	4.49725
738.519	14.1839
741.411	27.5406
744.304	39.6304
747.197	50.8888
750.089	60.8224
752.982	64.2348
755.875	63.1702
758.768	61.9554
761.66	56.1692
764.553	47.0926
767.446	37.1463
770.338	37.78
773.231	42.5398
776.124	52.704
779.016	72.3231
781.909	82.7681
784.802	86.1538
787.694	84.9507
790.587	74.3017
793.48	62.9635
796.373	57.0215
799.265	59.758
802.158	67.6526
805.051	88.7206
807.943	115.398
810.836	148.255
813.729	176.943
816.621	203.809
819.514	218.378
822.407	220.888
825.3	210.142
828.192	194.816
831.085	170.964
833.978	142.952
836.87	110.216
839.763	78.8021
842.656	51.5583
845.549	28.8528
848.441	9.84149
851.334	1.71408
854.227	2.34201
857.119	4.36188
860.012	5.7271
862.905	5.12059
865.798	4.91075
868.69	0.049301
871.583	6.73708
874.476	16.4594
877.368	27.2913
880.261	43.7507
883.154	58.5556
886.046	75.1569
888.939	91.5717
891.832	107.785
894.725	128.253
897.617	153.187
900.51	183.856
903.403	221.377
906.295	262.519
909.188	308.633
912.081	342.959
914.973	365.093
917.866	385.211
920.759	394.719
923.652	394.083
926.544	387.632
929.437	378.171
932.33	365.579
935.222	350.442
938.115	338.342
941.008	328.647
943.9	334.092
946.793	368.504
949.686	444.984
952.579	556.432
955.471	700.907
958.364	829.996
961.257	876.549
964.149	775.02
967.042	543.343
969.935	303.68
972.827	145.736
975.72	64.5767
978.613	31.5058
981.506	12.442
984.398	1.42429
987.291	2.42105
990.184	2.3541
993.077	3.61488
995.969	0.677704
998.862	1.29468
1001.75	5.71175
1004.65	3.01802
1007.54	3.48714
1010.43	5.13459
1013.33	0.990715
1016.22	1.08082
1019.11	1.08408
1022	0.389771
1024.9	0.115089
1027.79	1.71981
1030.68	2.05447
1033.57	3.06168
1036.47	4.81155
1039.36	6.31766
1042.25	9.69378
1045.14	7.04688
1048.04	7.99255
1050.93	6.63253
1053.82	5.70022
1056.72	7.32941
1059.61	10.0697
1062.5	9.9793
1065.39	8.55424
1068.29	9.28076
1071.18	9.82576
1074.07	9.17671
1076.96	6.05256
1079.86	6.54885
1082.75	4.91122
1085.64	4.2038
1088.54	4.39306
1091.43	4.70299
1094.32	4.27206
1097.21	2.50522
1100.11	4.00273
1103	1.29651
1105.89	3.50124
1108.79	2.58637
1111.68	3.87711
1114.57	1.44088
1117.46	1.73999
1120.36	1.25229
1123.25	1.35643
1126.14	1.93278
1129.03	0.754974
1131.93	0.849365
1134.82	1.51871
1137.71	1.56551
1140.6	0.929733
1143.5	1.38164
1146.39	1.2484
1149.28	0.923805
1152.17	0.900291
1155.07	0.069229
1157.96	1.21827
1160.85	0.559326
1163.75	0.159927
1166.64	3.11092
1169.53	0.562317
1172.42	0.330124
1175.32	0.608017
1178.21	0.370163
1181.1	2.15
1183.99	0.806831
1186.89	2.52062
1189.78	0.976723
1192.67	0.932716
1195.57	0.100121
1198.46	0.775452
1201.35	0.041771
1204.24	0.043266
1207.14	1.06256
1210.03	1.00339
1212.92	2.22248
1215.82	0.974838
1218.71	0.655045
1221.6	1.72477
1224.49	1.90632
1227.38	0.361343
1230.28	1.1521
1233.17	1.63805
1236.06	0.70694
1238.96	1.48573
1241.85	1.33035
1244.74	2.6986
1247.63	1.59398
1250.53	0.645996
1253.42	2.11008
1256.31	0.986275
1259.2	3.13092
1262.1	1.64629
1264.99	1.11124
1267.88	0.82476
1270.78	1.61475
1273.67	1.9154
1276.56	0.17067
1279.45	3.16756
1282.35	1.76909
1285.24	0.971825
1288.13	2.53611
1291.03	0.786293
1293.92	1.56796
1296.81	0.990265
1299.7	0.352753
1302.6	0
