Measurement: Raman, 532 nm, unoriented, Raman Data Processed
Mineral: Obradovicite-KCu
Rruff sample: R100015
Ideal chemistry: [K_2_(H_2_O)_17_Cu^2+^(H_2_O)_6_][Mo^6+^_8_As^5+^_2_Fe^3+^_3_O_34_(OH)_3_]
Locality: Chuquicamata, Chile
Source: Colorado School of Mines
Description: Aggregates of pea-green grains associated with quartz and jarosite, type material
Raman shift (cm-1)	intensity
89.6035	0
92.9783	21.5879
96.3531	62.152
99.728	110.217
103.103	147.851
106.478	204.836
109.852	308.568
113.227	227.722
116.602	132.457
119.977	46.1634
123.352	24.9377
126.727	70.9052
130.101	68.5769
133.476	5.40665
136.851	66.7618
140.226	126.202
143.601	287.382
146.975	488.191
150.35	635.892
153.725	725.98
157.1	772.635
160.475	777.138
163.85	768.601
167.224	710.053
170.599	635.175
173.974	576.036
177.349	538.287
180.724	502.132
184.098	469.182
187.473	435.24
190.848	458.011
194.223	515.615
197.598	624.831
200.972	810.768
204.347	1062.78
207.722	1368.22
211.097	1741.24
214.472	2140.89
217.846	2468.49
221.221	2608.28
224.596	2528.97
227.971	2285.87
231.346	1957.51
234.721	1599.54
238.095	1299.65
241.47	1120.5
244.845	1029.36
248.22	1006.09
251.595	1024.15
254.97	1052.54
258.344	1133
261.719	1140.6
265.094	1148.82
268.469	1145.26
271.844	1105.96
275.218	1095.56
278.593	1168.9
281.968	1356.71
285.343	1572.86
288.718	1654.56
292.092	1474.86
295.467	1067.22
298.842	613.886
302.217	248.292
305.592	25.2294
308.967	82.2982
312.341	116.702
315.716	113.089
319.091	99.6754
322.466	54.7443
325.841	21.1715
329.216	116.161
332.59	203.135
335.965	295.09
339.34	419.184
342.715	505.889
346.09	520.599
349.464	521.875
352.839	585.337
356.214	689.887
359.589	766.359
362.964	749.971
366.339	637.785
369.713	456.522
373.088	282.179
376.463	173.916
379.838	129.283
383.213	155.073
386.587	258.901
389.962	397.367
393.337	570.834
396.712	755.25
400.087	897.648
403.462	997.174
406.836	1038.11
410.211	995.141
413.586	909.768
416.961	806.658
420.336	730.585
423.71	683.578
427.085	659.883
430.46	649.145
433.835	595.576
437.21	521.695
440.584	448.744
443.959	393.039
447.334	363.583
450.709	351.315
454.084	290.892
457.459	256.947
460.833	212.861
464.208	201.194
467.583	245.84
470.958	337.965
474.333	493.002
477.707	687.366
481.082	892.051
484.457	1028.6
487.832	1042.3
491.207	933.186
494.582	725.331
497.956	514.672
501.331	349.151
504.706	229.31
508.081	139.788
511.456	80.7292
514.83	37.2886
518.205	3.58557
521.58	20.1595
524.955	34.0538
528.33	40.7435
531.705	33.9582
535.079	26.1066
538.454	17.269
541.829	3.72864
545.204	14.6353
548.579	34.5034
551.953	57.8415
555.328	83.5718
558.703	117.803
562.078	155.42
565.453	189.656
568.827	222.235
572.202	268.331
575.577	264.332
578.952	279.273
582.327	284.319
585.702	278.264
589.076	266.433
592.451	255.533
595.826	242.706
599.201	228.145
602.576	207
605.95	182.118
609.325	147.552
612.7	127.478
616.075	102.289
619.45	88.1056
622.824	75.3353
626.199	63.4672
629.574	57.5889
632.949	46.1755
636.324	41.773
639.699	31.8507
643.073	19.3112
646.448	2.74011
649.823	7.71362
653.198	15.4432
656.573	12.8673
659.947	5.724
663.322	10.3221
666.697	36.4456
670.072	78.4141
673.447	138.156
676.822	218.907
680.196	328.649
683.571	475.073
686.946	649.144
690.321	862.46
693.696	1078.22
697.071	1282.96
700.445	1457.86
703.82	1531.83
707.195	1511.8
710.57	1397.41
713.945	1232.8
717.319	1069.23
720.694	938.498
724.069	857.283
727.444	832.914
730.819	853.65
734.193	926.771
737.568	997.723
740.943	1027.05
744.318	947.882
747.693	747.421
751.068	491.243
754.442	244.598
757.817	60.4358
761.192	38.8872
764.567	49.672
767.942	20.5687
771.317	160.952
774.691	353.971
778.066	530.215
781.441	672.268
784.816	759.872
788.191	779.592
791.565	710.537
794.94	570.429
798.315	429.876
801.69	369.682
805.065	410.059
808.439	590.348
811.814	874.476
815.189	1274.37
818.564	1706.25
821.939	2087.73
825.313	2311.46
828.688	2354.75
832.063	2245.42
835.438	1966.58
838.813	1577.39
842.188	1153.75
845.562	768.707
848.937	448.487
852.312	227.101
855.687	85.7456
859.062	15.7001
862.437	9.61938
865.811	6.11597
869.186	9.97131
872.561	25.1415
875.936	33.0151
879.311	13.8259
882.685	46.5695
886.06	137.197
889.435	272.466
892.81	439.899
896.185	676.107
899.559	997.291
902.934	1424.35
906.309	1925.66
909.684	2434.14
913.059	2926.82
916.434	3361.7
919.808	3692.9
923.183	3964.84
926.558	4094.43
929.933	4137.59
933.308	4075.22
936.683	3865.43
940.057	3571.99
943.432	3227.69
946.807	3044.79
950.182	3281.88
953.557	4073.26
956.931	5305.68
960.306	6529.15
963.681	6831.59
967.056	5407.44
970.431	3065.05
973.806	1471.22
977.18	713.729
980.555	365.911
983.93	201.316
987.305	116.098
990.68	89.0761
994.054	44.3443
997.429	0.720428
1000.8	12.4271
1004.18	8.97678
1007.55	1.89499
1010.93	0.616211
1014.3	6.46634
1017.68	10.9958
1021.05	11.5724
1024.43	4.20474
1027.8	3.20941
1031.18	9.20807
1034.55	20.1958
1037.93	32.1764
1041.3	45.7053
1044.68	56.0667
1048.05	62.1261
1051.43	60.8738
1054.8	62.5421
1058.18	63.8698
1061.55	60.9204
1064.93	62.8757
1068.3	66.3097
1071.67	67.1485
1075.05	63.4473
1078.42	55.2029
1081.8	45.4547
1085.17	37.9839
1088.55	34.6797
1091.92	30.2212
1095.3	26.3175
1098.67	22.0852
1102.05	21.0571
1105.42	19.4958
1108.8	16.4676
1112.17	13.9483
1115.55	12.7556
1118.92	11.24
1122.3	8.54372
1125.67	7.62337
1129.05	5.4688
1132.42	8.67259
1135.8	7.99318
1139.17	8.49422
1142.55	7.35918
1145.92	5.3264
1149.3	5.65588
1152.67	4.97876
1156.05	2.68964
1159.42	6.63827
1162.8	6.57765
1166.17	4.77316
1169.55	2.64899
1172.92	1.75451
1176.29	2.84081
1179.67	2.77498
1183.04	0.962341
1186.42	6.72917
1189.79	0.143517
1193.17	0.856651
1196.54	0.584633
1199.92	0.494072
1203.29	0.192497
1206.67	0.235512
1210.04	1.21808
1213.42	0.226677
1216.79	0.357857
1220.17	0.696472
1223.54	0.328247
1226.92	1.31182
1230.29	1.42993
1233.67	0.089493
1237.04	0.164772
1240.42	0.704399
1243.79	1.03878
1247.17	2.21417
1250.54	1.33855
1253.91	1.68863
1257.29	1.66196
1260.66	2.31007
1264.04	1.40989
1267.41	2.65213
1270.79	2.52842
1274.16	2.71178
1277.54	1.58288
1280.91	6.40697
1284.29	0.856705
1287.66	0.674927
1291.04	0.951996
1294.41	2.01296
1297.79	2.30313
1301.16	0.44857
