Measurement: Raman, 785 nm, unoriented, Raman Data Processed
Mineral: Offretite
Rruff sample: R060767
Ideal chemistry: KCaMg(Si_13_Al_5_)O_36_15H_2_O
Locality: Vinarice, Kladno, Czech Republic
Source: Michael Scott
Description: Colorless elongated hexagonal prisms
Measured chemistry: (K_0.96_[box]_0.04_)_Σ=1_Ca_1.00_(Mg_0.95_Fe^2+^_0.05_)_Σ=1_Si_13.04_Al_4.96_O_36_·15H_2_O
Raman shift (cm-1)	intensity
170.221	0
173.114	25.3108
176.007	4.29224
178.9	51.1309
181.792	30.8645
184.685	47.6697
187.578	81.6667
190.47	99.8084
193.363	26.0942
196.256	39.7864
199.149	79.1133
202.041	0.447021
204.934	16.8755
207.827	64.9898
210.719	33.323
213.612	27.5852
216.505	14.1011
219.397	8.91235
222.29	8.49341
225.183	6.22534
228.076	47.3213
230.968	92.3235
233.861	64.302
236.754	55.4043
239.646	59.9453
242.539	63.4145
245.432	110.782
248.324	144.992
251.217	128.839
254.11	228.717
257.002	154.609
259.895	156.45
262.788	134.058
265.681	109.32
268.573	179.605
271.466	143.808
274.359	227.826
277.251	104.177
280.144	150.683
283.037	158.138
285.93	145.273
288.822	87.4319
291.715	97.6506
294.608	232.402
297.5	217.274
300.393	249.092
303.286	403.634
306.178	442.415
309.071	561.174
311.964	611.798
314.856	641.618
317.749	552.286
320.642	544.863
323.535	554.796
326.427	495.963
329.32	511.471
332.213	474.435
335.105	509.952
337.998	372.204
340.891	357.338
343.784	364.536
346.676	312.15
349.569	216.881
352.462	177.656
355.354	164.762
358.247	190.795
361.14	83.9697
364.032	24.3076
366.925	26.0789
369.818	9.03516
372.711	70.426
375.603	47.8381
378.496	5.36572
381.389	47.4172
384.281	2.63635
387.174	34.6738
390.067	67.0685
392.959	34.5886
395.852	38.8402
398.745	52.007
401.637	14.4733
404.53	30.1415
407.423	59.3975
410.316	47.3149
413.208	123.332
416.101	328.469
418.994	374.874
421.886	539.794
424.779	618.005
427.672	709.087
430.565	702.868
433.457	733.263
436.35	714.58
439.243	699.571
442.135	758.615
445.028	818.535
447.921	826.782
450.813	1076.25
453.706	1199.81
456.599	1379.81
459.491	1595.03
462.384	1788.62
465.277	1900.17
468.17	1930.38
471.062	2065.37
473.955	2255.53
476.848	2584.82
479.74	2880.48
482.633	3135.98
485.526	3336.41
488.418	3476.87
491.311	3100.16
494.204	2766.5
497.097	2253.83
499.989	1733.8
502.882	1218.66
505.775	895.889
508.667	585.245
511.56	422.571
514.453	254.652
517.346	183.161
520.238	103.196
523.131	50.6918
526.024	16.7703
528.916	36.7634
531.809	0.018799
534.702	62.1637
537.594	56.654
540.487	46.8073
543.38	34.1124
546.273	76.6206
549.165	158.456
552.058	227.291
554.951	271.591
557.843	346.3
560.736	421.755
563.629	398.435
566.521	331.611
569.414	248.513
572.307	261.442
575.199	207.886
578.092	163.944
580.985	133.743
583.878	97.4132
586.77	118.61
589.663	85.668
592.556	57.29
595.448	30.5765
598.341	1.04358
601.234	64.037
604.126	20.6698
607.019	25.0476
609.912	10.5641
612.805	13.6519
615.697	36.8261
618.59	5.37842
621.483	0.03479
624.375	37.2921
627.268	94.5831
630.161	44.0469
633.053	125.782
635.946	55.8762
638.839	28.9166
641.732	69.16
644.624	34.3693
647.517	23.6987
650.41	57.1239
653.302	46.3995
656.195	13.6145
659.088	93.6436
661.981	57.9673
664.873	42.1158
667.766	53.6019
670.659	86.2167
673.551	83.2141
676.444	30.8491
679.337	50.7394
682.229	26.4039
685.122	70.5571
688.015	41.1216
690.908	91.3781
693.8	63.0236
696.693	67.4093
699.586	38.5499
702.478	110.13
705.371	29.3104
708.264	94.0045
711.156	74.8062
714.049	107.217
716.942	64.5306
719.835	88.8796
722.727	19.8713
725.62	36.0006
728.513	53.4196
731.405	52.9026
734.298	99.9401
737.191	28.3803
740.083	68.7439
742.976	91.9418
745.869	29.7819
748.761	87.5034
751.654	55.7596
754.547	134.921
757.44	61.335
760.332	110.013
763.225	96.387
766.118	75.0397
769.01	59.0403
771.903	80.588
774.796	110.383
777.688	28.735
780.581	110.31
783.474	173.744
786.367	141.975
789.259	123.65
792.152	129.237
795.045	111.401
797.937	12.2761
800.83	6.86401
803.723	24.0651
806.615	23.5289
809.508	46.002
812.401	67.5979
815.294	27.8321
818.186	41.3147
821.079	4.43872
823.972	18.5277
826.864	4.97974
829.757	47.63
832.65	12.1258
835.542	30.5137
838.435	11.6156
841.328	29.4287
844.221	39.4285
847.113	34.7017
850.006	26.8602
852.899	20.1595
855.791	27.5612
858.684	48.1114
861.577	34.817
864.469	60.5028
867.362	2.6579
870.255	28.3955
873.148	34.8287
876.04	53.7895
878.933	38.9314
881.826	35.0732
884.718	71.228
887.611	32.5827
890.504	31.8027
893.396	1.43878
896.289	48.8522
899.182	28.0643
902.074	38.8442
904.967	80.9802
907.86	70.9725
910.753	38.4596
913.645	92.1481
916.538	46.148
919.431	78.2532
922.323	20.5514
925.216	34.8654
928.109	25.9846
931.001	75.945
933.894	60.694
936.787	63.1223
939.68	56.6041
942.572	40.8151
945.465	90.9379
948.358	39.9354
951.25	14.4609
954.143	44.0944
957.036	14.5549
959.928	7.76447
962.821	30.9619
965.714	32.5142
968.607	10.4069
971.499	32.3568
974.392	21.4002
977.285	79.9689
980.177	38.7778
983.07	30.3723
985.963	81.4203
988.856	45.2111
991.748	5.24463
994.641	74.8709
997.534	88.5118
1000.43	118.569
1003.32	99.7817
1006.21	95.1847
1009.1	137.398
1012	142.23
1014.89	82.7096
1017.78	31.9544
1020.67	45.5042
1023.57	59.973
1026.46	15.4716
1029.35	11.6209
1032.25	110.546
1035.14	103.428
1038.03	52.8636
1040.92	86.9445
1043.82	32.3051
1046.71	56.5646
1049.6	95.0964
1052.49	15.6193
1055.39	78.965
1058.28	86.6882
1061.17	17.0844
1064.07	1.45227
1066.96	15.8734
1069.85	20.693
1072.74	4.4375
1075.64	29.1692
1078.53	97.7705
1081.42	80.5007
1084.32	57.8708
1087.21	23.0962
1090.1	83.3282
1092.99	107.745
1095.88	63.4432
1098.78	105.406
1101.67	110.971
1104.56	45.1583
1107.46	87.3625
1110.35	121.314
1113.24	111.583
1116.13	87.9982
1119.03	120.652
1121.92	95.0884
1124.81	60.9463
1127.7	103.765
1130.6	65.6698
1133.49	79.9473
1136.38	87.7314
1139.28	75.5614
1142.17	88.0586
1145.06	78.7792
1147.95	85.5242
1150.85	1.04272
1153.74	86.7102
1156.63	106.961
1159.53	42.6605
1162.42	34.7289
1165.31	10.2675
1168.2	12.0149
1171.1	23.9681
1173.99	6.48853
1176.88	78.6779
1179.77	14.8882
1182.67	56.6013
1185.56	25.2556
1188.45	49.2022
1191.34	103.003
1194.24	107.755
1197.13	125.901
1200.02	78.3021
1202.91	72.7118
1205.81	103.725
1208.7	86.434
1211.59	186.318
1214.49	265.922
1217.38	221.114
1220.27	203.49
1223.16	264.773
1226.06	169.389
1228.95	156.224
1231.84	142.593
1234.73	66.077
1237.63	18.0043
1240.52	47.4286
1243.41	92.6991
1246.31	79.075
1249.2	118.371
1252.09	52.4066
1254.98	100.001
1257.88	113.696
1260.77	62.9769
1263.66	78.04
1266.56	30.3607
1269.45	1.61267
