Measurement: Raman, 532 nm, unoriented, Raman Data Processed
Mineral: Offretite
Rruff sample: R060767
Ideal chemistry: KCaMg(Si_13_Al_5_)O_36_15H_2_O
Locality: Vinarice, Kladno, Czech Republic
Source: Michael Scott
Description: Colorless elongated hexagonal prisms
Measured chemistry: (K_0.96_[box]_0.04_)_Σ=1_Ca_1.00_(Mg_0.95_Fe^2+^_0.05_)_Σ=1_Si_13.04_Al_4.96_O_36_·15H_2_O
Raman shift (cm-1)	intensity
196.251	0
199.143	20.0649
202.036	0.379517
204.929	11.5212
207.821	3.51172
210.714	10.1213
213.607	21.079
216.5	16.4153
219.392	38.9498
222.285	33.214
225.178	37.1553
228.07	45.6113
230.963	17.9463
233.856	7.63989
236.749	9.03284
239.641	15.5693
242.534	14.8011
245.427	23.4829
248.319	19.163
251.212	28.1619
254.105	10.8192
256.997	3.05371
259.89	6.69641
262.783	26.9457
265.675	20.4977
268.568	35.3442
271.461	24.655
274.354	24.5018
277.246	46.5264
280.139	32.423
283.032	37.9134
285.924	31.3248
288.817	47.5336
291.71	74.8285
294.603	51.5514
297.495	97.6461
300.388	109.293
303.281	135.369
306.173	205.253
309.066	206.315
311.959	238.54
314.851	250.992
317.744	215.737
320.637	216.176
323.529	185.024
326.422	211.814
329.315	209.584
332.208	191.775
335.1	158.901
337.993	149.492
340.886	158.584
343.778	134.276
346.671	118.12
349.564	110.407
352.457	116.337
355.349	71.8914
358.242	55.1519
361.135	19.4905
364.027	43.8555
366.92	8.92541
369.813	0.440674
372.705	1.86218
375.598	29.0408
378.491	11.7357
381.383	17.4131
384.276	9.6416
387.169	15.8391
390.062	3.24683
392.954	2.50317
395.847	5.04382
398.74	2.74744
401.632	17.1486
404.525	12.747
407.418	16.9769
410.31	20.7537
413.203	66.5408
416.096	120.411
418.988	172.063
421.881	235.009
424.774	268.501
427.667	279.81
430.559	306.184
433.452	302.229
436.345	303.158
439.237	335.309
442.13	341.383
445.023	416.352
447.916	510.588
450.808	612.23
453.701	670.003
456.594	789.171
459.486	867.361
462.379	953.942
465.272	1032.97
468.164	1052.66
471.057	1162.06
473.95	1171.08
476.842	1330.59
479.735	1447.47
482.628	1581.52
485.521	1653.61
488.413	1609.41
491.306	1458.81
494.199	1305.88
497.091	1031.69
499.984	819.897
502.877	588.165
505.769	403.746
508.662	272.438
511.555	204.015
514.447	92.7878
517.34	72.3386
520.233	45.7412
523.126	22.9605
526.018	12.3003
528.911	23.5936
531.804	6.66333
534.696	25.6897
537.589	7.3999
540.482	0.047241
543.375	47.7978
546.267	55.4672
549.16	88.4659
552.053	161.006
554.945	160.449
557.838	235.401
560.731	276.515
563.623	229.524
566.516	231.411
569.409	205.166
572.302	147.876
575.194	144.177
578.087	127.884
580.98	96.9571
583.872	72.6117
586.765	62.8632
589.658	30.394
592.55	29.5542
595.443	9.27051
598.336	15.4292
601.229	7.94531
604.121	0.118652
607.014	5.13171
609.907	8.06165
612.799	29.6502
615.692	15.0083
618.585	2.9259
621.477	39.8304
624.37	35.2824
627.263	13.1067
630.155	17.464
633.048	1.18603
635.941	22.267
638.834	23.4352
641.726	19.7665
644.619	39.0555
647.512	6.91931
650.404	56.1202
653.297	37.7259
656.19	17.3497
659.082	15.9698
661.975	32.3214
664.868	15.0758
667.76	7.23193
670.653	15.0398
673.546	1.11487
676.439	8.37354
679.331	13.1628
682.224	15.4277
685.117	6.77918
688.009	6.89185
690.902	15.5179
693.795	1.75891
696.688	24.4606
699.58	15.9373
702.473	27.1879
705.366	30.5339
708.258	9.82739
711.151	34.5452
714.044	47.8262
716.936	22.1968
719.829	15.4353
722.722	34.9
725.615	34.6324
728.507	32.0394
731.4	13.2556
734.293	0.17334
737.185	36.238
740.078	24.9879
742.971	34.9451
745.863	28.5001
748.756	38.3402
751.649	5.93127
754.541	42.8477
757.434	35.5587
760.327	31.2447
763.22	62.6228
766.112	73.59
769.005	76.8068
771.898	60.9567
774.79	62.1649
777.683	92.8892
780.576	112.088
783.468	72.3094
786.361	57.3817
789.254	84.3091
792.146	97.6825
795.039	81.3743
797.932	71.6649
800.825	70.7546
803.717	97.483
806.61	56.148
809.503	73.1251
812.395	80.8234
815.288	60.1633
818.181	62.9911
821.073	35.0552
823.966	33.8375
826.859	27.9225
829.752	7.78735
832.644	6.2887
835.537	19.5149
838.43	26.0608
841.322	6.03162
844.215	8.94287
847.108	34.3519
850	11.4531
852.893	0.336182
855.786	0.762939
858.679	8.27417
861.571	35.8446
864.464	29.1794
867.357	12.9634
870.249	14.9064
873.142	13.7411
876.035	38.3624
878.928	13.6714
881.82	23.584
884.713	30.5631
887.606	28.303
890.498	43.4547
893.391	25.8629
896.284	24.2975
899.176	36.6917
902.069	11.9161
904.962	55.7096
907.854	36.7264
910.747	50.491
913.64	34.0565
916.533	43.6953
919.425	31.4291
922.318	18.2478
925.211	27.1656
928.103	26.17
930.996	12.6179
933.889	15.8524
936.781	2.33276
939.674	12.3967
942.567	20.3879
945.46	12.5287
948.352	1.05664
951.245	7.75989
954.138	4.25427
957.03	0.650879
959.923	11.6163
962.816	32.7315
965.708	8.15234
968.601	10.6737
971.494	20.4854
974.386	19.1781
977.279	22.899
980.172	24.3579
983.065	13.0126
985.957	24.5697
988.85	44.5508
991.743	19.976
994.635	28.3043
997.528	57.7982
1000.42	82.3212
1003.31	69.7893
1006.21	65.0987
1009.1	63.7168
1011.99	44.5597
1014.88	28.4273
1017.78	39.001
1020.67	60.6708
1023.56	52.3334
1026.45	40.4614
1029.35	46.0178
1032.24	55.4545
1035.13	36.1669
1038.03	17.1583
1040.92	26.7512
1043.81	39.7959
1046.7	49.7323
1049.6	12.1865
1052.49	33.6293
1055.38	7.04541
1058.28	11.8352
1061.17	20.8047
1064.06	10.1781
1066.95	4.97388
1069.85	5.23718
1072.74	19.0571
1075.63	13.1587
1078.52	39.179
1081.42	14.4352
1084.31	45.3867
1087.2	49.3386
1090.09	71.348
1092.99	69.8909
1095.88	100.385
1098.77	73.2374
1101.66	105.187
1104.56	119.787
1107.45	107.43
1110.34	138.561
1113.24	118.023
1116.13	106.962
1119.02	96.4488
1121.91	92.4496
1124.81	122.731
1127.7	107.628
1130.59	117.858
1133.48	105.038
1136.38	110.812
1139.27	127.794
1142.16	88.6174
1145.06	102.547
1147.95	101.593
1150.84	99.2516
1153.73	86.1835
1156.63	83.5056
1159.52	87.3607
1162.41	79.6808
1165.31	54.751
1168.2	81.583
1171.09	59.2007
1173.98	97.4795
1176.88	42.4531
1179.77	62.4449
1182.66	58.3596
1185.55	57.2313
1188.45	54.6761
1191.34	62.7978
1194.23	6.91431
1197.12	17.3453
1200.02	28.7131
1202.91	21.1183
1205.8	14.3213
1208.69	29.8406
1211.59	12.5862
1214.48	1.05554
1217.37	1.47607
1220.27	14.2167
1223.16	10.8592
1226.05	22.2123
1228.94	31.0038
1231.84	30.3939
1234.73	18.3652
1237.62	10.8887
1240.52	44.1533
1243.41	24.6931
1246.3	44.9363
1249.19	23.9303
1252.09	47.4208
1254.98	32.4969
1257.87	32.6979
1260.76	16.3589
1263.66	16.0375
1266.55	56.5953
1269.44	38.1849
1272.33	40.8892
1275.23	56.5857
1278.12	23.7217
1281.01	25.9396
1283.9	16.2291
1286.8	14.6439
1289.69	13.0378
1292.58	2.55432
