Measurement: Raman, 780 nm, unoriented, Raman Data Processed
Mineral: Okenite
Rruff sample: R070602
Ideal chemistry: Ca_5_Si_9_O_23_9H_2_O
Locality: Poona, Maharashtra, India
Source: James Shigley
Description: Mass of radiating white fibers
Raman shift (cm-1)	intensity
144.336	0
147.229	51.6377
150.122	33.9021
153.014	25.116
155.907	33.9477
158.8	0.859619
161.693	40.8557
164.585	147.37
167.478	232.104
170.371	294.211
173.263	469.215
176.156	536.183
179.049	744.982
181.941	728.424
184.834	648.219
187.727	496.483
190.62	280.85
193.512	141.27
196.405	41.2861
199.298	43.3599
202.19	128.111
205.083	221.799
207.976	408.543
210.869	402.727
213.761	426.98
216.654	574.058
219.547	637.114
222.439	565.329
225.332	367.4
228.225	259.436
231.117	143.794
234.01	88.2581
236.903	94.939
239.796	64.6709
242.688	24.4314
245.581	79.8838
248.474	105.109
251.366	99.6704
254.259	138.288
257.152	114.174
260.044	117.545
262.937	170.74
265.83	115.981
268.723	84.0942
271.615	11.7688
274.508	14.6357
277.401	8.68091
280.293	19.3243
283.186	19.1062
286.079	31.4058
288.971	123.532
291.864	160.525
294.757	259.776
297.649	245.656
300.542	269.672
303.435	209.695
306.328	193.939
309.22	113.414
312.113	51.4791
315.006	3.21057
317.898	4.70898
320.791	2.49573
323.684	9.41797
326.577	31.5442
329.469	96.8356
332.362	166.833
335.255	251.379
338.147	253.276
341.04	310.331
343.933	290.239
346.825	251.234
349.718	265.673
352.611	187.259
355.503	155.98
358.396	135.258
361.289	70.4925
364.182	2.78626
367.074	14.0309
369.967	23.8676
372.86	17.2033
375.752	107.297
378.645	161.167
381.538	266.662
384.43	353.575
387.323	507.519
390.216	524.386
393.109	519.362
396.001	459.202
398.894	432.095
401.787	324.136
404.679	225.512
407.572	201.148
410.465	124.352
413.358	128.843
416.25	86.5299
419.143	112.926
422.036	97.855
424.928	119.998
427.821	83.8679
430.714	76.2129
433.606	92.1715
436.499	118.921
439.392	152.471
442.284	146.929
445.177	135.972
448.07	494.211
450.963	246.942
453.855	42.1881
456.748	20.8074
459.641	2.15027
462.533	17.9104
465.426	16.189
468.319	18.7506
471.212	19.59
474.104	108.101
476.997	395.779
479.89	421.944
482.782	369.783
485.675	424.269
488.568	130.115
491.46	179.828
494.353	214.804
497.246	193.221
500.139	218.747
503.031	190.824
505.924	220.278
508.817	228.709
511.709	262.324
514.602	241.707
517.495	208.909
520.388	150.822
523.28	149.815
526.173	122.815
529.066	89.98
531.958	67.2424
534.851	55.5436
537.744	25.0275
540.636	12.3281
543.529	53.0093
546.422	37.9645
549.314	20.3923
552.207	6.66919
555.1	3.72339
557.993	2.49048
560.885	2.58984
563.778	1.36072
566.671	43.2719
569.563	4.20483
572.456	0.701782
575.349	15.3677
578.241	40.3356
581.134	67.8468
584.027	74.1428
586.92	163.697
589.812	203.83
592.705	322.584
595.598	474.999
598.49	676.287
601.383	871.138
604.276	1119.83
607.168	1210.74
610.061	1279.68
612.954	1292.64
615.847	1230.83
618.739	1066.75
621.632	782.668
624.525	562.911
627.417	418.761
630.31	342.488
633.203	315.693
636.096	308.365
638.988	370.904
641.881	417.74
644.774	499.387
647.666	591.774
650.559	671.607
653.452	762.411
656.344	910.49
659.237	958.147
662.13	1055.29
665.023	1041.53
667.915	974.493
670.808	815.878
673.701	656.549
676.593	459.511
679.486	317.188
682.379	215.381
685.271	136.779
688.164	106.811
691.057	35.6824
693.949	5.78101
696.842	3.19922
699.735	0.995605
702.628	3.73572
705.52	9.3446
708.413	62.317
711.306	12.1713
714.198	25.7202
717.091	17.5299
719.984	12.0742
722.876	21.6071
725.769	17.502
728.662	16.3872
731.555	41.137
734.447	13.472
737.34	15.2935
740.233	19.6181
743.125	30.0987
746.018	13.4717
748.911	28.055
751.803	18.6467
754.696	18.7461
757.589	30.9879
760.482	45.5912
763.374	53.5067
766.267	38.8136
769.16	66.6963
772.052	59.3578
774.945	65.0493
777.838	75.586
780.731	96.2263
783.623	114.021
786.516	172.231
789.409	203.65
792.301	215.583
795.194	237.725
798.087	223.882
800.979	157.147
803.872	110.515
806.765	78.9908
809.658	60.4886
812.55	52.9197
815.443	48.6681
818.336	35.2439
821.228	15.0875
824.121	50.852
827.014	18.4527
829.906	7.01135
832.799	32.8691
835.692	4.62164
838.585	13.1895
841.477	19.952
844.37	32.1782
847.263	19.2388
850.155	24.9099
853.048	26.0753
855.941	29.6563
858.833	9.59106
861.726	29.408
864.619	48.1688
867.511	9.85815
870.404	14.1107
873.297	55.9333
876.19	32.198
879.082	34.9061
881.975	34.017
884.868	10.7711
887.76	48.0237
890.653	24.9348
893.546	9.53632
896.438	7.95245
899.331	1.86072
902.224	2.46021
905.117	43.2549
908.009	0.333618
910.902	7.75439
913.795	31.7006
916.687	3.24243
919.58	29.3673
922.473	42.785
925.365	35.1627
928.258	20.7672
931.151	88.3863
934.044	118.745
936.936	162.166
939.829	205.513
942.722	223.609
945.614	133.956
948.507	113.84
951.4	78.4022
954.293	71.6551
957.185	67.9148
960.078	45.4275
962.971	52.4116
965.863	71.28
968.756	113.774
971.649	103.099
974.541	51.5275
977.434	66.827
980.327	49.7059
983.22	41.6066
986.112	21.4649
989.005	3.0332
991.898	15.5081
994.79	12.3935
997.683	23.0273
1000.58	75.2125
1003.47	113.042
1006.36	151.647
1009.25	229.279
1012.15	301.797
1015.04	290.435
1017.93	225.53
1020.83	256.456
1023.72	223.484
1026.61	213.955
1029.5	164.202
1032.39	135.088
1035.29	98.6316
1038.18	116.436
1041.07	142.866
1043.97	125.014
1046.86	124.356
1049.75	91.7439
1052.64	24.6742
1055.54	27.2551
1058.43	34.4995
1061.32	59.5741
1064.21	61.8391
1067.11	94.9155
1070	114.06
1072.89	163.222
1075.79	218.81
1078.68	312.498
1081.57	393.613
1084.46	463.834
1087.36	469.112
1090.25	458.505
1093.14	392.891
1096.04	329.31
1098.93	234.061
1101.82	178.517
1104.71	140.607
1107.61	110.05
1110.5	69.2462
1113.39	48.6613
1116.28	28.9747
1119.18	18.7295
1122.07	22.5053
1124.96	8.82898
1127.86	8.14362
1130.75	11.4656
1133.64	4.42615
1136.53	0.911438
1139.42	6.17603
1142.32	7.38501
1145.21	8.88593
1148.1	2.46533
1151	15.7317
1153.89	49.7778
1156.78	43.9231
1159.67	49.4218
1162.57	85.6478
1165.46	56.6665
1168.35	63.2129
1171.24	35.2568
1174.14	51.1823
1177.03	30.9639
1179.92	51.5541
1182.82	25.1701
1185.71	23.282
1188.6	14.2295
1191.49	1.08997
1194.39	23.0402
1197.28	1.57532
1200.17	21.7173
1203.07	18.3761
1205.96	34.7889
1208.85	5.83575
1211.74	4.982
1214.64	35.7523
1217.53	23.5298
1220.42	25.3339
1223.31	13.8956
1226.21	12.6111
1229.1	26.5612
1231.99	37.0923
1234.88	21.6893
1237.78	15.9243
1240.67	34.619
1243.56	4.23907
1246.45	23.4086
1249.35	9.41327
1252.24	28.5016
1255.13	7.44482
1258.03	9.19922
1260.92	40.9227
1263.81	37.0254
1266.7	25.4971
1269.6	31.775
1272.49	18.993
1275.38	25.5608
