Measurement: Raman, 532 nm, unoriented, Raman Data Processed
Mineral: Okenite
Rruff sample: R070602
Ideal chemistry: Ca_5_Si_9_O_23_9H_2_O
Locality: Poona, Maharashtra, India
Source: James Shigley
Description: Mass of radiating white fibers
Raman shift (cm-1)	intensity
150.334	0
153.226	187.643
156.119	96.1992
159.012	23.4688
161.905	38.0566
164.797	247.174
167.69	274.894
170.583	558.699
173.475	642.896
176.368	772.801
179.261	821.627
182.154	770.871
185.046	740.088
187.939	434.57
190.832	239.982
193.724	31.7715
196.617	44.0859
199.51	40.002
202.402	185.309
205.295	70.3867
208.188	19.3398
211.081	93.1348
213.973	373.258
216.866	525.894
219.759	634.9
222.651	613.021
225.544	250.4
228.437	84.707
231.329	182.69
234.222	115.873
237.115	146.338
240.007	191.25
242.9	287.068
245.793	327.885
248.685	119.018
251.578	224.553
254.471	141.978
257.364	249.859
260.256	340.471
263.149	750.434
266.042	235.455
268.934	140.428
271.827	0.089844
274.72	75.4727
277.613	72.8438
280.505	7.62305
283.398	339.244
286.291	257.066
289.183	299.1
292.076	368.56
294.969	400.506
297.861	407.633
300.754	408.568
303.647	315.75
306.539	210.232
309.432	66.4883
312.325	10.1133
315.218	60.4531
318.11	134.736
321.003	8.76172
323.896	163.053
326.788	143.004
329.681	248.623
332.574	332.869
335.466	436.42
338.359	341.6
341.252	367.574
344.145	526.25
347.037	445.543
349.93	503.141
352.823	461.277
355.715	263.117
358.608	284.697
361.501	234.519
364.394	15.5801
367.286	10.5449
370.179	73.0488
373.072	177.857
375.964	214.371
378.857	245.06
381.75	470.617
384.642	590.127
387.535	712.283
390.428	669.557
393.32	699.644
396.213	550.248
399.106	494.397
401.999	500.623
404.891	381.887
407.784	329.387
410.677	111.199
413.569	70.4492
416.462	232.723
419.355	223.356
422.247	141.043
425.14	195.947
428.033	346.065
430.925	343.389
433.818	246.977
436.711	242.037
439.604	249.369
442.496	308.107
445.389	239.756
448.282	180.74
451.174	85.6602
454.067	35.2402
456.96	9.81445
459.853	69.582
462.745	19.8359
465.638	65.9004
468.531	101.059
471.423	209.451
474.316	415.826
477.209	182.727
480.101	162.15
482.994	356.781
485.887	321.088
488.779	331.402
491.672	286.045
494.565	326.022
497.458	304.344
500.35	423.865
503.243	480.723
506.136	523.957
509.028	474.416
511.921	603.191
514.814	470.592
517.707	474.982
520.599	206.848
523.492	194.867
526.385	107.92
529.277	188.84
532.17	80.7012
535.063	131.682
537.955	14.1699
540.848	145.863
543.741	88.2676
546.634	4.39648
549.526	41.1875
552.419	83.7852
555.312	42.8105
558.204	22.4707
561.097	0.126953
563.99	82.2227
566.882	13.9785
569.775	18.2988
572.668	50.5254
575.56	149.217
578.453	111.397
581.346	171.834
584.239	227.674
587.131	431.838
590.024	605.981
592.917	929.596
595.809	1259.45
598.702	1671.45
601.595	1903.59
604.487	2394.48
607.38	2603.8
610.273	2718.33
613.165	2729.13
616.058	2304.4
618.951	1962.66
621.844	1330.45
624.736	1025.86
627.629	826.484
630.522	805.299
633.414	612.019
636.307	772.477
639.2	654.744
642.092	729.664
644.985	991.947
647.878	1277.31
650.771	1474.53
653.663	1563.95
656.556	1693.2
659.449	1953.31
662.341	2010.84
665.234	1947.89
668.127	1672.62
671.019	1411.84
673.912	1123.28
676.805	843.684
679.698	582.365
682.59	298.418
685.483	141.785
688.376	101.889
691.268	66.1719
694.161	64.3809
697.054	59.0254
699.947	50.0938
702.839	12.5645
705.732	67.6562
708.625	11.3418
711.517	33.4297
714.41	92.5391
717.303	113.617
720.195	110.705
723.088	25.8145
725.981	43.8301
728.874	87.8945
731.766	76.5117
734.659	3.96289
737.552	20.6621
740.444	21.0527
743.337	52.3301
746.23	27.875
749.122	45.6367
752.015	6.93945
754.908	152.232
757.8	80.0957
760.693	36.1758
763.586	93.418
766.479	44.5117
769.371	176.119
772.264	74.7617
775.157	288.654
778.049	408.621
780.942	312.307
783.835	396.918
786.727	513.25
789.62	527.113
792.513	631.607
795.405	575.006
798.298	496.219
801.191	431.498
804.084	363.19
806.976	280.609
809.869	151.607
812.762	68.0137
815.654	132.617
818.547	339.65
821.44	195.143
824.332	203.133
827.225	49.1133
830.118	91.1719
833.011	107.578
835.903	137.039
838.796	112.332
841.689	144.844
844.581	189.543
847.474	148.629
850.367	224.043
853.26	91.543
856.152	78.2383
859.045	210.996
861.938	186.508
864.83	219.297
867.723	326.746
870.616	277.648
873.508	225.949
876.401	217.16
879.294	169.449
882.187	189.406
885.079	124.566
887.972	147.578
890.865	74.0469
893.757	27.3125
896.65	35.2344
899.543	65.2422
902.435	37.9961
905.328	36.6641
908.221	6.50781
911.114	111.703
914.006	143.188
916.899	203.336
919.792	133.68
922.684	51.6992
925.577	223.121
928.47	260.699
931.362	286.227
934.255	342.234
937.148	475.859
940.04	432.758
942.933	436.297
945.826	284.793
948.718	122.418
951.611	150.461
954.504	157.227
957.397	203.457
960.289	58.2344
963.182	16.3203
966.075	167.293
968.967	226.441
971.86	111.715
974.753	224.184
977.645	64.1523
980.538	153.5
983.431	49.3164
986.324	79.8828
989.216	87.4492
992.109	37.6953
995.002	11.2891
997.894	22.0938
1000.79	148.965
1003.68	210.367
1006.57	405.828
1009.47	619.438
1012.36	661.422
1015.25	764.852
1018.14	631.805
1021.04	673.953
1023.93	572.863
1026.82	539.898
1029.71	265.324
1032.61	283.883
1035.5	211.648
1038.39	267.469
1041.29	433
1044.18	310.418
1047.07	248.938
1049.96	198.258
1052.86	284.621
1055.75	114.469
1058.64	217.223
1061.53	152.492
1064.43	133.805
1067.32	311.324
1070.21	569.695
1073.1	513.887
1076	814.156
1078.89	1095.96
1081.78	1220.56
1084.67	1453.14
1087.57	1473.28
1090.46	1266.09
1093.35	998.117
1096.25	763.312
1099.14	540.289
1102.03	447.422
1104.92	370.988
1107.82	204
1110.71	222.488
1113.6	238.172
1116.49	149.074
1119.39	68.5156
1122.28	58.1719
1125.17	50.3203
1128.07	61.2812
1130.96	51.6914
1133.85	176.793
1136.74	197.398
1139.64	238.262
1142.53	55.3281
1145.42	32.0195
1148.32	43.4805
1151.21	208.633
1154.1	248.926
1156.99	221.012
1159.88	353.055
1162.78	360.789
1165.67	269.082
1168.56	327.699
1171.46	108.481
1174.35	175.199
1177.24	194.527
1180.13	324.941
1183.03	328.352
1185.92	364.519
1188.81	320.684
1191.7	189.996
1194.6	258.336
1197.49	153.262
1200.38	86.5156
1203.28	363.172
1206.17	215.152
1209.06	95.5
1211.95	186.242
1214.85	253.406
1217.74	356
1220.63	274.734
1223.53	305.227
1226.42	144.43
1229.31	214.394
1232.2	15.043
1235.1	95.8867
1237.99	132.273
1240.88	42.1367
1243.77	210.398
1246.67	143.668
1249.56	150.359
1252.45	140.93
1255.34	183.176
1258.24	172.203
1261.13	254.785
1264.02	241.934
1266.91	15.0078
1269.81	184.867
1272.7	122.5
1275.59	144.031
1278.49	40.8242
1281.38	41.4844
