Measurement: Raman, 532 nm, unoriented, Raman Data Processed
Mineral: Olenite
Rruff sample: R120012
Ideal chemistry: NaAl_3_Al_6_(Si_6_O_18_)(BO_3_)_3_(O_3_)OH
Locality: Curiglia, Val Veddasca, Varese, Italy
Source: Marcus Origlieri
Description: Pale blue prismatic crystals frozen in quartz and muscovite matrix
Raman shift (cm-1)	intensity
218.735	0
221.628	7.30829
224.521	24.4459
227.413	33.4626
230.306	32.1516
233.199	20.4523
236.091	17.1706
238.984	9.33166
241.877	11.7712
244.769	4.6933
247.662	9.19397
250.555	12.1503
253.448	15.4954
256.34	26.8831
259.233	45.524
262.126	53.1517
265.018	64.9202
267.911	75.4689
270.804	74.7174
273.697	73.8687
276.589	58.6965
279.482	45.4558
282.375	28.5785
285.267	11.6316
288.16	2.53253
291.053	2.86414
293.945	4.97937
296.838	4.27856
299.731	1.30017
302.623	2.84387
305.516	4.94653
308.409	1.1189
311.302	1.8902
314.194	5.66852
317.087	6.51648
319.98	9.38495
322.872	18.0171
325.765	22.8597
328.658	27.4495
331.55	28.9301
334.443	31.2525
337.336	28.1936
340.229	26.5178
343.121	18.4823
346.014	19.584
348.907	23.5996
351.799	25.2302
354.692	38.9847
357.585	48.0296
360.478	60.6838
363.37	82.2499
366.263	100.727
369.156	124.383
372.048	142.104
374.941	151.41
377.834	135.547
380.726	115.929
383.619	96.1059
386.512	79.0165
389.404	69.0006
392.297	59.8939
395.19	60.0539
398.083	58.7304
400.975	57.2394
403.868	55.3298
406.761	53.1273
409.653	45.7715
412.546	40.6481
415.439	27.1497
418.332	17.8594
421.224	5.62866
424.117	0.869873
427.01	0.356445
429.902	3.61487
432.795	1.95935
435.688	3.78149
438.58	5.79846
441.473	6.44653
444.366	17.8903
447.259	12.4239
450.151	14.6151
453.044	6.30335
455.937	2.47266
458.829	0.877441
461.722	0.331665
464.615	0.249634
467.507	3.32471
470.4	4.46594
473.293	1.43738
476.185	1.37744
479.078	5.56372
481.971	9.49023
484.864	15.3619
487.756	16.7512
490.649	22.09
493.542	34.1632
496.434	36.7285
499.327	43.0935
502.22	40.6465
505.113	43.5586
508.005	49.1039
510.898	52.7953
513.791	58.8404
516.683	60.1482
519.576	60.0682
522.469	56.0599
525.361	53.1054
528.254	50.2321
531.147	47.5209
534.04	47.6809
536.932	54.4616
539.825	60.2307
542.718	65.366
545.61	60.8989
548.503	64.3444
551.396	59.5057
554.288	53.5275
557.181	42.2479
560.074	37.751
562.967	34.172
565.859	25.0804
568.752	21.2319
571.645	15.1669
574.537	16.236
577.43	19.6774
580.323	19.5426
583.216	16.4259
586.108	13.676
589.001	13.8086
591.894	12.5697
594.786	15.538
597.679	10.3243
600.572	12.9753
603.464	5.73071
606.357	7.40308
609.25	4.15979
612.142	3.82434
615.035	3.68188
617.928	5.04541
620.821	1.05676
623.713	5.0929
626.606	2.88464
629.499	2.37146
632.391	4.81262
635.284	6.41846
638.177	2.56397
641.069	2.72119
643.962	5.23792
646.855	0.785278
649.747	2.59485
652.64	2.52319
655.533	5.74158
658.426	5.35901
661.318	6.86475
664.211	4.50427
667.104	7.13159
669.996	11.2482
672.889	9.29895
675.782	12.1283
678.674	8.81702
681.567	10.2886
684.46	7.02246
687.353	11.073
690.245	10.0507
693.138	13.9467
696.031	17.7507
698.923	23.7811
701.816	26.2742
704.709	38.4978
707.601	49.3451
710.494	63.5847
713.387	80.1794
716.28	99.6694
719.172	116.353
722.065	133.48
724.958	141.513
727.85	137.254
730.743	116.825
733.636	91.1089
736.529	67.525
739.421	52.6296
742.314	34.3329
745.207	27.1912
748.099	23.4138
750.992	21.1571
753.885	24.3953
756.777	21.854
759.67	19.0037
762.563	11.6288
765.456	11.7642
768.348	6.68298
771.241	3.32275
774.134	4.07715
777.026	2.80298
779.919	2.3529
782.812	7.15405
785.704	5.43909
788.597	1.81714
791.49	3.07519
794.383	6.6665
797.275	0.26062
800.168	3.07458
803.061	1.15015
805.953	0.580688
808.846	4.34204
811.739	0.510254
814.631	0.479004
817.524	3.37183
820.417	4.06055
823.309	7.98438
826.202	4.13147
829.095	2.11743
831.988	8.88562
834.88	8.01489
837.773	11.0485
840.666	12.4846
843.558	9.40881
846.451	11.6615
849.344	11.9961
852.236	11.683
855.129	14.1971
858.022	14.2651
860.915	15.2566
863.807	12.243
866.7	11.6849
869.593	6.39636
872.485	13.8289
875.378	10.2006
878.271	9.52197
881.163	8.79163
884.056	9.85425
886.949	13.5392
889.842	17.8881
892.734	9.2533
895.627	9.37451
898.52	3.87317
901.412	4.45288
904.305	3.9436
907.198	6.85327
910.091	7.96106
912.983	3.77515
915.876	3.59277
918.769	4.46863
921.661	3.70044
924.554	1.2052
927.447	2.49463
930.339	3.42383
933.232	0.047363
936.125	4.23889
939.018	1.05945
941.91	1.72632
944.803	2.15881
947.696	4.15002
950.588	4.10571
953.481	2.52649
956.374	2.84583
959.266	2.76892
962.159	6.24988
965.052	6.07019
967.944	6.90735
970.837	8.17957
973.73	7.4314
976.623	8.86243
979.515	11.6166
982.408	11.2845
985.301	15.1986
988.193	18.2325
991.086	17.4363
993.979	14.3835
996.871	12.715
999.764	10.9315
1002.66	7.11609
1005.55	5.66028
1008.44	7.84582
1011.34	6.83106
1014.23	8.6156
1017.12	10.5712
1020.01	18.1069
1022.91	19.6028
1025.8	20.7903
1028.69	33.3147
1031.58	32.11
1034.48	40.6742
1037.37	41.7499
1040.26	41.1739
1043.15	49.5244
1046.05	59.2865
1048.94	75.0468
1051.83	85.7884
1054.73	101.395
1057.62	118.456
1060.51	120.16
1063.4	124.295
1066.3	116.963
1069.19	98.8223
1072.08	82.1295
1074.97	61.7406
1077.87	43.0155
1080.76	34.5981
1083.65	22.8544
1086.55	15.5881
1089.44	8.06775
1092.33	0.650757
1095.22	1.00977
1098.12	2.42944
1101.01	5.95508
1103.9	1.47473
1106.79	0.949585
1109.69	0.958496
1112.58	3.99243
1115.47	3.29346
1118.37	2.02637
1121.26	7.43799
1124.15	3.2981
1127.04	0.109741
1129.94	2.54456
1132.83	1.03149
1135.72	0.768066
1138.61	2.66138
1141.51	0.978516
1144.4	1.98047
1147.29	1.52197
1150.18	3.77417
1153.08	4.28052
1155.97	1.09936
1158.86	0.925903
1161.76	0.367676
1164.65	3.87244
1167.54	2.55664
1170.43	1.39563
1173.33	4.96289
1176.22	3.51221
1179.11	4.8783
1182	7.75732
1184.9	6.15735
1187.79	9.73621
1190.68	5.93115
1193.58	5.42749
1196.47	4.07898
1199.36	7.3999
1202.25	8.20264
1205.15	10.1752
1208.04	11.814
1210.93	12.9541
1213.82	12.0271
1216.72	8.28699
1219.61	2.19885
1222.5	6.65393
1225.39	7.77112
1228.29	4.55969
1231.18	5.67188
1234.07	0.618652
1236.97	0.733154
1239.86	0.974731
1242.75	2.30969
1245.64	3.94592
1248.54	1.38818
1251.43	2.2218
1254.32	4.552
1257.21	3.67651
1260.11	2.8147
1263	6.61804
1265.89	2.80396
1268.79	5.87231
1271.68	5.099
1274.57	3.91797
1277.46	4.60864
1280.36	2.0791
1283.25	1.68982
1286.14	0.958984
1289.03	4.87317
1291.93	3.67529
1294.82	1.21045
1297.71	9.12952
1300.61	5.34131
