Measurement: Raman, 780 nm, unoriented, Raman Data Processed
Mineral: Olenite
Rruff sample: R120012
Ideal chemistry: NaAl_3_Al_6_(Si_6_O_18_)(BO_3_)_3_(O_3_)OH
Locality: Curiglia, Val Veddasca, Varese, Italy
Source: Marcus Origlieri
Description: Pale blue prismatic crystals frozen in quartz and muscovite matrix
Raman shift (cm-1)	intensity
103.656	0
107.031	28.9021
110.406	1.92139
113.781	2.40625
117.156	9.92383
120.531	4.1062
123.905	15.2345
127.28	1.61475
130.655	14.7284
134.03	4.13
137.405	14.8859
140.779	14.994
144.154	3.74048
147.529	11.6512
150.904	11.746
154.279	16.92
157.654	27.4755
161.028	32.26
164.403	38.6455
167.778	38.5259
171.153	39.1631
174.528	38.871
177.902	37.2841
181.277	30.8982
184.652	29.5094
188.027	20.5265
191.402	14.861
194.776	11.0287
198.151	4.06946
201.526	2.11682
204.901	3.81262
208.276	1.47302
211.651	12.6783
215.025	28.7638
218.4	49.3009
221.775	73.8063
225.15	95.5544
228.525	102.233
231.899	89.0448
235.274	75.928
238.649	80.6505
242.024	72.355
245.399	76.4757
248.774	82.0867
252.148	87.5204
255.523	89.0601
258.898	102.046
262.273	113.729
265.648	123.493
269.022	132.98
272.397	123.408
275.772	108.706
279.147	85.0227
282.522	64.0485
285.897	38.7805
289.271	20.8779
292.646	13.3198
296.021	3.3396
299.396	4.71118
302.771	3.30945
306.145	0.407593
309.52	0.311157
312.895	1.7699
316.27	0.557739
319.645	4.14197
323.019	7.36951
326.394	18.6261
329.769	23.3976
333.144	26.2749
336.519	24.4541
339.894	18.7568
343.268	13.3099
346.643	14.2018
350.018	23.5057
353.393	32.567
356.768	54.573
360.142	81.3212
363.517	108.328
366.892	138.139
370.267	177.069
373.642	191.3
377.017	183.441
380.391	150.161
383.766	115.073
387.141	90.8811
390.516	76.2985
393.891	65.1325
397.265	55.2667
400.64	51.6917
404.015	53.9508
407.39	48.4617
410.765	41.0102
414.14	27.7477
417.514	16.2553
420.889	4.01648
424.264	2.09094
427.639	5.38379
431.014	4.0144
434.389	5.23132
437.763	1.53857
441.138	2.36316
444.513	12.1491
447.888	13.0006
451.263	8.33777
454.637	7.19275
458.012	2.39771
461.387	0.337402
464.762	1.82788
468.137	5.98608
471.512	9.73669
474.886	13.4585
478.261	22.3739
481.636	25.111
485.011	32.6068
488.386	37.0558
491.76	51.6888
495.135	67.0966
498.51	83.6333
501.885	92.9351
505.26	109.825
508.635	126.219
512.009	140.723
515.384	153.307
518.759	161.599
522.134	158.421
525.509	159.115
528.883	160.125
532.258	168.831
535.633	186.101
539.008	192.542
542.383	194.996
545.757	184.317
549.132	174.663
552.507	152.947
555.882	131.056
559.257	113.385
562.631	96.7745
566.006	80.0513
569.381	71.8198
572.756	49.6111
576.131	40.8204
579.506	30.886
582.88	21.2938
586.255	21.557
589.63	9.82898
593.005	7.76086
596.38	2.43335
599.755	0.260132
603.129	3.45544
606.504	1.69824
609.879	4.45044
613.254	2.37256
616.629	0.191772
620.003	2.51245
623.378	7.93005
626.753	16.34
630.128	23.3671
633.503	31.7075
636.878	30.3806
640.252	33.3232
643.627	28.3232
647.002	26.9709
650.377	27.1715
653.752	21.7591
657.126	16.7048
660.501	13.3976
663.876	16.4813
667.251	12.409
670.626	0.996216
674	1.34979
677.375	0.713867
680.75	2.10565
684.125	0.943237
687.5	0.405518
690.875	6.73859
694.249	11.3681
697.624	18.1128
700.999	35.0404
704.374	45.0986
707.749	63.1083
711.124	87.0041
714.498	112.168
717.873	138.304
721.248	161.802
724.623	171.729
727.998	157.839
731.372	132.065
734.747	94.7516
738.122	64.707
741.497	48.3773
744.872	35.8046
748.246	29.0259
751.621	26.7264
754.996	21.6301
758.371	15.3401
761.746	13.7999
765.12	5.6969
768.495	6.37262
771.87	2.95215
775.245	0.76062
778.62	3.00653
781.995	3.24072
785.369	1.74402
788.744	2.59381
792.119	4.66217
795.494	6.31726
798.869	5.10181
802.244	0.936157
805.618	0.324585
808.993	1.86713
812.368	5.38959
815.743	1.49841
819.118	7.4425
822.492	13.941
825.867	7.49963
829.242	9.36182
832.617	8.34802
835.992	12.2548
839.366	19.5484
842.741	13.0859
846.116	14.6763
849.491	16.2559
852.866	16.9606
856.241	16.9652
859.615	19.0533
862.99	16.2692
866.365	20.4066
869.74	15.512
873.115	15.0733
876.49	15.2604
879.864	11.9047
883.239	14.7042
886.614	10.6247
889.989	9.93567
893.364	6.48254
896.738	11.2751
900.113	4.52747
903.488	3.72589
906.863	3.37775
910.238	1.97107
913.612	2.52155
916.987	2.24756
920.362	0.217346
923.737	0.653625
927.112	2.45612
930.487	0.502991
933.861	0.786499
937.236	1.29028
940.611	0.871216
943.986	0.54187
947.361	1.96216
950.736	5.91132
954.11	8.30273
957.485	7.11108
960.86	9.31921
964.235	7.45471
967.61	12.5516
970.984	11.9446
974.359	9.64496
977.734	10.6965
981.109	13.9506
984.484	18.592
987.859	14.3835
991.233	16.0673
994.608	16.1041
997.983	13.5856
1001.36	13.9574
1004.73	10.3988
1008.11	10.9645
1011.48	15.2735
1014.86	17.0067
1018.23	19.266
1021.61	22.2565
1024.98	28.0546
1028.36	32.4356
1031.73	38.3594
1035.11	43.9832
1038.48	52.7989
1041.86	58.0814
1045.23	71.2267
1048.61	78.7609
1051.98	95.2421
1055.36	114.905
1058.73	129.32
1062.1	139.185
1065.48	126.808
1068.85	109.261
1072.23	83.6568
1075.6	61.6326
1078.98	45.7157
1082.35	33.1915
1085.73	23.6519
1089.1	17.257
1092.48	8.1629
1095.85	8.50391
1099.23	0.242859
1102.6	2.52649
1105.98	1.31256
1109.35	4.39905
1112.73	1.68909
1116.1	1.69263
1119.48	1.61591
1122.85	0.994385
1126.23	0.182251
1129.6	2.54865
1132.98	0.955811
1136.35	0.444946
1139.72	3.12671
1143.1	2.05164
1146.47	3.80994
1149.85	3.84241
1153.22	4.97192
1156.6	8.94171
1159.97	11.3839
1163.35	12.7723
1166.72	21.5883
1170.1	23.7298
1173.47	27.2844
1176.85	28.8682
1180.22	34.4141
1183.6	30.2942
1186.97	30.1996
1190.35	33.3101
1193.72	33.234
1197.1	34.0703
1200.47	28.6802
1203.85	31.2845
1207.22	30.412
1210.6	28.7052
1213.97	24.9473
1217.35	22.1783
1220.72	17.7465
1224.1	15.1209
1227.47	14.874
1230.85	6.7981
1234.22	2.52106
1237.6	1.08588
1240.97	0.842407
1244.34	2.65039
1247.72	2.69861
1251.09	0.768555
1254.47	1.74219
1257.84	1.72858
1261.22	6.83636
1264.59	6.0636
1267.97	3.16339
1271.34	2.37091
1274.72	0.137634
1278.09	0.666382
1281.47	0.696533
1284.84	0.531433
