Measurement: Raman, 532 nm, unoriented, Raman Data Processed
Mineral: Olenite
Rruff sample: R061133
Ideal chemistry: NaAl_3_Al_6_(Si_6_O_18_)(BO_3_)_3_(O_3_)OH
Locality: Uvil'dy, Urals, Siberia, Russia
Source: Michael Scott
Description: Blue-gray grains
Raman shift (cm-1)	intensity
165.02	0
167.913	159.795
170.805	170.197
173.698	173.435
176.591	201.162
179.483	81.5996
182.376	2.16406
185.269	23.5
188.161	27.7344
191.054	46.1055
193.947	188.231
196.84	287.617
199.732	283.418
202.625	495.807
205.518	588.674
208.41	884.262
211.303	1273.69
214.196	1885.67
217.088	2827.92
219.981	3914.14
222.874	4731.9
225.767	5082.6
228.659	4658.94
231.552	3592.82
234.445	2838.77
237.337	2362.23
240.23	1938.57
243.123	1822.5
246.015	1630.19
248.908	1733.2
251.801	1662
254.694	1945.75
257.586	1854.12
260.479	2083.82
263.372	2182.04
266.264	2000.25
269.157	1800.14
272.05	1408.19
274.942	979.154
277.835	630.439
280.728	399.178
283.62	311.328
286.513	24.1777
289.406	23.7852
292.299	79.6777
295.191	39.1016
298.084	66.9766
300.977	30.9258
303.869	43.4238
306.762	341.131
309.655	399.338
312.548	492.148
315.44	383.947
318.333	221.039
321.226	20.8262
324.118	24.1582
327.011	28.002
329.904	55.4707
332.796	2.28125
335.689	102.867
338.582	57.4414
341.474	275.861
344.367	236.848
347.26	406.322
350.153	630.729
353.045	913.144
355.938	1170.41
358.831	1638.5
361.723	2303.16
364.616	3068.61
367.509	4013.46
370.401	4697.44
373.294	4378.12
376.187	3503.59
379.08	2667.04
381.972	2025.58
384.865	1582.85
387.758	1213.96
390.65	1128.66
393.543	1102.51
396.436	1109.96
399.329	1134.86
402.221	1158.12
405.114	1063.44
408.007	877.701
410.899	644.225
413.792	579.725
416.685	444.19
419.577	314.269
422.47	201.174
425.363	7.19531
428.255	71.3965
431.148	71.875
434.041	22.0547
436.934	8.12891
439.826	35.0508
442.719	57.5801
445.612	68.6465
448.504	27.5371
451.397	93.5918
454.29	44.7363
457.183	103.275
460.075	84.6348
462.968	0.138672
465.861	25.043
468.753	96.3438
471.646	132.006
474.539	129.785
477.431	6.87305
480.324	65.3691
483.217	46.9395
486.109	174.365
489.002	249.16
491.895	238.756
494.788	311.992
497.68	266.019
500.573	280.356
503.466	372.244
506.358	325.418
509.251	507.606
512.144	520.826
515.036	506.879
517.929	467.239
520.822	408.161
523.715	324.101
526.607	384.571
529.5	235.237
532.393	170.927
535.285	240.977
538.178	158.637
541.071	163.772
543.963	155.52
546.856	142.006
549.749	129.072
552.641	24.9229
555.534	33.6143
558.427	69.876
561.32	55.7588
564.212	47.1201
567.105	22.5635
569.998	30.7627
572.89	45.4463
575.783	64.8291
578.676	44.4541
581.568	115.561
584.461	92.1885
587.354	64.4385
590.247	26.5195
593.139	18.1279
596.032	14.7998
598.925	85.1484
601.817	104.252
604.71	171.316
607.603	170.494
610.495	202.905
613.388	217.416
616.281	195.013
619.174	248.178
622.066	405.051
624.959	610.506
627.852	730.11
630.744	1012.53
633.637	995.916
636.53	978.381
639.423	842.79
642.315	738.252
645.208	668.98
648.101	523.76
650.993	477.849
653.886	334.647
656.779	239.094
659.671	261.537
662.564	69.4414
665.457	102.514
668.35	18.6123
671.242	68.5225
674.135	0.010742
677.028	45.3252
679.92	45.7168
682.813	144.996
685.706	102.353
688.598	248.874
691.491	385.123
694.384	688.557
697.277	1049.11
700.169	1366.29
703.062	1353.9
705.955	1408.64
708.847	1140.99
711.74	913.131
714.633	615.067
717.525	424.57
720.418	297.913
723.311	230.654
726.203	114.954
729.096	73.2842
731.989	109.727
734.881	106.7
737.774	60.4316
740.667	125.831
743.56	64.6523
746.452	118.567
749.345	84.2705
752.238	107.857
755.13	26.542
758.023	103.092
760.916	0.313477
763.808	56.3545
766.701	20.4893
769.594	56.4688
772.487	16.5977
775.379	64.7061
778.272	86.2598
781.165	92.8506
784.057	45.5332
786.95	113.482
789.843	44.8076
792.736	69
795.628	103.637
798.521	62.9736
801.414	76.3174
804.306	120.889
807.199	155.562
810.092	119.289
812.984	187.529
815.877	180.694
818.77	84.5312
821.663	127.431
824.555	125.165
827.448	78.5947
830.341	61.1484
833.233	65.9951
836.126	108.113
839.019	33.3301
841.911	23.1963
844.804	39.5732
847.697	157.678
850.59	8.98633
853.482	50.8438
856.375	71.6191
859.268	66.6201
862.16	31.8643
865.053	54.0772
867.946	85.9541
870.838	65.7324
873.731	59.8867
876.624	10.9766
879.516	80.9365
882.409	62.959
885.302	40.3779
888.195	27.6641
891.087	122.663
893.98	116.638
896.873	2.94922
899.765	73.3428
902.658	13.5967
905.551	48.166
908.443	61.9043
911.336	94.3037
914.229	91.1953
917.122	48.0156
920.014	12.0156
922.907	77.9131
925.8	13.7295
928.692	10.1016
931.585	56.0107
934.478	71.7363
937.37	57.9834
940.263	94.9482
943.156	35.5088
946.049	50.2637
948.941	104.227
951.834	122.031
954.727	183.085
957.619	276.338
960.512	214.586
963.405	237.005
966.298	269.44
969.19	269.583
972.083	216.005
974.976	217.402
977.868	303.19
980.761	270.772
983.654	316.512
986.546	167.663
989.439	161.248
992.332	172.154
995.225	177.769
998.117	152.489
1001.01	98.8525
1003.9	132.504
1006.79	101.97
1009.69	149.375
1012.58	66.9707
1015.47	41.4033
1018.37	132.372
1021.26	10.7773
1024.15	33.0293
1027.04	49.5244
1029.94	2.3457
1032.83	20.3799
1035.72	22.1328
1038.62	33.665
1041.51	128.565
1044.4	141.79
1047.29	95.5029
1050.19	209.044
1053.08	203.928
1055.97	352.414
1058.86	432.743
1061.76	441.26
1064.65	409.392
1067.54	427.467
1070.43	449.236
1073.33	354.091
1076.22	442.517
1079.11	413.15
1082.01	410.388
1084.9	347.83
1087.79	334.092
1090.68	423.775
1093.58	403.854
1096.47	494.656
1099.36	441.521
1102.25	489.903
1105.15	593.114
1108.04	683.191
1110.93	649.753
1113.83	754.473
1116.72	883.996
1119.61	916.189
1122.5	963.633
1125.4	1027.88
1128.29	1110.32
1131.18	1129.9
1134.07	1053.84
1136.97	1047.65
1139.86	939.619
1142.75	775.917
1145.64	638.754
1148.54	466.83
1151.43	415.507
1154.32	306.022
1157.22	218.287
1160.11	117.851
1163	59.5918
1165.89	41.5195
1168.79	36.584
1171.68	32.7002
1174.57	33.1006
1177.46	26.1836
1180.36	22.2285
1183.25	54.9355
1186.14	54.916
1189.04	3.50879
1191.93	9.9668
1194.82	32.0869
1197.71	122.422
1200.61	41.1895
1203.5	52.4355
1206.39	59.0322
1209.28	204.755
1212.18	252.638
1215.07	416.124
1217.96	546.302
1220.86	723.042
1223.75	897.188
1226.64	949.417
1229.53	1020.95
1232.43	1044.53
1235.32	975.021
1238.21	944.246
1241.1	869.519
1244	870.582
1246.89	702.833
1249.78	738.32
1252.67	561.096
1255.57	555.323
1258.46	459.247
1261.35	374.07
1264.24	232.675
1267.14	20.9717
1270.03	0
