Measurement: Raman, 532 nm, unoriented, Raman Data Processed
Mineral: Oligoclase
Rruff sample: R070268
Ideal chemistry: Na_0.9-0.7_Ca_0.1-0.3_Al_1.1-1.3_Si_2.9-2.7_O_8_
Locality: Kitty Hawk, North Carolina, USA
Source: Michael Scott
Description: White cleavage fragment showing polysynthetic twinning, associated with smoky quartz
Measured chemistry: Na_0.77_Ca_0.22_Al_1.22_Si_2.78_O_8_
Raman shift (cm-1)	intensity
154.001	0
156.894	71.812
159.786	476.328
162.679	1128.41
165.572	1656.67
168.464	2079.8
171.357	2607.22
174.25	2850.24
177.143	2975.49
180.035	2935.68
182.928	2733.85
185.821	2609.46
188.713	2370.27
191.606	2111.93
194.499	2031.34
197.391	2086.1
200.284	2096.86
203.177	2184.89
206.07	2143.54
208.962	1776.8
211.855	1317.49
214.748	725.129
217.64	385.463
220.533	102.561
223.426	16.876
226.318	-2.65418
229.211	8.43891
232.104	21.5554
234.996	10.111
237.889	-1.86749
240.782	69.8501
243.675	143.518
246.567	301.81
249.46	460.898
252.353	595.314
255.245	635.247
258.138	747.218
261.031	854.203
263.923	1044.81
266.816	1368.68
269.709	1645.4
272.602	1984.86
275.494	2480.44
278.387	2981.06
281.28	3578.1
284.173	4147.97
287.065	4411.62
289.958	4302.39
292.851	3543.39
295.743	2540.3
298.636	1705.8
301.529	1096.96
304.421	829.801
307.314	484.005
310.207	401.475
313.099	355.514
315.992	277.928
318.885	372.961
321.778	419.892
324.67	627.674
327.563	688.694
330.456	741.742
333.348	693.42
336.241	520.601
339.134	324.093
342.026	259.331
344.919	84.9844
347.812	151.906
350.705	94.4375
353.597	143.081
356.49	68.6602
359.383	28.5029
362.275	36.2812
365.168	56.9824
368.061	105.526
370.954	35.5156
373.846	48.4268
376.739	39.46
379.632	28.8076
382.524	44.0615
385.417	1.04785
388.31	23.8125
391.202	116.239
394.095	257.06
396.988	345.657
399.88	373.696
402.773	508.714
405.666	609.789
408.559	637.187
411.451	692.636
414.344	590.115
417.237	299.42
420.129	116.438
423.022	104.796
425.915	75.7295
428.808	74.1045
431.7	33.5576
434.593	1.25293
437.486	34.4014
440.378	114.042
443.271	236.127
446.164	356.693
449.056	551.933
451.949	600.44
454.842	917.523
457.735	1040.04
460.627	1133.31
463.52	1336.64
466.413	1783.06
469.305	2384.75
472.198	3463.14
475.091	4578.03
477.983	5627.57
480.876	5613.78
483.769	4511.03
486.661	3381.61
489.554	2736.73
492.447	2951.25
495.34	3833.23
498.232	5428.57
501.125	7703.47
504.018	10294.9
506.911	12232.5
509.803	11377.5
512.696	8196.86
515.589	5180.81
518.481	3178.43
521.374	2103.13
524.267	1286.52
527.159	755.761
530.052	457.034
532.945	206.059
535.837	120.48
538.73	39.0537
541.623	22.2451
544.516	8.29297
547.408	12.6816
550.301	62.8525
553.194	175.161
556.086	187.406
558.979	333.988
561.872	517.236
564.764	625.49
567.657	805.623
570.55	982.313
573.443	780.224
576.335	619.109
579.228	456.258
582.121	277.817
585.013	155.274
587.906	13.4131
590.799	39.2402
593.692	20.5342
596.584	57.4951
599.477	4.90234
602.37	11.7695
605.262	63.0527
608.155	111.522
611.048	151.173
613.94	140.811
616.833	164.81
619.726	171.273
622.619	245.224
625.511	279.649
628.404	337.695
631.297	308.037
634.189	393.57
637.082	286.609
639.975	383.72
642.867	374.725
645.76	271.485
648.653	340.536
651.545	276.152
654.438	242.666
657.331	238.914
660.224	246.534
663.116	215.042
666.009	97.3174
668.902	158.806
671.794	127.234
674.687	21.5029
677.58	146.412
680.472	53.499
683.365	43.4961
686.258	70.8174
689.151	8.3252
692.043	39.5283
694.936	15.6904
697.829	0.349609
700.721	100.099
703.614	133.673
706.507	130.723
709.399	152.675
712.292	243.035
715.185	190.019
718.078	113.641
720.97	228.431
723.863	321.568
726.756	252.422
729.648	184.898
732.541	197.523
735.434	233.149
738.327	250.596
741.219	313.414
744.112	303.31
747.005	340.252
749.897	504.615
752.79	632.807
755.683	709.125
758.576	825.445
761.468	840.747
764.361	907.481
767.254	770.669
770.146	822.63
773.039	604.557
775.932	563.01
778.824	554.252
781.717	487.053
784.61	506.946
787.503	657.885
790.395	704.968
793.288	854.566
796.181	982.333
799.073	1011.12
801.966	950.312
804.859	992.598
807.751	951.968
810.644	1216.52
813.537	1146.57
816.429	846.156
819.322	394.5
822.215	199.844
825.108	113.553
828	80.1553
830.893	42.3125
833.786	89.4853
836.678	11.2764
839.571	24.0693
842.464	16.5537
845.356	31.2549
848.249	22.9766
851.142	113.197
854.035	105.319
856.927	71.2139
859.82	146.52
862.713	147.826
865.605	130.168
868.498	129.784
871.391	84.3223
874.284	38.4023
877.176	159.823
880.069	51.3047
882.962	28.6592
885.854	70.29
888.747	78.0469
891.64	43.3711
894.533	17.6504
897.425	53.085
900.318	121.794
903.211	109.322
906.103	85.3213
908.996	66.8438
911.889	123.894
914.781	86.4336
917.674	173.602
920.567	103.627
923.46	142.533
926.352	139.205
929.245	70.6914
932.138	117.225
935.03	156.361
937.923	167.596
940.816	142.928
943.708	221.373
946.601	229.447
949.494	141.824
952.386	170.269
955.279	255.477
958.172	236.738
961.065	212.412
963.957	227.32
966.85	95.8535
969.743	185.812
972.635	106.902
975.528	87.6504
978.421	203.715
981.313	132.301
984.206	41.7012
987.099	31.5781
989.992	53.8828
992.884	24.0176
995.777	40.1289
998.67	100.791
1001.56	24.9102
1004.46	128.826
1007.35	155.793
1010.24	180.9
1013.13	80.8262
1016.03	192.359
1018.92	228.42
1021.81	220.66
1024.7	200.809
1027.6	234.434
1030.49	199.01
1033.38	266.498
1036.28	242.994
1039.17	137.506
1042.06	155.695
1044.95	267.92
1047.85	217.049
1050.74	141.076
1053.63	107.309
1056.52	235.959
1059.42	164.897
1062.31	55.6758
1065.2	158.223
1068.09	155.172
1070.99	17.1523
1073.88	176.772
1076.77	64.041
1079.66	171.471
1082.56	172.586
1085.45	260.484
1088.34	259.394
1091.24	359.738
1094.13	419.935
1097.02	456.717
1099.91	375.545
1102.81	446.426
1105.7	411.336
1108.59	400.516
1111.48	309.404
1114.38	336.861
1117.27	228.168
1120.16	161.232
1123.06	239.457
1125.95	176.065
1128.84	13.1934
1131.73	33.4297
1134.63	39.2207
1137.52	25.9336
1140.41	21.6953
1143.31	63.1543
1146.2	136.215
1149.09	174.238
1151.98	132.09
1154.88	152.91
1157.77	141.807
1160.66	135.426
1163.55	13.7148
1166.45	56.6348
1169.34	80.4121
1172.23	90.2461
1175.12	109.188
1178.02	92.1875
1180.91	22.748
1183.8	8.41797
1186.69	78.1055
1189.59	41.2812
1192.48	96.5957
1195.37	86.1973
1198.27	32.0742
1201.16	65.5762
1204.05	73.2441
1206.94	62.3887
1209.84	116.398
1212.73	50.3965
1215.62	96.0723
1218.52	89.1641
1221.41	135.207
1224.3	107.158
1227.19	10.4297
1230.09	8.4375
1232.98	40.6543
1235.87	103.74
1238.76	73.9902
1241.66	82.3164
1244.55	57.5527
1247.44	48.5527
1250.34	144.43
1253.23	149.902
1256.12	143.389
1259.01	196.596
1261.91	253.984
1264.8	255.982
1267.69	178.301
1270.58	119.816
1273.48	143.137
1276.37	148.996
1279.26	122.045
1282.15	141.93
1285.05	55.1934
1287.94	138.111
1290.83	47.4453
