Measurement: Raman, 514 nm, unoriented, Raman Data Processed
Mineral: Olivenite
Rruff sample: R040181
Ideal chemistry: Cu^2+^_2_As^5+^O_4_(OH)
Locality: Majuba Hill, Pershing County, Nevada, USA
Source: University of Arizona Mineral Museum
Description: Greenish blue prismatic, untwinned. Structure for this sample reported in Li et al (2008).
Measured chemistry: (Cu_0.98_[box]_0.02_)_2_(As_0.90_P_0.10_O_4_)(OH)_0.92_
Raman shift (cm-1)	intensity
54.266	0
58.464	67.382
62.661	20.206
66.856	50.078
71.048	197.773
75.239	827.396
79.427	1782.02
83.614	2476.11
87.798	2262.62
91.981	3033.41
96.161	4619.89
100.34	3212.65
104.516	3581.62
108.691	4955.3
112.864	6780.03
117.034	8302.32
121.203	7059.76
125.369	4163.02
129.534	2526.84
133.696	1875.99
137.857	1327.21
142.016	1122.85
146.172	1387.31
150.327	2182.15
154.48	2930.47
158.63	3313.06
162.779	2405.49
166.926	1655.01
171.07	1424.51
175.213	1726.88
179.354	2197.13
183.493	2630.24
187.63	2114.2
191.765	1245.98
195.898	919.553
200.029	981.876
204.158	1511.92
208.285	2447.64
212.41	3773.01
216.533	5308.99
220.654	5972.06
224.773	4831.37
228.891	3134.88
233.006	2066.49
237.119	1365.9
241.231	894.122
245.34	542.921
249.448	365.839
253.553	368.775
257.657	402.612
261.758	553.458
265.858	883.218
269.956	1752.95
274.052	3520.32
278.146	6734.84
282.237	10127
286.327	10006.5
290.416	6638.56
294.502	4303.23
298.586	3540.47
302.668	3615.22
306.749	4072.45
310.827	4150.15
314.903	3405.28
318.978	2640.76
323.051	2116.57
327.121	1772.69
331.19	1754.09
335.257	1730.75
339.322	1741.65
343.385	1807.74
347.446	1806.03
351.505	1631.5
355.563	1299.13
359.618	1075.9
363.672	904.803
367.723	663.809
371.773	458.939
375.821	288.083
379.866	248.328
383.91	192.661
387.952	90.291
391.992	18.776
396.031	94.733
400.067	163.861
404.101	161.33
408.134	144.228
412.165	106.656
416.193	13.197
420.22	54.117
424.245	19.872
428.268	4.088
432.289	34.528
436.309	26.971
440.326	37.092
444.342	56.995
448.355	140.362
452.367	173.884
456.377	229.069
460.385	292.446
464.391	312.419
468.395	375.317
472.398	558.429
476.398	633.579
480.397	923.748
484.394	1325.94
488.389	1792.4
492.382	2597.36
496.373	3433.09
500.362	3977.55
504.349	4051.34
508.335	3766.24
512.319	3753.63
516.3	3243.69
520.28	2412.41
524.259	1778.78
528.235	1332.71
532.209	1108.42
536.182	915.907
540.152	698.296
544.121	712.285
548.088	637.029
552.053	690.406
556.017	676.443
559.978	628.698
563.938	512.6
567.895	363.153
571.851	221.9
575.805	134.274
579.758	82.626
583.708	36.64
587.657	16.014
591.603	6.163
595.548	8.852
599.491	1.143
603.432	24.842
607.372	17.638
611.309	14.894
615.245	2.645
619.179	11.116
623.111	6.565
627.041	23.327
630.97	26.192
634.896	19.097
638.821	30.686
642.744	6.166
646.665	31.335
650.584	21.241
654.502	66.851
658.418	50.227
662.331	29.39
666.244	55.333
670.154	25.046
674.062	53.544
677.969	31.848
681.874	72.964
685.777	95.922
689.678	87.741
693.577	86.405
697.475	64.925
701.371	101.315
705.265	73.561
709.157	119.683
713.047	75.793
716.936	106.985
720.823	128.324
724.708	100.82
728.591	159.468
732.472	153.163
736.352	121.763
740.23	233.106
744.106	192.191
747.98	254.01
751.853	245.272
755.723	296.264
759.592	313.319
763.459	346.752
767.325	361.663
771.188	496.416
775.05	578.862
778.91	655.863
782.768	882.187
786.625	1048.24
790.479	1388.17
794.332	1508.72
798.183	1696.25
802.033	2021.68
805.88	2378.64
809.726	2930.47
813.57	3811.71
817.413	4708.35
821.253	5059.3
825.092	5120
828.929	5468.49
832.764	6966.73
836.598	9545.46
840.429	13312.2
844.259	18407.8
848.088	27340.8
851.914	41620.9
855.739	50389.4
859.562	35884
863.383	18839.8
867.203	10353.6
871.02	6642.48
874.836	4567.52
878.65	3361.68
882.463	2654.99
886.274	2138.49
890.083	1769.5
893.89	1471.92
897.695	1255.89
901.499	1003.2
905.301	857.572
909.102	745.155
912.9	615.956
916.697	612.995
920.492	527.27
924.285	498.811
928.077	443.599
931.867	469.615
935.655	328.831
939.442	383.268
943.226	378.88
947.009	340.977
950.791	443.98
954.57	577.076
958.348	709.324
962.124	642.722
965.899	441.287
969.671	197.915
973.442	124.649
977.211	98.493
980.979	115.426
984.745	69.457
988.509	20.294
992.271	53.312
996.032	11.439
999.791	31.763
1003.55	45.357
1007.3	6.753
1011.06	15.825
1014.81	0.624
1018.56	28.301
1022.31	87.247
1026.06	93.748
1029.8	67.34
1033.55	71.796
1037.29	101.614
1041.03	103.641
1044.77	43.343
1048.5	5.204
1052.24	62.518
1055.97	70.966
1059.7	57.422
1063.43	47.994
1067.16	23.252
1070.89	60.558
1074.61	49.994
1078.34	27.041
1082.06	107.864
1085.78	129.663
1089.5	107.565
1093.21	34.417
1096.93	73.749
1100.64	59.56
1104.35	46.534
1108.06	28.432
1111.77	67.956
1115.48	68.893
1119.18	31.623
1122.89	164.489
1126.59	110.034
1130.29	76.865
1133.99	31.229
1137.68	86.634
1141.38	6.757
1145.07	37.91
1148.76	30.809
1152.45	32.216
1156.14	6.925
1159.83	10.026
1163.51	11.079
1167.19	50.743
1170.88	29.772
1174.56	3.003
1178.23	36.985
1181.91	11.127
1185.59	13.717
1189.26	51.413
1192.93	32.359
1196.6	56.663
1200.27	38.836
1203.94	83.778
1207.6	32.45
1211.27	58.816
1214.93	61.985
1218.59	1.94
1222.25	42.661
1225.9	55.176
1229.56	46.514
1233.21	22.71
1236.86	35.628
1240.51	95.393
1244.16	37.535
1247.81	90.694
1251.45	72.701
1255.1	73.494
1258.74	0.079
1262.38	82.381
1266.02	61.511
1269.66	67.431
1273.29	95.521
1276.93	72.037
1280.56	87.268
1284.19	53.302
1287.82	45.177
1291.45	45.38
1295.07	65.04
1298.7	42.852
1302.32	38.881
1305.94	46.312
1309.56	34.799
1313.18	97.65
1316.8	48.662
1320.41	20.919
1324.02	13.958
1327.63	35.034
1331.24	83.843
1334.85	24.748
1338.46	38.26
1342.06	49.813
1345.67	45.558
1349.27	61.666
1352.87	156.719
1356.47	83.819
1360.07	79.78
1363.66	125.882
1367.25	93.447
1370.85	46.902
1374.44	40.454
1378.03	74.425
1381.61	60.055
1385.2	67.195
1388.78	113.217
1392.37	99.284
1395.95	53.799
1399.53	83.677
1403.1	114.955
1406.68	77.081
1410.26	83.993
1413.83	109.685
1417.4	68.088
1420.97	73.088
1424.54	68.652
1428.1	75.975
1431.67	83.457
1435.23	53.217
1438.8	46.455
1442.36	91.633
1445.91	79.726
1449.47	115.603
1453.03	74.463
1456.58	112.603
1460.13	29.749
1463.68	35.007
1467.23	76.463
1470.78	86.081
1474.33	102.969
1477.87	14.734
1481.42	55.99
1484.96	112.478
1488.5	141.304
1492.04	39.536
1495.57	107.404
1499.11	54.979
1502.64	36.192
1506.17	40.704
1509.71	45.93
1513.23	83.403
1516.76	0.401
