Measurement: Raman, 532 nm, unoriented, Raman Data Processed
Mineral: Olivenite
Rruff sample: R050532
Ideal chemistry: Cu^2+^_2_As^5+^O_4_(OH)
Locality: Tsumeb mine, Tsumeb, Otavi District, Oshikoto, Namibia
Source: University of Arizona Mineral Museum
Description: Dark green prismatic crystals on botryoidal bayldonite R050670
Measured chemistry: (Cu_0.99_Zn_0.01_)_2_(As_1.00_O_4_)(OH)
Raman shift (cm-1)	intensity
120.817	0
124.192	13.8063
127.567	13.8893
130.942	207.686
134.317	409.628
137.691	602.812
141.066	836.822
144.441	1160.15
147.816	1669.77
151.191	2051.61
154.565	1840.08
157.94	1454.93
161.315	928.473
164.69	678.83
168.065	609.979
171.44	686.681
174.814	742.924
178.189	571.444
181.564	523.04
184.939	443.447
188.314	223.119
191.688	131.112
195.063	171.851
198.438	326.688
201.813	557.628
205.188	834.849
208.562	1134.01
211.937	1489.71
215.312	1835.37
218.687	1972.11
222.062	1673.93
225.437	1239.99
228.811	896.21
232.186	618.387
235.561	411.298
238.936	209.663
242.311	67.0602
245.685	12.136
249.06	46.9943
252.435	54.5977
255.81	32.2136
259.185	15.641
262.56	117.247
265.934	289.143
269.309	511.135
272.684	795.315
276.059	1232.05
279.434	1810.86
282.808	2133.55
286.183	1793.69
289.558	1299.78
292.933	1020.6
296.308	937.074
299.683	956.231
303.057	1006.38
306.432	1033.72
309.807	961.034
313.182	794.138
316.557	619.687
319.932	519.326
323.306	487.248
326.681	514.587
330.056	569.22
333.431	632.87
336.805	697.778
340.18	757.61
343.555	804.431
346.93	770.783
350.305	627.897
353.68	479.662
357.054	379.123
360.429	287.825
363.804	194.531
367.179	112.555
370.554	51.7472
373.928	27.822
377.303	15.1429
380.678	13.8104
384.053	7.39716
387.428	10.2012
390.803	24.3659
394.177	24.2153
397.552	7.57916
400.927	27.5783
404.302	67.8284
407.677	128.907
411.051	197.895
414.426	268.454
417.801	320.806
421.176	329.83
424.551	279.819
427.926	203.165
431.3	134.908
434.675	97.3408
438.05	67.5513
441.425	56.824
444.8	50.149
448.174	41.6419
451.549	21.2122
454.924	2.62512
458.299	6.7746
461.674	4.96729
465.048	1.04694
468.423	12.965
471.798	37.7043
475.173	73.7215
478.548	128.396
481.923	208.368
485.297	305.241
488.672	425.006
492.047	565.057
495.422	697.907
498.797	788.77
502.171	830.887
505.546	902.133
508.921	1010.44
512.296	1075.58
515.671	1028.89
519.046	930.006
522.42	875.376
525.795	813.657
529.17	684.366
532.545	528.501
535.92	398.644
539.294	321.22
542.669	282.988
546.044	263.208
549.419	251.577
552.794	236.154
556.169	206.379
559.543	162.516
562.918	110.012
566.293	69.6396
569.668	45.8336
573.043	22.1038
576.418	11.6815
579.792	1.61432
583.167	3.64304
586.542	5.42361
589.917	3.7644
593.292	4.70679
596.666	5.92335
600.041	3.00754
603.416	2.38646
606.791	1.81706
610.166	6.21819
613.54	9.57475
616.915	13.6119
620.29	11.612
623.665	21.268
627.04	26.1093
630.414	32.0204
633.789	36.5134
637.164	38.2901
640.539	39.2409
643.914	42.9699
647.289	44.6137
650.663	47.8911
654.038	50.5081
657.413	54.6298
660.788	54.5399
664.163	55.4162
667.538	54.6431
670.912	54.6392
674.287	56.0055
677.662	57.1749
681.037	55.021
684.412	55.0575
687.786	58.8029
691.161	62.0675
694.536	63.3779
697.911	64.4186
701.286	63.5567
704.66	64.8105
708.035	61.2259
711.41	56.5035
714.785	51.8576
718.16	44.2288
721.534	39.8453
724.909	35.5849
728.284	26.8708
731.659	21.2112
735.034	16.8462
738.409	19.643
741.783	5.15402
745.158	0.91745
748.533	4.08487
751.908	11.2802
755.283	11.5955
758.658	14.6446
762.032	16.4544
765.407	16.2942
768.782	9.71881
772.157	0.419006
775.532	14.2366
778.906	43.2
782.281	84.6898
785.656	134.478
789.031	198.155
792.406	281.819
795.78	388.1
799.155	537.23
802.53	771.493
805.905	1114.49
809.28	1573.69
812.654	2114.22
816.029	2580.7
819.404	2709.21
822.779	2462.81
826.154	2201.07
829.529	2200.72
832.903	2553.56
836.278	3363.95
839.653	4679.95
843.028	6552.51
846.403	8821.2
849.778	11459.8
853.152	13935.9
856.527	13196.4
859.902	8587.91
863.277	4960
866.652	2976.31
870.026	1877.79
873.401	1240.52
876.776	862.112
880.151	627.853
883.526	461.321
886.9	345.181
890.275	258.273
893.65	184.05
897.025	125.037
900.4	72.0247
903.775	34.4011
907.149	5.96445
910.524	4.3978
913.899	13.2571
917.274	11.1418
920.649	10.6083
924.024	11.5805
927.398	11.0877
930.773	8.47607
934.148	7.55829
937.523	2.66119
940.898	5.38501
944.272	14.5462
947.647	33.7465
951.022	51.8033
954.397	74.0765
957.772	83.8315
961.146	85.0277
964.521	66.8766
967.896	53.3745
971.271	40.5201
974.646	34.5056
978.021	37.5931
981.395	28.8062
984.77	23.9133
988.145	22.1178
991.52	16.3588
994.895	13.8223
998.269	11.9565
1001.64	15.0847
1005.02	22.1913
1008.39	21.9448
1011.77	25.3438
1015.14	30.1443
1018.52	31.367
1021.89	37.1175
1025.27	41.5564
1028.64	45.8005
1032.02	43.9063
1035.39	41.9895
1038.77	33.2757
1042.14	24.9784
1045.52	13.9102
1048.89	12.5865
1052.27	10.8522
1055.64	5.73857
1059.02	4.32567
1062.39	6.60704
1065.77	5.50926
1069.14	11.0037
1072.52	9.05188
1075.89	13.2251
1079.27	13.9071
1082.64	12.437
1086.02	9.99774
1089.39	5.83447
1092.76	2.9184
1096.14	0.100754
1099.51	0.172714
1102.89	0.590195
1106.26	3.51408
1109.64	4.53586
1113.01	8.13579
1116.39	11.0236
1119.76	13.6937
1123.14	12.0269
1126.51	16.5314
1129.89	17.1769
1133.26	15.8869
1136.64	15.9873
1140.01	13.6983
1143.39	14.2141
1146.76	11.9914
1150.14	6.35996
1153.51	3.14807
1156.89	0.623474
1160.26	3.21931
1163.63	0.339844
1167.01	3.01375
1170.38	3.11955
1173.76	0.326859
1177.13	1.34373
1180.51	0.689194
1183.88	2.23022
1187.26	2.50316
1190.63	3.32837
1194.01	2.53558
1197.38	6.58327
1200.76	4.63554
1204.13	5.80098
1207.51	4.97374
1210.88	4.37441
1214.26	4.75052
1217.63	6.09766
1221.01	4.91696
1224.38	5.13928
1227.76	5.98473
1231.13	3.04187
1234.51	3.1257
1237.88	3.39006
1241.26	3.85002
1244.63	1.35661
1248.01	3.39783
1251.38	4.88451
1254.76	3.33435
1258.13	4.1064
1261.51	3.70946
1264.88	2.74275
1268.26	4.08516
1271.63	2.28116
1275	2.89418
1278.38	1.77745
1281.75	1.70073
1285.13	2.58687
1288.5	0.383835
1291.88	1.95203
1295.25	0.753479
1298.63	2.95757
1302	0.344879
