Measurement: Raman, 785 nm, unoriented, Raman Data Processed
Mineral: Olivenite
Rruff sample: R040181
Ideal chemistry: Cu^2+^_2_As^5+^O_4_(OH)
Locality: Majuba Hill, Pershing County, Nevada, USA
Source: University of Arizona Mineral Museum
Description: Greenish blue prismatic, untwinned. Structure for this sample reported in Li et al (2008).
Measured chemistry: (Cu_0.98_[box]_0.02_)_2_(As_0.90_P_0.10_O_4_)(OH)_0.92_
Raman shift (cm-1)	intensity
161.999	0
164.892	0.466919
167.785	12.9097
170.677	7.21136
173.57	24.3703
176.463	13.0841
179.356	43.5767
182.248	56.1913
185.141	45.0224
188.034	24.6925
190.926	15.9324
193.819	7.25079
196.712	7.57617
199.604	4.86581
202.497	26.1554
205.39	31.3027
208.282	28.7717
211.175	27.6112
214.068	46.9904
216.961	48.613
219.853	63.5232
222.746	69.5496
225.639	65.2264
228.531	80.5057
231.424	69.2306
234.317	89.6706
237.209	60.5535
240.102	64.1402
242.995	32.7989
245.888	24.9153
248.78	21.9369
251.673	16.2088
254.566	2.44638
257.458	1.39923
260.351	0.188293
263.244	16.7362
266.137	33.9695
269.029	40.159
271.922	46.1436
274.815	65.2294
277.707	79.884
280.6	81.9155
283.493	84.9622
286.385	49.0101
289.278	47.1559
292.171	29.4825
295.063	19.7055
297.956	36.4121
300.849	20.798
303.742	22.1957
306.634	16.1683
309.527	25.4176
312.42	12.4816
315.312	13.5315
318.205	12.2959
321.098	17.4496
323.99	24.0935
326.883	31.0744
329.776	35.2647
332.669	34.507
335.561	41.1753
338.454	45.5169
341.347	41.8074
344.239	56.8603
347.132	48.989
350.025	50.5013
352.918	59.3109
355.81	55.1201
358.703	46.6741
361.596	48.3703
364.488	22.3246
367.381	12.3286
370.274	13.6112
373.166	2.5304
376.059	4.47064
378.952	11.9718
381.844	13.2516
384.737	8.54416
387.63	3.08881
390.523	1.40595
393.415	1.47849
396.308	0.604706
399.201	17.0198
402.093	30.5384
404.986	30.6609
407.879	43.7504
410.772	51.1552
413.664	73.5255
416.557	70.811
419.45	71.857
422.342	79.7928
425.235	61.8526
428.128	36.7473
431.02	32.1741
433.913	28.8502
436.806	25.4573
439.699	12.9841
442.591	20.6094
445.484	21.5894
448.377	20.7422
451.269	23.9951
454.162	7.7395
457.055	3.70847
459.947	9.72675
462.84	7.85522
465.733	6.99548
468.625	2.22684
471.518	22.2637
474.411	29.982
477.304	16.6371
480.196	44.3842
483.089	41.4618
485.982	52.3393
488.874	53.7407
491.767	77.0777
494.66	88.6301
497.553	69.1026
500.445	92.4553
503.338	74.6592
506.231	66.3013
509.123	54.5917
512.016	50.6877
514.909	44.7723
517.802	23.146
520.694	20.7462
523.587	7.74899
526.48	4.77234
529.372	1.80045
532.265	7.39648
535.158	21.2675
538.05	17.5555
540.943	29.1315
543.836	10.6298
546.729	28.9225
549.621	20.4388
552.514	35.4757
555.407	34.6703
558.299	23.8738
561.192	17.7169
564.085	21.2937
566.977	18.029
569.87	22.9895
572.763	12.1888
575.655	8.754
578.548	13.2012
581.441	8.74191
584.333	4.72418
587.226	11.1914
590.119	3.84644
593.012	14.6809
595.904	4.89639
598.797	10.7972
601.69	15.4093
604.582	11.4725
607.475	8.65161
610.368	15.5226
613.26	11.3682
616.153	19.6387
619.046	4.94815
621.939	15.185
624.831	4.7673
627.724	8.66251
630.617	8.50763
633.509	14.6764
636.402	15.8033
639.295	2.33344
642.188	4.62363
645.08	1.83157
647.973	27.1821
650.866	14.0666
653.758	9.41174
656.651	15.509
659.544	11.0814
662.436	8.29865
665.329	16.8632
668.222	10.3203
671.115	21.2922
674.007	15.1308
676.9	9.90988
679.793	11.1119
682.685	5.49829
685.578	17.3641
688.471	26.3556
691.363	16.7322
694.256	8.22
697.149	20.9452
700.042	2.6058
702.934	13.5726
705.827	8.74368
708.72	16.5668
711.612	16.7735
714.505	7.54956
717.398	2.91461
720.29	4.87656
723.183	12.9059
726.076	16.9387
728.968	16.4948
731.861	3.39905
734.754	17.6694
737.647	5.56717
740.539	11.0632
743.432	9.76996
746.325	10.5854
749.217	6.70664
752.11	6.10165
755.003	29.1152
757.895	20.7907
760.788	19.1944
763.681	16.3876
766.574	3.60654
769.466	19.9541
772.359	6.58334
775.252	3.34274
778.144	0.144257
781.037	1.99234
783.93	10.1799
786.822	10.213
789.715	19.3115
792.608	19.229
795.501	22.2555
798.393	27.1892
801.286	13.378
804.179	34.5326
807.071	32.123
809.964	50.3849
812.857	43.7384
815.75	63.3045
818.642	73.088
821.535	83.0385
824.428	83.6682
827.32	108.208
830.213	119.96
833.106	125.534
835.998	167.487
838.891	220.335
841.784	251.078
844.677	305.726
847.569	321.201
850.462	364.935
853.355	357.636
856.247	337.582
859.14	264.84
862.033	195.521
864.925	143.938
867.818	85.3643
870.711	74.0263
873.604	40.4571
876.496	36.6442
879.389	26.4689
882.282	26.9266
885.174	12.5148
888.067	11.5662
890.96	24.4625
893.852	9.84128
896.745	5.09375
899.638	6.33997
902.53	5.25534
905.423	7.23572
908.316	2.29529
911.209	4.64902
914.101	11.1729
916.994	5.54565
919.887	2.00729
922.779	5.13715
925.672	2.17957
928.565	10.1966
931.457	15.148
934.35	13.364
937.243	4.17459
940.136	4.47641
943.028	7.54117
945.921	3.65051
948.814	3.69681
951.706	2.41904
954.599	6.70331
957.492	10.0423
960.385	15.3367
963.277	2.69177
966.17	11.7505
969.063	15.2164
971.955	9.02924
974.848	10.2958
977.741	15.1116
980.633	6.91724
983.526	19.4026
986.419	11.2469
989.312	22.2648
992.204	3.58081
995.097	22.4959
997.99	8.10269
1000.88	13.7906
1003.77	16.4627
1006.67	10.2147
1009.56	0.279266
1012.45	20.497
1015.35	24.8385
1018.24	11.4134
1021.13	22.2135
1024.02	18.1516
1026.92	29.4084
1029.81	12.9401
1032.7	14.0995
1035.6	17.9968
1038.49	22.6991
1041.38	17.6076
1044.27	29.1426
1047.17	21.6316
1050.06	25.3791
1052.95	10.3776
1055.84	11.9643
1058.74	9.29684
1061.63	15.4011
1064.52	21.9343
1067.41	17.4819
1070.31	15.3499
1073.2	8.14767
1076.09	8.02118
1078.98	11.4339
1081.88	21.7674
1084.77	7.6962
1087.66	10.5014
1090.56	1.27914
1093.45	25.0508
1096.34	3.64941
1099.23	19.0418
1102.13	8.98352
1105.02	14.8391
1107.91	22.0114
1110.81	12.6175
1113.7	7.27893
1116.59	13.527
1119.48	11.722
1122.38	12.7341
1125.27	11.6266
1128.16	22.2592
1131.05	1.85748
1133.95	1.32404
1136.84	16.9275
1139.73	8.45111
1142.62	12.9336
1145.52	29.7893
1148.41	21.292
1151.3	12.6174
1154.19	4.30679
1157.09	3.46256
1159.98	10.9334
1162.87	16.249
1165.77	7.57806
1168.66	3.64551
1171.55	15.7141
1174.44	12.9958
1177.34	19.0042
1180.23	1.73312
1183.12	21.7807
1186.02	10.9308
1188.91	8.6926
1191.8	11.3973
1194.69	18.8559
1197.59	12.2873
1200.48	10.277
1203.37	15.9308
1206.26	14.8236
1209.16	0.963715
1212.05	6.90717
1214.94	10.3048
1217.84	6.70419
1220.73	28.3691
1223.62	17.1149
1226.51	6.87625
1229.41	8.7059
