Measurement: Raman, 532 nm, unoriented, Raman Data Processed
Mineral: Olivenite
Rruff sample: R040181
Ideal chemistry: Cu^2+^_2_As^5+^O_4_(OH)
Locality: Majuba Hill, Pershing County, Nevada, USA
Source: University of Arizona Mineral Museum
Description: Greenish blue prismatic, untwinned. Structure for this sample reported in Li et al (2008).
Measured chemistry: (Cu_0.98_[box]_0.02_)_2_(As_0.90_P_0.10_O_4_)(OH)_0.92_
Raman shift (cm-1)	intensity
127.484	0
130.859	8.24756
134.234	159.762
137.609	632.734
140.984	1285.17
144.358	2241.97
147.733	3640.28
151.108	4820.11
154.483	4169.52
157.858	3129.72
161.233	2083
164.607	1699.36
167.982	1567.71
171.357	1694.08
174.732	2533.26
178.107	3128.68
181.482	3845.02
184.856	3629.42
188.231	1801.29
191.606	878.106
194.981	678.289
198.356	1084.15
201.731	1931.39
205.105	3123.65
208.48	4386.33
211.855	5893.49
215.23	7573.67
218.605	8444.55
221.979	7560.99
225.354	5697.82
228.729	4214.91
232.104	2893.22
235.479	2036.85
238.853	1322.35
242.228	618.256
245.603	88.9185
248.978	17.1382
252.353	33.9994
255.727	5.30004
259.102	37.1943
262.477	267.752
265.852	935.487
269.227	2040.78
272.602	3596.07
275.976	5917.92
279.351	8629.9
282.726	10421.7
286.101	9071.83
289.476	6370.42
292.851	4892.88
296.225	4605.09
299.6	5089.25
302.975	5776.18
306.35	6277.19
309.725	6209.17
313.099	5312.08
316.474	3950.39
319.849	3098.03
323.224	2772.97
326.599	2832.94
329.974	3083.84
333.348	3492.02
336.723	3839.82
340.098	3943.82
343.473	4287.94
346.848	4433.76
350.223	4114.98
353.597	3507.11
356.972	3137.2
360.347	2677.43
363.722	2042.54
367.097	1340.31
370.471	808.26
373.846	481.547
377.221	433.401
380.596	212.928
383.971	80.384
387.346	10.0073
390.72	4.74356
394.095	22.973
397.47	-4.35813
400.845	28.9043
404.219	60.0769
407.594	278.583
410.969	529.028
414.344	884.056
417.719	1192.48
421.094	1271.61
424.469	1149.3
427.843	842.273
431.218	542.866
434.593	362.499
437.968	306.872
441.343	269.27
444.717	259.885
448.092	275.106
451.467	184.465
454.842	70.9468
458.217	9.55444
461.591	44.9131
464.966	45.6255
468.341	99.7859
471.716	260.937
475.091	529.942
478.466	890.294
481.84	1464.95
485.215	2146.6
488.59	3125.7
491.965	4244.36
495.34	5438.62
498.714	6699.18
502.089	7758.53
505.464	8976
508.839	10117.9
512.214	10607.1
515.589	9059.52
518.963	6280
522.338	4161.25
525.713	2873.19
529.088	2090.01
532.463	1623.36
535.837	1187.94
539.212	985.56
542.587	909.312
545.962	990.554
549.337	1012.02
552.712	1106.35
556.086	1177.31
559.461	1007.84
562.836	832.819
566.211	503.943
569.586	297.542
572.96	128.829
576.335	70.4438
579.71	15.2361
583.085	39.8752
586.46	28.0366
589.835	30.5818
593.209	35.0576
596.584	39.1663
599.959	8.61084
603.334	16.2134
606.709	35.1655
610.083	51.311
613.458	49.2727
616.833	96.5623
620.208	137.066
623.583	219.211
626.958	230.313
630.332	297.927
633.707	358.238
637.082	316.735
640.457	325.316
643.832	243.641
647.207	283.895
650.581	276.58
653.956	268.935
657.331	304.368
660.706	321.797
664.081	316.173
667.455	317.487
670.83	293.222
674.205	336.581
677.58	328.033
680.955	340.246
684.33	354.881
687.704	359.109
691.079	375.017
694.454	408.635
697.829	423.665
701.204	420.117
704.578	453.681
707.953	406.217
711.328	354.611
714.703	282.837
718.078	297.355
721.452	249.835
724.827	217.831
728.202	145.565
731.577	89.2805
734.952	63.2805
738.327	23.5898
741.701	8.74756
745.076	43.3313
748.451	38.9866
751.826	93.2927
755.201	78.5527
758.576	103.265
761.95	52.051
765.325	65.3931
768.7	52.8833
772.075	175.5
775.45	411.17
778.824	750.533
782.199	1243.64
785.574	1723.83
788.949	2203.25
792.324	2550.81
795.698	2864.44
799.073	3563.65
802.448	4926.02
805.823	7315.58
809.198	10602.9
812.573	14052.4
815.947	16114.4
819.322	15628.8
822.697	13149.6
826.072	11644.4
829.447	11698.3
832.822	13546.7
836.196	17566.5
839.571	24021.4
842.946	35097.5
846.321	51557.2
849.696	70632.5
853.07	83738.2
856.445	71233.4
859.82	40209
863.195	20535.8
866.57	11620.2
869.944	7249.2
873.319	4849.61
876.694	3451.87
880.069	2532.91
883.444	1955.93
886.819	1603.18
890.193	1336.04
893.568	1094.44
896.943	738.949
900.318	367.6
903.693	112.336
907.067	100.586
910.442	162.149
913.817	190.458
917.192	140.112
920.567	89.1743
923.942	17.1567
927.316	47.8379
930.691	87.5193
934.066	65.49
937.441	116.532
940.816	253.804
944.191	363.842
947.565	555.906
950.94	803.239
954.315	978.067
957.69	1122.96
961.065	960.142
964.439	725.506
967.814	533.487
971.189	310.75
974.564	239.635
977.939	123.335
981.313	30.3411
984.688	44.8367
988.063	20.8623
991.438	0.762207
994.813	16.3901
998.188	16.1179
1001.56	44.5542
1004.94	91.3486
1008.31	113.067
1011.69	183.831
1015.06	265.675
1018.44	282.806
1021.81	388.804
1025.19	409.36
1028.56	442.667
1031.94	443.178
1035.31	425.897
1038.68	333.115
1042.06	219.625
1045.43	157.487
1048.81	124.677
1052.18	64.709
1055.56	42.1963
1058.93	72.1646
1062.31	46.9097
1065.68	59.7446
1069.06	81.731
1072.43	140.322
1075.81	197.667
1079.18	235.815
1082.56	246.43
1085.93	165.404
1089.31	125.363
1092.68	71.5693
1096.06	68.1848
1099.43	40.2908
1102.81	43.1775
1106.18	18.1623
1109.56	44.6714
1112.93	46.154
1116.31	67.7937
1119.68	52.1787
1123.06	67.2881
1126.43	44.9397
1129.81	100.26
1133.18	83.3379
1136.56	81.5256
1139.93	94.573
1143.31	46.052
1146.68	53.2363
1150.05	50.4839
1153.43	18.4734
1156.8	53.9329
1160.18	1.23657
1163.55	22.4265
1166.93	11.0598
1170.3	6.44678
1173.68	34.8069
1177.05	0.675537
1180.43	27.1746
1183.8	26.8435
1187.18	45.0491
1190.55	21.1003
1193.93	47.2219
1197.3	30.2483
1200.68	54.262
1204.05	60.1226
1207.43	80.75
1210.8	44.624
1214.18	65.1921
1217.55	53.5891
1220.93	44.3269
1224.3	20.0376
1227.67	40.8975
1231.05	36.4575
1234.42	35.3286
1237.8	55.1443
1241.17	42.9815
1244.55	6.86548
1247.92	55.1304
1251.3	11.1665
1254.67	15.9226
1258.05	47.7158
1261.42	55.7693
1264.8	61.7647
1268.17	14.0264
1271.55	43.4453
1274.92	71.0496
1278.3	42.0974
1281.67	13.127
1285.05	60.2202
1288.42	12.7207
1291.8	81.1728
1295.17	17.7078
1298.55	28.9319
1301.92	23.7512
1305.3	75.2124
