Measurement: Raman, 785 nm, unoriented, Raman Data Processed
Mineral: Olmiite
Rruff sample: R050144
Ideal chemistry: CaMnSiO_3_(OH)_2_
Locality: N'Chwaning II mine, Kuruman, South Africa
Source: Rock Currier
Description: Tan colored prismatic crystals associated with fibrous bultfonteinite, R050088
Measured chemistry: Ca_1.00_(Mn_0.98_Ca_0.02_)(Si_1.00_O_3_OH)(OH)
Raman shift (cm-1)	intensity
116.007	0
118.899	22.9671
121.792	2.25095
124.685	17.8213
127.578	46.9796
130.47	144.916
133.363	167.883
136.256	66.3926
139.148	16.0701
142.041	84.0002
144.934	160.405
147.826	212.512
150.719	250.173
153.612	241.63
156.505	256.26
159.397	339.248
162.29	432.905
165.183	476.265
168.075	396.693
170.968	369.833
173.861	349.311
176.753	286.106
179.646	268.274
182.539	193.493
185.431	138.245
188.324	177.65
191.217	209.178
194.109	219.755
197.002	296.788
199.895	412.128
202.788	548.753
205.68	592.586
208.573	518.459
211.466	496.028
214.358	503.141
217.251	475.973
220.144	534.155
223.036	687.689
225.929	782.247
228.822	811.464
231.715	757.542
234.607	635.701
237.5	573.47
240.393	485.18
243.285	435.049
246.178	280.628
249.071	137.045
251.964	70.4897
254.856	11.1476
257.749	1.46326
260.642	19.8199
263.534	20.3352
266.427	35.5356
269.32	10.3586
272.212	22.4282
275.105	42.4576
277.998	113.28
280.89	141.548
283.783	193.41
286.676	214.643
289.569	237.247
292.461	249.781
295.354	323.143
298.247	242.346
301.139	150.209
304.032	101.803
306.925	114.561
309.817	158.263
312.71	278.908
315.603	450.601
318.496	742.904
321.388	1067.9
324.281	1513.15
327.174	1999.08
330.066	2519.88
332.959	2818.05
335.852	2543.28
338.745	1994.72
341.637	1449.95
344.53	999.814
347.423	592.58
350.315	333.631
353.208	165.357
356.101	104.435
358.993	18.5059
361.886	10.8099
364.779	26.0923
367.671	27.6475
370.564	20.0369
373.457	56.4827
376.349	64.2158
379.242	125.422
382.135	213.043
385.028	326.131
387.92	547.989
390.813	741.864
393.706	1018.74
396.598	1216.93
399.491	1194.09
402.384	1092.12
405.277	978.408
408.169	933.571
411.062	953.397
413.955	1105.8
416.847	1300.59
419.74	1489.01
422.633	1617.13
425.525	1797.48
428.418	2126.01
431.311	2462.13
434.204	2695.09
437.096	2347.61
439.989	1553.84
442.882	881.162
445.774	464.033
448.667	215.106
451.56	86.8259
454.452	2.89557
457.345	26.0616
460.238	15.9986
463.13	2.09375
466.023	33.2542
468.916	107.57
471.809	210.281
474.701	280.085
477.594	272.286
480.487	264.65
483.379	278.038
486.272	256.19
489.165	309.413
492.058	265.716
494.95	273.834
497.843	327.688
500.736	406.618
503.628	568.253
506.521	774.072
509.414	999.422
512.306	922.839
515.199	705.476
518.092	496.792
520.985	319.348
523.877	215.217
526.77	142.543
529.663	99.3002
532.555	72.6095
535.448	70.5215
538.341	47.5394
541.233	53.812
544.126	46.7836
547.019	32.3628
549.912	2.27307
552.804	1.64377
555.697	17.9519
558.59	3.10828
561.482	5.26358
564.375	3.63843
567.268	35.8899
570.16	1.41183
573.053	7.24571
575.946	6.03686
578.838	3.69305
581.731	18.4734
584.624	20.2916
587.516	11.7545
590.409	23.3338
593.302	12.5863
596.195	27.2537
599.087	26.6307
601.98	24.5055
604.873	22.8385
607.765	29.5021
610.658	21.6998
613.551	26.0003
616.443	15.8974
619.336	0.494247
622.229	2.70914
625.122	8.67313
628.014	2.58691
630.907	21.3833
633.8	17.4837
636.692	4.0822
639.585	0.223099
642.478	11.7679
645.37	17.7618
648.263	32.7987
651.156	46.8824
654.049	49.3703
656.941	84.1758
659.834	73.8208
662.727	89.7857
665.619	90.9759
668.512	96.6467
671.405	97.9955
674.298	73.4129
677.19	76.6062
680.083	39.6094
682.976	63.2394
685.868	40.8988
688.761	25.4438
691.654	32.2874
694.546	35.7247
697.439	23.0451
700.332	59.6291
703.225	66.4621
706.117	84.2024
709.01	86.783
711.903	84.7582
714.795	107.279
717.688	106.878
720.581	113.208
723.473	89.8872
726.366	76.1206
729.259	66.5449
732.152	66.166
735.044	47.6375
737.937	33.7623
740.83	14.574
743.722	5.38464
746.615	16.2163
749.508	26.5224
752.4	35.4139
755.293	35.5795
758.186	43.6473
761.078	2.57199
763.971	21.7975
766.864	76.6787
769.757	146.559
772.649	251.44
775.542	354.324
778.435	473.353
781.327	585.623
784.22	734.862
787.113	921.45
790.005	1131.78
792.898	1322.87
795.791	1497.19
798.683	1674.62
801.576	1761.59
804.469	1765.78
807.362	1774.74
810.254	1691.37
813.147	1417.33
816.04	1196.95
818.932	1027.16
821.825	998.66
824.718	1012.6
827.611	1148.46
830.503	1303.82
833.396	1671.81
836.289	2157.72
839.181	3029.18
842.074	4388.91
844.967	6183.78
847.859	8154.46
850.752	9459.23
853.645	8811.5
856.538	6680.19
859.43	4545.61
862.323	2932.3
865.216	1851.52
868.108	1162.54
871.001	763.534
873.894	487.899
876.786	342.734
879.679	218.726
882.572	144.123
885.465	76.908
888.357	44.8602
891.25	25.3385
894.143	36.8333
897.035	41.2073
899.928	44.5079
902.821	36.2209
905.713	15.1672
908.606	11.6171
911.499	22.1828
914.391	8.94058
917.284	12.2532
920.177	16.5663
923.07	31.8728
925.962	42.5124
928.855	41.6874
931.748	1.17319
934.64	37.29
937.533	107.971
940.426	197.814
943.318	300.173
946.211	440.468
949.104	514.439
951.997	597.01
954.889	503.548
957.782	351.763
960.675	233.233
963.567	199.425
966.46	151.755
969.353	153.75
972.245	110.121
975.138	103.103
978.031	84.8731
980.924	68.1742
983.816	56.9107
986.709	29.7711
989.602	2.59033
992.494	1.57642
995.387	31.6791
998.28	31.3593
1001.17	42.3408
1004.07	30.5548
1006.96	45.8343
1009.85	49.8734
1012.74	73.2589
1015.64	90.7005
1018.53	84.522
1021.42	55.792
1024.31	35.2016
1027.21	25.5505
1030.1	33.6733
1032.99	14.55
1035.88	39.2883
1038.78	29.6966
1041.67	29.144
1044.56	33.3236
1047.46	36.5438
1050.35	20.9892
1053.24	15.8787
1056.13	14.4964
1059.03	10.802
1061.92	23.2604
1064.81	14.2412
1067.7	12.7316
1070.6	14.7941
1073.49	16.0192
1076.38	19.9772
1079.28	1.85059
1082.17	16.8335
1085.06	33.1182
1087.95	30.1991
1090.85	9.83124
1093.74	12.7196
1096.63	8.09315
1099.52	7.71951
1102.42	14.0799
1105.31	1.23949
1108.2	14.4535
1111.1	2.46576
1113.99	12.9474
1116.88	8.46605
1119.77	26.7435
1122.67	21.088
1125.56	4.53342
1128.45	3.69005
1131.34	16.1329
1134.24	8.13992
1137.13	16.6355
1140.02	4.21306
1142.91	25.52
1145.81	21.0682
1148.7	17.3915
1151.59	22.9703
1154.48	33.786
1157.38	13.3074
1160.27	23.8246
1163.16	19.9078
1166.06	23.1988
1168.95	23.3931
1171.84	25.055
1174.73	18.6775
1177.63	28.6672
1180.52	12.7014
1183.41	13.7622
1186.31	16.5718
1189.2	6.11876
1192.09	14.7028
1194.98	15.7994
1197.88	1.52032
1200.77	31.0526
1203.66	25.5777
1206.55	13.5965
1209.45	14.1453
1212.34	15.1182
1215.23	0.20105
1218.12	11.7576
1221.02	21.5507
1223.91	5.9104
1226.8	5.82851
1229.7	20.7505
1232.59	8.519
1235.48	9.72325
1238.37	13.9989
1241.27	2.16583
1244.16	1.6004
