Measurement: Raman, 514 nm, unoriented, Raman Data Processed
Mineral: Olmiite
Rruff sample: R050144
Ideal chemistry: CaMnSiO_3_(OH)_2_
Locality: N'Chwaning II mine, Kuruman, South Africa
Source: Rock Currier
Description: Tan colored prismatic crystals associated with fibrous bultfonteinite, R050088
Measured chemistry: Ca_1.00_(Mn_0.98_Ca_0.02_)(Si_1.00_O_3_OH)(OH)
Raman shift (cm-1)	intensity
52.866	0
57.065	47.002
61.262	52.5
65.458	16.874
69.651	21.507
73.842	263.105
78.031	235.378
82.218	358.894
86.404	705.649
90.587	1076.43
94.768	879.236
98.947	1177.42
103.124	1591.32
107.3	2342.21
111.473	4030.22
115.644	6436.9
119.813	2483.19
123.981	1184.07
128.146	982.478
132.309	728.374
136.47	562.673
140.63	520.49
144.787	742.524
148.942	735.124
153.096	614.502
157.247	705.386
161.396	1127.58
165.544	1111.77
169.689	1215.97
173.833	1293.12
177.974	813.21
182.114	409.226
186.251	325.156
190.387	401.985
194.52	626.679
198.652	1211.21
202.782	1938.57
206.909	2046.71
211.035	1807.63
215.159	1450.28
219.281	1904.99
223.4	2837.88
227.518	3249.14
231.634	2763.82
235.748	2138.07
239.86	1876.31
243.97	1306.94
248.079	556.757
252.185	200.584
256.289	23.283
260.391	67.252
264.492	116.113
268.59	71.375
272.687	9.057
276.781	211.846
280.874	490.329
284.964	673.367
289.053	764.968
293.14	870.152
297.225	796.912
301.308	754.548
305.389	730.981
309.468	627.303
313.545	916.153
317.62	1748.5
321.693	3386.31
325.765	6074.43
329.834	9716.86
333.902	11087.7
337.967	9065.93
342.031	6159.52
346.093	3576.46
350.153	2083.74
354.21	1313.35
358.267	935.255
362.321	805.462
366.373	840.95
370.423	987.708
374.471	1171.73
378.518	1259.05
382.563	1458.67
386.605	2216.48
390.646	3675.08
394.685	5027.98
398.722	5307.68
402.757	4485.24
406.79	3709.28
410.821	3366.32
414.851	3758.74
418.878	4385.47
422.904	5149.24
426.927	7392.91
430.949	10505.9
434.969	11362.9
438.987	7982.36
443.003	4168.73
447.018	2167.81
451.03	1133.52
455.041	621.6
459.049	475.454
463.056	452.64
467.061	697.639
471.064	1240.91
475.065	1529.87
479.064	1214.94
483.062	1044.68
487.057	965.102
491.051	860.994
495.043	858.785
499.032	1181.22
503.02	1962.53
507.007	3419.78
510.991	4064.95
514.973	2859.04
518.954	1713.06
522.933	911.976
526.91	487.799
530.885	271.519
534.858	172.63
538.829	50.183
542.799	61.515
546.766	23.619
550.732	99.357
554.696	134.287
558.658	123.139
562.618	83.816
566.576	40.216
570.533	1.872
574.488	35.797
578.44	94.124
582.391	83.469
586.341	94.7
590.288	129.825
594.233	66.813
598.177	47.612
602.119	54.246
606.059	17.37
609.997	0.339
613.933	41.601
617.868	44.749
621.801	19.158
625.731	13.396
629.66	17.989
633.588	31.931
637.513	41.814
641.437	22.733
645.358	36.397
649.278	24.32
653.196	84.052
657.113	94.612
661.027	137.01
664.94	169.25
668.851	215.336
672.76	130.273
676.667	120.064
680.572	88.713
684.476	585.226
688.378	49.607
692.278	33.168
696.176	1.803
700.072	15.466
703.967	18.706
707.86	39.846
711.751	137.732
715.64	191.724
719.527	247.609
723.413	283.836
727.297	288.25
731.179	224.564
735.059	182.578
738.937	108.76
742.814	101.91
746.689	95.082
750.562	104.281
754.433	120.853
758.303	186.947
762.17	294.339
766.036	565.38
769.901	882.61
773.763	1520.94
777.624	2214.03
781.482	3032.61
785.339	4284.37
789.195	5455.1
793.048	6610.01
796.9	7682.31
800.75	8358.51
804.598	9283.64
808.445	10335.6
812.289	10248.8
816.132	8354.31
819.973	7202.07
823.813	6915.04
827.65	7107.18
831.486	8024.55
835.32	9999.17
839.152	14104
842.983	22648.2
846.812	37904.2
850.639	50052.6
854.464	42996
858.288	28224.6
862.11	16941.3
865.93	10204.5
869.748	6511.3
873.564	4481.7
877.379	3210.61
881.192	2501.91
885.004	1953.52
888.813	1627.39
892.621	1452.49
896.427	1495.83
900.232	1453.41
904.034	1243.22
907.835	1160.28
911.634	1057.58
915.432	1041.14
919.227	776.007
923.021	459.181
926.813	289.66
930.604	271.406
934.393	418.447
938.18	785.885
941.965	1329.91
945.749	2283.83
949.53	3435.01
953.311	3231.63
957.089	2188.54
960.866	1481.17
964.641	997.263
968.414	784.542
972.185	536.588
975.955	421.052
979.723	308.535
983.49	228.98
987.254	107.195
991.017	115.205
994.779	60.637
998.538	128.616
1002.3	135.321
1006.05	210.132
1009.81	222.03
1013.56	526.977
1017.31	936.938
1021.06	299.717
1024.81	193.401
1028.55	143.511
1032.3	102.884
1036.04	144.169
1039.78	145.48
1043.52	139.419
1047.26	153.302
1050.99	147.136
1054.73	72.75
1058.46	106.041
1062.19	118.302
1065.92	120.784
1069.65	106.392
1073.37	50.907
1077.1	90.087
1080.82	47.992
1084.54	36.375
1088.26	15.596
1091.97	35.009
1095.69	37.285
1099.4	44.802
1103.12	51.74
1106.83	51.316
1110.54	38.192
1114.24	4.463
1117.95	22.036
1121.65	144.882
1125.35	101.845
1129.06	35.563
1132.75	22.539
1136.45	11.463
1140.15	13.996
1143.84	37.146
1147.53	35.042
1151.22	5.997
1154.91	25.449
1158.6	44.188
1162.28	60.449
1165.97	21.4
1169.65	77.733
1173.33	47.418
1177.01	71.768
1180.69	68.822
1184.36	64.042
1188.04	96.851
1191.71	96.611
1195.38	101.088
1199.05	123.961
1202.71	91.62
1206.38	83.365
1210.04	114.303
1213.71	115.919
1217.37	151.608
1221.03	129.709
1224.68	134.611
1228.34	133.92
1231.99	172.05
1235.65	169.384
1239.3	150.079
1242.95	134.248
1246.59	158.532
1250.24	188.735
1253.88	163.673
1257.53	123.99
1261.17	123.463
1264.81	145.334
1268.45	169.026
1272.08	145.578
1275.72	169.748
1279.35	133.67
1282.98	163.024
1286.61	136.999
1290.24	151.99
1293.87	167.148
1297.49	151.806
1301.11	122.241
1304.73	134.221
1308.36	151.608
1311.97	103.738
1315.59	161.162
1319.2	86.114
1322.82	99.307
1326.43	123.529
1330.04	169.327
1333.65	106.861
1337.26	118.406
1340.86	147.403
1344.47	52.736
1348.07	94.279
1351.67	78.721
1355.27	13.913
1358.87	53.09
1362.46	14.702
1366.06	18.416
1369.65	21.985
1373.24	32.832
1376.83	10.549
1380.42	2.596
1384	15.75
1387.59	5.555
1391.17	361.422
1394.75	144.753
1398.33	32.564
1401.91	29.001
1405.49	37.35
1409.06	77.482
1412.64	93.285
1416.21	79.413
1419.78	79.192
1423.35	64.452
1426.91	105.547
1430.48	108.434
1434.05	117.078
1437.61	52.98
1441.17	147.033
1444.73	114.782
1448.29	121.655
1451.84	113.22
1455.4	92.017
1458.95	68.221
1462.5	89.715
1466.05	93.522
1469.6	87.837
1473.15	72.295
1476.69	42.57
1480.24	83.097
1483.78	71.182
1487.32	72.322
1490.86	34.323
1494.39	71.92
1497.93	70.912
1501.46	39.78
1505	61.142
1508.53	30.515
1512.06	102.738
1515.59	2.812
1519.11	53.15
1522.64	0
