Measurement: Raman, 532 nm, unoriented, Raman Data Processed
Mineral: Olmiite
Rruff sample: R050177
Ideal chemistry: CaMnSiO_3_(OH)_2_
Locality: N'Chwaning II mine, Kuruman, South Africa
Source: Marcus Origlieri
Description: Gray etched crystals
Measured chemistry: Ca_1.00_(Mn_0.98_Ca_0.02_)(Si_1.00_O_3_OH)(OH)
Raman shift (cm-1)	intensity
114.988	0
118.362	3.22406
121.737	11.169
125.112	47.5048
128.487	123.423
131.862	145.077
135.237	139.572
138.611	200.508
141.986	289.82
145.361	300.823
148.736	345.07
152.111	410.512
155.486	565.613
158.86	720.82
162.235	624.7
165.61	344.836
168.985	304.441
172.36	342.451
175.734	382.807
179.109	265.039
182.484	174.008
185.859	225.738
189.234	279.027
192.608	277.042
195.983	417.024
199.358	522.365
202.733	559.029
206.108	408.617
209.482	470.254
212.857	554.418
216.232	473.68
219.607	506.275
222.982	544.662
226.357	536.362
229.731	375.721
233.106	302.91
236.481	345.578
239.856	430.637
243.231	542.585
246.606	522.499
249.98	240.494
253.355	83.9777
256.73	16.0358
260.105	26.6129
263.479	14.7223
266.854	18.8673
270.229	24.9995
273.604	11.7931
276.979	48.0006
280.354	96.6969
283.728	139.6
287.103	186.374
290.478	139.937
293.853	240.806
297.228	233.623
300.603	90.6951
303.977	7.90796
307.352	8.77295
310.727	57.0796
314.102	180.237
317.477	415.839
320.851	691.469
324.226	989.386
327.601	1271.45
330.976	1493.37
334.351	1364.95
337.725	820.683
341.1	355.628
344.475	128.999
347.85	20.1056
351.225	36.635
354.599	24.6216
357.974	70.8025
361.349	190.438
364.724	326.085
368.099	480.641
371.474	667.335
374.848	619.618
378.223	463.988
381.598	406.836
384.973	466.861
388.348	607.877
391.722	776.57
395.097	848.913
398.472	782.936
401.847	594.848
405.222	513.135
408.596	508.286
411.971	647.783
415.346	810.295
418.721	946.828
422.096	1029.94
425.471	967.551
428.845	1071.21
432.22	1146.83
435.595	965.054
438.97	653.922
442.345	326.432
445.719	112.984
449.094	16.9416
452.469	5.34119
455.844	38.471
459.219	11.6356
462.594	45.1752
465.968	97.6284
469.343	194.994
472.718	313.646
476.093	414.314
479.468	436.77
482.842	446.587
486.217	433.545
489.592	382.517
492.967	373.342
496.342	420.403
499.716	537.186
503.091	702.068
506.466	938.264
509.841	1078.22
513.216	983.622
516.591	752.328
519.965	527.433
523.34	412.041
526.715	303.621
530.09	258.942
533.465	181.62
536.839	149.825
540.214	95.8709
543.589	32.6732
546.964	8.97937
550.339	9.88965
553.713	27.4042
557.088	16.2428
560.463	30.7178
563.838	5.22827
567.213	6.41504
570.588	2.15869
573.962	24.0322
577.337	6.19995
580.712	22.9947
584.087	4.47021
587.462	28.0053
590.837	27.1417
594.211	49.3629
597.586	15.8509
600.961	29.3544
604.336	40.3762
607.711	18.6304
611.085	31.4199
614.46	42.371
617.835	25.2725
621.21	40.9531
624.585	33.2563
627.959	1.05395
631.334	37.8779
634.709	39.2849
638.084	15.9365
641.459	17.2937
644.833	8.41211
648.208	28.3965
651.583	3.58594
654.958	5.49316
658.333	19.4253
661.708	69.7727
665.082	75.0139
668.457	39.7964
671.832	43.9863
675.207	31.478
678.582	21.6724
681.956	7.26172
685.331	34.7246
688.706	49.4622
692.081	12.8057
695.456	104.341
698.831	150.847
702.205	200.928
705.58	259.902
708.955	397.318
712.33	484.238
715.705	572.924
719.079	580.55
722.454	568.231
725.829	477.481
729.204	346.044
732.579	207.313
735.953	120.221
739.328	45.8496
742.703	4.92505
746.078	13.2141
749.453	4.85059
752.827	31.9197
756.202	44.8977
759.577	25.0779
762.952	13.342
766.327	31.1018
769.702	113.648
773.076	250.696
776.451	394.101
779.826	644.787
783.201	877.757
786.576	1045.8
789.951	1174.51
793.325	1115.9
796.7	1186.49
800.075	1514.8
803.45	2297.11
806.824	3199.5
810.199	3869.2
813.574	3621.59
816.949	2486.29
820.324	1622.3
823.699	1320.18
827.073	1319.15
830.448	1581.54
833.823	2172.18
837.198	3350.37
840.573	5108.06
843.947	7314.41
847.322	8976.01
850.697	8872.43
854.072	6459.73
857.447	3956.95
860.822	2287.33
864.196	1286.87
867.571	867.514
870.946	437.428
874.321	211.263
877.696	132.381
881.07	36.0391
884.445	79.8945
887.82	28.0942
891.195	26.9741
894.57	101.705
897.944	163.023
901.319	287.446
904.694	308.093
908.069	347.858
911.444	394.032
914.819	426.747
918.193	379.092
921.568	277.348
924.943	85.6338
928.318	15.2095
931.693	62.1043
935.067	167.445
938.442	403.041
941.817	808.912
945.192	1262.21
948.567	1611.63
951.942	1559.88
955.316	973.816
958.691	487.688
962.066	221.886
965.441	157.944
968.816	74.645
972.19	57.3008
975.565	15.188
978.94	26.2241
982.315	6.02734
985.69	46.7871
989.064	30.4014
992.439	13.4937
995.814	114.423
999.189	100.552
1002.56	134.142
1005.94	146.914
1009.31	104.206
1012.69	96.186
1016.06	129.485
1019.44	110.491
1022.81	110.403
1026.19	77.4253
1029.56	69.0503
1032.94	11.3462
1036.31	79.4712
1039.69	91.3594
1043.06	35.5063
1046.44	3.16602
1049.81	75.1953
1053.19	35.8897
1056.56	35.2891
1059.94	27.5142
1063.31	35.5723
1066.68	20.4839
1070.06	108.264
1073.43	21.8086
1076.81	35.749
1080.18	97.4551
1083.56	61.9688
1086.93	47.9477
1090.31	67.7295
1093.68	21.7886
1097.06	21.1343
1100.43	43.6519
1103.81	17.8569
1107.18	0.383301
1110.56	34.6201
1113.93	21.7822
1117.31	3.81201
1120.68	6.07178
1124.06	2.24365
1127.43	34.8052
1130.81	43.5273
1134.18	69.6397
1137.56	134.152
1140.93	87.1265
1144.31	14.2876
1147.68	67.9507
1151.06	99.8999
1154.43	76.541
1157.81	84.5874
1161.18	44.3623
1164.56	111.997
1167.93	30.4521
1171.3	55.0234
1174.68	8.24902
1178.05	59.9414
1181.43	131.478
1184.8	6.10156
1188.18	104.316
1191.55	126.845
1194.93	142.734
1198.3	87.7734
1201.68	18.0186
1205.05	92.7803
1208.43	91.6152
1211.8	73.376
1215.18	102.343
1218.55	57.4766
1221.93	113.741
1225.3	116.41
1228.68	109.6
1232.05	84.7705
1235.43	69.3682
1238.8	36.7881
1242.18	98.1172
1245.55	59.9922
1248.92	20.0752
1252.3	77.1338
1255.67	18.4004
1259.05	109.796
1262.42	60.1338
1265.8	119.035
1269.17	65.6152
1272.55	114.453
1275.92	94.9844
1279.3	128.383
1282.67	93.7344
1286.05	5.64648
1289.42	66.166
1292.8	80.5117
1296.17	86.3838
1299.55	54.7256
1302.92	39.749
1306.3	102.006
1309.67	51.584
1313.05	1.26465
1316.42	131.553
