Measurement: Raman, 785 nm, unoriented, Raman Data Processed
Mineral: Olmiite
Rruff sample: R050177
Ideal chemistry: CaMnSiO_3_(OH)_2_
Locality: N'Chwaning II mine, Kuruman, South Africa
Source: Marcus Origlieri
Description: Gray etched crystals
Measured chemistry: Ca_1.00_(Mn_0.98_Ca_0.02_)(Si_1.00_O_3_OH)(OH)
Raman shift (cm-1)	intensity
122.274	0
125.167	24.2669
128.06	90.8792
130.952	162.16
133.845	167.621
136.738	45.4144
139.63	8.74109
142.523	120.524
145.416	245.655
148.309	379.142
151.201	354.006
154.094	333.105
156.987	432.779
159.879	623.862
162.772	622.35
165.665	357.022
168.557	240.905
171.45	257.773
174.343	307.88
177.236	388.666
180.128	273.174
183.021	161.048
185.914	168.981
188.806	211.115
191.699	221.059
194.592	253.019
197.484	388.716
200.377	570.301
203.27	559.822
206.162	436.433
209.055	419.654
211.948	555.504
214.841	554.04
217.733	549.516
220.626	628.107
223.519	719.229
226.411	805.329
229.304	675.703
232.197	436.649
235.089	314.77
237.982	281.763
240.875	359.99
243.768	418.005
246.66	453.097
249.553	329.854
252.446	144.916
255.338	25.5466
258.231	29.4474
261.124	39.6574
264.016	36.7225
266.909	18.5666
269.802	3.92755
272.695	39.7575
275.587	63.0156
278.48	94.2656
281.373	122.672
284.265	183.711
287.158	209.045
290.051	244.38
292.943	298.167
295.836	396.464
298.729	370.903
301.622	209.846
304.514	62.0884
307.407	54.58
310.3	107.016
313.192	232.902
316.085	406.147
318.978	639.658
321.87	929.619
324.763	1278.12
327.656	1606.4
330.548	1953.16
333.441	2147.81
336.334	1744.98
339.227	1060.93
342.119	542.725
345.012	250.178
347.905	89.6862
350.797	0.724854
353.69	44.4029
356.583	17.0383
359.476	26.1246
362.368	105.269
365.261	154.097
368.154	265.775
371.046	377.936
373.939	480.127
376.832	430.844
379.724	376.257
382.617	355.034
385.51	420.42
388.402	575.354
391.295	755.106
394.188	972.548
397.081	987.432
399.973	886.995
402.866	688.492
405.759	608.356
408.651	605.088
411.544	729.639
414.437	876.739
417.329	1086.81
420.222	1202.57
423.115	1226.21
426.008	1229.48
428.9	1367.08
431.793	1581.48
434.686	1639.73
437.578	1338.26
440.471	868.973
443.364	484.483
446.257	234.253
449.149	93.3872
452.042	22.678
454.935	33.1003
457.827	22.7307
460.72	24.868
463.613	4.05737
466.505	70.6087
469.398	114.3
472.291	210.774
475.183	305.895
478.076	345.986
480.969	365.12
483.861	388.851
486.754	370.065
489.647	335.604
492.54	360.752
495.432	352.703
498.325	419.849
501.218	501.33
504.11	642.819
507.003	906.82
509.896	1107.15
512.788	1076.37
515.681	796.677
518.574	561.699
521.467	390.528
524.359	326.446
527.252	251.659
530.145	194.922
533.037	151.244
535.93	140.934
538.823	87.7276
541.716	82.7716
544.608	56.2461
547.501	55.2667
550.394	23.8724
553.286	11.3249
556.179	10.0387
559.072	2.90149
561.964	12.7368
564.857	1.57105
567.75	18.8262
570.643	7.36627
573.535	5.66968
576.428	23.2922
579.321	10.3223
582.213	14.8436
585.106	2.81378
587.999	6.08319
590.891	0.796448
593.784	37.0659
596.677	27.5953
599.569	15.0696
602.462	9.77527
605.355	41.0752
608.248	43.6753
611.14	30.9517
614.033	49.0366
616.926	47.3709
619.818	34.3538
622.711	21.1504
625.604	26.4477
628.496	16.5972
631.389	27.3055
634.282	19.4301
637.175	6.41034
640.067	18.9846
642.96	47.693
645.853	18.6783
648.745	9.82001
651.638	15.6956
654.531	14.129
657.423	35.2857
660.316	36.5183
663.209	25.972
666.102	20.5034
668.994	13.7835
671.887	10.4982
674.78	21.6852
677.672	20.546
680.565	29.6946
683.458	1.15814
686.351	18.8538
689.243	16.2144
692.136	5.63428
695.029	57.5219
697.921	61.9679
700.814	119.705
703.707	156.307
706.599	190.809
709.492	262.016
712.385	306.606
715.278	393.124
718.17	419.227
721.063	399.785
723.956	337.776
726.848	302.889
729.741	208.982
732.634	163.819
735.526	117.072
738.419	71.5366
741.312	32.3319
744.204	22.6451
747.097	7.94617
749.99	16.9542
752.883	15.5116
755.775	19.2574
758.668	39.4612
761.561	10.3743
764.453	9.44348
767.346	44.3439
770.239	77.4871
773.131	140.915
776.024	241.887
778.917	349.078
781.809	482.971
784.702	668.688
787.595	736.369
790.488	747.753
793.38	740.895
796.273	705.633
799.166	884.731
802.058	1171.81
804.951	1644.28
807.844	2328.18
810.736	2920.95
813.629	2910.42
816.522	2158.25
819.415	1486.04
822.307	1093.18
825.2	992.036
828.093	1051.62
830.985	1167.07
833.878	1559.04
836.771	2164.51
839.663	3184.48
842.556	4543.05
845.449	6118.81
848.342	7517.79
851.234	7367.51
854.127	5634.34
857.02	3693.74
859.912	2288.32
862.805	1416.29
865.698	902.303
868.591	584.337
871.483	332.254
874.376	227.708
877.269	101.061
880.161	49.3554
883.054	24.8452
885.947	23.9871
888.839	1.32715
891.732	16.1175
894.625	4.8606
897.518	62.1782
900.41	120.151
903.303	156.188
906.196	146.978
909.088	152.544
911.981	165.637
914.874	215.165
917.766	203.351
920.659	148.304
923.552	53.6542
926.444	0.226624
929.337	17.8805
932.23	3.86542
935.123	57.4236
938.015	153.083
940.908	320.154
943.801	462.015
946.693	676.693
949.586	838.095
952.479	807.118
955.371	582.76
958.264	362.336
961.157	210.174
964.05	129.43
966.942	71.7129
969.835	49.9107
972.728	39.8135
975.62	14.064
978.513	18.5419
981.406	12.9296
984.298	5.54828
987.191	6.94714
990.084	0.336853
992.976	16.1046
995.869	9.80408
998.762	14.334
1001.65	40.8326
1004.55	35.2809
1007.44	27.4136
1010.33	46.1542
1013.23	57.8329
1016.12	62.9396
1019.01	52.0132
1021.9	18.5798
1024.8	14.5908
1027.69	34.554
1030.58	44.2412
1033.47	35.1083
1036.37	20.2562
1039.26	31.5791
1042.15	1.64026
1045.05	11.1047
1047.94	11.1613
1050.83	4.42487
1053.72	5.28449
1056.62	24.9561
1059.51	11.755
1062.4	21.5035
1065.29	32.3043
1068.19	32.2826
1071.08	8.76605
1073.97	17.701
1076.87	31.632
1079.76	63.8289
1082.65	30.5976
1085.54	38.364
1088.44	30.6837
1091.33	42.7447
1094.22	10.8035
1097.11	23.0008
1100.01	16.92
1102.9	3.13562
1105.79	8.54956
1108.68	13.6403
1111.58	18.4764
1114.47	6.91364
1117.36	7.12982
1120.26	9.70404
1123.15	30.303
1126.04	41.1128
1128.93	44.8547
1131.83	6.20422
1134.72	10.3352
1137.61	10.9558
1140.5	31.1954
1143.4	13.0187
1146.29	16.8403
1149.18	29.0597
1152.08	22.8165
1154.97	18.0264
1157.86	73.9195
1160.75	10.3231
1163.65	22.5441
1166.54	32.4879
1169.43	32.6388
1172.32	32.9067
1175.22	25.0884
1178.11	29.3814
1181	6.74805
1183.89	25.0926
1186.79	30.8608
1189.68	23.556
1192.57	27.8561
1195.46	34.0877
1198.36	6.57495
1201.25	20.9811
1204.14	26.3925
1207.04	26.3361
1209.93	10.5947
1212.82	20.6815
1215.71	28.8131
1218.61	9.76996
1221.5	22.3224
1224.39	19.119
1227.29	30.3566
1230.18	38.9476
1233.07	19.2436
1235.96	10.8892
1238.86	28.9547
1241.75	0.215393
1244.64	4.21899
