Measurement: Raman, 514 nm, unoriented, Raman Data Processed
Mineral: Olmiite
Rruff sample: R050177
Ideal chemistry: CaMnSiO_3_(OH)_2_
Locality: N'Chwaning II mine, Kuruman, South Africa
Source: Marcus Origlieri
Description: Gray etched crystals
Measured chemistry: Ca_1.00_(Mn_0.98_Ca_0.02_)(Si_1.00_O_3_OH)(OH)
Raman shift (cm-1)	intensity
52.866	0
57.065	57.83
61.262	17.81
65.458	29.991
69.651	194.888
73.842	994.133
78.031	807.099
82.218	2687.59
86.404	4124.14
90.587	3198.2
94.768	1501.81
98.947	2354.15
103.124	3378.43
107.3	3561.19
111.473	4497.3
115.644	7832.88
119.813	4268
123.981	2353.6
128.146	2576.65
132.309	1522.13
136.47	862.953
140.63	854.167
144.787	960.538
148.942	838.39
153.096	1263.92
157.247	2666.98
161.396	3352.74
165.544	1597.25
169.689	806.679
173.833	880.127
177.974	855.595
182.114	364.902
186.251	369.379
190.387	462.801
194.52	1030.15
198.652	2248.39
202.782	2754.49
206.909	2385.42
211.035	2351.12
215.159	1736.57
219.281	1205.82
223.4	1171.29
227.518	1004.76
231.634	600.394
235.748	787.155
239.86	2153.17
243.97	3852.95
248.079	3095.6
252.185	1085.26
256.289	53.863
260.391	211.65
264.492	153.457
268.59	0.558
272.687	28.095
276.781	28.476
280.874	258.574
284.964	390.438
289.053	398.058
293.14	699.411
297.225	955.401
301.308	623.008
305.389	4.191
309.468	3.998
313.545	316.41
317.62	1001.34
321.693	2076.66
325.765	3347.03
329.834	4587.8
333.902	4872.01
337.967	3331.57
342.031	1852.46
346.093	896.62
350.153	502.019
354.21	527.656
358.267	895.511
362.321	2128.57
366.373	3340.81
370.423	5765.22
374.471	6446.77
378.518	4935.47
382.563	3279.3
386.605	2921.4
390.646	3866.76
394.685	4888.36
398.722	4612.2
402.757	3296.22
406.79	2418.97
410.821	2353.32
414.851	2860.37
418.878	3378.7
422.904	2985.45
426.927	2636.8
430.949	2841.35
434.969	2931.84
438.987	2103.56
443.003	1099.14
447.018	509.607
451.03	228.091
455.041	129.976
459.049	173.085
463.056	307.338
467.061	665.319
471.064	1373.55
475.065	2044.47
479.064	2380.65
483.062	2734.55
487.057	2603.04
491.051	2104.72
495.043	1838.95
499.032	1944.25
503.02	2868.84
507.007	4761.13
510.991	5938.42
514.973	5339.74
518.954	3783.05
522.933	3092.03
526.91	2857.66
530.885	2324.94
534.858	1518.87
538.829	988.434
542.799	663.639
546.766	356.476
550.732	258.938
554.696	108.021
558.658	49.719
562.618	28.404
566.576	13.636
570.533	32.695
574.488	22.158
578.44	51.001
582.391	30.865
586.341	13.29
590.288	10.61
594.233	12.788
598.177	36.798
602.119	68.237
606.059	69.623
609.997	52.981
613.933	25.244
617.868	59.286
621.801	11.139
625.731	50.729
629.66	96.173
633.588	30.41
637.513	67.263
641.437	62.743
645.358	24.844
649.278	25.506
653.196	0.34
657.113	45.799
661.027	57.929
664.94	120.778
668.851	173.358
672.76	190.68
676.667	177.753
680.572	146.59
684.476	105.205
688.378	53.61
692.278	153.818
696.176	217.841
700.072	401.694
703.967	654.389
707.86	1157.94
711.751	1790.36
715.64	2701.6
719.527	3433.89
723.413	4088.66
727.297	3619.6
731.179	2210.46
735.059	1225.16
738.937	677.747
742.814	421.187
746.689	212.312
750.562	139.017
754.433	124.922
758.303	143.199
762.17	206.661
766.036	406.092
769.901	767.996
773.763	1332.87
777.624	2210.82
781.482	3625.6
785.339	5537.22
789.195	7106.83
793.048	7092.89
796.9	8146.99
800.75	9114.76
804.598	11093.1
808.445	17966.4
812.289	22750.4
816.132	16661.3
819.973	10257.8
823.813	7510.65
827.65	6665.93
831.486	7035.69
835.32	8794.01
839.152	13114.9
842.983	22445.3
846.812	38032.3
850.639	46007.9
854.464	34146.9
858.288	20445.6
862.11	12075.7
865.93	7376.45
869.748	4804.75
873.564	3255.66
877.379	2343.2
881.192	1807.33
885.004	1436.07
888.813	1399.44
892.621	1537.58
896.427	2160.45
900.232	3222.03
904.034	3573.33
907.835	3426.36
911.634	3765.19
915.432	4946.81
919.227	4914.25
923.021	3083.45
926.813	1564.36
930.604	1009.97
934.393	1285.5
938.18	2221
941.965	3969.61
945.749	7487.89
949.53	12358
953.311	12657
957.089	7635.26
960.866	4012.49
964.641	2330.08
968.414	1533.59
972.185	1049.1
975.955	806.812
979.723	601.13
983.49	495.167
987.254	494.864
991.017	528.012
994.779	703.797
998.538	868.954
1002.3	896.37
1006.05	790.935
1009.81	591.26
1013.56	533.364
1017.31	461.883
1021.06	333.37
1024.81	284.636
1028.55	292
1032.3	221.169
1036.04	249.708
1039.78	220.836
1043.52	218.691
1047.26	145.867
1050.99	152.599
1054.73	41.476
1058.46	68.394
1062.19	124.051
1065.92	117.651
1069.65	107.254
1073.37	41.853
1077.1	71.909
1080.82	72.499
1084.54	22.152
1088.26	13.707
1091.97	47.237
1095.69	22.834
1099.4	70.144
1103.12	61.874
1106.83	100.314
1110.54	84.729
1114.24	58.852
1117.95	22.159
1121.65	515.932
1125.35	179.218
1129.06	38.541
1132.75	20.106
1136.45	21.885
1140.15	3.347
1143.84	19.96
1147.53	7.48
1151.22	6.793
1154.91	8.496
1158.6	22.922
1162.28	35.669
1165.97	20.949
1169.65	34.666
1173.33	132.356
1177.01	501.126
1180.69	401.657
1184.36	91.376
1188.04	108.502
1191.71	108.957
1195.38	82.751
1199.05	108.933
1202.71	131.763
1206.38	152.905
1210.04	113.178
1213.71	228.655
1217.37	147.497
1221.03	234.739
1224.68	158.232
1228.34	199.321
1231.99	249.629
1235.65	259.308
1239.3	252.355
1242.95	196.258
1246.59	237.29
1250.24	232.113
1253.88	265.345
1257.53	244.329
1261.17	180.618
1264.81	209.954
1268.45	193.865
1272.08	213.619
1275.72	244.048
1279.35	252.734
1282.98	196.944
1286.61	177.131
1290.24	177.358
1293.87	203.46
1297.49	184.499
1301.11	193.055
1304.73	208.874
1308.36	200.563
1311.97	152.318
1315.59	226.639
1319.2	186.522
1322.82	249.37
1326.43	359.728
1330.04	478.031
1333.65	471.138
1337.26	465.506
1340.86	346.455
1344.47	271.802
1348.07	120.161
1351.67	118.639
1355.27	143.209
1358.87	161.16
1362.46	100.096
1366.06	79.753
1369.65	21.906
1373.24	59.5
1376.83	24.03
1380.42	60.971
1384	23.781
1387.59	30.545
1391.17	46.848
1394.75	117.786
1398.33	10.796
1401.91	110.875
1405.49	62.044
1409.06	175
1412.64	138.498
1416.21	198.487
1419.78	238.682
1423.35	268.296
1426.91	231.989
1430.48	193.046
1434.05	178.868
1437.61	207.28
1441.17	173.049
1444.73	151.422
1448.29	151.13
1451.84	119.421
1455.4	167.496
1458.95	105.518
1462.5	49.067
1466.05	18.364
1469.6	72.591
1473.15	8.719
1476.69	49.717
1480.24	1.403
1483.78	94.226
1487.32	61.221
1490.86	19.029
1494.39	128.346
1497.93	44.463
1501.46	65.988
1505	10.346
1508.53	122.104
1512.06	51.021
1515.59	17.883
1519.11	13.397
1522.64	82.898
