Measurement: Raman, 532 nm, unoriented, Raman Data Processed
Mineral: Olmiite
Rruff sample: R050144
Ideal chemistry: CaMnSiO_3_(OH)_2_
Locality: N'Chwaning II mine, Kuruman, South Africa
Source: Rock Currier
Description: Tan colored prismatic crystals associated with fibrous bultfonteinite, R050088
Measured chemistry: Ca_1.00_(Mn_0.98_Ca_0.02_)(Si_1.00_O_3_OH)(OH)
Raman shift (cm-1)	intensity
114.988	0
118.362	0.059708
121.737	6.09979
125.112	21.4674
128.487	78.1816
131.862	153.912
135.237	104.701
138.611	46.1059
141.986	97.8473
145.361	140.92
148.736	181.247
152.111	270.6
155.486	409.87
158.86	574.514
162.235	640.926
165.61	547.186
168.985	372.597
172.36	363.905
175.734	294.213
179.109	277.201
182.484	145.003
185.859	146.459
189.234	240.598
192.608	276.502
195.983	417.389
199.358	634.742
202.733	812.223
206.108	715.884
209.482	659.685
212.857	660.58
216.232	536.764
219.607	606.913
222.982	707.799
226.357	827.431
229.731	858.749
233.106	865.006
236.481	922.371
239.856	1031.88
243.231	1004.34
246.606	675.693
249.98	306.024
253.355	124.465
256.73	30.9136
260.105	38.8132
263.479	37.7004
266.854	32.5737
270.229	0.628906
273.604	48.2548
276.979	69.88
280.354	98.5082
283.728	145.141
287.103	166.47
290.478	210.176
293.853	274.112
297.228	244.181
300.603	53.0765
303.977	26.4449
307.352	10.5609
310.727	101.941
314.102	307.911
317.477	566.478
320.851	1003.25
324.226	1483.45
327.601	2080.89
330.976	2606.32
334.351	2595.94
337.725	1964.64
341.1	1350.38
344.475	807.904
347.85	378.543
351.225	88.369
354.599	31.0243
357.974	12.001
361.349	10.9251
364.724	110.606
368.099	258.759
371.474	447.912
374.848	628.653
378.223	570.029
381.598	451.774
384.973	494.118
388.348	711.578
391.722	1063
395.097	1385.38
398.472	1596.28
401.847	1433.92
405.222	1299.52
408.596	1216.56
411.971	1376.21
415.346	1612.77
418.721	1827.11
422.096	1777.59
425.471	1781.29
428.845	2072.99
432.22	2339.3
435.595	2205.83
438.97	1470.78
442.345	721.678
445.719	315.344
449.094	69.432
452.469	31.1384
455.844	77.5325
459.219	30.3805
462.594	51.3743
465.968	206.193
469.343	393.727
472.718	657.666
476.093	768.509
479.468	821.572
482.842	911.342
486.217	872.28
489.592	798.436
492.967	725.629
496.342	749.573
499.716	883.298
503.091	1244.02
506.466	1726.06
509.841	2108.35
513.216	1919.38
516.591	1458.84
519.965	1092.84
523.34	867.272
526.715	698.547
530.09	547.321
533.465	369.162
536.839	268.607
540.214	210.552
543.589	146.448
546.964	88.3107
550.339	40.3265
553.713	3.92871
557.088	4.30957
560.463	0.840637
563.838	16.7315
567.213	1.16797
570.588	6.49658
573.962	5.67908
577.337	10.6578
580.712	5.68121
584.087	9.9364
587.462	27.3782
590.837	13.006
594.211	14.8086
597.586	20.6315
600.961	21.833
604.336	16.4256
607.711	12.2819
611.085	20.3146
614.46	9.01227
617.835	18.7003
621.21	4.69629
624.585	2.7193
627.959	19.4799
631.334	8.31647
634.709	14.3629
638.084	22.7325
641.459	27.0281
644.833	58.2983
648.208	91.0671
651.583	94.0145
654.958	167.329
658.333	232.682
661.708	295.473
665.082	327.715
668.457	350.338
671.832	338.729
675.207	322.386
678.582	281.947
681.956	190.638
685.331	137.869
688.706	76.2854
692.081	61.6239
695.456	99.9105
698.831	141.722
702.205	203.119
705.58	222.722
708.955	279.012
712.33	358.796
715.705	415.446
719.079	447.859
722.454	458.087
725.829	425.874
729.204	385.224
732.579	349.238
735.953	246.3
739.328	179.206
742.703	100.522
746.078	21.7908
749.453	37.6631
752.827	81.2764
756.202	84.6266
759.577	82.0209
762.952	11.2771
766.327	142.074
769.702	346.197
773.076	647.11
776.451	975.153
779.826	1308.46
783.201	1671.22
786.576	2124.95
789.951	2710.53
793.325	3318.5
796.7	3798.58
800.075	4115.02
803.45	3993.01
806.824	3928.99
810.199	3494.31
813.574	2696.23
816.949	2022.41
820.324	1678.07
823.699	1591.77
827.073	1753.21
830.448	2093.22
833.823	2744.98
837.198	4114.03
840.573	6505.14
843.947	10145.3
847.322	14684.2
850.697	17655.9
854.072	16035.8
857.447	11246.3
860.822	6845
864.196	3979.65
867.571	2267.26
870.946	1258.08
874.321	707.84
877.696	396.114
881.07	179.707
884.445	32.4775
887.82	36.6401
891.195	64.5127
894.57	181.56
897.944	357.106
901.319	311.816
904.694	296.006
908.069	277.332
911.444	377.648
914.819	403.126
918.193	333.441
921.568	116.29
924.943	90.6604
928.318	156.435
931.693	84.0801
935.067	84.0298
938.442	389.64
941.817	820.085
945.192	1409.41
948.567	2015.39
951.942	2171.17
955.316	1756.64
958.691	1218.67
962.066	786.708
965.441	564.646
968.816	431.779
972.19	299.748
975.565	258.328
978.94	193.158
982.315	148.386
985.69	83.8669
989.064	6.12573
992.439	4.14844
995.814	12.5532
999.189	82.6619
1002.56	127.743
1005.94	146.118
1009.31	207.612
1012.69	162.289
1016.06	213.661
1019.44	185.599
1022.81	84.6328
1026.19	49.0369
1029.56	59.0808
1032.94	88.1604
1036.31	74.8303
1039.69	42.9871
1043.06	28.0349
1046.44	64.2222
1049.81	24.0566
1053.19	17.4075
1056.56	28.9253
1059.94	7.98755
1063.31	33.1768
1066.68	42.7671
1070.06	93.8525
1073.43	26.8306
1076.81	17.4145
1080.18	43.1499
1083.56	52.0859
1086.93	30.6394
1090.31	30.196
1093.68	11.3508
1097.06	22.2598
1100.43	14.0405
1103.81	9.82666
1107.18	12.2996
1110.56	21.2361
1113.93	17.4031
1117.31	16.3911
1120.68	31.5549
1124.06	15.2639
1127.43	24.4255
1130.81	66.7434
1134.18	43.6355
1137.56	46.7219
1140.93	68.8638
1144.31	37.2566
1147.68	46.6538
1151.06	46.563
1154.43	38.6855
1157.81	24.6011
1161.18	113.273
1164.56	72.2012
1167.93	15.5557
1171.3	70.5459
1174.68	41.918
1178.05	15.9409
1181.43	88.0254
1184.8	36.7583
1188.18	74.9356
1191.55	72.1802
1194.93	5.11426
1198.3	9.68896
1201.68	73.3272
1205.05	53.1567
1208.43	72.8711
1211.8	19.8418
1215.18	6.58789
1218.55	33.2754
1221.93	28.3667
1225.3	53.5478
1228.68	10.5063
1232.05	90.314
1235.43	24.437
1238.8	71.0918
1242.18	54.3374
1245.55	68.5928
1248.92	27.9331
1252.3	50.7554
1255.67	50.5312
1259.05	91.0635
1262.42	50.4321
1265.8	20.9668
1269.17	67.3662
1272.55	114.001
1275.92	84.604
1279.3	100.163
1282.67	48.2075
1286.05	77.0767
1289.42	51.6265
1292.8	61.7105
1296.17	57.9692
1299.55	34.1773
1302.92	54.8193
1306.3	35.2773
1309.67	59.0869
1313.05	31.1489
