Measurement: Raman, 532 nm, unoriented, Raman Data Processed
Mineral: Olsacherite
Rruff sample: R150099
Ideal chemistry: Pb_2_(Se^6+^O_4_)(SO_4_)
Locality: El Dragón mine, Antonio Quijarro Province, Potosí Department, Bolivia
Source: Thomas A. Loomis
Description: Colorless sharp acicular crystals, associated with blue chalcomenite
Raman shift (cm-1)	intensity
89.7832	0
93.158	129.634
96.5328	35.5776
99.9077	21.7661
103.282	113.45
106.657	356.336
110.032	737.535
113.407	1031.12
116.782	1303.74
120.157	1396.25
123.531	1380.87
126.906	1315.76
130.281	1162.97
133.656	990.051
137.031	804.057
140.405	670.616
143.78	495.19
147.155	342.273
150.53	223.405
153.905	123.383
157.28	53.3679
160.654	4.67261
164.029	5.72021
167.404	8.38721
170.779	23.6016
174.154	74.2256
177.528	148.314
180.903	221.141
184.278	335.288
187.653	455.732
191.028	585.203
194.403	693.894
197.777	824.177
201.152	932.237
204.527	1019.69
207.902	1073.48
211.277	1099.34
214.651	1097.9
218.026	1062.91
221.401	985.587
224.776	892.807
228.151	797.249
231.525	694.696
234.9	602.975
238.275	527.998
241.65	443.913
245.025	358.261
248.4	281.532
251.774	206.619
255.149	141.495
258.524	87.7611
261.899	49.1366
265.274	22.7299
268.649	8.49109
272.023	3.30212
275.398	9.07373
278.773	8.58289
282.148	16.9613
285.523	13.8417
288.897	15.2263
292.272	15.5862
295.647	10.288
299.022	0.071533
302.397	15.0436
305.772	51.5867
309.146	104.495
312.521	170.784
315.896	268.692
319.271	389.958
322.646	546.359
326.02	706.226
329.395	847.464
332.77	985.429
336.145	1202.68
339.52	1508.83
342.894	1851.89
346.269	2221.47
349.644	2583.64
353.019	2951.32
356.394	3262.07
359.769	3483.56
363.143	3575.28
366.518	3507.33
369.893	3269.75
373.268	2927.8
376.643	2526.65
380.017	2131.21
383.392	1751.3
386.767	1440.88
390.142	1170.85
393.517	951.644
396.892	781.606
400.266	611.831
403.641	454.653
407.016	302.541
410.391	154.379
413.766	50.2583
417.14	17.0658
420.515	25.9537
423.89	17.3554
427.265	133.94
430.64	343.843
434.014	560.039
437.389	665.582
440.764	697.446
444.139	729.534
447.514	743.774
450.889	655.986
454.263	515.629
457.638	371.065
461.013	258.86
464.388	193.719
467.763	141.844
471.137	115.009
474.512	97.1321
477.887	83.0422
481.262	64.3182
484.637	55.0309
488.012	26.7585
491.386	1.6012
494.761	15.7878
498.136	21.5272
501.511	19.0271
504.886	11.9513
508.26	1.922
511.635	11.3423
515.01	23.8954
518.385	37.9827
521.76	52.0686
525.135	66.5553
528.509	79.6015
531.884	95.0086
535.259	111.68
538.634	124.32
542.009	142.975
545.384	155.883
548.758	171.188
552.133	183.083
555.508	186.707
558.883	189.427
562.258	187.613
565.632	186.578
569.007	186.589
572.382	193.825
575.757	204.281
579.132	231.192
582.506	272.99
585.881	336.731
589.256	425.581
592.631	536.083
596.006	678.486
599.381	803.13
602.755	812.319
606.13	721.581
609.505	569.546
612.88	443.393
616.255	378.956
619.63	347.069
623.004	298.541
626.379	225.541
629.754	147.954
633.129	84.886
636.504	37.1163
639.878	8.86658
643.253	10.806
646.628	23.5624
650.003	27.2599
653.378	21.3663
656.752	6.14551
660.127	17.9337
663.502	66.9293
666.877	125.245
670.252	197.266
673.626	276.252
677.001	356.19
680.376	448.048
683.751	532.29
687.126	600.043
690.501	650.859
693.875	682.289
697.25	700.087
700.625	693.02
704	682.577
707.375	668.478
710.75	634.331
714.124	587.314
717.499	542.5
720.874	463.187
724.249	371.83
727.624	277.542
730.998	180.441
734.373	103.159
737.748	45.6589
741.123	9.34497
744.498	27.05
747.872	24.7644
751.247	11.6226
754.622	54.7126
757.997	124.404
761.372	246.924
764.747	453.466
768.121	786.77
771.496	1345.23
774.871	2255.02
778.246	3750.56
781.621	6078.07
784.995	9458.29
788.37	13784.9
791.745	18654.8
795.12	22943.1
798.495	25440.2
801.87	25331.4
805.244	22810.6
808.619	18858.8
811.994	14578.4
815.369	11061.3
818.744	8637.28
822.119	6987.9
825.493	5632.74
828.868	4376.66
832.243	3307.97
835.618	2383.72
838.993	1582.38
842.367	980.379
845.742	562.126
849.117	295.132
852.492	119.221
855.867	25.7568
859.241	12.4683
862.616	9.94702
865.991	14.4665
869.366	3.80335
872.741	8.9884
876.115	15.4652
879.49	18.9087
882.865	12.8609
886.24	4.81714
889.615	12.1533
892.99	31.1818
896.364	39.1896
899.739	54.72
903.114	59.8118
906.489	71.2576
909.864	86.6852
913.239	93.3725
916.613	110.793
919.988	128.281
923.363	146.372
926.738	167.015
930.113	192.351
933.487	223.502
936.862	265.343
940.237	331.356
943.612	442.593
946.987	645.302
950.361	991.225
953.736	1558.14
957.111	2414.29
960.486	3599.96
963.861	4987.17
967.236	6198.45
970.61	6892.08
973.985	6793.08
977.36	5622.13
980.735	3724.05
984.11	2023.63
987.485	1045.94
990.859	579.115
994.234	354.638
997.609	228.529
1000.98	145.334
1004.36	88.2689
1007.73	51.2794
1011.11	26.2836
1014.48	4.48853
1017.86	5.77515
1021.23	6.96387
1024.61	9.42114
1027.98	3.30371
1031.36	2.86877
1034.73	2.81036
1038.11	7.57947
1041.48	10.554
1044.86	8.22687
1048.23	9.05182
1051.61	10.2599
1054.98	10.6521
1058.36	12.7464
1061.73	12.0922
1065.11	22.8823
1068.48	36.148
1071.86	42.5989
1075.23	53.2641
1078.6	66.8799
1081.98	74.506
1085.35	88.1833
1088.73	97.2429
1092.1	101.356
1095.48	105.158
1098.85	106.463
1102.23	107.511
1105.6	108.998
1108.98	111.863
1112.35	110.833
1115.73	111.91
1119.1	111.424
1122.48	107.461
1125.85	108.219
1129.23	109.431
1132.6	112.289
1135.98	113.628
1139.35	111.875
1142.73	108.968
1146.1	101.243
1149.48	94.8015
1152.85	87.2377
1156.22	75.8063
1159.6	66.2446
1162.97	47.1408
1166.35	37.9993
1169.72	26.5073
1173.1	15.1115
1176.47	6.93268
1179.85	0.599762
1183.22	4.53348
1186.6	4.56924
1189.97	5.10657
1193.35	1.12834
1196.72	5.67014
1200.1	11.7504
1203.47	16.087
1206.85	16.4999
1210.22	15.0287
1213.6	14.3508
1216.97	11.8176
1220.35	8.72311
1223.72	9.82278
1227.1	21.0629
1230.47	11.4943
1233.85	15.2188
1237.22	27.5682
1240.6	23.4142
1243.97	26.7725
1247.35	19.958
1250.72	18.8596
1254.1	17.793
1257.47	18.5202
1260.85	14.5504
1264.22	9.66943
1267.59	5.58192
1270.97	5.14085
1274.34	6.02757
1277.72	5.22096
1281.09	5.06023
1284.47	7.80169
1287.84	4.4985
1291.22	2.95191
1294.59	0.173042
1297.97	0.059631
1301.34	0.370285
