Measurement: Raman, 780 nm, unoriented, Raman Data Processed
Mineral: Olsacherite
Rruff sample: R150099
Ideal chemistry: Pb_2_(Se^6+^O_4_)(SO_4_)
Locality: El Dragón mine, Antonio Quijarro Province, Potosí Department, Bolivia
Source: Thomas A. Loomis
Description: Colorless sharp acicular crystals, associated with blue chalcomenite
Raman shift (cm-1)	intensity
93.9705	0
97.3453	15.9873
100.72	1.26978
104.095	17.083
107.47	68.9697
110.845	109.901
114.219	151.106
117.594	180.033
120.969	189.067
124.344	213.963
127.719	203.27
131.094	193.372
134.468	145.195
137.843	111.69
141.218	84.5362
144.593	46.2638
147.968	18.0162
151.342	5.46118
154.717	8.17786
158.092	1.40637
161.467	7.81043
164.842	22.5656
168.216	38.9136
171.591	64.6986
174.966	86.5263
178.341	119.775
181.716	155.201
185.09	186.051
188.465	218.879
191.84	247.533
195.215	277.586
198.59	302.278
201.965	321.158
205.339	329.701
208.714	328.84
212.089	316.625
215.464	295.759
218.839	279.093
222.214	251.611
225.588	219.807
228.963	195.124
232.338	170.49
235.713	148.055
239.088	124.024
242.462	105.331
245.837	87.4608
249.212	70.1608
252.587	52.5294
255.962	38.1407
259.336	28.9429
262.711	22.5225
266.086	9.20352
269.461	5.21518
272.836	0.699249
276.211	3.23917
279.585	1.54739
282.96	3.95462
286.335	5.1257
289.71	5.23433
293.085	3.33531
296.459	0.364456
299.834	2.77403
303.209	9.42508
306.584	16.1913
309.959	26.5593
313.334	41.1345
316.708	67.8784
320.083	97.4405
323.458	134.566
326.833	172.624
330.207	209.758
333.582	252.676
336.957	302.103
340.332	371.911
343.707	450.137
347.082	528.862
350.456	607.889
353.831	692.587
357.206	766.937
360.581	815.451
363.956	839.021
367.33	820.58
370.705	768.529
374.08	684.952
377.455	585.677
380.83	490.835
384.205	402.265
387.579	324.771
390.954	261.376
394.329	205.699
397.704	165.176
401.079	123.675
404.453	87.8137
407.828	56.06
411.203	26.6183
414.578	7.09347
417.953	3.65738
421.327	3.23685
424.702	6.64072
428.077	36.4606
431.452	81.0293
434.827	125.004
438.202	149.884
441.576	151.599
444.951	156.784
448.326	146.488
451.701	129.749
455.076	96.7866
458.45	65.9792
461.825	45.0285
465.2	30.5432
468.575	18.8558
471.95	13.1645
475.325	7.3345
478.699	7.06947
482.074	1.53177
485.449	0.365295
488.824	2.38535
492.199	3.5013
495.573	4.25937
498.948	3.35237
502.323	0.193573
505.698	1.6633
509.073	4.76537
512.447	6.02328
515.822	9.14856
519.197	13.2326
522.572	17.3491
525.947	19.0686
529.322	20.1417
532.696	23.7956
536.071	25.2591
539.446	28.16
542.821	30.6372
546.196	32.35
549.57	32.7927
552.945	33.3452
556.32	30.7432
559.695	30.5234
563.07	30.3242
566.444	29.443
569.819	28.2316
573.194	29.165
576.569	29.9169
579.944	32.5574
583.319	38.9854
586.693	45.4042
590.068	56.9224
593.443	69.9489
596.818	89.6522
600.193	106.064
603.567	111.047
606.942	97.3307
610.317	76.7752
613.692	57.5568
617.067	48.5859
620.442	44.0942
623.816	36.405
627.191	26.9618
630.566	13.2248
633.941	6.79005
637.316	2.1486
640.69	0.340714
644.065	2.42534
647.44	2.64423
650.815	3.46483
654.19	0.928329
657.564	0.195648
660.939	7.94252
664.314	12.2698
667.689	18.9445
671.064	27.3851
674.439	37.381
677.813	44.0159
681.188	52.8044
684.563	64.8735
687.938	72.6392
691.313	76.2563
694.688	81.7117
698.062	83.0557
701.437	82.8851
704.812	79.5763
708.187	80.4778
711.562	74.2893
714.936	69.2917
718.311	58.5179
721.686	51.7748
725.061	38.2988
728.436	28.5303
731.81	17.1981
735.185	8.95017
738.56	5.26898
741.935	0.772614
745.31	4.70792
748.684	3.0694
752.059	0.145874
755.434	7.41492
758.809	18.3918
762.184	36.4572
765.559	62.7041
768.933	105.501
772.308	172.711
775.683	279.321
779.058	449.746
782.433	688.211
785.808	1032.65
789.182	1446.97
792.557	1892.86
795.932	2266.65
799.307	2457.38
802.682	2403.2
806.056	2153.53
809.431	1774.82
812.806	1395.11
816.181	1082.43
819.556	862.601
822.93	704.066
826.305	569.253
829.68	444.533
833.055	329.336
836.43	236.581
839.804	155.417
843.179	94.5167
846.554	55.2553
849.929	28.2646
853.304	11.6813
856.679	3.69411
860.053	3.52299
863.428	1.76588
866.803	1.86945
870.178	1.43103
873.553	1.43211
876.927	1.53982
880.302	1.27866
883.677	1.77115
887.052	0.67778
890.427	2.61163
893.802	3.77907
897.176	4.97283
900.551	6.43076
903.926	5.22614
907.301	5.89651
910.676	6.94422
914.05	9.23383
917.425	11.0002
920.8	11.7771
924.175	13.4918
927.55	17.4119
930.924	17.98
934.299	24.4492
937.674	28.7361
941.049	41.2552
944.424	57.6617
947.799	83.2415
951.173	127.212
954.548	195.02
957.923	293.406
961.298	422.952
964.673	558.952
968.047	668.675
971.422	719.762
974.797	676.418
978.172	531.137
981.547	336.144
984.922	186.133
988.296	104.071
991.671	63.1905
995.046	40.4014
998.421	27.4579
1001.8	19.2041
1005.17	11.5604
1008.54	7.68735
1011.92	7.16431
1015.29	2.10511
1018.67	0.288795
1022.04	0.014084
1025.42	1.74532
1028.79	0.767578
1032.17	0.654778
1035.54	0.941765
1038.92	1.89819
1042.29	0.401833
1045.67	1.05981
1049.04	1.04485
1052.42	0.826004
1055.79	1.33605
1059.17	0.004776
1062.54	0.204552
1065.92	1.21471
1069.29	2.88627
1072.67	1.91151
1076.04	4.50321
1079.42	5.21663
1082.79	6.12673
1086.17	7.98641
1089.54	6.56472
1092.92	7.75138
1096.29	9.16437
1099.66	9.97121
1103.04	9.40459
1106.41	9.41795
1109.79	10.1174
1113.16	8.81706
1116.54	10.2507
1119.91	10.5479
1123.29	11.3541
1126.66	9.89542
1130.04	11.1976
1133.41	10.0826
1136.79	12.0392
1140.16	11.6422
1143.54	10.6087
1146.91	11.1869
1150.29	10.7871
1153.66	9.8626
1157.04	8.61075
1160.41	8.09434
1163.79	6.76629
1167.16	3.9231
1170.54	3.99963
1173.91	3.24947
1177.29	1.30539
1180.66	0.507683
1184.04	1.28957
1187.41	0.741364
1190.79	0.328484
1194.16	0.06958
1197.54	2.60043
1200.91	1.05677
1204.28	2.77557
1207.66	2.05869
1211.03	2.96442
1214.41	2.48537
1217.78	2.81042
1221.16	2.94144
1224.53	2.47198
1227.91	5.14206
1231.28	5.70367
1234.66	6.71549
1238.03	5.67418
1241.41	4.72087
1244.78	6.27525
1248.16	4.76079
1251.53	5.94569
1254.91	5.15977
1258.28	3.09875
1261.66	2.86221
1265.03	2.1881
1268.41	2.11467
1271.78	1.12167
1275.16	6.49233
1278.53	0.910378
1281.9	0.485611
