Measurement: Raman, 780 nm, unoriented, Raman Data Processed
Mineral: Olshanskyite
Rruff sample: R070668
Ideal chemistry: Ca_3_[B_3_O_3_(OH)_6_]OH3H_2_O
Locality: Fuka Mine, Bitchu-Cho, Okayama Prefecture, Chugoku Region, Honshu Island, Japan
Source: Michael Scott
Description: White platy crystals that are sealed in a glass tube to prevent atmospheric alteration
Raman shift (cm-1)	intensity
269.734	0
272.627	41.898
275.519	18.4672
278.412	7.65143
281.305	2.04269
284.197	27.8832
287.09	25.2929
289.983	9.16199
292.875	17.3262
295.768	12.2566
298.661	29.2127
301.554	2.31277
304.446	3.90221
307.339	7.47664
310.232	8.18747
313.124	15.6244
316.017	1.05754
318.91	7.54748
321.803	14.236
324.695	5.49852
327.588	2.1142
330.481	0.193176
333.373	22.7386
336.266	5.70169
339.159	10.8168
342.051	14.3771
344.944	2.08612
347.837	3.13138
350.729	4.43866
353.622	10.0676
356.515	12.6538
359.408	25.8626
362.3	15.7637
365.193	10.2335
368.086	21.043
370.978	19.6562
373.871	25.8599
376.764	31.1543
379.657	54.1835
382.549	68.8742
385.442	100.198
388.335	109.867
391.227	120.767
394.12	147.352
397.013	106.633
399.906	103.189
402.798	92.6278
405.691	65.4481
408.584	78.7307
411.476	65.1319
414.369	77.7195
417.262	61.2886
420.154	45.4511
423.047	44.3709
425.94	33.123
428.832	26.6511
431.725	26.3285
434.618	33.3535
437.511	20.8196
440.403	20.5765
443.296	42.3476
446.189	30.592
449.081	34.4003
451.974	25.8436
454.867	7.20088
457.76	11.8389
460.652	10.3546
463.545	20.7368
466.438	5.07198
469.33	0.10321
472.223	0.263489
475.116	0.51506
478.008	2.06561
480.901	8.82036
483.794	5.58696
486.687	3.1407
489.579	1.07282
492.472	0.352188
495.365	3.85028
498.257	5.8242
501.15	20.4358
504.043	33.904
506.935	48.2083
509.828	56.0004
512.721	98.1445
515.614	79.8076
518.506	57.7862
521.399	23.7604
524.292	27.0925
527.184	27.2166
530.077	46.8678
532.97	75.2629
535.862	67.1458
538.755	70.9775
541.648	63.4169
544.54	71.7788
547.433	58.9457
550.326	38.0532
553.219	36.8616
556.111	34.5561
559.004	61.6747
561.897	63.876
564.789	83.4712
567.682	95.7921
570.575	113.319
573.467	84.8756
576.36	57.9426
579.253	51.2988
582.146	31.3696
585.038	41.6711
587.931	33.331
590.824	21.5361
593.716	28.3067
596.609	27.6235
599.502	18.8322
602.394	19.1787
605.287	17.02
608.18	20.3005
611.073	10.899
613.965	23.3423
616.858	14.6947
619.751	11.8186
622.643	8.2533
625.536	1.11282
628.429	0.093475
631.322	5.89262
634.214	2.20104
637.107	0.138092
640	1.74937
642.892	21.7011
645.785	9.57112
648.678	0.717331
651.57	15.3509
654.463	7.0453
657.356	5.57138
660.249	4.97816
663.141	13.3256
666.034	8.66052
668.927	9.02089
671.819	8.10764
674.712	6.06566
677.605	18.3032
680.497	0.832458
683.39	14.3917
686.283	20.8247
689.176	15.8325
692.068	17.484
694.961	5.49226
697.854	14.531
700.746	18.7969
703.639	10.5627
706.532	14.157
709.424	16.984
712.317	4.9912
715.21	18.1069
718.103	7.28569
720.995	13.181
723.888	19.3602
726.781	19.4774
729.673	5.48296
732.566	2.39174
735.459	18.3469
738.351	16.242
741.244	13.8934
744.137	13.975
747.03	13.9956
749.922	7.40201
752.815	20.0669
755.708	15.425
758.6	14.2199
761.493	33.8754
764.386	20.8034
767.279	21.2062
770.171	18.0597
773.064	2.60254
775.957	24.3313
778.849	2.93826
781.742	14.1159
784.635	21.2771
787.527	14.4105
790.42	11.0545
793.313	0.805771
796.206	10.3042
799.098	5.3476
801.991	0.414825
804.884	18.719
807.776	5.09071
810.669	11.892
813.562	3.89307
816.454	11.5148
819.347	9.90393
822.24	17.3493
825.133	9.93034
828.025	8.07394
830.918	8.47968
833.811	10.2115
836.703	6.06821
839.596	6.98497
842.489	8.78659
845.381	10.3149
848.274	34.4276
851.167	52.2754
854.06	70.1495
856.952	84.9024
859.845	103.757
862.738	130.024
865.63	112.329
868.523	110.025
871.416	86.3731
874.308	70.7356
877.201	44.6194
880.094	32.3997
882.987	19.7675
885.879	18.6388
888.772	0.810272
891.665	3.96158
894.557	13.9675
897.45	0.605743
900.343	6.74976
903.236	6.81067
906.128	7.86768
909.021	0.148758
911.914	16.3548
914.806	26.2706
917.699	30.829
920.592	46.8877
923.484	68.0474
926.377	93.7164
929.27	142.508
932.163	214.61
935.055	330.496
937.948	522.764
940.841	697.008
943.733	753.407
946.626	758.877
949.519	721.546
952.411	564.64
955.304	378.91
958.197	233.052
961.09	154.324
963.982	105.814
966.875	73.666
969.768	44.4258
972.66	18.2678
975.553	3.19052
978.446	1.67067
981.338	8.37846
984.231	5.16879
987.124	0.202179
990.016	5.02904
992.909	4.5204
995.802	0.813416
998.695	0.943298
1001.59	8.10924
1004.48	16.2182
1007.37	7.83171
1010.26	5.29157
1013.16	5.38083
1016.05	15.7102
1018.94	11.0883
1021.84	5.84087
1024.73	5.2148
1027.62	5.81352
1030.51	2.6942
1033.41	0.539581
1036.3	8.75574
1039.19	17.3074
1042.09	19.2274
1044.98	33.0051
1047.87	39.7795
1050.76	42.7954
1053.66	87.6827
1056.55	123.594
1059.44	164.417
1062.33	183.74
1065.23	165.037
1068.12	131.33
1071.01	91.7105
1073.9	55.8741
1076.8	37.4256
1079.69	19.6829
1082.58	9.43681
1085.48	6.22444
1088.37	10.7496
1091.26	6.10457
1094.15	3.30673
1097.05	0.612213
1099.94	7.15951
1102.83	1.8685
1105.72	0.765121
1108.62	10.7845
1111.51	0.821152
1114.4	7.40027
1117.3	1.71202
1120.19	25.0355
1123.08	10.6075
1125.97	26.7253
1128.87	43.1147
1131.76	61.7707
1134.65	68.2819
1137.54	85.7897
1140.44	100.42
1143.33	102.612
1146.22	76.3414
1149.12	63.7246
1152.01	51.5165
1154.9	42.118
1157.79	30.1625
1160.69	22.1853
1163.58	1.74074
1166.47	13.4479
1169.36	1.09656
1172.26	2.8427
1175.15	17.2416
1178.04	7.78607
1180.93	2.22324
1183.83	8.29298
1186.72	22.9886
1189.61	12.9176
1192.51	12.0704
1195.4	13.0564
1198.29	8.90286
1201.18	12.2476
1204.08	0.016129
1206.97	19.4834
1209.86	5.758
1212.76	3.82016
1215.65	8.01308
1218.54	3.49797
1221.43	1.4066
1224.33	0.089294
1227.22	7.77403
1230.11	5.25954
1233	7.77154
1235.9	7.57045
1238.79	1.13765
1241.68	11.4907
1244.57	14.1565
1247.47	13.5651
1250.36	18.7367
1253.25	22.3381
1256.14	7.9019
1259.04	6.81024
1261.93	10.2149
1264.82	15.8296
1267.72	7.67546
1270.61	10.8071
1273.5	18.3885
1276.39	22.7294
1279.29	13.7696
1282.18	4.63117
1285.07	12.2759
1287.96	4.96051
