Measurement: Raman, 532 nm, unoriented, Raman Data Processed
Mineral: Olshanskyite
Rruff sample: R070668
Ideal chemistry: Ca_3_[B_3_O_3_(OH)_6_]OH3H_2_O
Locality: Fuka Mine, Bitchu-Cho, Okayama Prefecture, Chugoku Region, Honshu Island, Japan
Source: Michael Scott
Description: White platy crystals that are sealed in a glass tube to prevent atmospheric alteration
Raman shift (cm-1)	intensity
269.228	0
272.121	19.5896
275.014	26.7471
277.906	56.0181
280.799	20.5925
283.692	78.4023
286.584	97.2991
289.477	90.7114
292.37	68.6472
295.262	40.1809
298.155	97.9297
301.048	2.64185
303.94	56.6763
306.833	13.1179
309.726	42.1599
312.619	21.001
315.511	4.43726
318.404	24.1939
321.297	48.1565
324.189	19.6335
327.082	26.0654
329.975	27.9824
332.868	27.8723
335.76	10.2722
338.653	13.2412
341.546	44.8726
344.438	57.419
347.331	84.4849
350.224	53.363
353.116	63.3938
356.009	61.2976
358.902	58.1638
361.795	82.3227
364.687	110.593
367.58	108.711
370.473	90.3982
373.365	178.734
376.258	207.144
379.151	331.518
382.043	342.657
384.936	450.896
387.829	484.1
390.721	613.574
393.614	604.455
396.507	590.432
399.4	497.889
402.292	424.377
405.185	380.034
408.078	343.367
410.97	343.932
413.863	382.345
416.756	343.034
419.649	295.193
422.541	272.961
425.434	212.564
428.327	171.994
431.219	112.643
434.112	128.462
437.005	140.727
439.897	168.149
442.79	117.946
445.683	196.135
448.575	174.596
451.468	159.773
454.361	85.0447
457.254	44.0042
460.146	27.457
463.039	46.0955
465.932	7.47363
468.824	13.7773
471.717	29.7336
474.61	7.19629
477.502	12.6025
480.395	8.31982
483.288	4.2124
486.181	29.2878
489.073	1.32153
491.966	87.8599
494.859	63.5413
497.751	11.0024
500.644	70.4001
503.537	150.769
506.43	237.881
509.322	402.651
512.215	486.728
515.107	509.684
518	366.344
520.893	202.113
523.786	146.153
526.678	139.899
529.571	203.962
532.464	325.935
535.356	380.743
538.249	329.582
541.142	406.644
544.034	437.57
546.927	379.694
549.82	231.017
552.713	196.435
555.605	183.45
558.498	256.188
561.391	284.948
564.283	380.377
567.176	493.96
570.069	523.273
572.962	467.864
575.854	369.901
578.747	272.729
581.64	197.506
584.532	170.458
587.425	135.075
590.318	106.283
593.21	155.799
596.103	131.332
598.996	145.655
601.889	138.318
604.781	104.632
607.674	92.8723
610.567	52.0205
613.459	37.0266
616.352	55.0359
619.245	34.3381
622.138	33.5581
625.03	29.676
627.923	0.592529
630.816	8.54785
633.708	18.1421
636.601	16.4692
639.494	35.6992
642.386	31.2712
645.279	20.0581
648.172	24.26
651.064	0.046387
653.957	45.0801
656.85	10.3816
659.743	28.5054
662.635	21.3591
665.528	48.5452
668.421	21.783
671.313	6.25317
674.206	66.6033
677.099	3.18018
679.991	50.5823
682.884	37.7402
685.777	56.5737
688.669	45.4815
691.562	23.9019
694.455	51.6123
697.348	65.3213
700.24	90.0266
703.133	53.7961
706.026	28.3953
708.918	23.3733
711.811	19.7266
714.704	24.6553
717.596	37.623
720.489	34.4358
723.382	0.004395
726.275	58.8928
729.167	54.9001
732.06	8.65356
734.953	43.9033
737.845	38.9968
740.738	3.65894
743.631	14.1257
746.524	41.0535
749.416	34.4119
752.309	98.2737
755.202	37.0952
758.094	69.1064
760.987	69.8545
763.88	64.0156
766.772	75.1206
769.665	103.296
772.558	78.6492
775.451	49.7473
778.343	55.7927
781.236	74.7981
784.129	30.8242
787.021	55.8801
789.914	35.6318
792.807	50.6216
795.699	31.063
798.592	18.573
801.485	1.1936
804.378	19.7307
807.27	39.6792
810.163	9.25586
813.056	27.5115
815.948	6.89526
818.841	9.7644
821.734	57.5117
824.626	79.8503
827.519	42.7612
830.412	34.0747
833.304	49.0667
836.197	2.12988
839.09	53.4929
841.982	103.357
844.875	77.76
847.768	163.826
850.661	272.207
853.553	381.002
856.446	518.705
859.339	656.99
862.231	821.313
865.124	828.389
868.017	734.673
870.909	596.484
873.802	457.656
876.695	330.131
879.588	149.808
882.48	100.174
885.373	60.8252
888.266	35.4836
891.158	24.5664
894.051	7.79346
896.944	34.3115
899.837	20.9036
902.729	22.0806
905.622	18.5977
908.515	68.5637
911.407	101.414
914.3	101.111
917.193	168.783
920.085	297.235
922.978	436.754
925.871	715.328
928.764	1048.47
931.656	1623.34
934.549	2364.55
937.442	3403.53
940.334	4691.37
943.227	5067.25
946.12	4900.81
949.013	4490.06
951.905	3771.29
954.798	2722.96
957.691	1731.59
960.583	1088.59
963.476	738.229
966.369	496.815
969.261	324.884
972.154	167.954
975.047	101.418
977.939	79.2451
980.832	50.4536
983.725	23.2556
986.618	21.3413
989.51	3.6831
992.403	10.4851
995.296	25.9878
998.188	41.3562
1001.08	101.311
1003.97	118.079
1006.87	164.308
1009.76	117.41
1012.65	47.1289
1015.54	70.605
1018.44	107.649
1021.33	82.8513
1024.22	29.3281
1027.12	13.5435
1030.01	22.019
1032.9	16.981
1035.79	124.665
1038.69	126.597
1041.58	240.601
1044.47	252.644
1047.36	366.505
1050.26	533.229
1053.15	856.125
1056.04	1143.83
1058.93	1609.64
1061.83	1863.2
1064.72	1799.65
1067.61	1417.5
1070.51	930.622
1073.4	577.161
1076.29	364.817
1079.18	280.35
1082.08	160.725
1084.97	119.661
1087.86	136.758
1090.76	104.796
1093.65	50.2085
1096.54	4.8103
1099.43	25.2219
1102.33	22.1746
1105.22	28.405
1108.11	50.8633
1111	9.0437
1113.9	25.2881
1116.79	33.7918
1119.68	62.9153
1122.57	141.132
1125.47	164.223
1128.36	258.235
1131.25	365.987
1134.14	468.632
1137.04	597.854
1139.93	697.399
1142.82	666.179
1145.72	609.299
1148.61	467.914
1151.5	383.77
1154.39	351.775
1157.29	199.211
1160.18	96.55
1163.07	37.3013
1165.96	45.8113
1168.86	22.7832
1171.75	31.0828
1174.64	45.25
1177.54	49.8108
1180.43	47.189
1183.32	20.979
1186.21	10.0088
1189.11	24.7605
1192	42.2903
1194.89	25.9221
1197.79	8.78833
1200.68	28.9094
1203.57	11.875
1206.46	0.388428
1209.36	14.8923
1212.25	31.0613
1215.14	35.0002
1218.03	33.2976
1220.93	58.4263
1223.82	16.8359
1226.71	24.1638
1229.6	22.8948
1232.5	10.6863
1235.39	2.97046
1238.28	0.602051
1241.17	36.7051
1244.07	46.4482
1246.96	89.6045
1249.85	42.0867
1252.75	82.1355
1255.64	70.9995
1258.53	10.4954
1261.42	49.1516
1264.32	28.9482
1267.21	71.0061
1270.1	18.2192
1272.99	9.62305
1275.89	52.7617
1278.78	50.654
1281.67	26.2395
1284.57	33.1604
1287.46	52.8826
1290.35	46.4949
1293.24	56.3894
1296.14	50.5386
