Measurement: Raman, 532 nm, unoriented, Raman Data Processed
Mineral: Omphacite
Rruff sample: R061129
Ideal chemistry: (Ca,Na)(Mg,Fe,Al)Si_2_O_6_
Locality: near Occidental, Sonoma County, California, USA
Source: Michael Scott
Description: Green granular massive associated with brown grossular and clinochlore
Measured chemistry: (Ca_0.51_Na_0.48_)_Σ=0.99_(Mg_0.44_Al_0.44_Fe^2+^_0.14_Fe^3+^_0.02_)_Σ=1.04_Si_2.00_O_6_ ; (darker phase) : (Mg_2.52_Al_0.32_Fe^2+^_2.13_Mn_0.03_)_Σ=5_Al_0.94_(Si_3.00_Al_1.17_)O_10_(OH)_8_ ( lighter, secondary phase = clinochlore)
Raman shift (cm-1)	intensity
139.093	0
142.467	375.358
145.842	601.815
149.217	318.777
152.592	168.052
155.967	118.349
159.341	9.93652
162.716	7.86328
166.091	27.425
169.466	9.49683
172.841	69.4399
176.215	227.536
179.59	398.878
182.965	464.956
186.34	550.077
189.715	735.339
193.09	611.754
196.464	453.705
199.839	364.528
203.214	440.236
206.589	478.565
209.964	627.085
213.339	636.799
216.713	646.652
220.088	536.65
223.463	453.053
226.838	375.822
230.213	313.603
233.587	284.163
236.962	202.306
240.337	186.041
243.712	100.285
247.087	97.3911
250.462	133.34
253.836	87.8218
257.211	118.949
260.586	143.137
263.961	182.856
267.336	268.351
270.71	220.546
274.085	122.586
277.46	69.7971
280.835	131.531
284.21	131.541
287.584	45.073
290.959	69.5149
294.334	165.478
297.709	199.213
301.084	216.919
304.459	308.407
307.833	395.479
311.208	575.28
314.583	935.811
317.958	1344.65
321.333	1971.13
324.707	2805.07
328.082	3850.99
331.457	4831.75
334.832	5346.91
338.207	4901.83
341.582	4013.39
344.956	3266.82
348.331	2751.73
351.706	2444.54
355.081	2273.59
358.456	2329.64
361.83	2666.77
365.205	3140.53
368.58	3682.45
371.955	4104.25
375.33	4173.9
378.705	3977.23
382.079	3606.91
385.454	3174.2
388.829	2808.31
392.204	2520.88
395.579	2452.79
398.954	2379.48
402.328	2520.94
405.703	2651.58
409.078	2767.44
412.453	2613.32
415.828	2062.85
419.202	1437.6
422.577	854.799
425.952	492.308
429.327	230.264
432.702	105.173
436.077	7.71777
439.451	48.5886
442.826	95.0403
446.201	51.2073
449.576	98.8931
452.951	27.4189
456.325	0.130615
459.7	32.072
463.075	124.705
466.45	134.078
469.825	113.123
473.2	29.0894
476.574	11.752
479.949	3.95801
483.324	68.9683
486.699	96.3406
490.074	131.186
493.448	188.908
496.823	210.767
500.198	241.396
503.573	356.057
506.948	627.338
510.322	831.973
513.697	976.335
517.072	802.615
520.447	469.423
523.822	437.947
527.197	531.21
530.571	689.72
533.946	952.395
537.321	1143.09
540.696	1266.84
544.071	1333.26
547.445	1402.3
550.82	1512.86
554.195	1531.55
557.57	1556.61
560.945	1378.51
564.319	1186.84
567.694	946.574
571.069	667.946
574.444	437.925
577.819	436.878
581.194	431.297
584.568	474.672
587.943	589.403
591.318	693.523
594.693	756.996
598.068	890.19
601.443	897.058
604.817	832.183
608.192	640.586
611.567	433.513
614.942	274.094
618.317	123.271
621.692	17.7224
625.066	39.5876
628.441	76.4858
631.816	51.1833
635.191	60.3792
638.566	14.169
641.94	153.494
645.315	318.611
648.69	520.666
652.065	798.672
655.44	1166.32
658.814	1827.34
662.189	2985.09
665.564	5174.84
668.939	8615.06
672.314	12980.2
675.688	17129.2
679.063	18947.7
682.438	15229.1
685.813	9324.43
689.188	5330.31
692.563	3194.82
695.937	1969.29
699.312	1308.17
702.687	889.264
706.062	671.784
709.437	554.344
712.812	389.681
716.186	352.309
719.561	367.508
722.936	421.549
726.311	490.621
729.686	531.29
733.06	527.33
736.435	556.429
739.81	519.946
743.185	519.778
746.56	413.803
749.934	336.984
753.309	196.46
756.684	74.7078
760.059	13.5793
763.434	21.8438
766.809	4.42505
770.183	6.47778
773.558	3.59204
776.933	20.7932
780.308	12.4077
783.683	34.3962
787.058	22.2222
790.432	27.7402
793.807	8.83789
797.182	2.35938
800.557	69.1299
803.932	43.373
807.306	33.7163
810.681	17.4416
814.056	19.1926
817.431	64.0569
820.806	13.2981
824.181	5.75
827.555	22.5891
830.93	32.9304
834.305	24.2549
837.68	0.604004
841.055	18.7234
844.429	25.8377
847.804	10.876
851.179	85.4124
854.554	134.608
857.929	95.949
861.303	142.499
864.678	218.74
868.053	338.891
871.428	459.524
874.803	611.414
878.178	676.573
881.552	797.208
884.927	849.765
888.302	884.126
891.677	942.525
895.052	983.776
898.427	1068.64
901.801	1107.41
905.176	1128.27
908.551	1145.53
911.926	1085.76
915.301	1055.93
918.675	869.395
922.05	696.718
925.425	500.666
928.8	370.814
932.175	310.13
935.549	188.19
938.924	115.049
942.299	19.6843
945.674	11.7607
949.049	94.4536
952.424	68.417
955.798	37.834
959.173	43.4009
962.548	125.23
965.923	185.772
969.298	334.812
972.673	498.326
976.047	646.092
979.422	911.022
982.797	1138.22
986.172	1510.42
989.547	2015.99
992.921	2642.05
996.296	3446.93
999.671	4495.44
1003.05	5599.6
1006.42	6346.38
1009.79	6415.43
1013.17	6298.11
1016.54	6274.7
1019.92	6526.76
1023.29	6451.6
1026.67	6024.11
1030.04	5220.48
1033.42	4264.4
1036.79	3234.2
1040.17	2372.6
1043.54	1770.3
1046.92	1351.35
1050.29	1017.87
1053.67	747.857
1057.04	580.354
1060.42	475.166
1063.79	421.14
1067.17	345.563
1070.54	302.56
1073.92	241.451
1077.29	221.198
1080.67	163.545
1084.04	73.5806
1087.42	23.6811
1090.79	8.24512
1094.17	3.98218
1097.54	28.6135
1100.92	31.3528
1104.29	23.7461
1107.66	44.72
1111.04	7.80908
1114.41	13.2368
1117.79	53.7698
1121.16	84.9731
1124.54	68.624
1127.91	117.137
1131.29	146.709
1134.66	118.314
1138.04	138.291
1141.41	160.772
1144.79	144.601
1148.16	137.347
1151.54	139.651
1154.91	74.0388
1158.29	36.9106
1161.66	34.2827
1165.04	14.9341
1168.41	19.9392
1171.79	13.0459
1175.16	0.274658
1178.54	10.3579
1181.91	83.2878
1185.29	26.4373
1188.66	88.3831
1192.04	59.206
1195.41	92.281
1198.79	76.4128
1202.16	59.6797
1205.54	95.2214
1208.91	72.8914
1212.29	86.5151
1215.66	70.9839
1219.03	80.605
1222.41	87.5266
1225.78	93.637
1229.16	96.8284
1232.53	23.991
1235.91	38.5156
1239.28	37.7605
1242.66	31.7256
1246.03	69.2178
1249.41	32.595
1252.78	39.1809
1256.16	19.658
1259.53	43.1977
1262.91	14.7651
1266.28	58.467
1269.66	31.7312
1273.03	41.8965
1276.41	41.9155
1279.78	38.8706
1283.16	42.6411
1286.53	54.9749
1289.9	58.9441
1293.28	54.9465
1296.65	22.3208
1300.03	23.6184
1303.4	113.126
1306.78	30.1589
1310.15	16.0068
