Measurement: Raman, 532 nm, unoriented, Raman Data Processed
Mineral: Omphacite
Rruff sample: R110038
Ideal chemistry: (Ca,Na)(Mg,Fe,Al)Si_2_O_6_
Locality: Kefalos Hill, Skotini Bay, Galissas, Syros Island, Aegean Sea, Greece
Source: William W Pinch
Description: Pale green granular crystals associated with fluor-dravite R110031
Raman shift (cm-1)	intensity
179.202	0
182.094	0.506348
184.987	9.90259
187.88	42.7346
190.773	89.7283
193.665	124.519
196.558	147.693
199.451	194.018
202.343	225.831
205.236	250.685
208.129	273.591
211.021	275.259
213.914	251.055
216.807	218.153
219.699	179.307
222.592	124.093
225.485	94.3368
228.377	71.0581
231.27	57.6661
234.163	60.075
237.056	49.5425
239.948	40.7525
242.841	32.5908
245.734	10.246
248.626	2.28766
251.519	4.11401
254.412	8.22565
257.305	4.77869
260.197	7.66632
263.09	10.3029
265.983	18.1063
268.875	18.8078
271.768	18.9617
274.661	6.73773
277.553	0.976685
280.446	4.10425
283.339	13.8972
286.232	14.2037
289.124	5.6098
292.017	0.582764
294.91	9.00317
297.802	20.1248
300.695	30.7494
303.588	37.4075
306.481	50.3578
309.373	66.5142
312.266	93.7637
315.159	121.975
318.051	162.457
320.944	221.201
323.837	283.303
326.729	355.477
329.622	448.426
332.515	555.837
335.408	645.27
338.3	685.101
341.193	681.883
344.086	654.959
346.978	649.142
349.871	641.192
352.764	621.17
355.656	593.908
358.549	564.155
361.442	559.472
364.334	576.72
367.227	613.207
370.12	643.037
373.012	671.576
375.905	693.782
378.798	713.867
381.691	702.199
384.583	666.306
387.476	610.73
390.369	562.837
393.261	531.281
396.154	510.368
399.047	522.105
401.94	533.603
404.832	538.829
407.725	549.002
410.618	545.475
413.51	513.544
416.403	439.932
419.296	346.716
422.188	248.657
425.081	173.717
427.974	114.221
430.866	69.472
433.759	34.0402
436.652	5.22119
439.545	2.6261
442.437	10.6604
445.33	18.1115
448.223	14.0424
451.115	11.6416
454.008	11.098
456.901	7.63037
459.793	5.58508
462.686	3.96106
465.579	7.05615
468.472	5.08099
471.364	14.8224
474.257	17.608
477.15	19.3903
480.042	26.9655
482.935	42.6367
485.828	61.3588
488.721	67.8265
491.613	80.4882
494.506	96.7578
497.399	110.001
500.291	131.081
503.184	145.345
506.077	163.528
508.969	187.359
511.862	204.343
514.755	214.863
517.648	182.847
520.54	140.764
523.433	113.752
526.326	115.882
529.218	124.786
532.111	137.983
535.004	169.478
537.896	204.981
540.789	253.576
543.682	307.436
546.575	353.132
549.467	396.629
552.36	427.178
555.253	436.419
558.145	423.722
561.038	390.987
563.931	347.384
566.823	300.017
569.716	257.423
572.609	219.757
575.502	193.015
578.394	165.909
581.287	152.692
584.18	142.162
587.072	122.814
589.965	124.093
592.858	118.035
595.75	97.4686
598.643	92.9672
601.536	73.7711
604.428	59.8509
607.321	40.2494
610.214	25.9369
613.107	8.95978
615.999	0.206909
618.892	6.40479
621.785	16.0355
624.677	12.6159
627.57	6.27686
630.463	0.162415
633.356	13.0396
636.248	36.5259
639.141	62.5065
642.034	58.4667
644.926	48.6388
647.819	68.1969
650.712	92.5007
653.604	123.502
656.497	156.588
659.39	208.668
662.283	285.211
665.175	415.845
668.068	603.229
670.961	869.533
673.853	1209.98
676.746	1615.69
679.639	1979.75
682.531	2062.22
685.424	1686.95
688.317	1160.12
691.21	765.527
694.102	500.682
696.995	343.864
699.888	237.402
702.78	164.814
705.673	108.228
708.566	72.1855
711.458	49.9989
714.351	26.3356
717.244	11.4027
720.136	4.63532
723.029	3.73071
725.922	9.74359
728.815	11.4398
731.707	15.4014
734.6	15.2051
737.493	16.775
740.385	12.0142
743.278	4.05328
746.171	4.17773
749.063	4.21222
751.956	11.9339
754.849	8.67914
757.742	11.431
760.634	11.0161
763.527	8.82452
766.42	8.80536
769.312	6.78784
772.205	2.61023
775.098	1.64984
777.99	9.0769
780.883	2.98608
783.776	3.39301
786.669	9.70819
789.561	13.0684
792.454	24.5626
795.347	32.2687
798.239	26.2805
801.132	30.5613
804.025	32.3961
806.918	32.9121
809.81	40.0195
812.703	28.9373
815.596	30.1888
818.488	27.45
821.381	34.0328
824.274	32.8235
827.166	19.2149
830.059	24.9459
832.952	23.47
835.845	29.2388
838.737	20.1888
841.63	13.1165
844.523	13.4388
847.415	7.99768
850.308	7.06769
853.201	2.60419
856.093	3.56842
858.986	0.210754
861.879	4.91589
864.771	9.73218
867.664	18.1354
870.557	22.0486
873.45	37.1277
876.342	48.753
879.235	51.8743
882.128	58.8412
885.02	66.9248
887.913	66.8901
890.806	72.6298
893.698	74.0726
896.591	76.059
899.484	83.0091
902.377	97.4412
905.269	110.643
908.162	114.567
911.055	127.452
913.947	129.381
916.84	131.571
919.733	132.726
922.625	113.984
925.518	92.0231
928.411	78.8162
931.304	58.0712
934.196	46.3052
937.089	35.6259
939.982	18.6928
942.875	4.95245
945.767	2.29364
948.66	4.11334
951.553	6.24493
954.445	0.58905
957.338	2.77033
960.231	13.2222
963.123	20.715
966.016	39.5147
968.909	38.6915
971.802	45.5834
974.694	51.588
977.587	55.5481
980.48	59.4601
983.372	64.1806
986.265	69.2106
989.158	85.5806
992.05	101.99
994.943	128.239
997.836	156.652
1000.73	200.533
1003.62	248.504
1006.51	291.187
1009.41	317.559
1012.3	330.751
1015.19	332.908
1018.09	336.213
1020.98	340.893
1023.87	339.005
1026.76	323.146
1029.66	312.324
1032.55	280.094
1035.44	238.087
1038.33	201.814
1041.23	167.064
1044.12	130.75
1047.01	104.481
1049.9	93.1653
1052.8	75.1097
1055.69	62.196
1058.58	47.9986
1061.47	30.8278
1064.37	25.9916
1067.26	13.0895
1070.15	6.57837
1073.05	3.5672
1075.94	0.019226
1078.83	4.07385
1081.72	3.07043
1084.62	3.75171
1087.51	2.18079
1090.4	1.30896
1093.3	6.81702
1096.19	4.20703
1099.08	10.3326
1101.97	19.0722
1104.87	29.2774
1107.76	51.1747
1110.65	74.1419
1113.54	78.6362
1116.44	73.4753
1119.33	50.3172
1122.22	43.3224
1125.12	36.4588
1128.01	44.3299
1130.9	43.4159
1133.79	44.697
1136.68	44.0945
1139.58	44.1255
1142.47	38.3615
1145.36	36.2411
1148.26	36.1487
1151.15	27.9719
1154.04	21.4386
1156.93	20.0747
1159.83	21.4265
1162.72	12.1388
1165.61	5.06351
1168.51	2.87592
1171.4	1.95551
1174.29	1.88934
1177.18	16.6092
1180.08	23.9909
1182.97	34.6524
1185.86	45.7571
1188.75	41.596
1191.65	32.0269
1194.54	18.4316
1197.43	2.7403
1200.33	3.47736
1203.22	3.31461
1206.11	4.6329
1209	9.71039
1211.9	13.0886
1214.79	25.0425
1217.68	32.0772
1220.57	33.9614
1223.47	48.5793
1226.36	49.7776
1229.25	50.1627
1232.14	46.0864
1235.04	41.9677
1237.93	37.419
1240.82	35.6763
1243.71	32.3351
1246.61	45.7661
1249.5	43.8389
1252.39	47.5779
1255.29	44.5285
1258.18	42.3356
1261.07	36.811
1263.96	32.6214
1266.86	20.3991
1269.75	12.3688
1272.64	3.73077
1275.54	9.38812
1278.43	6.06851
1281.32	1.45755
1284.21	3.04343
1287.11	6.85596
1290	14.8422
1292.89	8.37058
1295.78	6.12106
1298.68	9.70664
1301.57	0.072845
