Measurement: Raman, 785 nm, unoriented, Raman Data Processed
Mineral: Omphacite
Rruff sample: R061129
Ideal chemistry: (Ca,Na)(Mg,Fe,Al)Si_2_O_6_
Locality: near Occidental, Sonoma County, California, USA
Source: Michael Scott
Description: Green granular massive associated with brown grossular and clinochlore
Measured chemistry: (Ca_0.51_Na_0.48_)_Σ=0.99_(Mg_0.44_Al_0.44_Fe^2+^_0.14_Fe^3+^_0.02_)_Σ=1.04_Si_2.00_O_6_ ; (darker phase) : (Mg_2.52_Al_0.32_Fe^2+^_2.13_Mn_0.03_)_Σ=5_Al_0.94_(Si_3.00_Al_1.17_)O_10_(OH)_8_ ( lighter, secondary phase = clinochlore)
Raman shift (cm-1)	intensity
174.343	0
177.236	67.8398
180.128	107.55
183.021	116.288
185.914	177.909
188.806	267.631
191.699	291.104
194.592	261.156
197.484	238.128
200.377	149.566
203.27	135.517
206.162	122.308
209.055	87.6985
211.948	112.136
214.841	111.486
217.733	123.154
220.626	101.909
223.519	154.538
226.411	178.808
229.304	190.585
232.197	235.031
235.089	255.201
237.982	241.551
240.875	157.11
243.768	147.013
246.66	127.622
249.553	45.916
252.446	45.4868
255.338	17.2236
258.231	20.4775
261.124	24.9141
264.017	7.92407
266.909	6.48267
269.802	10.8347
272.695	25.6882
275.587	46.7258
278.48	21.832
281.373	50.7649
284.265	70.5288
287.158	5.58911
290.051	41.6494
292.943	92.4338
295.836	116.933
298.729	146.485
301.622	159.867
304.514	211.901
307.407	287.416
310.3	342.499
313.192	428.739
316.085	572.228
318.978	781.122
321.87	988.515
324.763	1223.25
327.656	1549.68
330.549	1930.15
333.441	2147.02
336.334	2135.19
339.227	1950.12
342.119	1633.85
345.012	1361.54
347.905	1230.12
350.798	1111.48
353.69	1027.3
356.583	958.314
359.476	1018.64
362.368	1093.87
365.261	1261.79
368.154	1536.51
371.046	1860.83
373.939	2080.87
376.832	2253.45
379.724	2244.63
382.617	2133.27
385.51	1948.8
388.403	1662.07
391.295	1463.65
394.188	1388.84
397.081	1299.83
399.973	1319.32
402.866	1265.13
405.759	1368.33
408.651	1376.07
411.544	1375.74
414.437	1199.41
417.329	938.257
420.222	660.693
423.115	403.808
426.008	280.342
428.9	123.383
431.793	15.3567
434.686	8.16309
437.578	37.1089
440.471	3.63525
443.364	52.4304
446.257	19.8411
449.149	3.87793
452.042	47.6272
454.935	19.4062
457.827	24.4336
460.72	50.302
463.613	68.0525
466.505	64.9277
469.398	66.9509
472.291	40.4563
475.183	15.4385
478.076	18.1455
480.969	40.3601
483.862	31.4031
486.754	50.6528
489.647	58.4875
492.54	116.995
495.432	92.874
498.325	70.2493
501.218	114.38
504.111	83.1223
507.003	128.328
509.896	169.323
512.789	158.431
515.681	130.293
518.574	136.568
521.467	155.798
524.359	170.76
527.252	234.29
530.145	296.94
533.038	435.114
535.93	549.246
538.823	607.358
541.716	720.613
544.608	796.481
547.501	932.625
550.394	1008.5
553.286	1043.04
556.179	1126.11
559.072	1100.47
561.965	1080.49
564.857	922.824
567.75	891.081
570.643	731.296
573.535	656.629
576.428	633.888
579.321	595.1
582.213	573.689
585.106	573.999
587.999	558.064
590.891	547.583
593.784	545.744
596.677	471.074
599.57	472.561
602.462	431.067
605.355	385.653
608.248	286.979
611.14	190.218
614.033	131.411
616.926	79.4263
619.818	28.8855
622.711	18.8904
625.604	2.30737
628.497	41.8884
631.389	11.9163
634.282	37.2793
637.175	7.94849
640.067	36.48
642.96	66.0666
645.853	158.658
648.745	180.36
651.638	255.012
654.531	327.13
657.424	474.392
660.316	635.512
663.209	962.394
666.102	1435.34
668.994	2221.98
671.887	3260.16
674.78	4502.35
677.673	5612.78
680.565	5418.95
683.458	4339.66
686.351	2836.72
689.243	1820.11
692.136	1161.49
695.029	806.352
697.921	575.287
700.814	436.963
703.707	354.724
706.6	322.214
709.492	200.814
712.385	166.856
715.278	172.655
718.17	179.496
721.063	172.842
723.956	205.537
726.848	168.402
729.741	134.966
732.634	161.774
735.527	144.989
738.419	164.516
741.312	94.2512
744.205	87.8926
747.097	95.1094
749.99	62.4504
752.883	48.6311
755.775	19.6502
758.668	20.3523
761.561	11.2478
764.453	16.0479
767.346	34.3931
770.239	9.56567
773.131	10.6956
776.024	21.3945
778.917	8.66089
781.81	36.721
784.702	6.03442
787.595	21.9507
790.488	0.223145
793.38	43.1182
796.273	15.654
799.166	16.3848
802.058	59.4556
804.951	18.8623
807.844	18.6509
810.737	68.8047
813.629	26.8301
816.522	33.1074
819.415	35.0593
822.307	44.5881
825.2	10.021
828.093	22.0879
830.986	4.58081
833.878	22.0464
836.771	1.50391
839.664	36.3315
842.556	9.84912
845.449	22.4805
848.342	1.77051
851.234	6.7666
854.127	37.7073
857.02	66.1746
859.913	32.5034
862.805	63.4312
865.698	79.9004
868.591	107.877
871.483	134.367
874.376	160.039
877.269	243.318
880.161	241.829
883.054	277.244
885.947	315.372
888.84	310.675
891.732	320.322
894.625	342.328
897.518	378.475
900.41	397.084
903.303	429.964
906.196	428.555
909.088	461.964
911.981	451.111
914.874	490.119
917.766	411.617
920.659	366.802
923.552	261.425
926.445	232.165
929.337	187.068
932.23	168.005
935.123	104.01
938.015	62.2053
940.908	51.0122
943.801	19.0586
946.693	84.929
949.586	5.25171
952.479	5.7417
955.372	53.0852
958.264	5.27686
961.157	34.4536
964.05	1.76221
966.942	14.8755
969.835	45.3757
972.728	83.5203
975.62	125.2
978.513	126.43
981.406	217.363
984.299	265.48
987.191	342.279
990.084	434.246
992.977	554.785
995.869	682.002
998.762	899.292
1001.65	1135.44
1004.55	1396.78
1007.44	1529.96
1010.33	1570.74
1013.23	1628.96
1016.12	1725.4
1019.01	1790.58
1021.9	1871.47
1024.8	1822.56
1027.69	1829.56
1030.58	1662.23
1033.47	1475.88
1036.37	1219.48
1039.26	1029.68
1042.15	872.112
1045.05	808.94
1047.94	697.774
1050.83	627.801
1053.72	510.01
1056.62	421.85
1059.51	355.112
1062.4	303.997
1065.29	257.477
1068.19	236.788
1071.08	138.329
1073.97	145.798
1076.87	130.091
1079.76	64.6838
1082.65	63.8804
1085.54	58.6489
1088.44	41.3023
1091.33	28.7732
1094.22	28.8115
1097.11	38.5388
1100.01	27.373
1102.9	47.3257
1105.79	5.96973
1108.68	4.4519
1111.58	6.74048
1114.47	6.18189
1117.36	3.67969
1120.26	9.76636
1123.15	28.6011
1126.04	0.802734
1128.93	17.8164
1131.83	13.0701
1134.72	39.6494
1137.61	9.49878
1140.5	38.1321
1143.4	7.03906
1146.29	5.40796
1149.18	22.1135
1152.08	23.7903
1154.97	6.09351
1157.86	11.5124
1160.75	15.6924
1163.65	13.5754
1166.54	20.4692
1169.43	2.3313
1172.32	35.5185
1175.22	9.97217
1178.11	22.648
1181	11.7028
1183.89	2.05591
1186.79	16.3138
1189.68	43.514
1192.57	58.9467
1195.47	63.9586
1198.36	74.1517
1201.25	59.7428
1204.14	82.8892
1207.04	80.0857
1209.93	79.0613
1212.82	53.8557
1215.71	63.373
1218.61	16.979
1221.5	62.9309
1224.39	19.2214
1227.29	3.09399
1230.18	5.39746
1233.07	32.5122
1235.96	10.9453
1238.86	25.9429
1241.75	0
