Measurement: Raman, 532 nm, unoriented, Raman Data Processed
Mineral: Oneillite
Rruff sample: R110184
Ideal chemistry: Na_15_Ca_3_Mn_3_Fe_3_Zr_3_Nb(Si_25_O_73_)(O,OH,H_2_O)_3_(OH,Cl)_2_
Locality: Poudrette quarry, Mont Saint-Hilaire, Quebec, Canada
Source: Donald Doell
Description: Gray or pale-yellow gray massive crystals
Raman shift (cm-1)	intensity
178.72	0
181.612	1.51801
184.505	5.8494
187.398	6.94568
190.29	11.6986
193.183	15.0984
196.076	22.2771
198.968	21.2684
201.861	22.2758
204.754	17.996
207.647	19.5754
210.539	20.9419
213.432	24.5414
216.325	25.7961
219.217	18.4916
222.11	17.531
225.003	12.5879
227.895	6.97238
230.788	4.77051
233.681	0.760529
236.573	0.256744
239.466	1.72354
242.359	3.09192
245.252	2.82959
248.144	0.511536
251.037	2.12344
253.93	2.36371
256.822	4.49948
259.715	9.82623
262.608	10.9377
265.5	16.4718
268.393	22.9952
271.286	26.6294
274.179	31.3211
277.071	34.0729
279.964	34.9401
282.857	33.2812
285.75	32.4721
288.642	34.6992
291.535	32.401
294.428	35.4377
297.32	36.8195
300.213	37.0953
303.106	38.677
305.998	38.7465
308.891	35.686
311.784	29.7646
314.676	20.9671
317.569	16.39
320.462	8.09332
323.355	7.54407
326.247	7.21649
329.14	14.7016
332.033	22.4397
334.925	30.9649
337.818	38.0783
340.711	47.3246
343.603	52.2102
346.496	53.3965
349.389	54.3493
352.281	51.1797
355.174	46.9823
358.067	35.7354
360.96	27.0609
363.852	21.0941
366.745	13.3174
369.638	14.0659
372.53	19.3406
375.423	24.7468
378.316	38.8259
381.209	52.6465
384.101	64.4982
386.994	76.3468
389.887	76.8428
392.779	67.4042
395.672	57.0069
398.565	48.088
401.457	43.5706
404.35	35.6298
407.243	34.0851
410.135	32.358
413.028	27.8221
415.921	26.1546
418.814	18.6987
421.706	15.6837
424.599	8.52417
427.492	3.55215
430.384	1.29953
433.277	4.27682
436.17	4.2385
439.062	3.75006
441.955	2.49921
444.848	0.914886
447.741	5.61185
450.633	7.61151
453.526	12.8514
456.419	16.9828
459.311	20.5435
462.204	21.6974
465.097	18.6806
467.99	16.994
470.882	8.4133
473.775	8.51773
476.668	4.70804
479.56	3.50122
482.453	1.49341
485.346	2.77081
488.238	6.38992
491.131	6.85651
494.024	6.90134
496.916	7.08789
499.809	2.30417
502.702	4.92984
505.595	3.38104
508.487	0.701843
511.38	1.99808
514.273	0.533325
517.165	1.16608
520.058	15.0405
522.951	28.8352
525.844	46.9101
528.736	55.0236
531.629	60.5691
534.522	52.5294
537.414	47.5328
540.307	41.4783
543.2	37.8497
546.092	40.2218
548.985	47.2058
551.878	58.834
554.771	78.1605
557.663	99.7566
560.556	123.953
563.449	148.52
566.341	176.229
569.234	189.863
572.127	182.011
575.019	140.147
577.912	84.7835
580.805	47.0563
583.697	18.7952
586.59	9.43042
589.483	12.201
592.376	20.2064
595.268	31.4451
598.161	46.3352
601.054	63.1318
603.946	74.1346
606.839	85.5868
609.732	87.4923
612.625	84.567
615.517	74.5008
618.41	60.4216
621.303	46.5052
624.195	35.0367
627.088	26.3152
629.981	22.2451
632.873	13.3796
635.766	7.90878
638.659	1.04181
641.552	1.40015
644.444	4.69452
647.337	5.91483
650.23	3.30396
653.122	1.32107
656.015	2.73721
658.908	7.20834
661.8	11.1443
664.693	20.2186
667.586	28.6305
670.479	38.4058
673.371	51.1486
676.264	64.4527
679.157	78.2077
682.049	93.2574
684.942	106.754
687.835	123.867
690.727	141.434
693.62	162.768
696.513	176.876
699.405	176.099
702.298	157.102
705.191	125.267
708.084	88.5939
710.976	59.1273
713.869	34.5147
716.762	20.2125
719.654	14.6832
722.547	15.043
725.44	24.0372
728.332	36.2593
731.225	52.2984
734.118	68.0001
737.011	81.4323
739.903	90.3086
742.796	79.8531
745.689	73.8123
748.581	59.6312
751.474	49.6606
754.367	42.6544
757.26	35.9811
760.152	27.0173
763.045	21.4873
765.938	18.9468
768.83	12.6912
771.723	8.27966
774.616	3.21454
777.508	0.589264
780.401	0.311066
783.294	0.38028
786.187	1.42248
789.079	6.30911
791.972	8.18295
794.865	14.2026
797.757	14.1198
800.65	16.7971
803.543	18.9916
806.435	22.389
809.328	22.6068
812.221	20.1466
815.114	17.7212
818.006	17.8147
820.899	12.3574
823.792	9.41107
826.684	5.25272
829.577	2.31476
832.47	2.68021
835.362	2.55652
838.255	1.91724
841.148	0.867554
844.04	3.01877
846.933	0.128937
849.826	3.51254
852.719	1.97583
855.611	2.51956
858.504	4.92157
861.397	5.95288
864.289	0.426514
867.182	1.30078
870.075	3.70776
872.967	1.43353
875.86	1.45966
878.753	2.54932
881.646	4.69782
884.538	8.15167
887.431	13.8883
890.324	21.4341
893.216	23.2421
896.109	29.1835
899.002	34.4952
901.894	35.4059
904.787	32.0866
907.68	27.9674
910.573	30.3415
913.465	25.5503
916.358	28.5325
919.251	30.6588
922.143	40.0147
925.036	44.2569
927.929	51.9578
930.822	59.9957
933.714	68.0841
936.607	72.9061
939.5	80.61
942.392	83.1067
945.285	83.0019
948.178	79.9772
951.07	73.6625
953.963	65.7393
956.856	56.5208
959.749	43.9927
962.641	37.4794
965.534	34.521
968.427	27.7042
971.319	25.0721
974.212	22.522
977.105	25.6601
979.997	30.907
982.89	32.0879
985.783	36.9655
988.676	40.818
991.568	43.1464
994.461	46.8105
997.354	45.4543
1000.25	44.8597
1003.14	47.349
1006.03	44.2902
1008.92	44.8852
1011.82	43.2645
1014.71	36.92
1017.6	35.221
1020.5	35.0693
1023.39	34.7247
1026.28	28.1133
1029.17	23.3596
1032.07	13.9104
1034.96	9.87176
1037.85	1.01294
1040.74	7.78638
1043.64	8.61615
1046.53	0.410095
1049.42	7.30542
1052.32	21.0747
1055.21	42.814
1058.1	64.7145
1060.99	89.4037
1063.89	116.554
1066.78	137.366
1069.67	152.973
1072.56	151.385
1075.46	131.236
1078.35	106.474
1081.24	87.1502
1084.13	71.8545
1087.03	61.4938
1089.92	55.1185
1092.81	49.7112
1095.7	38.9288
1098.6	31.1578
1101.49	17.7434
1104.38	6.92261
1107.28	0.973755
1110.17	0.036865
1113.06	0.303192
1115.95	0.427734
1118.85	0.049286
1121.74	0.195404
1124.63	0.5401
1127.53	1.40387
1130.42	1.38751
1133.31	1.73566
1136.2	4.02551
1139.1	3.91766
1141.99	4.72134
1144.88	5.90424
1147.77	6.6268
1150.67	4.01303
1153.56	7.94717
1156.45	6.40436
1159.35	8.59796
1162.24	6.02567
1165.13	9.05328
1168.02	7.9928
1170.92	9.1861
1173.81	10.8175
1176.7	11.5819
1179.59	11.6294
1182.49	11.5739
1185.38	11.1005
1188.27	11.5693
1191.16	11.9028
1194.06	9.01724
1196.95	9.51379
1199.84	11.3929
1202.73	10.3523
1205.63	13.2277
1208.52	12.4228
1211.41	13.3321
1214.31	12.6282
1217.2	9.41013
1220.09	12.4626
1222.98	9.83359
1225.88	11.3995
1228.77	8.02463
1231.66	8.40778
1234.56	8.82953
1237.45	5.43414
1240.34	5.28613
1243.23	8.8765
1246.13	6.16364
1249.02	4.86633
1251.91	6.21371
1254.8	5.70483
1257.7	3.32175
1260.59	8.11484
1263.48	5.77142
1266.38	3.95349
1269.27	2.95676
1272.16	1.14642
1275.05	1.47156
1277.95	2.20306
1280.84	0.881897
1283.73	0.054657
1286.62	2.1424
1289.52	0.169128
1292.41	0.122498
1295.3	1.25925
1298.19	2.23117
1301.09	1.21954
