Measurement: Raman, 785 nm, unoriented, Raman Data Processed
Mineral: Opal
Rruff sample: X070002
Ideal chemistry: SiO_2_nH_2_O
Locality: Synthetic
Source: Taka Yamanaka
Description: White polished cab, Raman spectra matches Polymethyl methacrylate (plexiglas)
Raman shift (cm-1)	intensity
151.393	0
154.286	37.1771
157.178	19.2246
160.071	9.5705
162.964	8.13965
165.856	44.48
168.749	80.6859
171.642	92.9795
174.534	109.384
177.427	102.999
180.32	109.503
183.212	105.42
186.105	106.445
188.998	82.5476
191.891	91.1636
194.783	95.6395
197.676	123.615
200.569	109.577
203.461	107.033
206.354	114.519
209.247	104.597
212.139	97.0179
215.032	110.646
217.925	76.2167
220.818	80.7104
223.71	83.213
226.603	122.962
229.496	83.8321
232.388	98.3251
235.281	96.1924
238.174	87.0659
241.066	71.8384
243.959	38.9935
246.852	26.7026
249.745	32.6165
252.637	20.0183
255.53	11.5221
258.423	7.18445
261.315	24.8683
264.208	20.7821
267.101	10.8911
269.993	33.1439
272.886	26.4121
275.779	53.8037
278.671	54.0012
281.564	80.5803
284.457	108.253
287.35	129.264
290.242	202.523
293.135	202.949
296.028	191.094
298.92	171.778
301.813	134.36
304.706	126.575
307.599	61.748
310.491	54.171
313.384	24.8901
316.277	12.9497
319.169	16.4408
322.062	50.8717
324.955	9.13818
327.847	4.75256
330.74	36.1118
333.633	8.15552
336.526	55.629
339.418	55.9823
342.311	60.5851
345.204	89.276
348.096	131.202
350.989	211.971
353.882	257.467
356.774	330.54
359.667	339.799
362.56	361.016
365.452	350.638
368.345	334.709
371.238	289.8
374.131	253.644
377.023	256.893
379.916	209.261
382.809	170.422
385.701	141.597
388.594	123.873
391.487	102.867
394.38	113.814
397.272	115.119
400.165	100.907
403.058	88.0557
405.95	94.6537
408.843	79.1891
411.736	90.6962
414.628	93.228
417.521	80.0109
420.414	111.418
423.307	96.7772
426.199	117.275
429.092	110.339
431.985	126.101
434.877	126.285
437.77	137.013
440.663	163.459
443.555	186.897
446.448	181.08
449.341	215.377
452.234	252.351
455.126	250.013
458.019	298.124
460.912	345.87
463.804	356.57
466.697	389.507
469.59	434.694
472.483	499.292
475.375	546.154
478.268	602.945
481.161	633.148
484.053	627.264
486.946	547.274
489.839	430.94
492.731	317.177
495.624	255.1
498.517	200.606
501.409	112.98
504.302	63.871
507.195	44.9888
510.087	31.2975
512.98	3.59949
515.873	21.8256
518.766	27.7499
521.658	24.6621
524.551	3.96136
527.444	17.3184
530.336	17.2784
533.229	20.7372
536.122	32.29
539.014	38.2456
541.907	73.0388
544.8	105.125
547.693	139.637
550.585	171.962
553.478	162.082
556.371	192.478
559.263	187.199
562.156	187.128
565.049	172.997
567.942	195.566
570.834	209.379
573.727	231.396
576.62	226.397
579.512	288.5
582.405	325.58
585.298	395.383
588.19	527.118
591.083	674.363
593.976	791.837
596.869	911.614
599.761	943.658
602.654	829.692
605.547	628.007
608.439	449.874
611.332	310.266
614.225	240.266
617.117	169.388
620.01	133.569
622.903	102.363
625.795	100.881
628.688	75.585
631.581	68.6294
634.474	73.1422
637.366	66.7751
640.259	58.7215
643.152	40.3888
646.044	40.6123
648.937	33.1503
651.83	35.0774
654.722	25.4607
657.615	18.7996
660.508	29.3522
663.401	25.8529
666.293	22.1698
669.186	12.7191
672.079	5.91156
674.971	16.4288
677.864	12.7133
680.757	1.17294
683.649	18.4671
686.542	6.78146
689.435	6.81638
692.328	1.03729
695.22	6.55255
698.113	6.069
701.006	4.92822
703.898	3.51874
706.791	18.4408
709.684	6.00864
712.577	5.22168
715.469	0.305115
718.362	10.6488
721.255	26.1934
724.147	29.8281
727.04	53.2645
729.933	64.5498
732.825	73.4624
735.718	58.3197
738.611	30.5521
741.504	40.1619
744.396	11.9826
747.289	8.87347
750.182	12.9731
753.074	22.6096
755.967	25.5449
758.86	26.7977
761.752	35.492
764.645	60.3404
767.538	64.4877
770.431	91.4532
773.323	117.528
776.216	128.219
779.109	158.401
782.001	176.485
784.894	215.631
787.787	215.176
790.679	258.918
793.572	278.738
796.465	385.372
799.357	528.223
802.25	825.019
805.143	1204.83
808.036	1740.66
810.928	2202.71
813.821	1856.42
816.714	935.869
819.606	454.463
822.499	255.382
825.392	167.984
828.284	100.169
831.177	101.089
834.07	65.4391
836.963	83.858
839.855	96.405
842.748	78.442
845.641	72.7406
848.533	34.4636
851.426	38.9936
854.319	10.1488
857.212	3.95688
860.104	17.3468
862.997	6.01672
865.89	21.1389
868.782	40.95
871.675	51.3692
874.568	69.3968
877.46	41.4345
880.353	22.681
883.246	15.3221
886.139	8.90189
889.031	13.1
891.924	2.30057
894.817	11.685
897.709	33.2497
900.602	53.2678
903.495	73.2986
906.387	92.9664
909.28	114.149
912.173	127.387
915.066	110.983
917.958	89.8023
920.851	83.5517
923.744	89.7746
926.636	79.599
929.529	89.8235
932.422	85.5654
935.314	104.535
938.207	143.674
941.1	149.555
943.992	182.097
946.885	216.312
949.778	271.082
952.671	346.385
955.563	405.307
958.456	525.999
961.349	601.335
964.241	650.5
967.134	693.587
970.027	622.963
972.919	605.149
975.812	611.523
978.705	639.734
981.598	637.377
984.49	681.119
987.383	667.927
990.276	655.349
993.168	572.963
996.061	542.749
998.954	420.449
1001.85	323.858
1004.74	177.247
1007.63	72.8996
1010.52	31.1004
1013.42	23.2472
1016.31	5.13017
1019.2	2.69569
1022.1	5.74947
1024.99	4.95927
1027.88	0.417892
1030.77	0.319122
1033.67	1.92015
1036.56	8.60242
1039.45	8.13594
1042.34	0.876465
1045.24	0.767487
1048.13	8.7805
1051.02	44.714
1053.91	54.1808
1056.81	86.1682
1059.7	90.3456
1062.59	97.0284
1065.49	106.248
1068.38	69.7823
1071.27	52.0915
1074.16	32.0885
1077.06	56.2495
1079.95	20.9649
1082.84	41.7614
1085.73	39.1225
1088.63	41.1965
1091.52	44.4235
1094.41	23.7758
1097.31	41.7196
1100.2	50.5977
1103.09	54.7858
1105.98	56.738
1108.88	77.0236
1111.77	84.2763
1114.66	130.305
1117.55	142.544
1120.45	157.69
1123.34	138.371
1126.23	97.0197
1129.12	82.0709
1132.02	41.9545
1134.91	15.0892
1137.8	1.76321
1140.7	2.19601
1143.59	32.919
1146.48	25.2475
1149.37	55.2427
1152.27	80.8997
1155.16	99.0467
1158.05	109.513
1160.94	88.0435
1163.84	77.2365
1166.73	81.4368
1169.62	109.063
1172.52	115.137
1175.41	139.291
1178.3	166.634
1181.19	159.444
1184.09	156.291
1186.98	138.67
1189.87	139.018
1192.77	112.461
1195.66	111.447
1198.55	129.444
1201.44	114.722
1204.34	78.0178
1207.23	65.787
1210.12	34.5789
1213.01	14.3489
1215.91	19.7093
1218.8	3.2988
1221.69	4.36585
1224.58	10.408
1227.48	41.2591
1230.37	15.0506
1233.26	40.3318
1236.15	39.1551
1239.05	0.376038
1241.94	8.72754
