Measurement: Raman, 780 nm, unoriented, Raman Data Processed
Mineral: Opal
Rruff sample: X080018
Ideal chemistry: SiO_2_nH_2_O
Locality: Synthetic
Source: Gemological Institute of America
Description: Polished tear drop-shaped cabachon, 1.37 ct, Raman spectra matches polystyrene (plastic)
Raman shift (cm-1)	intensity
119.335	0
122.71	6.9375
126.085	13.5675
129.46	16.6907
132.835	18.8257
136.209	19.7157
139.584	17.459
142.959	17.0101
146.334	16.9755
149.709	24.2001
153.084	21.1473
156.458	19.271
159.833	12.0441
163.208	5.45105
166.583	1.47552
169.958	1.54254
173.333	1.25037
176.707	12.4966
180.082	24.4711
183.457	40.1873
186.832	65.3448
190.207	86.9567
193.581	113.392
196.956	140.427
200.331	161.513
203.706	191.584
207.081	225.073
210.456	246.731
213.83	274.476
217.205	286.401
220.58	290.085
223.955	287.154
227.33	265.498
230.704	229.622
234.079	182.147
237.454	136.953
240.829	91.8283
244.204	57.1221
247.578	34.1498
250.953	17.0401
254.328	11.4925
257.703	6.41348
261.078	6.60336
264.453	6.59235
267.827	10.1806
271.202	11.549
274.577	14.8714
277.952	21.0879
281.327	23.7278
284.702	29.5784
288.076	30.132
291.451	35.3636
294.826	36.9415
298.201	41.1902
301.576	37.9136
304.95	27.2735
308.325	16.0682
311.7	7.34424
315.075	3.33621
318.45	0.121338
321.825	1.51416
325.199	1.73239
328.574	1.20148
331.949	0.47641
335.324	6.1785
338.699	5.89688
342.074	12.9839
345.448	19.3993
348.823	25.9206
352.198	33.6761
355.573	43.5304
358.947	51.519
362.322	55.7223
365.697	55.3617
369.072	49.4031
372.447	44.9654
375.822	38.4172
379.196	35.9056
382.571	34.6503
385.946	32.1958
389.321	37.4931
392.696	38.1704
396.071	41.6286
399.445	43.6868
402.82	42.949
406.195	48.8065
409.57	44.0427
412.945	35.5408
416.32	24.844
419.694	18.7217
423.069	12.1135
426.444	7.09689
429.819	6.16501
433.193	4.02161
436.568	1.38107
439.943	3.31735
443.318	1.31709
446.693	1.97565
450.068	0.624252
453.442	2.92786
456.817	0.147812
460.192	2.35271
463.567	8.59065
466.942	14.4688
470.317	19.5785
473.691	29.5412
477.066	37.9735
480.441	46.6897
483.816	49.347
487.191	45.5205
490.565	33.9123
493.94	25.4793
497.315	19.5853
500.69	14.8743
504.065	12.8333
507.44	8.84433
510.814	3.39761
514.189	1.34862
517.564	1.38881
520.939	2.97044
524.314	2.61603
527.688	2.44083
531.063	6.06876
534.438	10.2906
537.813	15.6856
541.188	18.5243
544.563	20.0403
547.937	23.1701
551.312	28.239
554.687	32.429
558.062	33.6615
561.437	31.3683
564.812	29.4733
568.186	27.5159
571.561	28.9386
574.936	33.2458
578.311	40.3571
581.686	49.0982
585.06	64.4438
588.435	88.2235
591.81	111.645
595.185	141.699
598.56	161.093
601.934	164.02
605.309	136.309
608.684	110.056
612.059	91.7721
615.434	115.728
618.809	195.916
622.183	268.277
625.558	101.673
628.933	41.3097
632.308	27.9658
635.683	20.506
639.058	16.0694
642.432	12.5554
645.807	9.09618
649.182	7.2093
652.557	4.502
655.932	4.74834
659.306	2.33846
662.681	1.60352
666.056	0.325592
669.431	1.71692
672.806	0.577148
676.181	1.19901
679.555	1.62421
682.93	1.93466
686.305	0.344345
689.68	0.258148
693.055	0.633911
696.429	5.13232
699.804	11.9498
703.179	16.4889
706.554	15.3108
709.929	6.66469
713.303	0.766312
716.678	2.68697
720.053	1.64038
723.428	0.916122
726.803	4.47705
730.178	13.3835
733.552	19.3846
736.927	27.9547
740.302	31.1875
743.677	32.3622
747.052	35.972
750.427	39.9877
753.801	50.3592
757.176	58.1212
760.551	60.2614
763.926	58.2456
767.301	53.6175
770.675	49.2959
774.05	43.2235
777.425	45.0528
780.8	57.0207
784.175	81.5418
787.549	111.463
790.924	143.971
794.299	169.03
797.674	183.847
801.049	191.547
804.424	206.674
807.798	266.628
811.173	377.063
814.548	346.864
817.923	137.715
821.298	41.7213
824.673	13.008
828.047	4.78445
831.422	0.562454
834.797	5.8743
838.172	21.4177
841.547	27.0799
844.921	23.226
848.296	15.2829
851.671	8.61618
855.046	3.64723
858.421	1.29361
861.795	1.50418
865.17	1.5164
868.545	2.70311
871.92	0.681091
875.295	0.751831
878.67	1.61526
882.044	0.383728
885.419	1.33687
888.794	2.32895
892.169	2.67337
895.544	6.91647
898.918	13.9855
902.293	23.8603
905.668	30.4685
909.043	29.2542
912.418	29.529
915.793	22.5748
919.168	17.3044
922.542	10.5335
925.917	4.13471
929.292	1.08917
932.667	0.590225
936.042	1.67317
939.416	1.43079
942.791	1.72342
946.166	7.32561
949.541	13.7675
952.916	24.2028
956.29	40.8492
959.665	58.2466
963.04	79.4983
966.415	93.5554
969.79	94.8068
973.165	90.7844
976.539	99.4422
979.914	121.019
983.289	151.876
986.664	206.487
990.039	336.749
993.413	452.46
996.788	709.528
1000.16	1496.64
1003.54	1731.19
1006.91	520.95
1010.29	114.305
1013.66	24.4509
1017.04	9.8517
1020.41	36.4035
1023.79	98.7267
1027.16	220.044
1030.54	369.579
1033.91	348.483
1037.29	181.467
1040.66	66.0691
1044.04	21.2756
1047.41	2.26883
1050.79	4.01465
1054.16	3.08687
1057.54	0.220566
1060.91	4.9576
1064.29	13.1772
1067.66	16.8967
1071.03	18.7127
1074.41	16.5928
1077.78	19.2651
1081.16	19.4533
1084.53	19.4294
1087.91	21.2174
1091.28	20.6026
1094.66	24.3688
1098.03	25.9141
1101.41	26.2528
1104.78	20.0218
1108.16	16.1448
1111.53	11.2501
1114.91	13.9367
1118.28	12.4439
1121.66	10.2489
1125.03	7.00658
1128.41	2.91144
1131.78	4.46866
1135.16	4.68376
1138.53	2.79057
1141.91	8.6002
1145.28	29.1892
1148.65	57.7004
1152.03	111.024
1155.4	168.469
1158.78	148.299
1162.15	94.4057
1165.53	74.8115
1168.9	74.5862
1172.28	88.4648
1175.65	119.527
1179.03	187.368
1182.4	247.141
1185.78	223.566
1189.15	195.072
1192.53	202.488
1195.9	214.392
1199.28	214.425
1202.65	200.837
1206.03	170.358
1209.4	122.036
1212.78	82.0934
1216.15	51.9059
1219.53	41.6901
1222.9	40.38
1226.28	34.5396
1229.65	33.5314
1233.03	27.8991
1236.4	25.1703
1239.78	26.1289
1243.15	23.3513
1246.53	20.1416
1249.9	13.9243
1253.28	10.8363
1256.65	3.75244
1260.02	1.87657
1263.4	1.23527
1266.77	0.687988
1270.15	5.07761
1273.52	7.88301
1276.9	2.10255
1280.27	0.273239
1283.65	4.19136
1287.02	0
