Measurement: Raman, 532 nm, unoriented, Raman Data Processed
Mineral: Opal
Rruff sample: R070627
Ideal chemistry: SiO_2_nH_2_O
Locality: Madagascar
Source: www.multicolour.com
Description: Polished iridescent fragment, Opal-CT. There is probably some polymer filler included, based on X-ray diffraction pattern
Raman shift (cm-1)	intensity
147.495	0
150.388	19.75
153.28	58.0615
156.173	84.3564
159.066	152.688
161.958	300.127
164.851	228.969
167.744	120.965
170.637	1.67676
173.529	103.137
176.422	21.3613
179.315	38.4248
182.207	79.1211
185.1	242.367
187.993	343.427
190.885	497.678
193.778	686.341
196.671	932.231
199.563	1105.62
202.456	1290.76
205.349	1641.36
208.242	2153.27
211.134	2782.84
214.027	3506.7
216.92	4320.89
219.812	5351.59
222.705	6474.39
225.598	7370.53
228.49	8115.92
231.383	7575.67
234.276	6341.94
237.168	5031.53
240.061	3691.88
242.954	2760.94
245.847	2138.68
248.739	1478.75
251.632	1224.69
254.525	1085.89
257.417	879.784
260.31	785.879
263.203	747.201
266.096	791.846
268.988	904.928
271.881	811.156
274.774	654.776
277.666	552.266
280.559	496.316
283.452	593.18
286.344	723.776
289.237	565.277
292.13	578.032
295.022	655.636
297.915	570.678
300.808	487.327
303.701	323.059
306.593	213.878
309.486	126.662
312.379	161.529
315.271	0.979492
318.164	10.9424
321.057	166.115
323.95	113.068
326.842	180.263
329.735	17.9287
332.628	61.9258
335.52	292.364
338.413	377.982
341.306	575.944
344.198	688.203
347.091	689.12
349.984	874.841
352.877	1095.77
355.769	1213.69
358.662	1502.53
361.555	1737.06
364.447	1911.48
367.34	2000.9
370.233	2217.32
373.125	2372.87
376.018	2564.34
378.911	2620.21
381.803	2651.02
384.696	2760.23
387.589	2971.09
390.481	3377.01
393.374	3990.81
396.267	4607.45
399.16	5586.29
402.052	6690.39
404.945	8083.07
407.838	9535.67
410.73	11024.3
413.623	12306.1
416.516	12750.3
419.409	11837.2
422.301	9820.06
425.194	7746.42
428.087	6014.4
430.979	4684.12
433.872	3749.82
436.765	2843.29
439.657	2225.48
442.55	1645.94
445.443	1318.61
448.336	1006.94
451.228	739.213
454.121	518.359
457.014	416.661
459.906	246.323
462.799	128.043
465.692	108.834
468.584	23.042
471.477	46.4434
474.37	12.627
477.262	33.1426
480.155	9.54688
483.048	52.748
485.941	1.61816
488.833	14.1572
491.726	105.201
494.619	70.7481
497.511	33.9121
500.404	28.6689
503.297	77.5117
506.19	24.2881
509.082	42.2588
511.975	116.35
514.868	118.122
517.76	135.587
520.653	248.037
523.546	147.56
526.438	191.154
529.331	223.958
532.224	259.653
535.116	258.106
538.009	235.774
540.902	263.109
543.795	277.946
546.687	305.226
549.58	284.37
552.473	186.785
555.365	203.943
558.258	187.009
561.151	237.699
564.043	195.395
566.936	158.317
569.829	110.151
572.721	215.924
575.614	215.333
578.507	140.054
581.4	173.815
584.292	202.655
587.185	48.8613
590.078	111.669
592.97	159.674
595.863	174.93
598.756	137.775
601.649	108.233
604.541	62.6289
607.434	130.495
610.327	66.4522
613.219	54.1826
616.112	83.0811
619.005	82.2314
621.897	55.0361
624.79	92.1025
627.683	126.001
630.576	106.097
633.468	79.9932
636.361	65.6484
639.254	95.8359
642.146	60.4736
645.039	16.3252
647.932	67.082
650.824	10.4805
653.717	24.3164
656.61	11.9424
659.502	18.1133
662.395	28.6328
665.288	10.2949
668.181	71.1064
671.073	8.4375
673.966	0.439453
676.859	49.082
679.751	33.0938
682.644	85.7998
685.537	1.94629
688.429	131.667
691.322	73.5371
694.215	71.5342
697.107	104.038
700	63.6748
702.893	118.633
705.786	71.7402
708.678	36.6484
711.571	9.26172
714.464	15.9102
717.356	10.8438
720.249	47.8447
723.142	63.3086
726.034	65.0186
728.927	15.4111
731.82	27.7246
734.713	56.3984
737.605	52.5088
740.498	15.9815
743.391	4.00781
746.283	9.25781
749.176	56.4131
752.069	139.48
754.962	156.991
757.854	195.332
760.747	161.449
763.64	247.16
766.532	368.537
769.425	572.618
772.318	737.554
775.21	1005.88
778.103	1296.19
780.996	1485.85
783.889	1558.36
786.781	1312.62
789.674	1262.51
792.567	950.959
795.459	861.72
798.352	661.093
801.245	525.495
804.137	479.565
807.03	312.801
809.923	171.581
812.816	245.863
815.708	171.929
818.601	135.114
821.494	22.8213
824.386	35.207
827.279	70.2939
830.172	10.5898
833.064	39.4873
835.957	69.5811
838.85	41.168
841.742	72.499
844.635	18.6152
847.528	58.6387
850.42	42.1416
853.313	22.8271
856.206	35.4209
859.099	16.4355
861.991	47.8535
864.884	97.3223
867.777	127.476
870.669	25.0146
873.562	73.1436
876.455	139.628
879.347	19.0947
882.24	49.29
885.133	147.88
888.026	107.303
890.918	84.5889
893.811	54.7315
896.704	19.6211
899.596	115.643
902.489	79.6934
905.382	81.3281
908.274	124.562
911.167	118.307
914.06	85.666
916.953	140.131
919.845	96.6865
922.738	115.942
925.631	178.061
928.523	144.859
931.416	95.459
934.309	141.398
937.202	135.462
940.094	122.208
942.987	150.732
945.88	130.07
948.772	90.7197
951.665	89.1074
954.558	158.056
957.45	157.312
960.343	202.362
963.236	101.781
966.129	96.9834
969.021	76.209
971.914	54.167
974.807	30.9238
977.699	6.95898
980.592	75.8848
983.485	62.8935
986.377	31.7451
989.27	33.3691
992.163	31.4043
995.056	50.3203
997.948	12.7803
1000.84	54.5928
1003.73	1.99121
1006.63	37.0527
1009.52	80.6025
1012.41	102.541
1015.3	110.825
1018.2	72.999
1021.09	92.9473
1023.98	127.568
1026.88	131.129
1029.77	100.518
1032.66	96.957
1035.55	107.179
1038.45	156.046
1041.34	122.176
1044.23	210.056
1047.12	197.894
1050.02	169.206
1052.91	156.948
1055.8	201.264
1058.69	252.398
1061.59	271.269
1064.48	303.519
1067.37	481.175
1070.27	562.642
1073.16	752.217
1076.05	863.053
1078.94	780.533
1081.84	606.925
1084.73	448.356
1087.62	267.431
1090.52	222.556
1093.41	176.32
1096.3	75.0322
1099.19	111.55
1102.09	101.027
1104.98	31.2031
1107.87	25.7002
1110.76	93.6191
1113.66	39.5098
1116.55	2.38184
1119.44	53.6406
1122.33	1.78906
1125.23	7.68164
1128.12	17.4082
1131.01	77.7402
1133.9	20.6992
1136.8	61.624
1139.69	69.9092
1142.58	91.1582
1145.48	117.784
1148.37	78.0772
1151.26	36.8457
1154.15	68.4219
1157.05	27.1113
1159.94	4.3418
1162.83	21.0225
1165.72	4.34277
1168.62	33.2949
1171.51	100.315
1174.4	70.9609
1177.3	96.2168
1180.19	79.915
1183.08	104.23
1185.97	99.0928
1188.87	58.5801
1191.76	166.85
1194.65	187.189
1197.54	198.138
1200.44	156.25
1203.33	192.423
1206.22	152.57
1209.12	263.802
1212.01	209.019
1214.9	130.13
1217.79	116.105
1220.69	108.512
1223.58	91.4111
1226.47	107.749
1229.36	108.096
1232.26	114.629
1235.15	126.006
1238.04	125.288
1240.93	100.324
1243.83	104.394
1246.72	107.387
1249.61	23.4678
1252.51	100.413
1255.4	129.613
1258.29	100.582
1261.18	62.2315
1264.08	165.025
1266.97	126.224
1269.86	160.712
1272.76	76.8369
1275.65	131.397
1278.54	54.6807
1281.43	125.124
1284.33	141.441
1287.22	51.1426
