Measurement: Raman, 780 nm, unoriented, Raman Data Processed
Mineral: Opal
Rruff sample: R070627
Ideal chemistry: SiO_2_nH_2_O
Locality: Madagascar
Source: www.multicolour.com
Description: Polished iridescent fragment, Opal-CT. There is probably some polymer filler included, based on X-ray diffraction pattern
Raman shift (cm-1)	intensity
136.826	0
139.718	23.6929
142.611	4.7915
145.504	44.582
148.397	81.6294
151.289	21.748
154.182	42.7978
157.075	50.8662
159.967	13.917
162.86	13.3862
165.753	18.0151
168.645	80.2241
171.538	18.7749
174.431	34.2065
177.323	73.54
180.216	228.395
183.109	240.726
186.002	399.817
188.894	486.493
191.787	686.914
194.68	876.15
197.572	1086.77
200.465	1338.09
203.358	1550.09
206.25	1826.69
209.143	2238.84
212.036	2692.97
214.929	3238.02
217.821	4019.54
220.714	4844.96
223.607	5682.62
226.5	6341.15
229.392	6573.97
232.285	6117.21
235.178	5122.56
238.07	3812.29
240.963	2957.11
243.856	2328.56
246.748	1806.76
249.641	1410.25
252.534	1131.51
255.427	975.345
258.319	811.309
261.212	757.012
264.105	729.443
266.997	696.769
269.89	744.663
272.783	736.243
275.675	638.898
278.568	709.98
281.461	574.576
284.353	568.543
287.246	642.923
290.139	559.375
293.032	481.367
295.924	399.195
298.817	437.823
301.71	326.394
304.602	293.505
307.495	112.961
310.388	88.0063
313.281	84.8731
316.173	33.8916
319.066	98.5752
321.959	124.107
324.851	90.3535
327.744	71.5977
330.637	18.5161
333.529	44.1929
336.422	87.9932
339.315	173.589
342.207	178.705
345.1	283.708
347.993	292.938
350.886	368.762
353.778	445.054
356.671	559.57
359.564	661.076
362.456	799.095
365.349	844.495
368.242	1011.65
371.135	1113.44
374.027	1197.93
376.92	1220.35
379.813	1229.16
382.705	1309.28
385.598	1378.6
388.491	1516.99
391.383	1684.81
394.276	2005.35
397.169	2399.96
400.062	2990.17
402.954	3614.03
405.847	4383.25
408.74	5335.15
411.632	6228.15
414.525	6971.6
417.418	7199.15
420.31	6408.19
423.203	5381.81
426.096	4233.16
428.989	3308.87
431.881	2590.94
434.774	2135.41
437.667	1692.86
440.559	1265.57
443.452	980.447
446.345	772.225
449.238	595.483
452.13	483.021
455.023	329.217
457.916	318.225
460.808	235.162
463.701	138.311
466.594	110.007
469.486	49.6585
472.379	75.1013
475.272	15.7888
478.164	25.6465
481.057	2.28906
483.95	11.6235
486.843	5.67114
489.735	47.5283
492.628	27.5908
495.521	4.85181
498.413	23.0007
501.306	12.2906
504.199	23.5597
507.091	9.5846
509.984	2.95654
512.877	29.8718
515.77	63.8198
518.662	30.4559
521.555	82.5547
524.448	101.737
527.34	88.9646
530.233	81.7987
533.126	77.7838
536.019	134.006
538.911	146.268
541.804	157.999
544.697	130.6
547.589	120.803
550.482	151.485
553.375	130.258
556.267	92.3071
559.16	122.746
562.053	126.757
564.946	81.2328
567.838	67.7837
570.731	95.2852
573.624	100.408
576.516	79.5858
579.409	82.6221
582.302	89.3687
585.194	80.5422
588.087	79.4418
590.98	54.2057
593.873	51.7737
596.765	73.3079
599.658	80.6464
602.551	50.255
605.443	55.7358
608.336	43.4287
611.229	90.4398
614.121	42.5876
617.014	52.7202
619.907	16.6392
622.8	28.3765
625.692	19.3538
628.585	33.8776
631.478	27.4992
634.37	45.2911
637.263	51.7218
640.156	12.8666
643.048	56.6477
645.941	67.1177
648.834	29.7568
651.727	38.3948
654.619	56.5079
657.512	8.91638
660.405	49.4131
663.297	14.0234
666.19	28.2455
669.083	40.6827
671.976	26.1954
674.868	24.2661
677.761	13.7906
680.654	17.1415
683.546	11.7797
686.439	36.9747
689.332	16.8264
692.224	20.8507
695.117	1.07507
698.01	8.74927
700.903	27.1951
703.795	2.22693
706.688	32.2473
709.581	16.7756
712.473	5.8009
715.366	21.8911
718.259	25.9936
721.151	18.1226
724.044	21.3219
726.937	33.8124
729.83	29.5362
732.722	8.41296
735.615	34.3282
738.508	23.1128
741.4	7.78418
744.293	28.9268
747.186	2.08423
750.078	47.453
752.971	24.0096
755.864	62.0701
758.756	62.7797
761.649	44.6219
764.542	133.486
767.435	186.278
770.327	276.878
773.22	427.302
776.113	573.672
779.005	669.635
781.898	778.506
784.791	715.08
787.683	582.963
790.576	543.597
793.469	500.251
796.362	392.549
799.254	317.025
802.147	241.193
805.04	179.533
807.932	128.567
810.825	124.332
813.718	92.4553
816.611	76.5331
819.503	66.8152
822.396	43.9309
825.289	37.114
828.181	37.1208
831.074	5.18665
833.967	9.05566
836.859	22.6335
839.752	12.2135
842.645	22.6791
845.538	12.7468
848.43	10.0122
851.323	18.3818
854.216	17.9116
857.108	26.6541
860.001	32.6351
862.894	19.5913
865.786	51.9106
868.679	22.1844
871.572	27.9241
874.465	15.8068
877.357	33.2146
880.25	12.3737
883.143	36.4341
886.035	38.8274
888.928	35.5715
891.821	0.045654
894.713	16.6163
897.606	12.7479
900.499	3.65942
903.392	4.36975
906.284	29.4524
909.177	53.8662
912.07	42.7545
914.962	34.8114
917.855	36.0751
920.748	40.8185
923.64	19.2689
926.533	12.1062
929.426	45.5934
932.319	48.4424
935.211	51.6144
938.104	42.6312
940.997	45.3657
943.889	72.5154
946.782	76.9307
949.675	50.688
952.567	54.2305
955.46	56.6551
958.353	75.3093
961.246	58.103
964.138	57.7102
967.031	1.91419
969.924	75.3092
972.816	18.2327
975.709	21.7242
978.602	3.76184
981.495	23.3674
984.387	15.9019
987.28	10.9888
990.173	35.4906
993.065	1.43933
995.958	44.6562
998.851	30.2791
1001.74	12.1103
1004.64	27.3142
1007.53	2.59424
1010.42	27.3823
1013.31	27.0103
1016.21	34.1987
1019.1	52.5259
1021.99	0.115906
1024.88	0.66748
1027.78	34.8705
1030.67	54.0939
1033.56	40.4633
1036.46	54.9568
1039.35	34.1541
1042.24	47.4214
1045.13	26.1993
1048.03	72.9797
1050.92	46.8253
1053.81	77.7779
1056.7	83.27
1059.6	79.6005
1062.49	123.713
1065.38	139.03
1068.28	187.2
1071.17	267.331
1074.06	335.286
1076.95	389.892
1079.85	315.56
1082.74	238.273
1085.63	189.506
1088.53	118.305
1091.42	123.788
1094.31	89.1539
1097.2	63.2822
1100.1	47.7264
1102.99	15.073
1105.88	22.0867
1108.77	31.5671
1111.67	15.954
1114.56	64.0251
1117.45	3.26489
1120.34	10.4436
1123.24	15.2476
1126.13	21.2267
1129.02	43.9051
1131.91	33.5721
1134.81	1.72846
1137.7	13.6144
1140.59	8.66602
1143.49	24.3623
1146.38	18.3697
1149.27	3.23315
1152.16	10.1002
1155.06	25.8166
1157.95	24.361
1160.84	14.4948
1163.73	42.2809
1166.63	17.6757
1169.52	10.4412
1172.41	25.201
1175.31	23.3865
1178.2	26.3975
1181.09	10.4603
1183.98	69.2744
1186.88	95.9277
1189.77	81.8504
1192.66	79.6816
1195.55	100.186
1198.45	88.7111
1201.34	78.5377
1204.23	71.9208
1207.12	46.9094
1210.02	31.2942
1212.91	39.9301
1215.8	41.587
1218.7	16.6203
1221.59	28.3206
1224.48	35.4728
1227.37	23.6233
1230.27	55.4521
1233.16	45.8788
1236.05	28.7869
1238.94	13.1903
1241.84	22.7114
1244.73	56.6764
1247.62	32.0782
1250.52	38.9534
1253.41	38.7799
1256.3	31.9618
1259.19	22.941
1262.09	32.9163
1264.98	42.241
1267.87	4.65765
1270.77	14.9747
1273.66	9.31262
1276.55	23.8332
