Measurement: Raman, 780 nm, unoriented, Raman Data Processed
Mineral: Opal
Rruff sample: R060652
Ideal chemistry: SiO_2_nH_2_O
Locality: Ethiopia
Source: Gemological Institute of America
Description: Colorless cloudy glassy fragment, variety opal-C
Measured chemistry: (Si_0.98_Al_0.02_)_Σ=1_(O_1.98_(OH)_0.02_)_Σ=2_·0.57H_2_O; OH estimated by charge balance; H_2_O by difference
Raman shift (cm-1)	intensity
94.4526	0
97.8274	4.97565
101.202	4.59662
104.577	5.42569
107.952	15.5515
111.327	6.17502
114.701	6.92194
118.076	8.43896
121.451	7.53787
124.826	16.7539
128.201	14.7945
131.576	15.3553
134.95	13.7754
138.325	10.5952
141.7	10.7592
145.075	3.31576
148.45	2.22299
151.825	1.77695
155.199	3.90768
158.574	3.8562
161.949	9.46623
165.324	9.42198
168.698	10.8083
172.073	13.3772
175.448	13.2672
178.823	13.3595
182.198	14.9411
185.573	14.085
188.947	14.071
192.322	12.0127
195.697	11.0108
199.072	10.7804
202.447	10.4725
205.821	8.617
209.196	6.84381
212.571	3.61867
215.946	2.31775
219.321	2.91403
222.696	2.87212
226.07	1.58716
229.445	0.479645
232.82	0.112793
236.195	1.48518
239.57	0.699768
242.945	0.09581
246.319	0.927856
249.694	1.02565
253.069	0.992157
256.444	2.20363
259.818	0.76535
263.193	2.27817
266.568	3.77542
269.943	6.86929
273.318	6.66791
276.693	11.9709
280.067	14.7383
283.442	19.3092
286.817	22.766
290.192	26.9819
293.567	31.4886
296.942	34.052
300.316	35.914
303.691	39.0974
307.066	40.4861
310.441	42.4397
313.816	42.0886
317.19	42.9132
320.565	41.7012
323.94	43.3706
327.315	41.6087
330.69	43.0758
334.065	41.7886
337.439	42.0525
340.814	39.3503
344.189	38.743
347.564	38.6747
350.938	36.6571
354.313	32.5951
357.688	29.1919
361.063	27.2449
364.438	24.8233
367.813	21.3388
371.187	17.731
374.562	13.7126
377.937	12.2101
381.312	8.96082
384.687	6.85635
388.062	4.90588
391.436	5.35304
394.811	2.99521
398.186	4.16538
401.561	5.69984
404.935	6.72122
408.31	7.28001
411.685	9.11256
415.06	11.4153
418.435	10.6104
421.81	10.6132
425.184	9.55602
428.559	7.07008
431.934	3.63684
435.309	3.10634
438.684	2.34615
442.058	0.178696
445.433	0.011322
448.808	0.209
452.183	0.390518
455.558	0.359726
458.933	0.314987
462.307	0.992813
465.682	1.60754
469.057	0.905823
472.432	0.378983
475.807	0.426537
479.182	1.39278
482.556	3.20582
485.931	4.79129
489.306	3.62586
492.681	1.26785
496.055	1.0653
499.43	0.082695
502.805	0.464165
506.18	0.008514
509.555	1.43945
512.93	2.47913
516.304	4.00927
519.679	4.78918
523.054	6.00193
526.429	6.78894
529.804	7.7236
533.178	8.2222
536.553	9.53462
539.928	9.99428
543.303	11.3201
546.678	13.2001
550.053	13.402
553.427	14.314
556.802	12.6146
560.177	12.1241
563.552	10.8299
566.927	9.3604
570.302	9.14584
573.676	8.61538
577.051	8.03268
580.426	7.98282
583.801	6.7408
587.176	6.16589
590.55	5.64885
593.925	5.24489
597.3	4.94959
600.675	4.02886
604.05	3.67265
607.424	3.77612
610.799	2.87074
614.174	2.60742
617.549	3.11494
620.924	2.14598
624.298	1.30674
627.673	1.87411
631.048	1.63159
634.423	1.70395
637.798	1.34082
641.173	0.942295
644.547	1.52517
647.922	1.37861
651.297	1.66346
654.672	1.32045
658.047	1.32148
661.421	1.32117
664.796	0.919468
668.171	0.487225
671.546	0.372902
674.921	0.782009
678.295	2.19705
681.67	0.470711
685.045	0.546314
688.42	0.32777
691.795	0.311607
695.17	0.040886
698.544	0.143768
701.919	0.338486
705.294	0.289394
708.669	0.078659
712.044	0.234314
715.418	0.824795
718.793	0.068428
722.168	0.102428
725.543	0.015923
728.918	0.081985
732.293	0.126354
735.667	0.263153
739.042	0.016911
742.417	0.249718
745.792	0.582088
749.167	0.080326
752.541	0.91193
755.916	1.53067
759.291	2.93875
762.666	4.31407
766.041	7.18173
769.415	10.6914
772.79	16.356
776.165	22.1549
779.54	26.1755
782.915	26.2867
786.29	22.7958
789.664	20.8334
793.039	17.7125
796.414	14.9436
799.789	12.8532
803.164	11.3697
806.538	10.3078
809.913	9.44187
813.288	7.89682
816.663	7.54914
820.038	6.67441
823.413	5.14558
826.787	5.51435
830.162	4.2772
833.537	3.00484
836.912	2.02219
840.287	1.46595
843.661	0.874222
847.036	0.645851
850.411	0.960739
853.786	0.954433
857.161	0.737938
860.535	0.277119
863.91	0.35614
867.285	0.635201
870.66	0.687664
874.035	0.407108
877.409	0.351059
880.784	0.312984
884.159	0.017117
887.534	0.238953
890.909	0.301632
894.284	0.277077
897.658	0.049255
901.033	0.233837
904.408	0.449661
907.783	0.642799
911.158	0.799038
914.533	0.300144
917.907	0.430754
921.282	0.503277
924.657	0.938478
928.032	0.907
931.407	1.73158
934.781	2.47268
938.156	2.84219
941.531	3.43433
944.906	4.30847
948.281	4.54575
951.655	4.76393
955.03	5.34838
958.405	5.16497
961.78	4.88591
965.155	4.69473
968.529	3.92125
971.904	2.31418
975.279	1.78553
978.654	1.17189
982.029	0.561733
985.404	0.315306
988.778	0.150669
992.153	0.343983
995.528	0.091631
998.903	0.399981
1002.28	0.049931
1005.65	0.052687
1009.03	0.359169
1012.4	0.689266
1015.78	0.741066
1019.15	1.34275
1022.53	1.26263
1025.9	1.75445
1029.28	2.20093
1032.65	2.21807
1036.03	2.14629
1039.4	2.8768
1042.78	3.53878
1046.15	3.59562
1049.53	3.92501
1052.9	4.02157
1056.28	4.24363
1059.65	4.91863
1063.02	5.5301
1066.4	6.52516
1069.77	6.69755
1073.15	7.25731
1076.52	7.24289
1079.9	7.47453
1083.27	6.45923
1086.65	5.10658
1090.02	4.01653
1093.4	3.05886
1096.77	2.29819
1100.15	1.74028
1103.52	0.621702
1106.9	0.477842
1110.27	0.052284
1113.65	0.050629
1117.02	0.119801
1120.4	0.046471
1123.77	0.058901
1127.15	0.22633
1130.52	0.48385
1133.9	0.545841
1137.27	0.275785
1140.64	0.230663
1144.02	0.476599
1147.39	0.35009
1150.77	0.004181
1154.14	0.48156
1157.52	0.46871
1160.89	0.335829
1164.27	0.644485
1167.64	0.637232
1171.02	0.585669
1174.39	0.557169
1177.77	0.797144
1181.14	0.72884
1184.52	1.62567
1187.89	1.21455
1191.27	1.27718
1194.64	1.51206
1198.02	1.34696
1201.39	1.80766
1204.77	1.48223
1208.14	1.71714
1211.52	1.35648
1214.89	1.43201
1218.27	1.23289
1221.64	1.30629
1225.02	1.41928
1228.39	0.991564
1231.77	1.08192
1235.14	1.17792
1238.52	1.24433
1241.89	1.32534
1245.26	0.403963
1248.64	0.437923
1252.01	0.105625
1255.39	0.2871
1258.76	0.404703
1262.14	0.094845
1265.51	0.28768
1268.89	0.211117
1272.26	1.08079
1275.64	0.919445
1279.01	0.11989
1282.39	0.214813
