Measurement: Raman, 780 nm, unoriented, Raman Data Processed
Mineral: Opal
Rruff sample: R060650
Ideal chemistry: SiO_2_nH_2_O
Locality: Idaho, USA
Source: Gemological Institute of America
Description: Orange-brown glassy fragment, variety is opal-CT, based on its X-ray diffraction pattern
Measured chemistry: Si_1.00_O_2_ Â· 0.18H_2_O
Raman shift (cm-1)	intensity
96.8632	0
100.238	1.60303
103.613	1.24878
106.988	16.8356
110.362	13.4655
113.737	8.10181
117.112	18.2921
120.487	14.3239
123.862	29.5474
127.237	37.0666
130.611	39.2048
133.986	34.8032
137.361	26.1221
140.736	27.2194
144.111	13.0037
147.485	6.66156
150.86	0.792603
154.235	3.40698
157.61	6.61114
160.985	8.78888
164.359	16.3386
167.734	20.0751
171.109	23.024
174.484	22.5992
177.859	25.2543
181.234	31.0634
184.608	34.0427
187.983	32.2164
191.358	26.5192
194.733	22.6288
198.108	23.9117
201.482	17.3943
204.857	17.9042
208.232	12.805
211.607	6.87061
214.982	5.8139
218.357	3.32782
221.731	0.351074
225.106	2.38251
228.481	0.230347
231.856	2.47778
235.231	3.9173
238.605	3.98883
241.98	4.51581
245.355	0.052795
248.73	3.49939
252.105	3.92981
255.48	4.6507
258.854	6.28168
262.229	3.78406
265.604	3.58063
268.979	6.38202
272.354	9.49011
275.728	23.8054
279.103	31.4106
282.478	43.6484
285.853	57.0442
289.228	74.3623
292.602	86.0074
295.977	99.8313
299.352	110.858
302.727	109.755
306.102	115.599
309.476	110.633
312.851	114.738
316.226	112.233
319.601	110.81
322.976	112.127
326.351	109.047
329.725	111.639
333.1	113.724
336.475	117.554
339.85	122.405
343.225	124.275
346.599	126.488
349.974	128.568
353.349	122.958
356.724	124.669
360.099	115.847
363.474	109.034
366.848	99.5431
370.223	84.2566
373.598	74.9844
376.973	55.7222
380.348	42.2777
383.722	31.2719
387.097	21.0697
390.472	15.3486
393.847	6.26947
397.222	5.10419
400.596	4.68469
403.971	6.18646
407.346	7.0636
410.721	13.245
414.096	14.3372
417.471	16.9266
420.845	17.6656
424.22	15.2737
427.595	14.8659
430.97	10.3118
434.345	4.32745
437.719	1.38367
441.094	0.861938
444.469	2.27429
447.844	0.924133
451.219	1.87036
454.594	1.25263
457.968	1.99573
461.343	2.76129
464.718	3.03986
468.093	2.02899
471.468	0.929657
474.842	2.39218
478.217	7.92325
481.592	15.6541
484.967	18.0401
488.342	21.7556
491.716	18.5874
495.091	13.6464
498.466	6.48447
501.841	5.68359
505.216	3.93344
508.591	7.8313
511.965	10.5212
515.34	12.9232
518.715	15.1393
522.09	18.5133
525.465	16.062
528.84	19.113
532.214	17.6488
535.589	20.856
538.964	20.6054
542.339	20.578
545.713	22.9824
549.088	23.4282
552.463	24.6727
555.838	25.269
559.213	22.7672
562.588	20.6566
565.962	20.1103
569.337	17.4992
572.712	17.196
576.087	14.7157
579.462	13.5698
582.837	13.4248
586.211	11.2238
589.586	10.53
592.961	8.69598
596.336	8.90479
599.711	8.97644
603.085	8.82221
606.46	9.09967
609.835	7.26837
613.21	7.62241
616.585	5.15436
619.96	5.06946
623.334	4.46591
626.709	1.37686
630.084	2.94101
633.459	2.58447
636.833	0.729553
640.208	0.537842
643.583	0.208405
646.958	0.45932
650.333	0.066803
653.708	0.428406
657.082	0.184601
660.457	0.076355
663.832	0.18634
667.207	0.403778
670.582	1.27445
673.957	1.65942
677.331	2.14499
680.706	2.03406
684.081	1.89819
687.456	6.70438
690.831	3.8967
694.205	6.56921
697.58	6.94989
700.955	8.55362
704.33	9.09833
707.705	6.22177
711.079	4.23389
714.454	3.78244
717.829	6.2713
721.204	0.091827
724.579	1.52124
727.953	0.488403
731.328	1.04041
734.703	0.156464
738.078	0.335846
741.453	0.65274
744.828	0.137512
748.202	0.866669
751.577	1.63547
754.952	5.07681
758.327	6.00558
761.702	12.4232
765.077	15.0747
768.451	25.6767
771.826	38.0497
775.201	51.4991
778.576	61.5325
781.951	66.0764
785.325	62.095
788.7	57.69
792.075	47.8961
795.45	40.0989
798.825	34.3687
802.199	29.8955
805.574	24.3405
808.949	22.042
812.324	17.3153
815.699	15.3333
819.073	13.7576
822.448	13.2785
825.823	11.0757
829.198	9.03256
832.573	6.65985
835.948	8.03094
839.322	5.90378
842.697	5.24383
846.072	5.54565
849.447	4.44118
852.822	4.6991
856.197	5.32439
859.571	5.07964
862.946	5.35767
866.321	6.19533
869.696	4.91142
873.071	5.85005
876.445	5.29869
879.82	3.56067
883.195	2.88408
886.57	0.265945
889.945	0.985306
893.319	1.75839
896.694	1.3768
900.069	0.599289
903.444	1.22286
906.819	0.731735
910.193	1.32489
913.568	0.662354
916.943	0.047592
920.318	1.08784
923.693	0.0979
927.068	0.492157
930.442	0.966354
933.817	5.33733
937.192	1.7906
940.567	1.08241
943.942	3.23309
947.317	1.73944
950.691	2.99197
954.066	2.70845
957.441	3.59309
960.816	4.65771
964.191	6.80557
967.565	7.26207
970.94	10.0535
974.315	9.50507
977.69	8.23509
981.065	5.36908
984.439	2.49674
987.814	1.55312
991.189	0.390549
994.564	0.777908
997.939	0.325119
1001.31	0.139145
1004.69	1.7117
1008.06	0.268082
1011.44	0.34317
1014.81	0.722183
1018.19	1.04942
1021.56	0.56868
1024.94	3.19844
1028.31	1.64268
1031.69	1.46079
1035.06	2.49878
1038.44	2.98634
1041.81	4.32436
1045.19	5.83249
1048.56	6.20137
1051.94	7.36575
1055.31	8.69208
1058.68	9.76753
1062.06	11.0453
1065.43	13.9267
1068.81	17.8449
1072.18	18.3845
1075.56	19.5272
1078.93	19.4186
1082.31	20.3891
1085.68	17.3624
1089.06	15.537
1092.43	11.9678
1095.81	9.45277
1099.18	7.44609
1102.56	5.87923
1105.93	3.5094
1109.31	3.20949
1112.68	2.36116
1116.06	2.21704
1119.43	1.35413
1122.81	1.25755
1126.18	1.06061
1129.56	0.189651
1132.93	1.32089
1136.31	0.321991
1139.68	1.32655
1143.06	0.92099
1146.43	0.076202
1149.81	0.272232
1153.18	1.40933
1156.56	0.01207
1159.93	0.787201
1163.31	0.395844
1166.68	0.104797
1170.05	0.329514
1173.43	0.364319
1176.8	0.052795
1180.18	0.542618
1183.55	0.945328
1186.93	2.32239
1190.3	2.28451
1193.68	3.19168
1197.05	2.20918
1200.43	1.95157
1203.8	3.25617
1207.18	3.20665
1210.55	2.79436
1213.93	3.31331
1217.3	2.39471
1220.68	2.41031
1224.05	2.25113
1227.43	2.15233
1230.8	3.94871
1234.18	2.19107
1237.55	2.59821
1240.92	2.60729
1244.3	1.64275
1247.67	0.72374
1251.05	1.61395
1254.42	1.86392
1257.8	1.44484
1261.17	1.5704
1264.55	1.13866
1267.92	1.30534
1271.3	1.00041
1274.67	0.484955
1278.05	0.245544
1281.42	0.854233
1284.8	0
