Measurement: Raman, 780 nm, unoriented, Raman Data Processed
Mineral: Opal
Rruff sample: R060651
Ideal chemistry: SiO_2_nH_2_O
Locality: Mexico
Source: Gemological Institute of America
Description: Orange-brown glassy fragment, variety is opal-CT, based on its X-ray diffraction pattern
Measured chemistry: Si_1.00_O_2_ Â· 0.31H_2_O
Raman shift (cm-1)	intensity
96.3811	0
99.7559	2.99823
103.131	0.855408
106.505	8.36322
109.88	16.1068
113.255	7.06104
116.63	14.2767
120.005	12.8908
123.38	12.2075
126.754	16.6376
130.129	15.2493
133.504	13.5515
136.879	10.6158
140.254	10.5579
143.629	9.23334
147.003	4.73752
150.378	1.90536
153.753	0.582977
157.128	4.7085
160.503	5.77765
163.877	11.5545
167.252	12.3175
170.627	13.2493
174.002	14.0141
177.377	14.433
180.751	15.6712
184.126	15.1159
187.501	12.8105
190.876	14.3837
194.251	11.1091
197.625	9.63095
201	7.88983
204.375	8.57208
207.75	5.37137
211.125	3.69305
214.5	1.09268
217.874	0.211243
221.249	1.58847
224.624	0.445007
227.999	3.24527
231.374	1.15524
234.749	1.79553
238.123	2.08572
241.498	2.41617
244.873	1.21222
248.248	2.39682
251.623	2.12738
254.997	3.79819
258.372	6.08609
261.747	11.1177
265.122	15.9344
268.497	22.252
271.872	27.269
275.246	34.9263
278.621	44.95
281.996	53.0627
285.371	62.5073
288.745	71.4558
292.12	83.3312
295.495	91.4287
298.87	99.3232
302.245	105.133
305.62	110.308
308.994	110.16
312.369	110.898
315.744	113.263
319.119	114.926
322.494	114.372
325.868	110.587
329.243	110.679
332.618	106.529
335.993	105.294
339.368	105.82
342.743	99.1675
346.117	96.775
349.492	92.1303
352.867	88.2556
356.242	82.6963
359.617	74.3821
362.991	67.8784
366.366	58.634
369.741	50.2754
373.116	40.1883
376.491	32.3533
379.865	22.7213
383.24	16.0092
386.615	8.4765
389.99	4.87231
393.365	0.51413
396.74	1.35828
400.114	1.61008
403.489	0.838867
406.864	0.56723
410.239	3.1394
413.614	4.19553
416.988	6.1015
420.363	8.06094
423.738	5.50153
427.113	5.41223
430.488	2.67667
433.863	2.50259
437.237	1.26367
440.612	1.6618
443.987	0.008545
447.362	0.772278
450.737	1.42514
454.111	0.949646
457.486	0.445679
460.861	0.544296
464.236	2.74233
467.611	1.97638
470.986	0.074875
474.36	2.77988
477.735	6.99843
481.11	11.5219
484.485	15.8255
487.86	18.4988
491.234	16.0323
494.609	11.8467
497.984	7.54938
501.359	5.97859
504.734	5.7639
508.108	6.79607
511.483	7.93312
514.858	8.97401
518.233	9.87006
521.608	10.3099
524.982	10.1929
528.357	9.77078
531.732	9.81308
535.107	11.3945
538.482	11.6226
541.857	12.5598
545.231	13.7928
548.606	15.1513
551.981	15.5353
555.356	16.3954
558.731	14.103
562.106	14.1206
565.48	12.6762
568.855	10.5545
572.23	9.44409
575.605	9.95828
578.98	7.50633
582.354	7.35619
585.729	7.31853
589.104	6.18944
592.479	5.8317
595.854	4.88834
599.229	4.04495
602.603	3.74522
605.978	3.08822
609.353	3.24289
612.728	2.81529
616.102	2.37948
619.477	2.18401
622.852	0.162773
626.227	0.987167
629.602	0.459358
632.977	0.753716
636.351	0.864586
639.726	0.823608
643.101	0.287498
646.476	1.0267
649.851	1.07737
653.226	0.42617
656.6	0.462669
659.975	1.33659
663.35	0.65847
666.725	0.059822
670.1	0.845978
673.474	1.34079
676.849	0.651627
680.224	0.060089
683.599	0.655205
686.974	0.750481
690.348	0.129051
693.723	0.152443
697.098	0.224922
700.473	0.344193
703.848	0.099899
707.222	0.044884
710.597	0.822456
713.972	0.532021
717.347	0.231316
720.722	0.424774
724.097	0.699074
727.471	0.021126
730.846	0.745827
734.221	0.522507
737.596	0.560318
740.971	0.853455
744.346	1.24511
747.72	1.96094
751.095	2.29556
754.47	3.60646
757.845	4.52191
761.22	7.12939
764.594	10.3837
767.969	17.3848
771.344	25.9765
774.719	36.9395
778.094	45.3314
781.468	47.17
784.843	43.9895
788.218	38.5234
791.593	32.8248
794.968	27.5506
798.342	23.4956
801.717	19.7283
805.092	17.818
808.467	14.7563
811.842	13.4727
815.217	12.0572
818.591	10.1371
821.966	8.74026
825.341	8.25993
828.716	6.63244
832.091	6.5341
835.466	4.84772
838.84	4.56325
842.215	3.72643
845.59	2.42947
848.965	2.66291
852.34	2.29617
855.714	2.68175
859.089	2.47266
862.464	2.11742
865.839	2.2077
869.214	1.69817
872.588	1.68817
875.963	1.47349
879.338	0.957329
882.713	0.988564
886.088	1.03774
889.462	1.1238
892.837	0.191032
896.212	0.192162
899.587	0.229576
902.962	0.36821
906.337	0.013855
909.711	0.369919
913.086	0.067528
916.461	0.342529
919.836	0.218948
923.211	0.427788
926.585	0.10463
929.96	0.105495
933.335	0.684681
936.71	1.41961
940.085	2.34494
943.46	1.75292
946.834	3.60472
950.209	4.07385
953.584	5.72408
956.959	7.00074
960.334	8.15494
963.708	9.7556
967.083	10.7449
970.458	10.9702
973.833	11.7468
977.208	11.2264
980.582	9.0494
983.957	5.68365
987.332	4.34054
990.707	2.81747
994.082	1.30682
997.457	0.26482
1000.83	0.146732
1004.21	0.226147
1007.58	0.205868
1010.96	0.414158
1014.33	0.693504
1017.71	1.29734
1021.08	0.388477
1024.45	0.263424
1027.83	1.27245
1031.2	1.88905
1034.58	1.01511
1037.95	2.52174
1041.33	3.45999
1044.7	3.37188
1048.08	4.00442
1051.45	4.76232
1054.83	6.44383
1058.2	7.53482
1061.58	8.24102
1064.95	9.94663
1068.33	11.6863
1071.7	14.7525
1075.08	13.507
1078.45	13.472
1081.83	13.2043
1085.2	11.2034
1088.58	10.3855
1091.95	7.71688
1095.33	8.63131
1098.7	5.04165
1102.08	3.65125
1105.45	3.15895
1108.83	1.24127
1112.2	1.44715
1115.58	0.06411
1118.95	0.928429
1122.33	0.237213
1125.7	0.282635
1129.07	0.128181
1132.45	0.3465
1135.82	0.05093
1139.2	0.394539
1142.57	0.105137
1145.95	0.225166
1149.32	0.439186
1152.7	0.489357
1156.07	0.327976
1159.45	0.690029
1162.82	0.666168
1166.2	0.647343
1169.57	1.078
1172.95	1.03332
1176.32	1.05224
1179.7	1.77256
1183.07	1.6124
1186.45	1.61388
1189.82	1.68276
1193.2	2.34739
1196.57	1.51262
1199.94	2.40447
1203.32	2.37238
1206.69	2.12893
1210.07	2.67694
1213.44	2.86509
1216.82	2.57561
1220.19	2.88411
1223.57	2.56731
1226.94	3.46929
1230.32	3.56341
1233.69	2.65807
1237.07	1.70956
1240.44	2.45898
1243.82	1.77565
1247.19	1.72119
1250.57	1.94179
1253.94	1.47312
1257.32	1.55738
1260.69	0.787167
1264.07	0.430752
1267.44	0.825142
1270.82	0.674911
1274.19	1.00426
1277.57	0.122116
1280.94	0.590778
1284.32	0.21722
