Measurement: Raman, 532 nm, unoriented, Raman Data Processed
Mineral: Opal
Rruff sample: X080018
Ideal chemistry: SiO_2_nH_2_O
Locality: Synthetic
Source: Gemological Institute of America
Description: Polished tear drop-shaped cabachon, 1.37 ct, Raman spectra matches polystyrene (plastic)
Raman shift (cm-1)	intensity
148.862	0
151.755	33.4736
154.647	112.36
157.54	157.725
160.433	94.7236
163.325	140.364
166.218	133.8
169.111	127.381
172.003	157.081
174.896	155.142
177.789	189.908
180.681	188.215
183.574	194.818
186.467	220.528
189.36	218.06
192.252	249.356
195.145	237.869
198.038	286.254
200.93	400.948
203.823	481.151
206.716	535.122
209.608	609.94
212.501	646.659
215.394	700.977
218.287	810.311
221.179	811.176
224.072	854.006
226.965	763.904
229.857	633.768
232.75	506.56
235.643	428.695
238.536	354.098
241.428	223.779
244.321	119.236
247.214	46.8945
250.106	40.2461
252.999	22.5605
255.892	11.7734
258.784	18.0293
261.677	12.7227
264.57	42.3418
267.462	75.7949
270.355	92.9629
273.248	82.0762
276.141	83.7773
279.033	144.135
281.926	155.131
284.819	169.463
287.711	274.068
290.604	345.029
293.497	350.705
296.389	293.943
299.282	313.799
302.175	256.06
305.068	252.926
307.96	198.461
310.853	96.3106
313.746	87.8848
316.638	85.3984
319.531	70.3106
322.424	26.6465
325.317	9.42773
328.209	25.707
331.102	66.6836
333.995	66.4863
336.887	106.603
339.78	99.2383
342.673	129.461
345.565	195.91
348.458	258.824
351.351	356.107
354.243	395.908
357.136	457.045
360.029	472.609
362.922	447.873
365.814	404.555
368.707	343.602
371.6	327.5
374.492	344.248
377.385	260.576
380.278	259.883
383.171	248.951
386.063	276.385
388.956	300.815
391.849	312.283
394.741	232.066
397.634	253.123
400.527	250.662
403.419	195.84
406.312	269.404
409.205	270.131
412.098	246.051
414.99	212.652
417.883	130.215
420.776	120.012
423.668	81.4785
426.561	60.2832
429.454	37.2227
432.346	52.8652
435.239	27.1992
438.132	30.252
441.024	10.1055
443.917	54.6367
446.81	13.3242
449.703	0.482422
452.595	18.2324
455.488	33.5898
458.381	36.1797
461.273	75.9668
464.166	118.143
467.059	174.611
469.952	201.252
472.844	232.555
475.737	306.228
478.63	372.037
481.522	389.256
484.415	377.516
487.308	356.607
490.2	299.4
493.093	250.891
495.986	198.178
498.878	153.541
501.771	145.117
504.664	161.379
507.557	118.986
510.449	85.7129
513.342	12.625
516.235	16.9082
519.127	33.5059
522.02	0.230469
524.913	42.1602
527.806	75.4707
530.698	52.9492
533.591	57.6855
536.484	87.4531
539.376	130.81
542.269	176.129
545.162	172.576
548.054	190.082
550.947	213.053
553.84	188.613
556.732	197.043
559.625	205.203
562.518	192.69
565.411	185.232
568.303	176.74
571.196	230.371
574.089	242.295
576.981	241.424
579.874	282.846
582.767	403.391
585.659	486.115
588.552	710.316
591.445	794.936
594.338	975.857
597.23	1095.19
600.123	1124.47
603.016	1027.71
605.908	812.109
608.801	733.781
611.694	641.684
614.587	689.264
617.479	804.594
620.372	947.168
623.265	794.459
626.157	302.209
629.05	133.734
631.943	152.49
634.835	114.082
637.728	123.945
640.621	101.481
643.514	62.7637
646.406	45.7715
649.299	22.0645
652.192	4.58398
655.084	53.2012
657.977	19.1133
660.87	44.5898
663.762	14.1953
666.655	17.1406
669.548	14.7793
672.441	47.6113
675.333	10.5312
678.226	12.541
681.119	1.12305
684.011	34.668
686.904	14.3008
689.797	43.3867
692.689	31.7109
695.582	9.08789
698.475	63.5879
701.367	80.9141
704.26	59.3887
707.153	53.2207
710.046	40.7969
712.938	11.6855
715.831	7.75195
718.724	2.21289
721.616	1.41016
724.509	8.27539
727.402	35.7168
730.294	51.4805
733.187	81.6211
736.08	97.1504
738.973	68.8438
741.865	90.0606
744.758	89.2461
747.651	83.9512
750.543	86.2695
753.436	123.197
756.329	169.705
759.221	229.06
762.114	236.697
765.007	253.621
767.9	200.232
770.792	160.643
773.685	187.406
776.578	218.838
779.47	246.31
782.363	324.816
785.256	404.332
788.149	511.768
791.041	652.227
793.934	793.432
796.827	877.297
799.719	1030.59
802.612	1298.63
805.505	1681.58
808.397	2339.8
811.29	2875.29
814.183	2706.4
817.076	1443.63
819.968	538.199
822.861	257.748
825.754	42.3418
828.646	53.248
831.539	28.334
834.432	69.875
837.324	175.949
840.217	228.592
843.11	198.213
846.003	137.356
848.895	52.334
851.788	2.13672
854.681	34.3672
857.573	22.6738
860.466	17.9023
863.359	1.36914
866.251	6.61914
869.144	15.9648
872.037	30.5703
874.929	4.13281
877.822	28.4902
880.715	10.1289
883.608	3.22461
886.5	41.3965
889.393	9.92383
892.286	9.19141
895.178	26.5
898.071	10.0801
900.964	150.42
903.856	178.672
906.749	244.725
909.642	231.221
912.535	198.293
915.427	179.606
918.32	149.002
921.213	170.252
924.105	119.1
926.998	49.9531
929.891	64.2773
932.784	3.73047
935.676	0.792969
938.569	45.3145
941.462	44.3184
944.354	72.9453
947.247	103.699
950.14	126.82
953.032	244.162
955.925	377.731
958.818	465.594
961.711	617.08
964.603	726.879
967.496	741.574
970.389	687.074
973.281	652.363
976.174	725.705
979.067	926.119
981.959	1104.18
984.852	1211.65
987.745	1521.21
990.638	2085.73
993.53	2845.77
996.423	4252.44
999.316	6922.24
1002.21	9067.4
1005.1	5061.23
1007.99	1525.25
1010.89	447.66
1013.78	123.801
1016.67	1.21094
1019.57	127.676
1022.46	444.717
1025.35	869.916
1028.24	1410.39
1031.13	1774.46
1034.03	1503.03
1036.92	901.775
1039.81	389.812
1042.71	162.606
1045.6	59.6562
1048.49	4.74023
1051.38	35.4316
1054.28	35.6172
1057.17	23.9355
1060.06	37.6035
1062.95	101.397
1065.85	98.6543
1068.74	86.7891
1071.63	125.836
1074.53	77.1133
1077.42	87.7441
1080.31	78.4922
1083.2	47.1992
1086.1	12.5312
1088.99	2.47266
1091.88	19.3809
1094.78	93.3574
1097.67	117.445
1100.56	184.356
1103.45	168.91
1106.35	110.574
1109.24	67.8477
1112.13	56.5703
1115.02	101.857
1117.92	71.4863
1120.81	80.7539
1123.7	92.3047
1126.59	3.30273
1129.49	17.4277
1132.38	47.8945
1135.27	23.8594
1138.16	2.78711
1141.06	7.50781
1143.95	38.3711
1146.84	191.143
1149.74	318.258
1152.63	561.672
1155.52	718.336
1158.41	629.074
1161.31	432.258
1164.2	379.051
1167.09	323.773
1169.98	332.482
1172.88	449.602
1175.77	613.324
1178.66	902.172
1181.56	1137.63
1184.45	1081.63
1187.34	986.279
1190.23	986.162
1193.13	1042.65
1196.02	1087.12
1198.91	1166.68
1201.81	1138.56
1204.7	950.055
1207.59	758.354
1210.48	534.262
1213.38	412.934
1216.27	299.35
1219.16	273.785
1222.05	249.346
1224.95	255.883
1227.84	215.84
1230.73	168.832
1233.62	201.894
1236.52	150.565
1239.41	174.307
1242.3	172.381
1245.19	128.205
1248.09	91.8769
1250.98	86.4297
1253.87	41.9004
1256.77	7.41406
1259.66	0.519531
1262.55	2.77734
1265.44	17.1582
1268.34	12.0332
1271.23	55.1152
1274.12	65.9258
1277.02	92.5703
1279.91	125.879
1282.8	131.172
1285.69	168.115
1288.59	273.682
1291.48	323.91
1294.37	303.758
1297.26	186.473
1300.16	70.3867
1303.05	8.74219
