Measurement: Raman, 532 nm, unoriented, Raman Data Processed
Mineral: Opal
Rruff sample: X070002
Ideal chemistry: SiO_2_nH_2_O
Locality: Synthetic
Source: Taka Yamanaka
Description: White polished cab, Raman spectra matches Polymethyl methacrylate (plexiglas)
Raman shift (cm-1)	intensity
160.268	0
163.161	8.36719
166.054	1.88379
168.946	46.7529
171.839	83.4678
174.732	78.6291
177.625	59.8574
180.517	63.717
183.41	51.2864
186.303	61.522
189.195	64.1633
192.088	75.6699
194.981	110.944
197.874	107.406
200.766	123.123
203.659	60.9612
206.552	81.9753
209.444	132.791
212.337	96.2644
215.23	121.91
218.122	78.8806
221.015	81.5491
223.908	112.484
226.8	108.481
229.693	92.4658
232.586	143.708
235.479	70.0659
238.371	97.9077
241.264	86.9868
244.157	83.8997
247.049	40.0002
249.942	46.177
252.835	10.9346
255.727	3.63916
258.62	51.9634
261.513	2.00171
264.406	39.7507
267.298	65.2163
270.191	82.5523
273.084	101.849
275.976	81.0029
278.869	69.4148
281.762	102.172
284.655	108.92
287.547	167.189
290.44	136.367
293.333	171.272
296.225	163.003
299.118	167.74
302.011	153.258
304.904	117.591
307.796	95.845
310.689	76.9556
313.582	27.8184
316.474	14.772
319.367	3.00415
322.26	19.7559
325.152	11.1606
328.045	50.9626
330.938	11.4146
333.83	2.03662
336.723	78.314
339.616	67.7705
342.509	82.7251
345.401	117.158
348.294	165.668
351.187	191.154
354.079	308.108
356.972	343.416
359.865	342.514
362.757	345.884
365.65	331.036
368.543	341.775
371.436	332.718
374.328	270.125
377.221	265.261
380.114	201.108
383.006	178.733
385.899	146.316
388.792	110.886
391.685	134.648
394.577	128.029
397.47	148.354
400.363	66.9028
403.255	75.2515
406.148	62.1728
409.041	46.543
411.933	48.0791
414.826	83.584
417.719	69.1113
420.611	37.8013
423.504	76.8311
426.397	77.2988
429.29	104.804
432.182	113.223
435.075	182.684
437.968	125.54
440.86	148.097
443.753	166.447
446.646	168.415
449.538	190.871
452.431	208.689
455.324	244.301
458.217	201.716
461.109	274.069
464.002	390.887
466.895	399.103
469.787	438.985
472.68	513.543
475.573	547.625
478.466	596.852
481.358	597.286
484.251	596.717
487.144	511.642
490.036	434.005
492.929	314.59
495.822	247.316
498.714	156.668
501.607	128.231
504.5	109.026
507.393	52.1904
510.285	0.801758
513.178	10.3862
516.071	7.06982
518.963	20.9219
521.856	48.8945
524.749	9.49756
527.641	14.0269
530.534	2.8125
533.427	10.6348
536.32	0.902832
539.212	36.106
542.105	56.354
544.998	104.15
547.89	129.127
550.783	144.65
553.676	152.064
556.568	159.417
559.461	181.959
562.354	182.083
565.247	161.495
568.139	167.472
571.032	172.454
573.925	235.349
576.817	272.294
579.71	286.691
582.603	337.147
585.495	410.812
588.388	530.013
591.281	691.851
594.174	788.929
597.066	876.906
599.959	911.899
602.852	766.791
605.744	585.264
608.637	474.988
611.53	281.233
614.423	251.191
617.315	180.446
620.208	120.445
623.101	149.224
625.993	103.763
628.886	85.0879
631.779	90.5205
634.671	59.9033
637.564	77.0444
640.457	40.54
643.35	112.704
646.242	53.8726
649.135	64.5727
652.028	90.7563
654.92	58.4605
657.813	51.0283
660.706	46.7793
663.598	67.2324
666.491	16.8726
669.384	57.7266
672.277	5.83887
675.169	38.5308
678.062	46.7041
680.955	21.5498
683.847	6.76709
686.74	35.626
689.633	12.7935
692.525	6.93018
695.418	41.2749
698.311	35.2153
701.204	52.0405
704.096	39.1997
706.989	59.9463
709.882	15.2153
712.774	4.25732
715.667	22.4297
718.56	50.0986
721.452	26.2637
724.345	76.3057
727.238	58.1558
730.131	89.436
733.023	77.1992
735.916	97.3335
738.809	0.370117
741.701	22.77
744.594	3.25342
747.487	31.3071
750.38	80.5928
753.272	54.6435
756.165	70.6318
759.058	72.52
761.95	82.4937
764.843	112.422
767.736	142.956
770.628	165.925
773.521	171.609
776.414	184.003
779.307	233.804
782.199	237.257
785.092	309.135
787.985	342.648
790.877	298.362
793.77	277.974
796.663	452.941
799.555	639.735
802.448	936.42
805.341	1289.24
808.234	1774.96
811.126	2164.68
814.019	1808.61
816.912	837.17
819.804	411.589
822.697	246.642
825.59	180.033
828.482	115.212
831.375	107.862
834.268	81.4062
837.16	95.8818
840.053	100.566
842.946	64.3569
845.839	60.6543
848.731	48.6714
851.624	44.7456
854.517	31.2539
857.409	10.6562
860.302	7.09277
863.195	17.2251
866.087	22.5825
868.98	60.4775
871.873	133.737
874.766	50.8813
877.658	92.2197
880.551	64.1108
883.444	33.4145
886.337	14.5234
889.229	8.08838
892.122	7.67188
895.015	40.8594
897.907	55.7969
900.8	80.1343
903.693	150.175
906.585	186.705
909.478	210.476
912.371	172.404
915.264	198.003
918.156	171.528
921.049	144.565
923.942	140.057
926.834	127.685
929.727	180.554
932.62	139.255
935.512	193.038
938.405	201.352
941.298	259.72
944.191	294.304
947.083	447.582
949.976	556.689
952.869	573.207
955.761	779.734
958.654	969.261
961.547	1086.74
964.439	1147.79
967.332	1144.3
970.225	1029.15
973.117	935.412
976.01	904.846
978.903	865.325
981.796	977.213
984.688	992.662
987.581	838.131
990.474	881.507
993.366	772.005
996.259	695.571
999.152	579.729
1002.04	374.572
1004.94	263.414
1007.83	101.81
1010.72	31.2817
1013.62	52.8818
1016.51	13.7349
1019.4	42.4629
1022.29	43.0791
1025.19	10.312
1028.08	1.22998
1030.97	45.6182
1033.86	16.6958
1036.76	13.9844
1039.65	23.6729
1042.54	73.4937
1045.43	6.81885
1048.33	45.2969
1051.22	122.745
1054.11	94.6143
1057.01	75.0444
1059.9	161.866
1062.79	117.086
1065.68	158.914
1068.58	140.761
1071.47	58.7578
1074.36	111.344
1077.26	38.9263
1080.15	8.75049
1083.04	21.0884
1085.93	19.8291
1088.83	86.3579
1091.72	15.7646
1094.61	106.215
1097.5	13.311
1100.4	64.2349
1103.29	117.421
1106.18	73.6162
1109.07	160.677
1111.97	169.026
1114.86	188.193
1117.75	244.208
1120.64	260.37
1123.54	208.199
1126.43	216.737
1129.32	133.278
1132.22	58.5723
1135.11	30.5088
1138	38.8091
1140.89	0.915039
1143.79	10.5361
1146.68	54.1665
1149.57	89.3648
1152.46	102.542
1155.36	171.004
1158.25	137.4
1161.14	149.335
1164.04	89.6138
1166.93	90.4653
1169.82	69.6235
1172.71	149.825
1175.61	138.833
1178.5	207.226
1181.39	233.278
1184.29	255.902
1187.18	266.381
1190.07	185.669
1192.96	220.874
1195.86	168.492
1198.75	154.139
1201.64	159.063
1204.53	130.001
1207.43	62.2163
1210.32	50.7441
1213.21	60.7192
1216.1	76.0308
1219	62.9346
1221.89	77.937
1224.78	71.1377
1227.67	105.412
1230.57	125.057
1233.46	143.881
1236.35	176.919
1239.25	144.893
1242.14	195.017
1245.03	148.287
1247.92	94.2573
1250.82	80.4956
1253.71	58.2129
1256.6	61.9517
1259.49	6.66846
1262.39	65.126
1265.28	29.7832
1268.17	28.1587
1271.07	20.3599
1273.96	27.2686
1276.85	38.1099
1279.74	67.8262
1282.64	2.3584
1285.53	66.751
1288.42	32.5923
1291.32	33.3438
1294.21	1.37158
1297.1	11.604
1299.99	18.98
1302.88	2.24756
