Measurement: Raman, 532 nm, unoriented, Raman Data Processed
Mineral: Opal
Rruff sample: R110107
Ideal chemistry: SiO_2_nH_2_O
Locality: Synthetic
Source: Gemological Institute of America
Description: A polished white cabochon (2.03ct), solution grown.
Raman shift (cm-1)	intensity
163.774	0
166.667	3.54035
169.559	14.7006
172.452	22.1179
175.345	35.9275
178.237	38.7685
181.13	40.6527
184.023	41.4757
186.916	38.0279
189.808	34.1854
192.701	30.1888
195.594	24.5768
198.486	23.8047
201.379	21.6995
204.272	19.8037
207.164	19.7691
210.057	16.6013
212.95	11.6357
215.843	9.37811
218.735	7.20572
221.628	7.23329
224.521	5.2661
227.413	2.96199
230.306	1.08179
233.199	0.452652
236.091	0.497025
238.984	0.493042
241.877	0.744141
244.769	0.47142
247.662	0.523743
250.555	2.88768
253.448	6.29979
256.34	11.0953
259.233	17.3994
262.126	25.3335
265.018	32.304
267.911	37.8446
270.804	36.2368
273.697	30.7758
276.589	23.7102
279.482	16.3679
282.375	12.4537
285.267	7.04486
288.16	5.52051
291.053	4.14087
293.945	3.41641
296.838	3.51292
299.731	4.15341
302.623	4.5824
305.516	5.66902
308.409	8.81923
311.302	8.78984
314.194	8.41464
317.087	3.64119
319.98	1.92374
322.872	0.377884
325.765	1.49049
328.658	1.79483
331.55	1.89853
334.443	1.51032
337.336	3.30986
340.229	0.568665
343.121	0.844101
346.014	0.773758
348.907	0.913986
351.799	0.983856
354.692	3.29002
357.585	2.77274
360.478	5.26602
363.37	5.66624
366.263	7.3389
369.156	10.5698
372.048	9.52661
374.941	10.2522
377.834	10.9582
380.726	11.672
383.619	12.1671
386.512	13.7937
389.404	13.8799
392.297	15.8362
395.19	16.5655
398.083	17.7625
400.975	17.808
403.868	20.8764
406.761	21.1339
409.653	22.8883
412.546	26.0041
415.439	28.0416
418.332	30.8289
421.224	33.0367
424.117	33.2027
427.01	36.2522
429.902	39.2727
432.795	40.3135
435.688	44.0232
438.58	46.3498
441.473	49.0347
444.366	52.843
447.259	54.0612
450.151	55.5808
453.044	58.5398
455.937	56.2719
458.829	54.3491
461.722	54.3897
464.615	51.8469
467.507	52.4944
470.4	51.9337
473.293	53.144
476.185	58.508
479.078	66.6627
481.971	75.6336
484.864	82.493
487.756	87.4768
490.649	87.191
493.542	82.2192
496.434	75.8203
499.327	66.2418
502.22	51.3577
505.113	41.0907
508.005	30.6186
510.898	22.4742
513.791	15.5101
516.683	7.7771
519.576	3.37479
522.469	0.183083
525.361	1.22747
528.254	1.98558
531.147	2.62904
534.04	1.49132
536.932	2.6457
539.825	1.41839
542.718	0.597984
545.61	0.326736
548.503	0.345802
551.396	1.9921
554.288	2.22235
557.181	3.31127
560.074	5.15795
562.967	4.67019
565.859	6.99835
568.752	8.21631
571.645	9.86458
574.537	11.2209
577.43	14.4604
580.323	14.9237
583.216	18.261
586.108	20.4977
589.001	24.0932
591.894	26.9808
594.786	29.5943
597.679	31.2965
600.572	31.2911
603.464	31.6919
606.357	28.454
609.25	26.8532
612.142	23.3057
615.035	20.9804
617.928	19.1183
620.821	16.3346
623.713	15.2225
626.606	13.4814
629.499	14.215
632.391	14.3327
635.284	16.1026
638.177	17.3178
641.069	16.954
643.962	16.5056
646.855	15.0541
649.747	12.3696
652.64	11.5617
655.533	7.37427
658.426	6.54904
661.318	4.70479
664.211	3.72349
667.104	2.76126
669.996	2.52985
672.889	1.00699
675.782	1.17925
678.674	0.583458
681.567	1.38389
684.46	0.482351
687.353	1.44083
690.245	0.546923
693.138	0.475899
696.031	0.548624
698.923	0.218027
701.816	0.279709
704.709	0.027411
707.601	0.160616
710.494	0.149715
713.387	0.636683
716.28	0.398129
719.172	0.118763
722.065	0.471918
724.958	0.376118
727.85	0.101276
730.743	1.07858
733.636	0.047031
736.529	1.361
739.421	0.093376
742.314	1.02391
745.207	0.939091
748.099	0.299322
750.992	1.16754
753.885	2.06952
756.777	2.49427
759.67	2.88752
762.563	4.20209
765.456	5.85005
768.348	8.9408
771.241	12.0029
774.134	16.3304
777.026	19.8163
779.919	21.7034
782.812	24.1921
785.704	25.9057
788.597	26.3195
791.49	26.9267
794.383	27.9665
797.275	27.6464
800.168	26.5966
803.061	26.2193
805.953	25.0104
808.846	25.148
811.739	24.6695
814.631	23.9928
817.524	22.8496
820.417	22.6569
823.309	20.2156
826.202	20.3641
829.095	20.3115
831.988	18.6171
834.88	17.4352
837.773	16.1206
840.666	14.1915
843.558	12.4707
846.451	10.9619
849.344	9.75275
852.236	7.19212
855.129	6.36194
858.022	3.43483
860.915	3.44514
863.807	1.44298
866.7	1.00748
869.593	0.264854
872.485	0.489311
875.378	0.355999
878.271	0.22636
881.163	0.770361
884.056	0.303576
886.949	0.199032
889.842	0.581951
892.734	0.36311
895.627	0.026709
898.52	0.775505
901.412	0.732607
904.305	0.571211
907.198	0.17399
910.091	0.958601
912.983	0.871914
915.876	0.609097
918.769	0.580078
921.661	1.21663
924.554	0.736917
927.447	1.12627
930.339	0.785391
933.232	1.46812
936.125	1.67909
939.018	1.78661
941.91	1.09449
944.803	1.93089
947.696	0.938148
950.588	1.27298
953.481	0.984154
956.374	1.21519
959.266	1.11797
962.159	1.61895
965.052	1.29645
967.944	1.67252
970.837	0.917372
973.73	0.878143
976.623	0.554976
979.515	0.585039
982.408	0.110609
985.301	0.397141
988.193	0.261044
991.086	0.289131
993.979	0.117584
996.871	0.775557
999.764	0.069117
1002.66	0.985037
1005.55	1.06988
1008.44	0.639393
1011.34	2.11199
1014.23	2.3847
1017.12	1.65787
1020.01	3.88722
1022.91	4.51043
1025.8	5.14829
1028.69	5.80345
1031.58	6.40112
1034.48	8.38132
1037.37	7.23925
1040.26	8.72541
1043.15	8.05916
1046.05	8.62445
1048.94	9.0989
1051.83	9.63515
1054.73	9.83672
1057.62	9.22494
1060.51	9.37334
1063.4	9.14079
1066.3	8.65712
1069.19	8.87175
1072.08	8.43109
1074.97	7.44031
1077.87	7.45662
1080.76	7.47272
1083.65	6.44904
1086.55	5.47674
1089.44	4.8217
1092.33	4.65613
1095.22	3.0787
1098.12	2.59575
1101.01	2.30022
1103.9	1.67504
1106.79	0.299267
1109.69	1.4107
1112.58	0.390045
1115.47	0.203836
1118.37	0.052383
1121.26	0.653372
1124.15	0.12306
1127.04	0.307222
1129.94	0.893496
1132.83	0.544573
1135.72	0.24032
1138.61	1.62968
1141.51	1.37328
1144.4	1.70366
1147.29	1.53863
1150.18	1.96774
1153.08	2.79177
1155.97	2.15088
1158.86	2.13346
1161.76	2.90495
1164.65	3.58219
1167.54	3.60185
1170.43	4.55468
1173.33	3.39778
1176.22	3.75499
1179.11	3.51254
1182	3.81176
1184.9	4.06647
1187.79	3.81983
1190.68	3.82027
1193.58	3.60975
1196.47	3.13899
1199.36	3.63289
1202.25	3.14379
1205.15	3.8317
1208.04	3.58065
1210.93	4.05516
1213.82	3.85205
1216.72	3.19209
1219.61	3.68591
1222.5	2.76352
1225.39	3.38291
1228.29	4.18323
1231.18	2.96913
1234.07	2.36955
1236.97	1.9675
1239.86	2.66105
1242.75	2.15076
1245.64	2.23059
1248.54	1.2941
1251.43	2.19867
1254.32	2.19118
1257.21	1.4065
1260.11	1.22
1263	0.201526
1265.89	0.790467
1268.79	0.63086
1271.68	0.543085
1274.57	0.207095
1277.46	0.53159
1280.36	0.904401
1283.25	0.825666
1286.14	0.649481
1289.03	0.863425
1291.93	0.801476
1294.82	1.4032
1297.71	1.16649
1300.61	0.022679
