Measurement: Raman, 785 nm, unoriented, Raman Data Processed
Mineral: Orientite
Rruff sample: R060936
Ideal chemistry: Ca_8_Mn^3+^_10_(SiO_4_)_3_(Si_3_O_10_)_3_(OH)_10_4H_2_O
Locality: Cerchiara mine, Liguria, Italy
Source: Michael Scott
Description: Hexagonal looking chocolate-brown crystals
Measured chemistry: (Ca_7.49_Mg_0.51_)_Σ=8_(Mn^3+^_9.06_Al_0.94_)_Σ=10_(Si_1.00_O_4_)_3_(Si_3.00_O_10_)_3_(OH)_10_·4H_2_O; OH by charge balance; H_2_O assumed by stoichiometry
Raman shift (cm-1)	intensity
167.811	0
170.704	3.49622
173.597	16.1567
176.489	6.30823
179.382	11.6641
182.275	23.5465
185.167	98.8259
188.06	191.666
190.953	250.758
193.845	331.659
196.738	486.368
199.631	552.493
202.524	605.576
205.416	641.694
208.309	654.367
211.202	579.344
214.094	635.816
216.987	709.481
219.88	772.477
222.773	821.576
225.665	731.267
228.558	627.04
231.451	575.885
234.343	492.086
237.236	468.934
240.129	527.232
243.021	574.156
245.914	605.159
248.807	625.491
251.7	614.259
254.592	541.043
257.485	417.896
260.378	382.006
263.27	285.25
266.163	219.875
269.056	122.595
271.948	100.885
274.841	48.2891
277.734	54.1913
280.627	70.691
283.519	101.755
286.412	153.566
289.305	103.16
292.197	167.894
295.09	253.822
297.983	260.25
300.875	278.243
303.768	307.26
306.661	222.263
309.553	183.706
312.446	98.8062
315.339	106.971
318.232	47.3695
321.124	7.4353
324.017	4.95496
326.91	0.423096
329.802	10.7541
332.695	8.39453
335.588	22.9998
338.481	1.73853
341.373	16.7502
344.266	20.8528
347.159	81.61
350.051	133.922
352.944	211.774
355.837	299.026
358.729	355.569
361.622	414.016
364.515	474.157
367.408	509.337
370.3	552.658
373.193	599.896
376.086	640.717
378.978	679.352
381.871	692.021
384.764	721.051
387.656	707.174
390.549	628.742
393.442	570.747
396.334	517.616
399.227	406.021
402.12	377.313
405.013	353.367
407.905	379.141
410.798	416.954
413.691	456.779
416.583	514.31
419.476	541.171
422.369	529.992
425.262	504.738
428.154	402.117
431.047	351.096
433.94	272.034
436.832	211.614
439.725	191.226
442.618	199.593
445.51	190.299
448.403	185.112
451.296	154.824
454.188	85.2815
457.081	73.5554
459.974	26.4642
462.866	7.05151
465.759	19.4119
468.652	16.0101
471.545	7.05029
474.437	43.6669
477.33	154.287
480.223	277.62
483.115	402.545
486.008	582.264
488.901	770.706
491.793	879.439
494.686	940.773
497.579	875.774
500.472	722.023
503.364	601.673
506.257	406.174
509.15	283.798
512.042	191.184
514.935	157.166
517.828	131.646
520.721	75.9349
523.613	48.1054
526.506	60.0848
529.399	53.7462
532.291	15.2627
535.184	44.825
538.077	1.47681
540.969	4.32031
543.862	17.2105
546.755	15.1428
549.648	23.8121
552.54	37.3781
555.433	51.5821
558.326	84.4665
561.218	112.845
564.111	137.241
567.004	128.571
569.896	200.897
572.789	293.334
575.682	358.89
578.574	510.997
581.467	749.807
584.36	871.529
587.253	1103.86
590.145	1214.96
593.038	1194.81
595.931	1047.58
598.823	818.218
601.716	606.562
604.609	436.222
607.501	355.74
610.394	267.134
613.287	207.517
616.18	126.642
619.072	119.391
621.965	71.2936
624.858	60.5768
627.75	41.2017
630.643	34.4001
633.536	15.8751
636.428	28.1892
639.321	7.901
642.214	9.69611
645.107	0.211182
647.999	5.76996
650.892	10.5984
653.785	18.394
656.677	76.5152
659.57	46.5633
662.463	46.3213
665.356	68.9349
668.248	116.834
671.141	138.172
674.034	158.55
676.926	216.37
679.819	244.772
682.712	243.853
685.604	291.565
688.497	283.949
691.39	248.092
694.283	221.273
697.175	185.753
700.068	149.804
702.961	144.682
705.853	117.848
708.746	127.184
711.639	97.9324
714.531	79.0013
717.424	68.519
720.317	61.8817
723.21	40.051
726.102	42.5278
728.995	49.8219
731.888	16.4576
734.78	37.4914
737.673	11.3947
740.566	34.3442
743.458	40.2779
746.351	27.3027
749.244	55.4755
752.136	65.3057
755.029	54.3687
757.922	63.0311
760.815	46.4428
763.707	57.3942
766.6	60.9931
769.493	48.0207
772.385	125.733
775.278	179.899
778.171	158.121
781.063	164.731
783.956	95.9185
786.849	86.1254
789.742	64.1614
792.634	46.4623
795.527	24.1575
798.42	10.3332
801.312	25.9479
804.205	2.97754
807.098	0.706665
809.99	27.7281
812.883	16.903
815.776	8.90253
818.669	7.13825
821.561	33.1624
824.454	1.29004
827.347	3.22955
830.239	0.498413
833.132	0.979431
836.025	21.7669
838.917	2.26862
841.81	2.06909
844.703	25.4365
847.596	28.8368
850.488	59.6124
853.381	69.4463
856.274	123.192
859.166	160.207
862.059	177.763
864.952	163.367
867.844	163.443
870.737	161.294
873.63	98.4465
876.523	82.2604
879.415	52.9029
882.308	51.2786
885.201	37.8145
888.093	46.1412
890.986	54.8651
893.879	58.2216
896.771	55.6948
899.664	101.194
902.557	177.646
905.449	200.418
908.342	264.934
911.235	310.033
914.128	381.993
917.02	453.978
919.913	467.3
922.806	562.844
925.698	610.93
928.591	629.616
931.484	681.451
934.376	664.912
937.269	663.49
940.162	582.962
943.055	509.628
945.947	430.324
948.84	360.094
951.733	321.084
954.625	235.917
957.518	204.939
960.411	110.577
963.303	95.6624
966.196	83.5066
969.089	30.7261
971.982	41.223
974.874	22.6017
977.767	24.5304
980.66	13.6786
983.552	9.09106
986.445	27.1383
989.338	28.481
992.231	17.1491
995.123	1.81366
998.016	25.7383
1000.91	7.64654
1003.8	24.7153
1006.69	19.9294
1009.59	22.5158
1012.48	40.7368
1015.37	35.5586
1018.26	46.2931
1021.16	9.37073
1024.05	18.764
1026.94	19.3292
1029.84	38.1798
1032.73	26.6323
1035.62	57.8413
1038.51	28.2548
1041.41	43.0943
1044.3	47.2549
1047.19	57.9053
1050.08	54.6078
1052.98	35.9448
1055.87	49.324
1058.76	45.0784
1061.65	68.2864
1064.55	50.39
1067.44	44.4916
1070.33	50.8922
1073.23	31.7153
1076.12	36.1664
1079.01	39.5015
1081.9	56.9484
1084.8	21.3055
1087.69	13.9778
1090.58	20.7386
1093.47	21.2436
1096.37	12.8665
1099.26	17.2677
1102.15	20.2542
1105.05	9.1394
1107.94	34.0011
1110.83	21.1878
1113.72	3.91946
1116.62	20.9355
1119.51	4.64651
1122.4	18.5024
1125.3	5.77801
1128.19	4.88605
1131.08	9.20636
1133.97	7.1936
1136.87	46.885
1139.76	6.94189
1142.65	32.712
1145.54	36.4937
1148.44	35.8993
1151.33	21.1792
1154.22	29.3926
1157.11	45.6908
1160.01	45.2428
1162.9	19.5851
1165.79	45.413
1168.68	20.0056
1171.58	47.816
1174.47	46.8529
1177.36	23.2383
1180.26	58.8339
1183.15	67.333
1186.04	66.0622
1188.93	52.682
1191.83	79.1878
1194.72	38.2383
1197.61	55.8845
1200.51	55.5833
1203.4	28.3125
1206.29	37.4183
1209.18	32.7094
1212.08	41.2225
1214.97	39.5615
1217.86	48.3419
1220.75	67.7758
1223.65	70.7086
1226.54	44.1719
1229.43	51.2109
1232.33	69.6848
1235.22	24.4228
1238.11	1.26956
1241	39.0662
1243.89	65.199
1246.79	73.1648
1249.68	69.2331
1252.57	22.1985
1255.47	17.4777
1258.36	17.1849
1261.25	1.85706
