Measurement: Raman, 532 nm, unoriented, Raman Data Processed
Mineral: Orientite
Rruff sample: R060936
Ideal chemistry: Ca_8_Mn^3+^_10_(SiO_4_)_3_(Si_3_O_10_)_3_(OH)_10_4H_2_O
Locality: Cerchiara mine, Liguria, Italy
Source: Michael Scott
Description: Hexagonal looking chocolate-brown crystals
Measured chemistry: (Ca_7.49_Mg_0.51_)_Σ=8_(Mn^3+^_9.06_Al_0.94_)_Σ=10_(Si_1.00_O_4_)_3_(Si_3.00_O_10_)_3_(OH)_10_·4H_2_O; OH by charge balance; H_2_O assumed by stoichiometry
Raman shift (cm-1)	intensity
136.951	0
139.843	40.1078
142.736	47.03
145.629	51.7313
148.522	121.271
151.414	107.757
154.307	88.3462
157.2	77.6598
160.092	64.9811
162.985	88.5779
165.878	51.1786
168.77	32.9401
171.663	1.82715
174.556	26.9359
177.448	17.1189
180.341	22.0845
183.234	74.0335
186.127	153.724
189.019	202.663
191.912	321.806
194.805	390.944
197.697	492.471
200.59	538.301
203.483	614.415
206.375	661.078
209.268	661.25
212.161	668.304
215.054	739.291
217.946	769.215
220.839	797.695
223.732	728.088
226.624	697.263
229.517	608.376
232.41	485.184
235.303	446.339
238.195	458.231
241.088	522.863
243.981	545.596
246.873	610.606
249.766	566.891
252.659	502.534
255.551	443
258.444	341.158
261.337	255.868
264.229	183.909
267.122	148.498
270.015	75.3477
272.908	83.3781
275.8	85.8092
278.693	59.1127
281.586	112.891
284.478	77.0456
287.371	87.8768
290.264	169.812
293.156	211.669
296.049	194.489
298.942	220.57
301.834	263.147
304.727	248.477
307.62	190.29
310.513	135.259
313.405	118.754
316.298	76.3055
319.191	9.43762
322.083	8.9082
324.976	14.5258
327.869	20.6213
330.762	21.2443
333.654	20.0995
336.547	22.8243
339.44	8.13293
342.332	23.4273
345.225	34.5928
348.118	73.7346
351.01	146.858
353.903	245.82
356.796	268.803
359.688	309.786
362.581	386.247
365.474	468.289
368.366	522.288
371.259	530.06
374.152	614.025
377.045	653.14
379.937	732.941
382.83	726.027
385.723	778.452
388.615	763.325
391.508	673.617
394.401	567.876
397.293	459.322
400.186	433.352
403.079	379.206
405.972	383.645
408.864	389.291
411.757	425.1
414.65	463.426
417.542	435.074
420.435	451.909
423.328	397.172
426.221	368.35
429.113	301.902
432.006	233.781
434.899	206.957
437.791	161.443
440.684	168.974
443.577	147.467
446.469	136.169
449.362	139.411
452.255	107.351
455.147	73.3593
458.04	64.5266
460.933	23.1497
463.826	8.75537
466.718	25.2726
469.611	5.26599
472.504	28.0758
475.396	64.4456
478.289	147.05
481.182	251.784
484.074	373.776
486.967	508.216
489.86	623.058
492.752	672.988
495.645	665.144
498.538	612.167
501.431	534.342
504.323	399.222
507.216	265.271
510.109	193.92
513.001	118.51
515.894	101.956
518.787	106.555
521.679	47.8339
524.572	44.1522
527.465	33.3929
530.358	34.2415
533.25	0.715698
536.143	10.719
539.036	30.5992
541.928	3.47522
544.821	11.97
547.714	8.6886
550.606	14.2073
553.499	20.092
556.392	74.2325
559.284	144.928
562.177	148.37
565.07	179.024
567.963	210.953
570.855	283.718
573.748	363.014
576.641	506.954
579.533	622.047
582.426	763.292
585.319	927.016
588.212	1077.04
591.104	1119.79
593.997	1055.87
596.89	908.491
599.782	780.717
602.675	611.229
605.568	471.971
608.46	406.576
611.353	338.178
614.246	280.75
617.139	232.917
620.031	182.738
622.924	200.814
625.817	146.805
628.709	106.993
631.602	65.1581
634.495	69.9722
637.387	24.9545
640.28	0.96106
643.173	6.01721
646.066	0.786011
648.958	15.9586
651.851	17.8705
654.744	23.246
657.636	7.22424
660.529	13.7089
663.422	42.5999
666.314	40.8381
669.207	73.53
672.1	106.5
674.992	88.6
677.885	122.409
680.778	156.737
683.67	173.088
686.563	163.846
689.456	144.96
692.349	151.261
695.241	146.553
698.134	125.136
701.027	88.2501
703.919	71.1242
706.812	67.4093
709.705	60.8999
712.597	49.6566
715.49	47.4155
718.383	50.0598
721.276	30.2554
724.168	12.7963
727.061	22.3739
729.954	8.40796
732.846	25.8179
735.739	21.4138
738.632	1.94336
741.524	4.54773
744.417	20.8181
747.31	17.7059
750.203	28.6977
753.095	28.2092
755.988	34.6737
758.881	43.5844
761.773	61.3026
764.666	59.4309
767.559	53.7333
770.452	103.727
773.344	121.204
776.237	123.499
779.13	115.703
782.022	131.353
784.915	102.255
787.808	46.8375
790.7	69.3509
793.593	19.5841
796.486	36.6824
799.378	22.2756
802.271	16.5521
805.164	6.42554
808.057	3.57861
810.949	4.28943
813.842	6.05103
816.735	9.42432
819.627	3.09363
822.52	5.34424
825.413	13.2769
828.305	28.2025
831.198	13.3771
834.091	4.48938
836.984	2.93164
839.876	37.4302
842.769	11.8185
845.662	0.616699
848.554	51.7283
851.447	80.1987
854.34	55.7188
857.232	124.913
860.125	127.366
863.018	123.007
865.91	167.589
868.803	145.784
871.696	125.512
874.589	107.342
877.481	69.8837
880.374	67.9423
883.267	68.4606
886.159	41.5696
889.052	69.379
891.945	116.703
894.837	186.43
897.73	173.855
900.623	222.119
903.516	285.988
906.408	406.644
909.301	493.387
912.194	614.188
915.086	700.484
917.979	854.183
920.872	906.151
923.764	1032.34
926.657	1117.68
929.55	1159.2
932.442	1103.74
935.335	1096.21
938.228	1032.29
941.121	904.578
944.013	771.574
946.906	677.626
949.799	521.802
952.691	438.457
955.584	308.985
958.477	261.09
961.37	175.874
964.262	129.036
967.155	95.84
970.048	88.6591
972.94	59.2241
975.833	7.90686
978.726	0.354126
981.618	23.7036
984.511	21.8077
987.404	1.203
990.296	20.6711
993.189	5.62756
996.082	3.31274
998.975	9.13464
1001.87	24.8772
1004.76	21.1287
1007.65	2.46582
1010.54	28.4615
1013.44	1.77405
1016.33	1.12744
1019.22	26.4206
1022.12	31.761
1025.01	5.27222
1027.9	24.6379
1030.79	41.2688
1033.69	32.4886
1036.58	32.843
1039.47	46.6812
1042.37	35.755
1045.26	15.389
1048.15	34.418
1051.04	58.8325
1053.94	77.4563
1056.83	45.2853
1059.72	81.3481
1062.61	86.3107
1065.51	54.3519
1068.4	34.2242
1071.29	40.7687
1074.18	26.9718
1077.08	43.6415
1079.97	69.1337
1082.86	35.9098
1085.76	49.3077
1088.65	35.0763
1091.54	20.3362
1094.43	41.1001
1097.33	52.4597
1100.22	35.2579
1103.11	18.6537
1106	39.4739
1108.9	34.6084
1111.79	41.0763
1114.68	34.6943
1117.58	15.123
1120.47	16.3773
1123.36	19.0713
1126.25	11.9338
1129.15	41.441
1132.04	40.4647
1134.93	30.5195
1137.82	8.06787
1140.72	0.761108
1143.61	39.4781
1146.5	25.806
1149.39	1.39465
1152.29	44.2399
1155.18	13.5339
1158.07	39.9597
1160.97	12.7089
1163.86	39.9196
1166.75	28.2064
1169.64	17.1819
1172.54	38.9064
1175.43	30.7346
1178.32	43.4769
1181.21	42.7407
1184.11	34.4716
1187	14.5365
1189.89	45.505
1192.79	20.2605
1195.68	55.9374
1198.57	51.2154
1201.46	21.077
1204.36	13.7741
1207.25	64.3424
1210.14	43.8002
1213.03	14.8182
1215.93	65.7286
1218.82	5.19641
1221.71	59.7781
1224.61	5.43579
1227.5	28.3463
1230.39	28.0106
1233.28	26.6841
1236.18	59.2826
1239.07	48.9878
1241.96	52.8138
1244.85	45.1377
1247.75	31.6967
1250.64	0.473999
1253.53	0
