Measurement: Raman, 780 nm, unoriented, Raman Data Processed
Mineral: Orlandiite
Rruff sample: R100122
Ideal chemistry: Pb_3_Cl_4_(Se^4+^O_3_)H_2_O
Locality: Baccu Locci mine, Villaputen, Sardinia
Source: William W. Pinch
Description: Colorless radiating bladed crystals associated with blue chalcomenite, R100123, and colorless anglesite.
Raman shift (cm-1)	intensity
152.798	0
155.691	5.45709
158.584	13.8147
161.477	13.8991
164.369	8.67413
167.262	9.935
170.155	7.39258
173.047	8.96887
175.94	12.8947
178.833	14.696
181.726	6.19434
184.618	7.28912
187.511	0.561829
190.404	1.52801
193.296	4.46094
196.189	1.16144
199.082	0.631348
201.974	0.397766
204.867	0.568359
207.76	4.91815
210.652	13.1394
213.545	26.8922
216.438	38.7985
219.331	50.8577
222.223	70.9266
225.116	87.8027
228.009	114.893
230.901	151.922
233.794	191.363
236.687	179.381
239.579	148.094
242.472	88.7287
245.365	54.1543
248.257	36.8755
251.15	22.6822
254.043	17.7706
256.936	12.0102
259.828	6.20416
262.721	6.44818
265.614	3.35529
268.506	3.3122
271.399	3.2016
274.292	3.59851
277.185	1.00427
280.077	1.60809
282.97	2.14502
285.863	1.49835
288.755	4.42505
291.648	0.922607
294.541	3.59222
297.433	0.254089
300.326	3.52911
303.219	0.978027
306.111	5.2583
309.004	5.09985
311.897	4.19867
314.79	5.6839
317.682	3.91547
320.575	5.8139
323.468	10.1834
326.36	4.95392
329.253	6.84503
332.146	8.72504
335.038	9.2453
337.931	10.5178
340.824	8.67633
343.717	11.938
346.609	11.9149
349.502	8.32782
352.395	7.56372
355.287	9.88849
358.18	8.80273
361.073	8.87524
363.965	9.75677
366.858	12.0519
369.751	13.6976
372.644	8.73871
375.536	10.2927
378.429	6.6275
381.322	7.29364
384.214	1.65906
387.107	3.43439
390	2.20465
392.892	2.91589
395.785	1.85858
398.678	3.49249
401.57	2.03284
404.463	6.50574
407.356	4.57385
410.249	12.068
413.141	10.8387
416.034	11.8115
418.927	17.395
421.819	18.6611
424.712	21.572
427.605	18.3652
430.498	17.3903
433.39	15.7698
436.283	14.7925
439.176	14.9815
442.068	14.8194
444.961	13.993
447.854	13.6213
450.746	15.8184
453.639	12.1621
456.532	8.07696
459.425	11.8527
462.317	10.3855
465.21	5.0448
468.103	7.8006
470.995	6.38995
473.888	5.3205
476.781	1.97064
479.673	2.28876
482.566	2.88098
485.459	1.64801
488.351	5.64899
491.244	0.456787
494.137	4.62909
497.029	5.16449
499.922	3.67371
502.815	2.56061
505.708	4.79651
508.6	1.41675
511.493	2.4173
514.386	2.06854
517.278	2.71039
520.171	3.97693
523.064	2.54462
525.957	2.03638
528.849	1.00909
531.742	2.60529
534.635	2.17627
537.527	0.774353
540.42	2.21838
543.313	0.216797
546.205	4.07581
549.098	1.80188
551.991	3.87622
554.884	6.19763
557.776	2.11914
560.669	3.30493
563.562	2.38501
566.454	4.22986
569.347	0.022522
572.24	0.469849
575.132	4.06128
578.025	2.03784
580.918	2.32239
583.811	2.24615
586.703	4.24164
589.596	6.44745
592.489	4.96252
595.381	7.48242
598.274	5.16064
601.167	2.67188
604.059	0.539734
606.952	4.49377
609.845	5.10852
612.737	5.59766
615.63	5.72107
618.523	1.42493
621.416	3.2981
624.308	3.67529
627.201	2.5329
630.094	1.71442
632.986	2.92548
635.879	1.4397
638.772	2.76324
641.664	1.03711
644.557	2.41998
647.45	1.14502
650.342	1.87763
653.235	3.29413
656.128	2.3963
659.021	4.48779
661.913	5.57147
664.806	3.05798
667.699	5.18622
670.591	5.91083
673.484	4.79913
676.377	7.35736
679.269	7.67554
682.162	10.9788
685.055	10.8115
687.948	8.30457
690.84	5.70636
693.733	5.30566
696.626	4.10553
699.518	0.772644
702.411	3.51514
705.304	4.71588
708.197	4.29816
711.089	4.40674
713.982	4.20282
716.875	4.37317
719.767	2.79163
722.66	1.40027
725.553	5.12573
728.445	2.98541
731.338	2.04517
734.231	0.725159
737.124	0.82428
740.016	1.26099
742.909	0.512634
745.802	1.90436
748.694	1.82947
751.587	4.35754
754.48	6.20282
757.372	6.83246
760.265	8.33887
763.158	14.2098
766.051	20.5659
768.943	28.8436
771.836	41.7427
774.729	54.0913
777.621	69.489
780.514	85.434
783.407	95.7084
786.299	92.0306
789.192	75.7759
792.085	54.1723
794.977	42.2177
797.87	29.9897
800.763	24.6426
803.655	19.8876
806.548	14.9233
809.441	15.2738
812.334	9.10846
815.226	10.795
818.119	9.29602
821.012	7.87256
823.904	4.63947
826.797	5.97174
829.69	4.14838
832.582	3.85297
835.475	0.84314
838.368	1.43732
841.261	1.7926
844.153	0.962219
847.046	0.911011
849.939	0.444153
852.831	1.86401
855.724	2.78394
858.617	3.25269
861.51	2.74286
864.402	5.57873
867.295	1.85016
870.188	8.51361
873.08	2.88962
875.973	4.54419
878.866	3.55701
881.758	3.88315
884.651	3.35855
887.544	3.77341
890.437	3.52976
893.329	2.59607
896.222	3.08408
899.115	2.23203
902.007	0.273193
904.9	3.74399
907.793	1.93256
910.685	1.32584
913.578	2.7081
916.471	2.80936
919.364	2.33954
922.256	1.55429
925.149	4.6395
928.042	1.45047
930.934	3.64401
933.827	6.13055
936.72	3.90155
939.612	0.993286
942.505	4.32657
945.398	3.68539
948.29	6.94665
951.183	5.99243
954.076	10.4914
956.968	10.5087
959.861	11.8315
962.754	14.2458
965.647	14.7083
968.539	13.2734
971.432	13.7758
974.325	11.2943
977.217	9.11566
980.11	5.9202
983.003	6.13339
985.895	3.78732
988.788	4.58514
991.681	0.050079
994.574	2.62543
997.466	4.55777
1000.36	2.67636
1003.25	3.14194
1006.14	5.67059
1009.04	1.82324
1011.93	4.45114
1014.82	1.87949
1017.72	0.670349
1020.61	1.28418
1023.5	2.4791
1026.39	2.05249
1029.29	3.2363
1032.18	7.07236
1035.07	1.36185
1037.96	5.19778
1040.86	4.88901
1043.75	6.96118
1046.64	5.46847
1049.54	4.78683
1052.43	3.97492
1055.32	0.516998
1058.21	3.69067
1061.11	5.00504
1064	0.288727
1066.89	8.19757
1069.78	3.69849
1072.68	5.50473
1075.57	2.63489
1078.46	1.77078
1081.35	3.02396
1084.25	5.32239
1087.14	2.79819
1090.03	2.45834
1092.92	3.12412
1095.82	1.41891
1098.71	0.407471
1101.6	1.22394
1104.5	0.223541
1107.39	2.32312
1110.28	1.59515
1113.17	0.818451
1116.07	0.365082
1118.96	1.10272
1121.85	3.07321
1124.74	1.14319
1127.64	2.81686
1130.53	5.10907
1133.42	3.54526
1136.32	4.68832
1139.21	4.0899
1142.1	2.96942
1144.99	4.57794
1147.89	6.67352
1150.78	5.00073
1153.67	2.28299
1156.57	4.89545
1159.46	3.21884
1162.35	4.54974
1165.24	3.62399
1168.13	3.29294
1171.03	4.15555
1173.92	3.77203
1176.81	2.26123
1179.71	4.88699
1182.6	0.593231
1185.49	0.130737
1188.38	2.7287
1191.28	1.28534
1194.17	5.68683
1197.06	3.07687
1199.95	3.64246
1202.85	0.6203
1205.74	0.385803
1208.63	7.08771
1211.53	4.40006
1214.42	2.3223
1217.31	0.045563
1220.2	2.30411
1223.1	2.24014
1225.99	2.32465
1228.88	3.12122
1231.78	0.165833
1234.67	1.3096
1237.56	4.51443
1240.45	0.373566
1243.35	2.25891
1246.24	3.42868
1249.13	2.89059
1252.02	1.56949
1254.92	3.59216
1257.81	1.96759
1260.7	4.1152
1263.59	2.67828
1266.49	1.11346
1269.38	0.201721
1272.27	4.81635
1275.16	2.31805
1278.06	1.0296
1280.95	3.39478
1283.84	1.5141
