Measurement: Raman, 532 nm, unoriented, Raman Data Processed
Mineral: Orlandiite
Rruff sample: R100122
Ideal chemistry: Pb_3_Cl_4_(Se^4+^O_3_)H_2_O
Locality: Baccu Locci mine, Villaputen, Sardinia
Source: William W. Pinch
Description: Colorless radiating bladed crystals associated with blue chalcomenite, R100123, and colorless anglesite.
Raman shift (cm-1)	intensity
170.584	0
173.477	8.72595
176.37	7.9339
179.263	5.68231
182.155	7.30737
185.048	15.1235
187.941	16.0731
190.833	15.6333
193.726	13.93
196.619	12.9426
199.512	10.4125
202.404	10.2197
205.297	3.8186
208.19	0.183777
211.082	2.09894
213.975	1.10413
216.868	2.21728
219.761	0.676697
222.653	9.04529
225.546	15.6511
228.439	24.0622
231.331	44.408
234.224	50.5254
237.117	57.3704
240.009	54.5946
242.902	53.6437
245.795	49.808
248.688	49.9865
251.58	46.1803
254.473	44.6533
257.366	36.5539
260.258	28.9436
263.151	24.7448
266.044	18.2038
268.936	10.1592
271.829	4.47968
274.722	2.00562
277.615	0.643555
280.507	2.05054
283.4	1.31671
286.293	0.475311
289.185	1.15601
292.078	0.045197
294.971	0.499908
297.863	0.186829
300.756	2.41708
303.649	1.87595
306.541	4.52835
309.434	8.71216
312.327	5.09433
315.22	8.67569
318.112	10.8838
321.005	12.405
323.898	15.4303
326.791	15.2916
329.683	15.8141
332.576	15.3523
335.469	16.7423
338.361	16.9578
341.254	18.1797
344.147	20.4922
347.039	23.133
349.932	29.3496
352.825	32.9614
355.717	38.8495
358.61	42.5708
361.503	48.1677
364.396	51.3758
367.288	57.0711
370.181	52.6994
373.074	45.6533
375.966	46.3831
378.859	41.0872
381.752	30.5033
384.644	18.9894
387.537	12.0778
390.43	8.79742
393.323	3.62952
396.215	4.33014
399.108	3.29077
402.001	4.61139
404.894	6.8176
407.786	6.56888
410.679	9.50522
413.572	14.2849
416.464	19.9595
419.357	21.825
422.25	29.9374
425.142	27.644
428.035	26.7937
430.928	21.7875
433.82	18.3441
436.713	16.7828
439.606	16.44
442.499	12.9258
445.391	11.8311
448.284	10.946
451.177	10.6335
454.069	7.36023
456.962	4.21344
459.855	8.53275
462.748	3.86328
465.64	5.81863
468.533	2.76602
471.426	2.27676
474.318	0.538757
477.211	4.26077
480.104	1.82428
482.996	0.420624
485.889	0.670288
488.782	0.854279
491.675	1.93411
494.567	0.594116
497.46	2.99811
500.353	0.860779
503.245	2.49799
506.138	0.289581
509.031	1.53601
511.923	2.00226
514.816	1.99225
517.709	4.47937
520.602	3.05316
523.494	3.90372
526.387	1.69864
529.28	3.07388
532.172	4.59155
535.065	4.50247
537.958	5.41931
540.851	2.88135
543.743	2.6832
546.636	2.03604
549.529	3.49017
552.421	4.63913
555.314	3.86755
558.207	2.47455
561.099	1.89761
563.992	0.702789
566.885	4.98367
569.778	4.18808
572.67	2.50052
575.563	2.02695
578.456	4.05838
581.348	4.35422
584.241	5.59784
587.134	5.71075
590.027	9.0394
592.919	9.82025
595.812	10.0962
598.705	8.85532
601.597	8.97632
604.49	7.21304
607.383	4.71942
610.275	9.19806
613.168	4.44812
616.061	4.59631
618.953	0.44989
621.846	2.54523
624.739	1.15982
627.632	3.11163
630.524	1.46228
633.417	1.87759
636.31	1.42813
639.202	4.26645
642.095	1.23694
644.988	3.36999
647.881	3.12634
650.773	2.19946
653.666	5.67368
656.559	5.73746
659.451	11.4922
662.344	12.0464
665.237	16.1962
668.13	19.4227
671.022	26.3666
673.915	30.0207
676.808	35.5855
679.7	41.7631
682.593	38.7203
685.486	41.0662
688.378	33.8913
691.271	23.6623
694.164	14.917
697.057	9.82336
699.949	11.9417
702.842	11.5286
705.735	8.91852
708.627	9.97452
711.52	9.88376
714.413	13.2493
717.305	14.6328
720.198	8.80005
723.091	7.3273
725.984	6.59042
728.876	3.38699
731.769	0.229828
734.662	1.50723
737.554	0.479858
740.447	0.045715
743.34	0.828674
746.232	0.016846
749.125	4.03497
752.018	8.62088
754.91	12.0137
757.803	24.745
760.696	37.1123
763.589	55.3707
766.481	88.3595
769.374	133.565
772.267	198.056
775.159	279.193
778.052	371.572
780.945	468.872
783.838	523.441
786.73	513.682
789.623	421.979
792.516	321.665
795.408	253.34
798.301	209.684
801.194	176.104
804.087	153.664
806.979	128.962
809.872	109.51
812.765	93.8609
815.657	80.7771
818.55	64.4504
821.443	59.0805
824.335	44.456
827.228	37.4964
830.121	29.1291
833.014	23.3719
835.906	18.046
838.799	10.977
841.692	12.2824
844.584	8.1326
847.477	2.85483
850.37	0.400299
853.263	0.813721
856.155	1.03113
859.048	1.17065
861.941	0.66687
864.833	0.768311
867.726	2.72675
870.619	1.16128
873.511	2.70657
876.404	0.821869
879.297	0.727905
882.189	0.786865
885.082	3.40945
887.975	1.53482
890.868	1.24869
893.76	3.5632
896.653	1.44074
899.546	3.06503
902.438	1.71912
905.331	5.29883
908.224	1.63077
911.116	4.23608
914.009	0.915436
916.902	3.04202
919.795	4.77154
922.687	2.66876
925.58	5.25363
928.473	2.56168
931.365	2.44003
934.258	3.28851
937.151	2.6998
940.044	1.10181
942.936	4.35974
945.829	7.18527
948.722	10.7741
951.614	17.0205
954.507	21.5466
957.4	32.045
960.293	42.2785
963.185	54.806
966.078	66.4434
968.971	70.8597
971.863	64.3035
974.756	58.2743
977.649	45.3198
980.541	29.0384
983.434	17.7021
986.327	12.7262
989.22	7.99139
992.112	4.36838
995.005	5.21326
997.898	2.26288
1000.79	4.47699
1003.68	4.54983
1006.58	0.919342
1009.47	0.041229
1012.36	1.00049
1015.25	0.84787
1018.15	1.09528
1021.04	0.496002
1023.93	1.59351
1026.83	1.68054
1029.72	1.02667
1032.61	1.38718
1035.5	3.59348
1038.4	3.08218
1041.29	0.63559
1044.18	0.05072
1047.07	1.70612
1049.97	1.87415
1052.86	1.1481
1055.75	2.48474
1058.64	4.03534
1061.54	0.168671
1064.43	3.02939
1067.32	4.04568
1070.21	3.22458
1073.11	6.09891
1076	2.07364
1078.89	4.54831
1081.79	4.32687
1084.68	3.08499
1087.57	2.24426
1090.46	2.57559
1093.36	1.34711
1096.25	2.35452
1099.14	4.0083
1102.04	4.74423
1104.93	1.97836
1107.82	3.22394
1110.71	4.51849
1113.61	3.92483
1116.5	5.15204
1119.39	5.25601
1122.28	2.03268
1125.18	5.09555
1128.07	2.86218
1130.96	3.15894
1133.86	3.14194
1136.75	2.78149
1139.64	2.64123
1142.53	3.625
1145.43	0.592834
1148.32	4.32266
1151.21	2.33545
1154.1	3.23666
1157	2.37659
1159.89	2.3573
1162.78	4.90509
1165.67	0.462128
1168.57	0.567322
1171.46	1.909
1174.35	3.95606
1177.24	3.43298
1180.14	1.53323
1183.03	0.759521
1185.92	3.60919
1188.82	0.493652
1191.71	0.958618
1194.6	0.845673
1197.49	2.43692
1200.39	2.34198
1203.28	0.922302
1206.17	5.29727
1209.07	1.5712
1211.96	2.23731
1214.85	0.391876
1217.74	1.45563
1220.64	2.85471
1223.53	2.39945
1226.42	2.23538
1229.31	3.55917
1232.21	1.98868
1235.1	1.57736
1237.99	0.227509
1240.88	3.112
1243.78	0.707672
1246.67	1.38541
1249.56	1.05786
1252.45	4.07047
1255.35	2.79785
1258.24	2.93051
1261.13	4.97162
1264.03	0.782715
1266.92	3.07141
1269.81	1.89056
1272.7	2.04172
1275.6	1.83536
1278.49	1.3508
1281.38	1.0401
1284.28	0.673126
1287.17	0.334137
1290.06	3.47705
1292.95	0.948822
1295.85	4.54962
1298.74	4.77164
1301.63	1.91257
