Measurement: Raman, 780 nm, unoriented, Raman Data Processed
Mineral: Orpiment
Rruff sample: R060105
Ideal chemistry: As_2_S_3_
Locality: Mercur, Utah, USA
Source: University of Arizona Mineral Museum
Description: Yellowish-orange crystals
Measured chemistry: As_2.00_S_3.00_
Raman shift (cm-1)	intensity
120.47	0
123.845	224.269
127.22	922.653
130.595	1938.21
133.97	3892.1
137.344	4420.52
140.719	1177.91
144.094	820.885
147.469	852.538
150.844	1272.84
154.218	2558.03
157.593	1367.57
160.968	51.5103
164.343	72.493
167.718	36.5427
171.093	28.5106
174.467	125.54
177.842	484.366
181.217	620.791
184.592	760.824
187.966	797.882
191.341	896.394
194.716	1205.43
198.091	1798.56
201.466	3059.86
204.841	1818.9
208.215	473.732
211.59	254.004
214.965	191.515
218.34	169.279
221.715	113.347
225.089	49.772
228.464	11.8605
231.839	9.76004
235.214	16.2947
238.589	21.6688
241.964	23.0708
245.338	18.929
248.713	17.6064
252.088	3.99853
255.463	22.7415
258.838	58.0639
262.212	111.093
265.587	167.628
268.962	324.101
272.337	778.038
275.712	1623.63
279.087	2012.47
282.461	2821.58
285.836	4229.27
289.211	6945.71
292.586	10739.4
295.961	7660.64
299.335	6011.35
302.71	7989.24
306.085	11871.1
309.46	17598
312.835	12833.9
316.209	2162.1
319.584	450.224
322.959	124.334
326.334	88.1897
329.709	154.288
333.084	715.199
336.458	2342.56
339.833	4220.99
343.208	6326.84
346.583	8900.77
349.958	13463.9
353.332	19442.5
356.707	17674.7
360.082	11943.7
363.457	4474.25
366.832	1740.24
370.207	1188.09
373.581	1079.66
376.956	1382.92
380.331	1955.42
383.706	1894.48
387.081	672.723
390.455	166.314
393.83	49.3705
397.205	30.9422
400.58	18.1401
403.955	15.398
407.329	35.9348
410.704	39.0101
414.079	30.608
417.454	10.7249
420.829	5.7892
424.204	21.1803
427.578	34.5818
430.953	38.5177
434.328	38.8192
437.703	42.3652
441.078	47.8675
444.452	59.8138
447.827	68.561
451.202	75.7014
454.577	76.494
457.952	78.7023
461.327	89.3259
464.701	90.5538
468.076	80.243
471.451	68.2491
474.826	61.353
478.201	57.6282
481.575	58.4675
484.95	58.8944
488.325	53.8828
491.7	50.6667
495.075	50.2441
498.45	46.0741
501.824	39.0937
505.199	32.423
508.574	25.5908
511.949	19.9005
515.323	15.0729
518.698	7.92153
522.073	4.91983
525.448	1.62597
528.823	1.02034
532.198	2.30021
535.572	0.368843
538.947	1.63566
542.322	0.916443
545.697	0.545441
549.072	1.78644
552.447	0.358002
555.821	0.229362
559.196	1.27256
562.571	8.28588
565.946	27.4867
569.321	58.4396
572.695	99.9166
576.07	154.185
579.445	204.445
582.82	243.094
586.195	237.305
589.569	178.568
592.944	125.294
596.319	72.2269
599.694	40.6491
603.069	18.485
606.443	8.40959
609.818	15.8134
613.193	0.185989
616.568	1.36603
619.943	1.32196
623.318	6.42189
626.692	6.45076
630.067	14.4418
633.442	26.7109
636.817	46.2499
640.192	68.6567
643.567	89.0305
646.941	96.3473
650.316	94.9621
653.691	86.5093
657.066	70.3246
660.441	44.7982
663.815	16.65
667.19	5.95497
670.565	3.72159
673.94	9.61711
677.315	11.7049
680.689	23.5248
684.064	29.3492
687.439	34.5951
690.814	36.5122
694.189	46.5697
697.563	56.251
700.938	65.6548
704.313	68.6361
707.688	72.8927
711.063	66.2476
714.438	60.1624
717.812	51.0765
721.187	50.3548
724.562	57.0688
727.937	56.1098
731.312	51.3795
734.687	38.4991
738.061	15.6734
741.436	3.55856
744.811	3.51845
748.186	4.39304
751.561	3.03845
754.935	0.16571
758.31	1.94261
761.685	3.04232
765.06	4.93853
768.435	3.96363
771.809	4.56171
775.184	3.56763
778.559	4.21877
781.934	6.13956
785.309	5.53065
788.683	5.40345
792.058	4.22475
795.433	2.19281
798.808	3.53051
802.183	0.385994
805.558	0.115028
808.932	0.168186
812.307	1.32413
815.682	3.30994
819.057	3.15082
822.432	3.45604
825.807	2.70226
829.181	3.76881
832.556	4.64782
835.931	4.99099
839.306	7.39966
842.681	6.65379
846.055	5.62859
849.43	8.54219
852.805	7.90503
856.18	7.28871
859.555	5.40428
862.929	5.92482
866.304	4.89419
869.679	3.16781
873.054	4.40055
876.429	4.30298
879.803	2.47568
883.178	3.76899
886.553	3.10106
889.928	4.31215
893.303	2.36903
896.678	1.18779
900.052	1.89434
903.427	1.43665
906.802	1.06485
910.177	1.93674
913.552	1.97788
916.927	0.140785
920.301	0.151096
923.676	0.345467
927.051	1.05785
930.426	0.189899
933.801	0.883259
937.175	0.448856
940.55	2.43149
943.925	1.95648
947.3	2.09848
950.675	0.536488
954.049	1.94982
957.424	0.645145
960.799	0.679302
964.174	0.022827
967.549	1.18187
970.923	0.903442
974.298	0.428627
977.673	4.00651
981.048	1.07145
984.423	1.3183
987.798	0.496941
991.172	0.563904
994.547	1.83852
997.922	0.111561
1001.3	0.904808
1004.67	1.63182
1008.05	2.1956
1011.42	2.42233
1014.8	0.762249
1018.17	2.49147
1021.55	3.28821
1024.92	0.787048
1028.3	0.884335
1031.67	2.68412
1035.05	1.98686
1038.42	1.27444
1041.8	1.38797
1045.17	2.03647
1048.54	2.66312
1051.92	2.04129
1055.29	2.5626
1058.67	2.21056
1062.04	0.72019
1065.42	1.25402
1068.79	0.19532
1072.17	0.161472
1075.54	1.30231
1078.92	2.05793
1082.29	2.6923
1085.67	0.039396
1089.04	0.122709
1092.42	3.32786
1095.79	2.15949
1099.17	3.52955
1102.54	0.996809
1105.92	0.509172
1109.29	0.341896
1112.67	1.5312
1116.04	1.1738
1119.41	2.20236
1122.79	0.496675
1126.16	1.12294
1129.54	1.46317
1132.91	1.328
1136.29	2.40505
1139.66	2.40991
1143.04	1.27541
1146.41	1.88675
1149.79	1.4212
1153.16	1.62111
1156.54	3.11597
1159.91	1.07453
1163.29	3.12035
1166.66	0.954844
1170.04	2.4653
1173.41	1.26264
1176.79	1.5355
1180.16	0.97617
1183.54	2.57239
1186.91	2.57711
1190.29	1.74536
1193.66	3.07359
1197.04	1.35401
1200.41	1.22329
1203.79	2.35778
1207.16	2.34582
1210.54	13.4709
1213.91	2.36452
1217.29	0.855867
1220.66	0.769253
1224.04	0.369015
1227.41	1.61366
1230.78	1.09169
1234.16	1.53946
1237.53	1.49863
1240.91	0.580608
1244.28	1.29158
1247.66	1.20114
1251.03	0.679432
1254.41	0.270998
1257.78	1.94302
1261.16	1.0876
1264.53	3.2954
1267.91	1.8111
1271.28	0.175495
1274.66	0.200623
1278.03	0.664997
1281.41	1.28538
1284.78	0.809258
