Measurement: Raman, 532 nm, unoriented, Raman Data Processed
Mineral: Orpiment
Rruff sample: R060116
Ideal chemistry: As_2_S_3_
Locality: Quiruvilca, Peru
Source: University of Arizona Mineral Museum
Description: Brownish-yellow prismatic crystals
Measured chemistry: As_1.83_S_3.00_
Raman shift (cm-1)	intensity
130.279	0
133.654	1397.3
137.029	2683.43
140.404	1113.86
143.779	1271.31
147.154	2294.31
150.528	4631.38
153.903	8321.88
157.278	3402.08
160.653	279.742
164.028	9.48877
167.402	42.4996
170.777	71.3875
174.152	36.7749
177.527	120.415
180.902	220.265
184.277	811.594
187.651	1073.91
191.026	1511.71
194.401	2332.24
197.776	3993.8
201.151	7469.41
204.525	2883.13
207.9	839.386
211.275	453.207
214.65	310.02
218.025	268.372
221.4	248.258
224.774	190.795
228.149	107.214
231.524	32.7454
234.899	30.4334
238.274	39.0945
241.649	75.7582
245.023	73.8472
248.398	79.5795
251.773	24.4823
255.148	51.2438
258.523	123.641
261.897	214.417
265.272	384.382
268.647	783.799
272.022	1768.75
275.397	4081.76
278.772	6178.94
282.146	8765.22
285.521	12734
288.896	18652.4
292.271	23499.3
295.646	12068.1
299.02	9707.15
302.395	12900.1
305.77	21133.7
309.145	36708.2
312.52	21682.5
315.895	3345.13
319.269	925.335
322.644	346.813
326.019	242.921
329.394	424.072
332.769	1107.18
336.144	3224.33
339.518	6736.36
342.893	11189.7
346.268	17603.4
349.643	29310.7
353.018	43774
356.392	38951.4
359.767	27420.5
363.142	8332.17
366.517	3174.88
369.892	2269.03
373.267	2401.94
376.641	3249.95
380.016	4742.75
383.391	4403.05
386.766	1401.02
390.141	425.575
393.515	198.947
396.89	133.177
400.265	80.9486
403.64	2.73218
407.015	82.969
410.39	97.2125
413.764	73.4324
417.139	39.9616
420.514	0.539917
423.889	31.5209
427.264	52.8825
430.639	70.2424
434.013	78.5917
437.388	78.0435
440.763	108.617
444.138	130.149
447.513	149.454
450.887	162.786
454.262	163.28
457.637	170.526
461.012	188.712
464.387	204.44
467.762	197.637
471.136	168.832
474.511	171.051
477.886	157.832
481.261	174.979
484.636	175.988
488.01	154.52
491.385	153.247
494.76	152.126
498.135	140.453
501.51	131.327
504.885	99.477
508.259	82.6314
511.634	73.3735
515.009	53.8677
518.384	36.6994
521.759	28.382
525.134	13.6452
528.508	2.23053
531.883	26.3866
535.258	1.15949
538.633	7.0267
542.008	10.7206
545.382	1.28091
548.757	2.80164
552.132	8.00104
555.507	11.5752
558.882	8.49481
562.256	43.3306
565.631	123.653
569.006	246.496
572.381	443.477
575.756	693.66
579.131	957.881
582.505	1136.38
585.88	1094.26
589.255	840.792
592.63	553.551
596.005	341.549
599.38	217.14
602.754	126.258
606.129	80.4696
609.504	43.8514
612.879	20.509
616.254	21.9313
619.629	32.6359
623.003	32.2246
626.378	48.2951
629.753	77.4987
633.128	153.19
636.503	266.048
639.877	364.937
643.252	451.368
646.627	481.64
650.002	474.426
653.377	431.424
656.751	337.76
660.126	193.726
663.501	82.3837
666.876	14.4206
670.251	28.084
673.626	54.9251
677	85.2967
680.375	125.199
683.75	156.899
687.125	173.224
690.5	186.657
693.875	239.386
697.249	274.843
700.624	289.818
703.999	325.726
707.374	303.886
710.749	267.98
714.124	240.54
717.498	207.664
720.873	218.65
724.248	245.996
727.623	256.509
730.998	231.376
734.372	163.641
737.747	69.8503
741.122	3.2428
744.497	11.8973
747.872	21.9352
751.246	13.5695
754.621	0.567932
757.996	26.8455
761.371	29.6376
764.746	24.0222
768.121	33.7465
771.495	26.434
774.87	28.7826
778.245	34.37
781.62	32.0319
784.995	41.4816
788.37	41.0181
791.744	25.766
795.119	25.4716
798.494	16.469
801.869	15.2996
805.244	3.68402
808.619	1.74257
811.993	0.337799
815.368	4.84936
818.743	9.94968
822.118	17.8499
825.493	14.812
828.867	18.4386
832.242	19.5899
835.617	15.1318
838.992	27.5422
842.367	23.2705
845.741	31.8609
849.116	29.5511
852.491	29.2429
855.866	24.4198
859.241	21.6208
862.616	20.473
865.99	22.7509
869.365	14.8393
872.74	15.7388
876.115	14.9965
879.49	10.3793
882.865	13.8466
886.239	8.87869
889.614	11.2034
892.989	8.25371
896.364	14.5744
899.739	7.00261
903.113	10.4324
906.488	1.18105
909.863	0.454193
913.238	3.55561
916.613	6.09671
919.987	4.94759
923.362	2.33078
926.737	5.39012
930.112	6.85346
933.487	5.0297
936.862	3.51454
940.236	1.16028
943.611	0.152985
946.986	4.29557
950.361	4.03401
953.736	6.47996
957.111	4.46644
960.485	3.81156
963.86	0.822678
967.235	12.2823
970.61	5.54508
973.985	3.18412
977.36	12.1063
980.734	10.2515
984.109	0.327415
987.484	4.55003
990.859	9.87197
994.234	0.869987
997.608	6.36673
1000.98	0.315453
1004.36	7.94276
1007.73	1.5337
1011.11	4.20333
1014.48	6.88129
1017.86	3.67099
1021.23	5.67616
1024.61	4.04297
1027.98	6.1957
1031.36	1.06917
1034.73	4.06155
1038.11	8.14752
1041.48	0.437889
1044.86	5.91486
1048.23	7.04701
1051.61	4.37279
1054.98	3.50716
1058.36	6.76583
1061.73	7.83941
1065.11	5.93952
1068.48	6.80412
1071.85	2.31807
1075.23	8.34053
1078.6	7.31027
1081.98	10.023
1085.35	6.76097
1088.73	1.16942
1092.1	5.7245
1095.48	0.756058
1098.85	3.01687
1102.23	4.29796
1105.6	4.94945
1108.98	1.91316
1112.35	1.54474
1115.73	6.0035
1119.1	9.56873
1122.48	3.07147
1125.85	2.42359
1129.23	1.44679
1132.6	5.92504
1135.98	2.16256
1139.35	5.06574
1142.73	2.92064
1146.1	8.77358
1149.47	9.49404
1152.85	4.14656
1156.22	6.44051
1159.6	2.70515
1162.97	8.33777
1166.35	7.97498
1169.72	6.92507
1173.1	4.57262
1176.47	12.1344
1179.85	4.1862
1183.22	4.33031
1186.6	5.67592
1189.97	2.71161
1193.35	9.11848
1196.72	1.91958
1200.1	5.91698
1203.47	3.2779
1206.85	2.86297
1210.22	2.21155
1213.6	4.90672
1216.97	4.08125
1220.35	5.83038
1223.72	7.70026
1227.1	8.91866
1230.47	3.35013
1233.85	6.82639
1237.22	4.53963
1240.6	1.29031
1243.97	5.48487
1247.35	3.70689
1250.72	9.06834
1254.1	4.384
1257.47	7.24869
1260.84	2.20916
1264.22	11.3241
1267.59	1.64315
1270.97	10.8826
1274.34	1.60165
1277.72	4.2114
1281.09	2.71394
1284.47	0.327415
1287.84	4.09569
1291.22	0.412216
1294.59	5.65653
1297.97	2.9333
1301.34	0.603233
