Measurement: Raman, 532 nm, unoriented, Raman Data Processed
Mineral: Orpiment
Rruff sample: R060105
Ideal chemistry: As_2_S_3_
Locality: Mercur, Utah, USA
Source: University of Arizona Mineral Museum
Description: Yellowish-orange crystals
Measured chemistry: As_2.00_S_3.00_
Raman shift (cm-1)	intensity
120.637	0
124.012	12.1087
127.387	86.2504
130.762	297.958
134.136	1236.57
137.511	1678.11
140.886	1277.36
144.261	1439.21
147.636	1994.02
151.011	4144.81
154.385	5868.33
157.76	1446.45
161.135	256.17
164.51	91.0207
167.885	39.1389
171.259	5.47888
174.634	13.0607
178.009	84.3083
181.384	227.988
184.759	872.962
188.133	1061.3
191.508	1346.2
194.883	1951.27
198.258	3619.43
201.633	6379.87
205.008	1984.16
208.382	481.778
211.757	197.141
215.132	102.486
218.507	81.4226
221.882	58.0402
225.256	50.2034
228.631	52.5344
232.006	33.1007
235.381	19.1314
238.756	1.54266
242.131	19.1007
245.505	49.1884
248.88	52.1154
252.255	36.2985
255.63	25.4922
259.005	5.81207
262.38	48.4491
265.754	103.411
269.129	246.779
272.504	673.269
275.879	1552.65
279.254	2158.89
282.628	2982.56
286.003	4648.94
289.378	7915.06
292.753	9530.77
296.128	4350.59
299.503	3268.8
302.877	4161.17
306.252	6857.05
309.627	10302.5
313.002	4675.59
316.377	852.055
319.752	357.913
323.126	281.408
326.501	337.916
329.876	496.112
333.251	1002.24
336.626	2398.16
340	4296.42
343.375	7010.47
346.75	10437.9
350.125	16632.6
353.5	21925.3
356.875	20123.9
360.249	15077.4
363.624	4603.24
366.999	1973.24
370.374	1427.06
373.749	1404.52
377.123	1768.99
380.498	2284.64
383.873	1741.66
387.248	599.788
390.623	259.58
393.998	166.451
397.372	130.824
400.747	85.4994
404.122	16.4177
407.497	38.1731
410.872	46.2252
414.247	42.3903
417.621	24.3195
420.996	7.82898
424.371	5.60632
427.746	11.9945
431.121	19.3684
434.495	28.6975
437.87	42.6921
441.245	54.6404
444.62	76.149
447.995	83.8818
451.37	81.2848
454.744	85.6839
458.119	96.9309
461.494	103.592
464.869	112.612
468.244	114.682
471.618	106.302
474.993	101.578
478.368	92.5089
481.743	89.8078
485.118	95.926
488.493	87.2831
491.867	82.0332
495.242	88.3059
498.617	90.3346
501.992	77.4642
505.367	63.7263
508.741	57.251
512.116	51.7554
515.491	47.143
518.866	45.2835
522.241	36.7224
525.616	17.8363
528.99	9.12026
532.365	5.85895
535.74	5.41635
539.115	4.3898
542.49	2.55258
545.865	0.610046
549.239	1.76312
552.614	0.180847
555.989	10.8749
559.364	12.9921
562.739	2.88434
566.114	8.99051
569.488	33.1487
572.863	79.5923
576.238	135.435
579.613	194.674
582.987	228.206
586.362	213.057
589.737	165.292
593.112	116.806
596.487	82.673
599.862	60.3142
603.236	47.1036
606.611	45.5649
609.986	28.8762
613.361	28.9173
616.736	23.7548
620.111	18.456
623.485	20.8941
626.86	15.8183
630.235	38.5449
633.61	71.2231
636.985	125.56
640.36	169.151
643.734	192.147
647.109	202.314
650.484	186.702
653.859	161.083
657.234	132.008
660.609	84.1562
663.983	47.1671
667.358	43.8923
670.733	48.3603
674.108	69.7604
677.482	93.7966
680.857	120.784
684.232	133.946
687.607	133.735
690.982	130.04
694.357	147.177
697.731	156.748
701.106	145.78
704.481	149.664
707.856	129.503
711.231	102.49
714.606	90.4564
717.98	83.7415
721.355	91.9835
724.73	99.7696
728.105	93.922
731.48	82.5585
734.855	54.0423
738.229	18.3818
741.604	0.406372
744.979	9.71544
748.354	9.37045
751.729	9.7361
755.103	0.980774
758.478	6.9337
761.853	20.0805
765.228	18.884
768.603	18.5917
771.977	19.1294
775.352	21.8286
778.727	20.416
782.102	25.6103
785.477	25.8082
788.852	26.9844
792.226	17.0447
795.601	19.7062
798.976	10.5575
802.351	7.46968
805.726	3.23534
809.101	4.78601
812.475	0.0616
815.85	3.78845
819.225	7.44328
822.6	9.40256
825.975	9.22978
829.35	13.2622
832.724	16.7897
836.099	11.2029
839.474	16.8331
842.849	17.2818
846.224	16.1469
849.598	18.2885
852.973	16.2804
856.348	16.585
859.723	15.8733
863.098	18.4167
866.472	15.2799
869.847	9.9969
873.222	12.2984
876.597	8.50462
879.972	8.27399
883.347	7.38675
886.721	8.75052
890.096	5.67996
893.471	5.00661
896.846	0.042923
900.221	3.17003
903.596	1.0069
906.97	5.4778
910.345	9.23515
913.72	4.70812
917.095	4.44585
920.47	2.93196
923.845	2.38316
927.219	1.60457
930.594	2.45296
933.969	5.03955
937.344	2.1673
940.719	1.13416
944.093	2.0497
947.468	0.816437
950.843	2.57417
954.218	1.82902
957.593	2.64159
960.967	3.0612
964.342	4.7401
967.717	4.27618
971.092	5.36241
974.467	0.699265
977.842	1.60207
981.216	2.02924
984.591	2.93442
987.966	1.92229
991.341	5.22572
994.716	3.64368
998.091	3.30957
1001.47	0.962143
1004.84	1.20676
1008.22	5.071
1011.59	4.17963
1014.97	1.05106
1018.34	0.206131
1021.71	5.2536
1025.09	4.92201
1028.46	4.42961
1031.84	2.4348
1035.21	2.39133
1038.59	4.17404
1041.96	0.75354
1045.34	3.35976
1048.71	5.21349
1052.09	3.69553
1055.46	1.24428
1058.84	3.88756
1062.21	9.38762
1065.59	7.38945
1068.96	9.46835
1072.34	1.92711
1075.71	0.615982
1079.09	0.144608
1082.46	4.7202
1085.84	5.08685
1089.21	1.82968
1092.59	7.24817
1095.96	4.65421
1099.34	1.4924
1102.71	0.083725
1106.09	5.92609
1109.46	3.42264
1112.83	2.52916
1116.21	4.31187
1119.58	4.81741
1122.96	4.95197
1126.33	4.48425
1129.71	1.73659
1133.08	1.52772
1136.46	7.97174
1139.83	1.49449
1143.21	3.33026
1146.58	5.03577
1149.96	6.4523
1153.33	0.36174
1156.71	4.05907
1160.08	1.71339
1163.46	0.578812
1166.83	2.57889
1170.21	6.01405
1173.58	2.83914
1176.96	0.691589
1180.33	4.71155
1183.71	12.8699
1187.08	3.9882
1190.45	3.07236
1193.83	3.13954
1197.2	4.32127
1200.58	0.220001
1203.95	5.75824
1207.33	3.42715
1210.7	6.07132
1214.08	6.83044
1217.45	7.28934
1220.83	4.80321
1224.2	0.818314
1227.58	6.02222
1230.95	1.01863
1234.33	1.92307
1237.7	3.35921
1241.08	5.25992
1244.45	5.41083
1247.83	6.05496
1251.2	9.89981
1254.58	6.21278
1257.95	6.98384
1261.33	5.08771
1264.7	6.23248
1268.08	3.94128
1271.45	4.32636
1274.83	3.76001
1278.2	0.77269
1281.58	1.93498
1284.95	4.36647
1288.33	1.12614
1291.7	2.83919
1295.08	4.14121
1298.45	1.09532
1301.82	0
