Measurement: Raman, 780 nm, unoriented, Raman Data Processed
Mineral: Orpiment
Rruff sample: R060116
Ideal chemistry: As_2_S_3_
Locality: Quiruvilca, Peru
Source: University of Arizona Mineral Museum
Description: Brownish-yellow prismatic crystals
Measured chemistry: As_1.83_S_3.00_
Raman shift (cm-1)	intensity
130.113	0
133.005	8539.56
135.898	31672.9
138.791	16209.4
141.683	2624.79
144.576	3151.39
147.469	8468.65
150.362	23582.2
153.254	72709.3
156.147	57271.3
159.04	10873.3
161.932	1826.61
164.825	241.773
167.718	173.571
170.61	535.499
173.503	605.391
176.396	271.975
179.288	569.525
182.181	2310.46
185.074	4675.79
187.966	4399.1
190.859	5727.68
193.752	9405.22
196.645	16680.9
199.537	35710.2
202.43	74432.5
205.323	29679.3
208.215	8500.88
211.108	4602.86
214.001	3237.26
216.893	2696.2
219.786	2401.55
222.679	2141.75
225.572	1780.51
228.464	1328.43
231.357	824.68
234.25	379.547
237.142	112.52
240.035	18.863
242.928	47.1045
245.821	145.017
248.713	161.84
251.606	140.486
254.499	41.4402
257.391	116.781
260.284	319.13
263.177	498.306
266.069	777.081
268.962	1401.09
271.855	2894.1
274.748	5417.79
277.64	7600.06
280.533	11131.9
283.426	18136.6
286.318	31698.2
289.211	57836.2
292.104	82004.2
294.996	46618.5
297.889	18483.2
300.782	17098.2
303.675	25095.6
306.567	45733.7
309.46	95417.9
312.353	100295
315.245	23031.2
318.138	4993.58
321.031	1345.2
323.923	321.626
326.816	149.448
329.709	484.156
332.601	1474.77
335.494	3924.27
338.387	8208.8
341.279	14432.8
344.172	22762.6
347.065	35947.4
349.958	64349
352.85	120161
355.743	178279
358.636	200742
361.528	141293
364.421	43617.7
367.314	15065.5
370.207	7645.65
373.099	5731.46
375.992	6188.93
378.885	8936.45
381.777	13438.4
384.67	11287.4
387.563	4124.83
390.455	1354.41
393.348	564.228
396.241	333.775
399.134	264.142
402.026	171.947
404.919	19.3754
407.812	183.945
410.704	242.137
413.597	209.677
416.49	121.656
419.382	15.6929
422.275	63.8799
425.168	139.322
428.06	208.524
430.953	244.409
433.846	252.675
436.739	267.938
439.631	310.589
442.524	374.365
445.417	443.357
448.309	500.623
451.202	519.028
454.095	516.626
456.988	516.731
459.88	536.768
462.773	574.124
465.666	585.908
468.558	533.106
471.451	464.418
474.344	417.985
477.236	397.453
480.129	383.899
483.022	396.219
485.914	385.272
488.807	353.315
491.7	329.368
494.592	330.483
497.485	349.61
500.378	347.777
503.271	322.173
506.163	255.894
509.056	219.404
511.949	192.485
514.841	157.115
517.734	143.169
520.627	134.113
523.519	103.439
526.412	61.2249
529.305	26.4011
532.198	9.21463
535.09	4.65552
537.983	0.644592
540.876	9.4317
543.768	17.57
546.661	24.827
549.554	11.5394
552.447	0.614166
555.339	10.9434
558.232	21.7197
561.125	36.4392
564.017	18.8363
566.91	3.75119
569.803	34.7773
572.695	94.9474
575.588	223.025
578.481	401.71
581.374	587.098
584.266	703.654
587.159	711.498
590.052	579.213
592.944	403.436
595.837	261.156
598.73	169.616
601.622	101.9
604.515	71.3155
607.408	47.3862
610.301	30.1425
613.193	27.1581
616.086	38.3805
618.979	46.5973
621.871	24.8379
624.764	20.0786
627.657	17.9855
630.549	30.2545
633.442	93.8556
636.335	215.429
639.227	336.042
642.12	471.422
645.013	537.205
647.905	551.01
650.798	567.669
653.691	536.543
656.584	483.294
659.476	380.726
662.369	291.367
665.262	179.317
668.154	112.049
671.047	98.9573
673.94	142.972
676.832	193.372
679.725	248.827
682.618	305.562
685.511	363.429
688.403	351.473
691.296	338.234
694.189	362.224
697.081	406.718
699.974	389.346
702.867	401.739
705.76	415.044
708.652	410.279
711.545	357.799
714.438	285.725
717.33	254.334
720.223	232.796
723.116	253.858
726.008	290.979
728.901	293.587
731.794	282.808
734.687	232.736
737.579	113.56
740.472	42.275
743.365	9.05493
746.257	12.1623
749.15	25.7407
752.043	22.7225
754.935	2.56906
757.828	4.03153
760.721	19.9186
763.614	20.0709
766.506	38.2513
769.399	29.4849
772.292	28.3627
775.184	31.1664
778.077	33.6223
780.97	41.6407
783.862	52.0379
786.755	49.1054
789.648	56.8903
792.54	50.0687
795.433	37.4674
798.326	30.7069
801.218	13.0709
804.111	15.1294
807.004	3.43544
809.897	1.55995
812.789	3.37143
815.682	2.18261
818.575	13.1059
821.467	10.8701
824.36	11.663
827.253	18.2436
830.145	24.9729
833.038	35.4663
835.931	29.3557
838.824	31.9627
841.716	35.6938
844.609	32.6253
847.502	39.1412
850.394	37.6282
853.287	46.0183
856.18	44.9027
859.072	35.4207
861.965	38.5468
864.858	32.1905
867.751	27.8881
870.643	24.4591
873.536	21.2751
876.429	9.28805
879.321	14.1157
882.214	16.1993
885.107	13.1195
888	5.92321
890.892	18.3874
893.785	13.7438
896.678	15.7206
899.57	3.53802
902.463	2.64635
905.356	7.83817
908.248	10.8232
911.141	6.07459
914.034	8.6039
916.927	8.90045
919.819	3.8023
922.712	7.99793
925.605	9.23416
928.497	6.17431
931.39	5.27433
934.283	1.9053
937.175	1.39021
940.068	5.90408
942.961	8.59006
945.854	12.7819
948.746	2.91997
951.639	3.76894
954.532	6.94233
957.424	1.56942
960.317	10.4731
963.21	1.54879
966.102	2.45547
968.995	3.74043
971.888	0.307068
974.78	5.25701
977.673	6.66889
980.566	2.19373
983.458	10.0781
986.351	1.4566
989.244	0.789093
992.137	0.45388
995.029	3.83388
997.922	3.17162
1000.82	1.9064
1003.71	11.0278
1006.6	10.6759
1009.49	4.38964
1012.38	9.73959
1015.28	2.35106
1018.17	5.2296
1021.06	9.54121
1023.96	2.73319
1026.85	6.85264
1029.74	9.82946
1032.63	4.14281
1035.53	8.47216
1038.42	4.85346
1041.31	11.4765
1044.2	7.93276
1047.1	6.02381
1049.99	10.7938
1052.88	6.10787
1055.78	7.80131
1058.67	7.9863
1061.56	7.3635
1064.45	12.7316
1067.35	9.21945
1070.24	8.01604
1073.13	2.36245
1076.03	7.06553
1078.92	0.44434
1081.81	5.40573
1084.7	3.39162
1087.6	0.513813
1090.49	8.38428
1093.38	10.0362
1096.27	3.0328
1099.17	5.21835
1102.06	2.95169
1104.95	9.30067
1107.84	10.7733
1110.74	9.01226
1113.63	4.12914
1116.52	12.2057
1119.41	12.6942
1122.31	9.96053
1125.2	6.90202
1128.09	3.97988
1130.99	6.7494
1133.88	13.3328
1136.77	6.26372
1139.66	3.79618
1142.56	5.43906
1145.45	4.23257
1148.34	23.9101
1151.23	7.64431
1154.13	9.31125
1157.02	4.86238
1159.91	2.71286
1162.81	2.93698
1165.7	0.268318
1168.59	6.8135
1171.48	3.38942
1174.38	9.77131
1177.27	0.315716
1180.16	9.60409
1183.06	12.8876
1185.95	2.75988
1188.84	7.1006
1191.73	3.9845
1194.62	8.94402
1197.52	3.25774
1200.41	7.08026
1203.3	5.13868
1206.2	13.5489
1209.09	9.27728
1211.98	7.72013
1214.87	8.15245
1217.77	2.4745
1220.66	6.54836
1223.55	4.78995
1226.44	3.73225
1229.34	9.90724
1232.23	4.33905
1235.12	13.722
1238.02	8.2424
1240.91	5.3116
1243.8	7.55982
1246.69	2.84732
1249.59	12.1333
1252.48	3.02372
1255.37	10.6278
1258.27	0.567513
1261.16	5.35265
1264.05	1.92188
1266.94	6.99785
1269.84	7.31197
1272.73	12.1239
1275.62	5.2865
1278.51	6.73848
1281.41	7.23109
1284.3	14.5612
