Measurement: Raman, 532 nm, unoriented, Raman Data Processed
Mineral: Orthoserpierite
Rruff sample: R060793
Ideal chemistry: CaCu_4_(SO_4_)_2_(OH)_6_3H_2_O
Locality: Mi Fiel Rosita mine, Bolsico District, Copiapo, Chile
Source: Bob Jenkins
Description: Light blue aggregate of lathlike crystals
Raman shift (cm-1)	intensity
124.898	0
128.273	37.442
131.648	67.296
135.022	143.655
138.397	253.817
141.772	350.187
145.147	450.418
148.521	419.933
151.896	365.963
155.271	355.915
158.646	400.107
162.021	486.651
165.396	555.94
168.77	603.084
172.145	480.348
175.52	413.808
178.895	375.788
182.27	336.393
185.645	340.908
189.019	308.702
192.394	339.095
195.769	405.858
199.144	398.578
202.519	444.845
205.893	505.675
209.268	603.135
212.643	682.648
216.018	755.354
219.393	735.056
222.767	725.47
226.142	711.878
229.517	727.195
232.892	799.047
236.267	933.294
239.641	1056.17
243.016	1244.18
246.391	1365.17
249.766	1431.14
253.141	1269.35
256.516	1047.33
259.89	774.191
263.265	575.822
266.64	435.616
270.015	225.906
273.39	215.197
276.764	102.793
280.139	51.727
283.514	8.842
286.889	35.228
290.264	4.935
293.638	1.461
297.013	36.567
300.388	81.127
303.763	133.494
307.138	143.671
310.513	241.241
313.887	401.741
317.262	523.17
320.637	696.09
324.012	748.361
327.387	845.09
330.762	753.353
334.136	738.072
337.511	677.886
340.886	549.461
344.261	422.984
347.635	331.777
351.01	260.245
354.385	179.483
357.76	139.501
361.135	71.215
364.51	6.441
367.884	25.829
371.259	28.114
374.634	40.044
378.009	54.984
381.384	77.513
384.759	178.666
388.133	285.086
391.508	329.301
394.883	392.042
398.258	461.356
401.633	637.304
405.007	873.883
408.382	1241.06
411.757	1685.79
415.132	2234.65
418.507	2782.52
421.881	3060.17
425.256	3007.93
428.631	2643.82
432.006	2071.28
435.381	1743.03
438.755	1578.6
442.13	1582.8
445.505	1587.74
448.88	1515.02
452.255	1386.06
455.63	1370.34
459.004	1365.9
462.379	1399.19
465.754	1449.44
469.129	1484.66
472.504	1561.78
475.878	1648.86
479.253	1687.52
482.628	1706.42
486.003	1635.39
489.378	1573.09
492.753	1320.57
496.127	1079.22
499.502	892.364
502.877	634.713
506.252	467.079
509.627	320.68
513.001	182.129
516.376	174.71
519.751	82.969
523.126	15.26
526.501	43.813
529.875	12.158
533.25	27.758
536.625	19.199
540	14.549
543.375	7.611
546.75	14.584
550.124	12.602
553.499	6.415
556.874	24.476
560.249	2.224
563.624	35.293
566.998	11.868
570.373	49.492
573.748	28.852
577.123	141.064
580.498	196.657
583.872	253.84
587.247	390.634
590.622	511.696
593.997	717.672
597.372	938.25
600.747	1125.72
604.121	1198.1
607.496	1140.08
610.871	1099.24
614.246	960.289
617.621	819.023
620.995	622.305
624.37	487.442
627.745	427.424
631.12	420.407
634.495	425.905
637.87	462.444
641.244	539.331
644.619	580.388
647.994	530.316
651.369	403.889
654.744	312.818
658.118	206.086
661.493	131.238
664.868	149.534
668.243	118.467
671.618	144.616
674.992	88.201
678.367	98.078
681.742	85.19
685.117	133.518
688.492	110
691.867	125.729
695.241	107.482
698.616	89.379
701.991	72.742
705.366	0.247
708.741	28.065
712.115	2.58
715.49	55.999
718.865	54.374
722.24	46.577
725.615	32.062
728.99	23.775
732.364	19.408
735.739	5.99
739.114	3.943
742.489	2.619
745.864	51.732
749.238	19.215
752.613	25.811
755.988	40.998
759.363	49.176
762.738	38.159
766.112	29.132
769.487	73.087
772.862	73.377
776.237	50.368
779.612	64.27
782.987	37.835
786.361	41.033
789.736	53.665
793.111	93.838
796.486	83.33
799.86	66.541
803.235	76.438
806.61	55.578
809.985	16.105
813.36	68.86
816.735	43.126
820.109	35.158
823.484	53.169
826.859	80.773
830.234	57.159
833.609	76.802
836.984	52.374
840.358	57.38
843.733	44.236
847.108	31.402
850.483	29.385
853.858	9.132
857.232	19.4
860.607	8.74
863.982	4.645
867.357	14.093
870.732	6.101
874.106	18.222
877.481	25.058
880.856	8.967
884.231	30.601
887.606	7.066
890.981	2.818
894.355	16.339
897.73	6.312
901.105	20.929
904.48	56.254
907.855	41.67
911.229	23.809
914.604	11.557
917.979	35.996
921.354	38.951
924.729	70.768
928.104	20.886
931.478	49.04
934.853	25.377
938.228	39.761
941.603	57.357
944.977	65.161
948.352	65.612
951.727	99.1
955.102	86.324
958.477	182.585
961.852	183.744
965.226	293.071
968.601	439.997
971.976	801.267
975.351	1629.27
978.726	3170.26
982.101	5966.67
985.475	9984.76
988.85	11254.2
992.225	6928.6
995.6	2903.21
998.974	1007.86
1002.35	436.77
1005.72	300.922
1009.1	174.465
1012.47	111.208
1015.85	83.409
1019.22	35.924
1022.6	26.107
1025.97	58.085
1029.35	41.408
1032.72	13.602
1036.1	32.127
1039.47	50.563
1042.85	53.127
1046.22	98.181
1049.6	134.497
1052.97	159.748
1056.35	252.725
1059.72	306.95
1063.1	391.755
1066.47	526.62
1069.85	564.411
1073.22	617.228
1076.6	586.678
1079.97	500.8
1083.35	454.572
1086.72	431.37
1090.09	383.055
1093.47	371.582
1096.84	473.382
1100.22	520.701
1103.59	559.888
1106.97	608.124
1110.34	686.584
1113.72	814.198
1117.09	917.665
1120.47	1070.1
1123.84	1299.22
1127.22	1514.74
1130.59	1727.18
1133.97	1612.41
1137.34	1236.51
1140.72	838.969
1144.09	637.522
1147.47	508.042
1150.84	433.869
1154.22	333.225
1157.59	276.847
1160.97	268.009
1164.34	235.98
1167.71	222.371
1171.09	208.338
1174.46	210.261
1177.84	168.854
1181.21	90.731
1184.59	51.997
1187.96	43.77
1191.34	3.632
1194.71	21.401
1198.09	17.407
1201.46	18.369
1204.84	3.806
1208.21	20.753
1211.59	2.547
1214.96	28.28
1218.34	1.479
1221.71	0.583
1225.09	18.64
1228.46	29.229
1231.84	15.823
1235.21	11.256
1238.59	14.725
1241.96	21.165
1245.34	15.565
1248.71	3.025
1252.09	26.592
1255.46	33.281
1258.84	5.032
1262.21	37.598
1265.59	29.579
1268.96	15.788
1272.33	15.424
1275.71	14.403
1279.08	38.594
1282.46	6.998
1285.83	45.796
1289.21	15.654
1292.58	36.2
1295.96	7.475
1299.33	53.192
