Measurement: Raman, 532 nm, unoriented, Raman Data Processed
Mineral: Orthoclase
Rruff sample: R050185
Ideal chemistry: KAlSi_3_O_8_
Locality: Silica Bell Property, west of Hope, British Columbia, Canada
Source: Bob Downs
Description: Cluster of white wedge-shaped crystals, variety adularia
Measured chemistry: (K_0.96_Na_0.04_)Al_1.00_Si_3.00_O_8_
Raman shift (cm-1)	intensity
130.416	0
133.791	1.35341
137.166	5.20908
140.541	10.4063
143.916	9.95588
147.29	13.9
150.665	21.3856
154.04	29.1163
157.415	28.8427
160.79	22.1668
164.164	13.9613
167.539	8.0478
170.914	7.96304
174.289	10.786
177.664	13.6126
181.038	10.2883
184.413	5.6987
187.788	3.07061
191.163	3.34287
194.538	5.82008
197.913	8.7738
201.287	4.98552
204.662	0.859299
208.037	0.630755
211.412	0.848698
214.787	0.554396
218.161	0.022963
221.536	0.296896
224.911	0.907602
228.286	1.46109
231.661	2.15613
235.036	2.94416
238.41	3.73261
241.785	4.55997
245.16	5.80958
248.535	7.55646
251.91	9.94309
255.284	13.326
258.659	17.2979
262.034	21.9226
265.409	26.139
268.784	28.7871
272.159	29.0694
275.533	32.1297
278.908	35.8481
282.283	37.1431
285.658	31.7629
289.033	22.0713
292.407	13.6574
295.782	8.25855
299.157	5.09832
302.532	2.96087
305.907	1.79974
309.281	0.87004
312.656	0.268105
316.031	0.074345
319.406	0.166121
322.781	0.231031
326.156	0.216005
329.53	0.348596
332.905	0.505406
336.28	0.002545
339.655	0.044408
343.03	0.045321
346.404	0.054707
349.779	0.397179
353.154	0.613349
356.529	1.19043
359.904	1.75186
363.279	1.85611
366.653	2.71407
370.028	2.56293
373.403	2.36719
376.778	1.4245
380.153	1.28482
383.527	0.933771
386.902	1.0854
390.277	1.66775
393.652	2.40221
397.027	3.66201
400.402	4.97535
403.776	6.1312
407.151	5.26404
410.526	3.89592
413.901	1.72596
417.276	0.035679
420.65	0.620183
424.025	0.743524
427.4	0.444242
430.775	0.383522
434.15	1.81085
437.524	4.11246
440.899	7.1682
444.274	11.0703
447.649	16.6221
451.024	22.0896
454.399	25.5631
457.773	24.6714
461.148	22.1857
464.523	20.8457
467.898	23.2766
471.273	28.5526
474.647	34.121
478.022	31.5338
481.397	21.908
484.772	15.996
488.147	13.5317
491.522	14.1041
494.896	19.1864
498.271	30.5526
501.646	46.1058
505.021	69.5574
508.396	104.83
511.771	137.715
515.145	126.979
518.52	74.2674
521.895	38.1812
525.27	20.3618
528.644	12.3391
532.019	7.41965
535.394	4.73592
538.769	3.04369
542.144	1.82105
545.519	0.905458
548.893	0.362549
552.268	0.145515
555.643	0.241192
559.018	0.527444
562.393	0.35677
565.768	0.164761
569.142	0.028108
572.517	0.593443
575.892	0.951564
579.267	1.4779
582.642	1.55855
586.016	1.12316
589.391	0.592735
592.766	0.360394
596.141	0.457501
599.516	0.297444
602.89	0.170989
606.265	0.293996
609.64	0.214563
613.015	0.456822
616.39	0.320437
619.765	0.404377
623.139	0.496313
626.514	0.698936
629.889	0.920556
633.264	1.01557
636.639	1.15383
640.014	1.0139
643.388	1.38914
646.763	1.71692
650.138	1.90559
653.513	1.78955
656.888	1.51894
660.262	1.24111
663.637	0.845656
667.012	0.719804
670.387	0.301671
673.762	0.388622
677.136	0.057623
680.511	0.076826
683.886	0.298363
687.261	0.12982
690.636	0.055479
694.011	0.186816
697.385	0.119218
700.76	0.254716
704.135	0.359805
707.51	0.848246
710.885	0.94007
714.259	1.57489
717.634	1.72614
721.009	1.9402
724.384	2.32033
727.759	2.94926
731.134	3.88632
734.508	5.14295
737.883	6.59046
741.258	7.91691
744.633	8.99853
748.008	9.28591
751.382	8.484
754.757	7.34426
758.132	6.53442
761.507	5.70889
764.882	5.36536
768.256	5.05992
771.631	4.80661
775.006	4.18041
778.381	3.93439
781.756	4.28201
785.131	4.5772
788.505	5.47144
791.88	6.69908
795.255	7.76687
798.63	8.36224
802.005	8.90971
805.38	9.07751
808.754	9.63676
812.129	9.10421
815.504	6.18249
818.879	3.12956
822.254	1.38806
825.628	0.579115
829.003	0.231156
832.378	0.01433
835.753	0.106409
839.128	0.003842
842.502	0.094911
845.877	0.002724
849.252	0.119648
852.627	0.034798
856.002	0.024307
859.376	0.076521
862.751	0.0265
866.126	0.04112
869.501	0.117193
872.876	0.04395
876.251	0.228541
879.625	0.084802
883	0.005208
886.375	0.202895
889.75	0.222063
893.125	0.153079
896.5	0.314366
899.874	0.309146
903.249	0.163016
906.624	0.150734
909.999	0.078065
913.374	0.174529
916.748	0.24922
920.123	0.177161
923.498	0.285167
926.873	0.33489
930.248	0.028164
933.622	0.087927
936.997	0.014131
940.372	0.168673
943.747	0.053187
947.122	0.006157
950.497	0.033771
953.871	0.020008
957.246	0.046326
960.621	0.215264
963.996	0.199673
967.371	0.331224
970.745	0.668387
974.12	1.00248
977.495	1.43872
980.87	2.06962
984.245	2.83273
987.62	3.42103
990.994	3.919
994.369	4.2242
997.744	3.99735
1001.12	3.8419
1004.49	3.4122
1007.87	2.7838
1011.24	2.57344
1014.62	2.11863
1017.99	1.94838
1021.37	1.62658
1024.74	1.54466
1028.12	1.19756
1031.49	1.19502
1034.87	1.05569
1038.24	0.945321
1041.62	0.963516
1044.99	0.748336
1048.37	0.72518
1051.74	0.852453
1055.12	0.381052
1058.49	0.069296
1061.87	0.05826
1065.24	0.238291
1068.62	0.294398
1071.99	0.078163
1075.37	0.299993
1078.74	0.381647
1082.11	0.878188
1085.49	1.06059
1088.86	1.1695
1092.24	1.61406
1095.61	2.03601
1098.99	2.80093
1102.36	2.98114
1105.74	3.03133
1109.11	3.24517
1112.49	3.78506
1115.86	4.03917
1119.24	4.43783
1122.61	4.95139
1125.99	5.29288
1129.36	4.83398
1132.74	4.76144
1136.11	4.58491
1139.49	4.59906
1142.86	3.9613
1146.24	3.13512
1149.61	2.30951
1152.98	1.87953
1156.36	1.31909
1159.73	1.5375
1163.11	1.34246
1166.48	1.20186
1169.86	1.52443
1173.23	1.62647
1176.61	1.65152
1179.98	1.91385
1183.36	1.96782
1186.73	1.51545
1190.11	1.27837
1193.48	1.08485
1196.86	0.707752
1200.23	0.658582
1203.61	0.349107
1206.98	0.571504
1210.36	0.417797
1213.73	0.125706
1217.11	0.152814
1220.48	0.020702
1223.86	0.093829
1227.23	0.004633
1230.61	0.410953
1233.98	0.638309
1237.36	1.31629
1240.73	1.45782
1244.11	1.9232
1247.48	2.06538
1250.86	2.4982
1254.23	2.7926
1257.61	3.24451
1260.98	3.55855
1264.35	3.51106
1267.73	3.35593
1271.1	3.38284
1274.48	3.48346
1277.85	3.27795
1281.23	3.26417
1284.6	2.65739
1287.98	1.84495
1291.35	1.38213
1294.73	0.686787
1298.1	0.068759
1301.48	0.382018
1304.85	0.15844
