Measurement: Raman, 785 nm, unoriented, Raman Data Processed
Mineral: Orthoclase
Rruff sample: R040055
Ideal chemistry: KAlSi_3_O_8_
Locality: Madagascar
Source: Bob Downs
Description: Pale yellow fragments
Measured chemistry: Light: K_0.96_(Al_0.96_Si_0.03_Fe_0.02_)Si_3.00_O_8_; dark: (K_0.90_Na_0.02_)(Al_0.91_Si_0.08_Fe_0.02_)Si_3.00_O_8
Raman shift (cm-1)	intensity
127.314	0
130.206	32.8778
133.099	61.9318
135.992	9.52795
138.884	101.223
141.777	376.563
144.67	1057.82
147.562	2039.79
150.455	2857.02
153.348	2946.74
156.24	2272.19
159.133	1438.78
162.026	1057.02
164.919	923.29
167.811	926.308
170.704	927.089
173.597	907.742
176.489	834.012
179.382	652.941
182.275	460.681
185.167	366.983
188.06	292.195
190.953	190.596
193.846	216.364
196.738	176.243
199.631	115.284
202.524	106.078
205.416	43.2896
208.309	43.0675
211.202	27.7707
214.095	25.8688
216.987	5.16919
219.88	37.8669
222.773	7.28308
225.665	3.85107
228.558	21.1362
231.451	13.5262
234.343	26.6258
237.236	1.06055
240.129	23.4468
243.022	75.5361
245.914	96.8789
248.807	172.091
251.7	229.091
254.592	364.369
257.485	476.799
260.378	617.079
263.27	729.476
266.163	841.756
269.056	993.23
271.949	1203.33
274.841	1438.12
277.734	1684.61
280.627	1787.24
283.519	1642.83
286.412	1312.85
289.305	1003.69
292.197	752.968
295.09	524.151
297.983	377.427
300.875	280.365
303.768	143.718
306.661	118.146
309.554	102.126
312.446	69.064
315.339	36.8994
318.232	28.0496
321.124	4.61792
324.017	62.9529
326.91	74.0979
329.803	77.4994
332.695	43.6356
335.588	57.8198
338.481	40.3569
341.373	41.3195
344.266	24.5545
347.159	46.7975
350.051	73.7493
352.944	94.5503
355.837	49.7753
358.729	99.8545
361.622	65.5668
364.515	27.1803
367.408	11.5744
370.3	5.36542
373.193	8.34515
376.086	2.95203
378.978	0.049133
381.871	1.91449
384.764	7.01251
387.656	36.0318
390.549	57.2265
393.442	116.2
396.335	203.773
399.227	321.572
402.12	375.795
405.013	400.132
407.905	312.392
410.798	176.113
413.691	88.3394
416.584	53.6045
419.476	21.7806
422.369	9.69928
425.262	9.90399
428.154	18.761
431.047	9.24542
433.94	5.63293
436.832	26.1244
439.725	93.7223
442.618	169.574
445.51	289.731
448.403	419.851
451.296	547.231
454.189	571.877
457.081	579.468
459.974	639.06
462.867	799.552
465.759	1038.85
468.652	1489.97
471.545	1891.08
474.438	1988.21
477.33	1745.47
480.223	1198.72
483.116	874.709
486.008	697.437
488.901	597.26
491.794	520.402
494.686	641.472
497.579	882.65
500.472	1353.63
503.365	2251.46
506.257	3621.01
509.15	5173.13
512.043	6103.27
514.935	5171.35
517.828	3229.4
520.721	1874.44
523.613	1104.33
526.506	696.702
529.399	486.576
532.292	280.257
535.184	200.723
538.077	162.308
540.97	113.746
543.862	85.0918
546.755	56.0251
549.648	46.9059
552.54	8.31555
555.433	16.1041
558.326	29.4517
561.218	20.0046
564.111	0.330444
567.004	38.9435
569.897	12.511
572.789	19.7919
575.682	33.0933
578.575	7.25635
581.467	16.1137
584.36	51.0684
587.253	43.4632
590.145	33.296
593.038	26.8909
595.931	61.3784
598.823	29.6076
601.716	68.8863
604.609	55.7995
607.502	41.6905
610.394	46.0979
613.287	68.3691
616.18	55.3018
619.072	90.8137
621.965	100.543
624.858	65.8143
627.75	68.5899
630.643	55.4945
633.536	58.3245
636.429	54.6942
639.321	31.8511
642.214	44.4862
645.107	53.141
648	71.7919
650.892	40.3057
653.785	40.8187
656.678	24.4463
659.57	30.059
662.463	15.0186
665.356	8.08105
668.248	7.50977
671.141	31.2069
674.034	10.3267
676.927	21.7186
679.819	19.6254
682.712	4.22107
685.605	5.34625
688.497	17.8226
691.39	5.21735
694.283	9.9339
697.175	6.44885
700.068	21.6133
702.961	52.8972
705.854	43.8099
708.746	50.8399
711.639	59.2345
714.532	56.8754
717.424	73.3769
720.317	56.91
723.21	67.691
726.102	73.1469
728.995	82.3666
731.888	117.93
734.78	133.306
737.673	175.793
740.566	205.101
743.459	210.159
746.351	196.15
749.244	190.879
752.137	150.495
755.029	145.944
757.922	174.353
760.815	128.903
763.707	104.897
766.6	87.9813
769.493	87.3945
772.386	119.308
775.278	59.4922
778.171	94.4313
781.064	63.2725
783.956	86.8983
786.849	82.8622
789.742	69.2367
792.635	99.7444
795.527	97.3997
798.42	56.782
801.313	58.7696
804.205	106.065
807.098	162.376
809.991	160.905
812.883	139.973
815.776	109.819
818.669	45.3888
821.562	35.4457
824.454	7.76996
827.347	6.66077
830.24	11.1794
833.132	31.9054
836.025	15.1842
838.918	14.6202
841.81	10.7136
844.703	19.6251
847.596	0.904663
850.489	23.3804
853.381	6.31158
856.274	41.9483
859.167	21.5428
862.059	25.16
864.952	2.45837
867.845	32.975
870.737	7.47131
873.63	5.75275
876.523	0.054688
879.415	4.86267
882.308	39.0447
885.201	17.1442
888.094	7.89734
890.986	67.0561
893.879	19.5683
896.772	8.64319
899.664	11.351
902.557	25.7223
905.45	0.323242
908.342	19.7972
911.235	20.5807
914.128	8.00061
917.02	8.87207
919.913	2.0733
922.806	10.5518
925.699	11.5763
928.591	6.32312
931.484	12.3115
934.377	21.4085
937.269	20.6899
940.162	22.6852
943.055	18.5081
945.947	9.67957
948.84	58.3915
951.733	51.2383
954.626	41.5942
957.518	40.7039
960.411	56.5359
963.304	53.9457
966.196	78.0062
969.089	79.0327
971.982	52.0292
974.875	100.086
977.767	115.392
980.66	91.7985
983.553	153.574
986.445	100.443
989.338	105.974
992.231	60.8071
995.123	87.2951
998.016	81.73
1000.91	110.102
1003.8	103.252
1006.69	92.6305
1009.59	70.1284
1012.48	76.4052
1015.37	72.1859
1018.26	57.0831
1021.16	40.3987
1024.05	12.8065
1026.94	19.9017
1029.84	37.3209
1032.73	8.22131
1035.62	44.0902
1038.51	33.6284
1041.41	70.7786
1044.3	33.9763
1047.19	45.0832
1050.09	58.4222
1052.98	41.0424
1055.87	47.9515
1058.76	20.0465
1061.66	12.7307
1064.55	10.4364
1067.44	15.2482
1070.33	14.4326
1073.23	9.50098
1076.12	22.5344
1079.01	28.2995
1081.9	12.5997
1084.8	14.9068
1087.69	41.442
1090.58	61.2054
1093.47	53.4752
1096.37	54.9587
1099.26	67.2214
1102.15	99.9312
1105.05	69.5915
1107.94	129.321
1110.83	127.407
1113.72	141.38
1116.62	153.244
1119.51	174.313
1122.4	201.113
1125.3	184.481
1128.19	158.72
1131.08	190.981
1133.97	182.428
1136.87	151.34
1139.76	175.267
1142.65	130.027
1145.54	119.903
1148.44	101.198
1151.33	80.8348
1154.22	73.5397
1157.12	76.4824
1160.01	47.4649
1162.9	70.9838
1165.79	36.6136
1168.68	60.3298
1171.58	52.5692
1174.47	24.0514
1177.36	35.2699
1180.26	0.875122
1183.15	8.66284
1186.04	7.82172
1188.93	10.7909
1191.83	29.5799
1194.72	8.10052
1197.61	42.9511
1200.51	11.4089
1203.4	13.6214
1206.29	7.74203
1209.18	37.506
1212.08	48.6562
1214.97	43.0156
1217.86	24.5952
1220.75	41.9576
1223.65	42.553
1226.54	58.7398
1229.43	21.2402
1232.33	32.3451
1235.22	16.0737
1238.11	6.00256
1241	35.9641
