Measurement: Raman, 514 nm, unoriented, Raman Data Processed
Mineral: Orthoclase
Rruff sample: R050185
Ideal chemistry: KAlSi_3_O_8_
Locality: Silica Bell Property, west of Hope, British Columbia, Canada
Source: Bob Downs
Description: Cluster of white wedge-shaped crystals, variety adularia
Measured chemistry: (K_0.96_Na_0.04_)Al_1.00_Si_3.00_O_8_
Raman shift (cm-1)	intensity
52.866	0
57.065	43.193
61.262	28.712
65.458	79.194
69.651	134.796
73.842	674.147
78.031	1175.56
82.218	1250.51
86.404	1142.34
90.587	1642.72
94.768	2047.87
98.947	2597.33
103.124	3482.16
107.3	4882.62
111.473	5133.4
115.644	5855.11
119.813	6191.46
123.981	5277.21
128.146	3686.74
132.309	2896.39
136.47	3072.52
140.63	3116.84
144.787	3384.23
148.942	4364.14
153.096	5702.79
157.247	5981.77
161.396	4709.8
165.544	3149.81
169.689	2298.67
173.833	1821.4
177.974	1441.99
182.114	1237.43
186.251	1072.71
190.387	1075.83
194.52	1344.76
198.652	1284.04
202.782	908.931
206.909	852.435
211.035	653.258
215.159	445.659
219.281	496.855
223.4	505.146
227.518	477.612
231.634	492.817
235.748	567.45
239.86	566.832
243.97	622.721
248.079	795.272
252.185	1101.37
256.289	1545.03
260.391	2073.67
264.492	2796.03
268.59	3570.34
272.687	4709.27
276.781	6678.92
280.874	7363.26
284.964	6011.24
289.053	3821.84
293.14	2195.04
297.225	1271.77
301.308	675
305.389	403.737
309.468	201.98
313.545	99.727
317.62	71.875
321.693	49.707
325.765	78.913
329.834	86.567
333.902	22.658
337.967	67.176
342.031	21.054
346.093	110.585
350.153	194.35
354.21	72.398
358.267	183.574
362.321	640.991
366.373	1048.65
370.423	1101.53
374.471	771.992
378.518	496.981
382.563	192.552
386.605	131.777
390.646	53.607
394.685	24.956
398.722	193.784
402.757	450.077
406.79	381.813
410.821	258.976
414.851	42.545
418.878	116.574
422.904	135.763
426.927	43.02
430.949	167.893
434.969	518.147
438.987	1244.74
443.003	2213.66
447.018	4069.9
451.03	5840.46
455.041	6400.31
459.049	6322.46
463.056	7326.9
467.061	11291.6
471.064	19931.6
475.065	24395.9
479.064	17713.5
483.062	10510.1
487.057	6884.16
491.051	5355.41
495.043	5205.88
499.032	7035.57
503.02	12871
507.007	26489.3
510.991	45787.8
514.973	41979.7
518.954	22509.1
522.933	11175.6
526.91	6030.3
530.885	3919.84
534.858	2610.2
538.829	1922.17
542.799	1334.95
546.766	1027.16
550.732	746.275
554.696	516.978
558.658	489.707
562.618	471.537
566.576	502.494
570.533	427.566
574.488	461.681
578.44	368.942
582.391	371.998
586.341	362.702
590.288	260.651
594.233	232.244
598.177	246.868
602.119	168.524
606.059	239.202
609.997	278.896
613.933	232.59
617.868	238.277
621.801	231.955
625.731	369.616
629.66	231.248
633.588	204.847
637.513	147.404
641.437	132.896
645.358	154.326
649.278	216.695
653.196	319.999
657.113	196.232
661.027	299.392
664.94	193.549
668.851	147.837
672.76	17.462
676.667	5.754
680.572	46.256
684.476	6.255
688.378	126.484
692.278	88.007
696.176	43.848
700.072	67.885
703.967	77.602
707.86	265.405
711.751	288.276
715.64	490.476
719.527	520.475
723.413	545.898
727.297	637.22
731.179	794.606
735.059	922.946
738.937	1255.94
742.814	1521.81
746.689	1749.94
750.562	1621.57
754.433	1491.38
758.303	1551.51
762.17	1416.19
766.036	1493.83
769.901	1286.18
773.763	1096.32
777.624	825.641
781.482	650.25
785.339	626.848
789.195	628.127
793.048	606.1
796.9	594.115
800.75	619.684
804.598	712.101
808.445	722.303
812.289	645.292
816.132	470.067
819.973	335.629
823.813	186.262
827.65	169.044
831.486	142.515
835.32	149.449
839.152	59.34
842.983	1.774
846.812	2.763
850.639	25.554
854.464	2.014
858.288	48.895
862.11	17.717
865.93	18.027
869.748	68.963
873.564	63.22
877.379	9.694
881.192	43.57
885.004	4.779
888.813	80.697
892.621	19.421
896.427	56.092
900.232	35.152
904.034	66.281
907.835	132.294
911.634	11.81
915.432	97.968
919.227	89.643
923.021	29.227
926.813	14.273
930.604	94.133
934.393	142.462
938.18	183.72
941.965	191.909
945.749	187.035
949.53	95.115
953.311	198.14
957.089	244.114
960.866	263.043
964.641	217.941
968.414	260.84
972.185	287.721
975.955	366.591
979.723	526.22
983.49	758.078
987.254	653.281
991.017	758.806
994.779	835.668
998.538	899.54
1002.3	883.859
1006.05	897.195
1009.81	852.186
1013.56	891.326
1017.31	770.409
1021.06	782.358
1024.81	834.088
1028.55	706.257
1032.3	669.972
1036.04	665.283
1039.78	697.428
1043.52	709.402
1047.26	757.512
1050.99	804.999
1054.73	758.475
1058.46	696.356
1062.19	634.782
1065.92	664.265
1069.65	606.17
1073.37	738.239
1077.1	920.981
1080.82	1146.19
1084.54	1343.48
1088.26	1446.83
1091.97	1738.27
1095.69	2003.83
1099.4	2333.41
1103.12	2650.07
1106.83	3035.93
1110.54	3787.89
1114.24	4867.75
1117.95	6276.7
1121.65	7781.06
1125.35	7729.05
1129.06	7045.58
1132.75	6706.77
1136.45	5672.36
1140.15	4969.32
1143.84	4213.15
1147.53	3522.83
1151.22	2772.55
1154.91	2167.98
1158.6	1779.8
1162.28	1493.92
1165.97	1247.33
1169.65	1001.97
1173.33	838.29
1177.01	756.773
1180.69	535.493
1184.36	487.101
1188.04	465.163
1191.71	356.861
1195.38	189.162
1199.05	186.128
1202.71	141.354
1206.38	194.036
1210.04	54.669
1213.71	114.662
1217.37	188.706
1221.03	104.543
1224.68	146.72
1228.34	112.776
1231.99	59.936
1235.65	60.428
1239.3	41.569
1242.95	82.364
1246.59	94.368
1250.24	104.955
1253.88	62.333
1257.53	23.09
1261.17	61.923
1264.81	139.079
1268.45	33.84
1272.08	58.75
1275.72	20.942
1279.35	20.812
1282.98	35.721
1286.61	92.43
1290.24	44.622
1293.87	3.07
1297.49	21.426
1301.11	1.795
1304.73	36.223
1308.36	55.528
1311.97	23.957
1315.59	45.277
1319.2	43.225
1322.82	62.073
1326.43	1.724
1330.04	28.352
1333.65	38.197
1337.26	13.15
1340.86	84.286
1344.47	17.467
1348.07	157.562
1351.67	112.551
1355.27	56.231
1358.87	168.949
1362.46	72.723
1366.06	115.931
1369.65	74.892
1373.24	107.782
1376.83	70.298
1380.42	84.276
1384	125.098
1387.59	78.774
1391.17	165.625
1394.75	146.631
1398.33	158.492
1401.91	125.481
1405.49	206.139
1409.06	188.334
1412.64	220.575
1416.21	174.201
1419.78	273.229
1423.35	146.95
1426.91	183.035
1430.48	135.935
1434.05	107.137
1437.61	194.896
1441.17	134.346
1444.73	189.085
1448.29	127.449
1451.84	287.887
1455.4	274.234
1458.95	260.544
1462.5	157.847
1466.05	164.511
1469.6	140.945
1473.15	222.159
1476.69	209.129
1480.24	129.059
1483.78	181.031
1487.32	174.044
1490.86	27.3
1494.39	178.074
1497.93	79.796
1501.46	123.254
1505	206.512
1508.53	9.576
1512.06	128.468
1515.59	34.237
1519.11	81.988
