Measurement: Raman, 532 nm, unoriented, Raman Data Processed
Mineral: Orthoclase
Rruff sample: R070001
Ideal chemistry: KAlSi_3_O_8_
Locality: Lengenbach Quarry, Binnental, Valais, Switzerland
Source: Michael Scott
Description: Colorless single crystal with a habit similar to adularia
Measured chemistry: (K_0.92_Na_0.07_Ba_0.01_)_Σ=1_Al_1.01_Si_2.99_O_8_; darker core :  (K_0.91_Na_0.07_Ba_0.02_)_Σ=1_Al_1.02_Si_2.98_O_8_ ; lighter rim
Raman shift (cm-1)	intensity
120.772	0
124.147	29.8434
127.521	33.0046
130.896	102.786
134.271	189.727
137.646	308.472
141.021	482.669
144.395	644.18
147.77	1031.47
151.145	1541.74
154.52	2045.1
157.895	1956.59
161.27	1582.33
164.644	1156.77
168.019	874.71
171.394	793.039
174.769	791.761
178.144	614.253
181.518	416.42
184.893	304.838
188.268	254.673
191.643	273.965
195.018	303.088
198.393	316.188
201.767	133.719
205.142	27.411
208.517	16.2598
211.892	32.6143
215.267	4.77893
218.642	10.4196
222.016	0.880249
225.391	21.8109
228.766	15.1235
232.141	17.9613
235.516	52.6437
238.89	121.41
242.265	174.572
245.64	309.122
249.015	421.808
252.39	605.142
255.764	883.172
259.139	1137.4
262.514	1392.19
265.889	1614.11
269.264	1750.24
272.639	2024.66
276.013	2315.96
279.388	2716.61
282.763	2875.81
286.138	2549.57
289.513	1893.51
292.887	1233.63
296.262	768.987
299.637	496.656
303.012	274.544
306.387	190.842
309.762	103.892
313.136	41.5892
316.511	38.2107
319.886	4.9436
323.261	27.8581
326.636	15.2589
330.01	32.7386
333.385	15.449
336.76	5.08179
340.135	3.25586
343.51	9.26123
346.885	1.90002
350.259	25.2572
353.634	55.3574
357.009	115.29
360.384	188.542
363.759	232.815
367.134	280.519
370.508	286.899
373.883	317.927
377.258	170.785
380.633	130.578
384.008	125.396
387.382	134.224
390.757	167.892
394.132	238.133
397.507	328.701
400.882	417.829
404.257	449.304
407.631	365.632
411.006	195.942
414.381	95.0852
417.756	20.0537
421.131	58.3406
424.505	42.6562
427.88	26.9974
431.255	18.2914
434.63	148.066
438.005	326.265
441.38	620.683
444.754	1060.43
448.129	1615.15
451.504	2134.17
454.879	2366.07
458.253	2144.1
461.628	2101.9
465.003	2392.39
468.378	3131.08
471.753	4081.79
475.128	4562.08
478.502	3676.4
481.877	2496.34
485.252	1846.97
488.627	1464.8
492.002	1440.66
495.377	1795.12
498.751	2881.03
502.126	5028.86
505.501	8266
508.876	12347.2
512.251	16125.5
515.625	14389.3
519	8094.65
522.375	4233.31
525.75	2321.67
529.125	1380.33
532.5	901.702
535.874	574.797
539.249	348.249
542.624	226.691
545.999	104.451
549.374	20.1237
552.748	9.01648
556.123	28.803
559.498	33.6198
562.873	37.1156
566.248	38.5887
569.622	4.12817
572.997	40.583
576.372	76.2864
579.747	107.082
583.122	98.9273
586.497	51.9105
589.871	174.456
593.246	55.1279
596.621	41.2289
599.996	40.1883
603.371	33.8297
606.745	37.6226
610.12	17.6143
613.495	31.9423
616.87	69.3564
620.245	27.9062
623.62	29.5308
626.994	47.3961
630.369	40.4596
633.744	45.0696
637.119	45.6671
640.494	47.1569
643.869	58.9628
647.243	102.728
650.618	102.867
653.993	112.454
657.368	72.6346
660.743	53.5335
664.117	69.5178
667.492	24.2769
670.867	5.32629
674.242	6.00854
677.617	3.28882
680.991	27.5764
684.366	6.8667
687.741	21.3917
691.116	22.1612
694.491	2.37573
697.866	29.6108
701.24	43.8261
704.615	77.856
707.99	142.521
711.365	162.903
714.74	207.808
718.115	236.115
721.489	243.305
724.864	277.391
728.239	283.329
731.614	379.87
734.989	448.62
738.363	606.593
741.738	711.09
745.113	792.537
748.488	800.33
751.863	795.055
755.237	730.066
758.612	670.586
761.987	604.461
765.362	543.985
768.737	503.099
772.112	474.857
775.486	400.646
778.861	371.104
782.236	340.126
785.611	376.413
788.986	419.46
792.361	497.179
795.735	519.691
799.11	585.128
802.485	608.259
805.86	646.642
809.235	660.708
812.609	542.451
815.984	349.63
819.359	165.47
822.734	71.1698
826.109	23.0745
829.484	6.33325
832.858	5.50732
836.233	16.2753
839.608	1.70898
842.983	12.9048
846.357	3.55212
849.732	1.37549
853.107	0.816772
856.482	10.9946
859.857	23.5081
863.232	21.8767
866.606	22.9435
869.981	6.56055
873.356	17.0221
876.731	44.4911
880.106	34.5652
883.481	41.6957
886.855	42.9622
890.23	61.4899
893.605	32.5125
896.98	27.4102
900.355	36.2689
903.729	31.7635
907.104	36.1492
910.479	40.7567
913.854	9.43909
917.229	56.9086
920.604	15.3649
923.978	25.093
927.353	21.8055
930.728	32.6278
934.103	6.92639
937.478	1.96899
940.852	15.9437
944.227	11.4347
947.602	4.64417
950.977	9.82043
954.352	11.5646
957.727	20.2283
961.101	27.2385
964.476	8.7644
967.851	34.1454
971.226	50.2825
974.601	101.02
977.976	127.506
981.35	204.789
984.725	257.394
988.1	349.999
991.475	359.485
994.85	392.944
998.224	358.224
1001.6	320.924
1004.97	273.749
1008.35	241.082
1011.72	175.074
1015.1	163.696
1018.47	133.655
1021.85	113.81
1025.22	121.555
1028.6	69.7489
1031.97	93.1982
1035.35	83.942
1038.72	82.5164
1042.1	89.0214
1045.47	86.6893
1048.85	119.856
1052.22	51.6844
1055.6	37.3408
1058.97	25.0448
1062.35	18.1545
1065.72	28.7026
1069.1	11.5778
1072.47	33.8274
1075.85	70.124
1079.22	137.985
1082.6	188.269
1085.97	212.755
1089.34	247.097
1092.72	336.499
1096.09	383.278
1099.47	455.719
1102.84	478.939
1106.22	544.46
1109.59	589.702
1112.97	685.323
1116.34	785.081
1119.72	873.056
1123.09	945.163
1126.47	937.224
1129.84	876.039
1133.22	853.306
1136.59	821.883
1139.97	769.563
1143.34	653.12
1146.72	535.636
1150.09	429.413
1153.47	324.822
1156.84	258.378
1160.22	195.084
1163.59	145.195
1166.96	117.244
1170.34	113.793
1173.71	69.2203
1177.09	67.1901
1180.46	48.8849
1183.84	27.7714
1187.21	14.5998
1190.59	4.84009
1193.96	10.7943
1197.34	5.76648
1200.71	4.1571
1204.09	9.30457
1207.46	1.9447
1210.84	3.59827
1214.21	16.0007
1217.59	2.74487
1220.96	37.4149
1224.34	40.7595
1227.71	4.18921
1231.09	51.8077
1234.46	53.7032
1237.84	53.3583
1241.21	48.4432
1244.59	46.7125
1247.96	50.2335
1251.34	54.0314
1254.71	74.7716
1258.09	60.5199
1261.46	61.6168
1264.84	56.1759
1268.21	31.7891
1271.59	44.6941
1274.96	31.2967
1278.33	32.7756
1281.71	0.310913
1285.08	13.2036
1288.46	34.0535
1291.83	0.937866
1295.21	21.7955
1298.58	27.8021
1301.96	11.59
1305.33	5.53589
1308.71	13.3726
1312.08	13.846
1315.46	5.15808
