Measurement: Raman, 532 nm, unoriented, Raman Data Processed
Mineral: Orthoclase
Rruff sample: R040055
Ideal chemistry: KAlSi_3_O_8_
Locality: Madagascar
Source: Bob Downs
Description: Pale yellow fragments
Measured chemistry: Light: K_0.96_(Al_0.96_Si_0.03_Fe_0.02_)Si_3.00_O_8_; dark: (K_0.90_Na_0.02_)(Al_0.91_Si_0.08_Fe_0.02_)Si_3.00_O_8
Raman shift (cm-1)	intensity
120.558	0
123.451	41.3371
126.343	39.0608
129.236	59.0435
132.129	20.6895
135.022	30.7051
137.914	145.228
140.807	310.625
143.7	592.935
146.592	995.971
149.485	1357.58
152.378	1658.99
155.27	1516.25
158.163	1082.67
161.056	739.974
163.948	666.658
166.841	668.125
169.734	721.203
172.627	832.737
175.519	814.815
178.412	667.936
181.305	442.773
184.197	323.131
187.09	224.528
189.983	199.519
192.875	159.222
195.768	117.576
198.661	74.8221
201.554	39.5253
204.446	15.7153
207.339	14.0217
210.232	3.6933
213.124	10.2551
216.017	10.8544
218.91	2.5003
221.803	21.457
224.695	5.05505
227.588	21.6868
230.481	2.35046
233.373	38.0085
236.266	25.6007
239.159	61.3588
242.051	69.0206
244.944	98.9163
247.837	204.45
250.73	242.755
253.622	331.92
256.515	453.857
259.408	569.241
262.3	691.012
265.193	808.529
268.086	919.231
270.978	1038.01
273.871	1180.28
276.764	1377.84
279.656	1441.15
282.549	1361.68
285.442	1140.55
288.335	879.533
291.227	654.99
294.12	473.603
297.013	335.441
299.905	237.439
302.798	181.597
305.691	113.513
308.584	95.1387
311.476	58.0314
314.369	44.2889
317.262	40.4984
320.154	18.1289
323.047	59.3987
325.94	51.8625
328.832	12.4722
331.725	18.0418
334.618	11.6971
337.511	22.3533
340.403	13.3054
343.296	20.3513
346.189	15.5927
349.081	20.3699
351.974	19.3451
354.867	50.9467
357.76	62.4236
360.652	38.594
363.545	46.7709
366.438	86.2479
369.33	30.1914
372.223	30.5477
375.116	53.132
378.008	17.0621
380.901	28.2843
383.794	0.678223
386.687	59.267
389.579	81.3799
392.472	110.031
395.365	162.958
398.257	250.361
401.15	259.261
404.043	301.877
406.935	237.465
409.828	135.234
412.721	81.4515
415.613	25.286
418.506	40.6721
421.399	48.3584
424.292	14.1258
427.184	0.8125
430.077	30.5409
432.97	45.7026
435.862	125.561
438.755	217.975
441.648	358.558
444.541	541.054
447.433	709.092
450.326	875.995
453.219	940.602
456.111	921.708
459.004	884.081
461.897	946.382
464.789	1051.36
467.682	1278.27
470.575	1516.86
473.467	1689.9
476.36	1505.74
479.253	1150.48
482.146	874.418
485.038	698.006
487.931	597.382
490.824	622.046
493.716	763.69
496.609	1132.77
499.502	1765.42
502.395	2676.2
505.287	3804.71
508.18	5090.41
511.073	6118.9
513.965	5819.4
516.858	4038.69
519.751	2401.22
522.644	1406.95
525.536	858.564
528.429	585.982
531.322	400.446
534.214	253.731
537.107	206.778
540	114.868
542.892	84.1049
545.785	50.7621
548.678	40.5037
551.571	9.02637
554.463	16.6489
557.356	12.4405
560.249	14.6426
563.141	4.05835
566.034	14.4136
568.927	9.91321
571.819	8.28894
574.712	24.7251
577.605	17.8599
580.497	18.2474
583.39	21.6741
586.283	50.73
589.176	65.7899
592.068	64.5383
594.961	44.4723
597.854	80.9838
600.746	95.535
603.639	80.916
606.532	96.363
609.424	105.062
612.317	102.971
615.21	113.79
618.103	122.039
620.995	130.661
623.888	112.088
626.781	141.446
629.673	115.79
632.566	123.409
635.459	119.153
638.351	101.27
641.244	77.611
644.137	53.3658
647.03	54.3992
649.922	49.3445
652.815	59.0034
655.708	51.6893
658.601	49.24
661.493	37.7176
664.386	23.8117
667.279	4.32104
670.171	3.95532
673.064	13.8663
675.957	7.58191
678.849	1.87207
681.742	26.7295
684.635	7.57056
687.528	9.72668
690.42	3.20764
693.313	3.17737
696.206	14.3665
699.098	0.383667
701.991	2.44824
704.884	29.7446
707.776	17.0377
710.669	12.0332
713.562	56.261
716.455	39.9838
719.347	64.0113
722.24	62.4459
725.133	72.2712
728.025	114.4
730.918	126.717
733.811	134.046
736.703	177.286
739.596	233.444
742.489	236.155
745.381	268.024
748.274	238.165
751.167	221.42
754.06	204.188
756.952	179.776
759.845	161.488
762.738	151.05
765.63	142.179
768.523	142.65
771.416	113.291
774.308	105.344
777.201	98.7477
780.094	130.367
782.987	108.139
785.879	151.31
788.772	174.105
791.665	174.052
794.557	215.968
797.45	250.814
800.343	265.242
803.236	315.754
806.128	296.249
809.021	339.21
811.914	289.29
814.806	233.19
817.699	165.749
820.592	91.4802
823.484	59.2022
826.377	75.4769
829.27	41.8523
832.163	39.3312
835.055	27.0132
837.948	37.2521
840.841	40.6633
843.733	44.9543
846.626	25.9094
849.519	22.1006
852.411	7.60168
855.304	16.5801
858.197	8.06104
861.09	22.3131
863.982	11.9974
866.875	14.0553
869.768	11.4977
872.66	3.99207
875.553	23.8284
878.446	17.4812
881.338	4.42175
884.231	8.70923
887.124	28.0585
890.017	10.1515
892.909	39.5911
895.802	20.4275
898.695	4.17419
901.587	14.4808
904.48	21.0689
907.373	11.3976
910.265	3.12756
913.158	1.86511
916.051	28.6527
918.944	3.52478
921.836	37.2528
924.729	35.7471
927.622	26.4883
930.514	18.6478
933.407	45.3685
936.3	14.8314
939.192	55.9658
942.085	65.903
944.978	49.1694
947.871	73.8173
950.763	72.7
953.656	100.711
956.549	111.233
959.441	134.559
962.334	151.987
965.227	157.453
968.12	134.092
971.012	182.691
973.905	190.328
976.798	200.475
979.69	202.55
982.583	196.539
985.476	219.161
988.368	224.023
991.261	227.432
994.154	217.774
997.047	213.354
999.939	207.494
1002.83	190.841
1005.73	170.52
1008.62	125.217
1011.51	128.017
1014.4	145.051
1017.29	143.05
1020.19	120.646
1023.08	135.091
1025.97	84.7698
1028.87	68.0369
1031.76	66.6152
1034.65	56.8102
1037.54	88.6089
1040.44	38.2839
1043.33	64.5585
1046.22	30.4575
1049.12	27.7649
1052.01	26.2472
1054.9	12.5747
1057.79	1.20569
1060.69	1.30322
1063.58	14.8558
1066.47	0.499268
1069.36	6.88245
1072.26	8.37732
1075.15	29.546
1078.04	12.7781
1080.93	31.5242
1083.83	51.9828
1086.72	71.26
1089.61	100.593
1092.51	89.3889
1095.4	128.751
1098.29	167.94
1101.18	162.841
1104.08	178.514
1106.97	171.933
1109.86	196.079
1112.76	220.592
1115.65	231.856
1118.54	225.658
1121.43	255.373
1124.33	249.492
1127.22	251.663
1130.11	276.713
1133	253.336
1135.9	204.095
1138.79	196.261
1141.68	174.651
1144.57	169.725
1147.47	143.912
1150.36	88.2853
1153.25	100.5
1156.14	79.0538
1159.04	60.1617
1161.93	89.0579
1164.82	34.3307
1167.72	45.7484
1170.61	45.7771
1173.5	39.7128
1176.39	17.6857
1179.29	30.1715
1182.18	0.512451
1185.07	7.23987
1187.96	10.4448
1190.86	11.0181
1193.75	8.44629
1196.64	9.99304
1199.54	2.04492
1202.43	8.22315
1205.32	19.1592
1208.21	33.9789
1211.11	35.688
1214	65.9436
1216.89	38.4161
1219.79	22.8136
1222.68	43.2446
1225.57	23.5303
1228.46	5.84546
1231.36	40.7508
1234.25	56.2684
1237.14	38.1061
1240.03	52.6758
1242.93	29.0466
1245.82	45.4269
1248.71	9.01782
