Measurement: Raman, 532 nm, unoriented, Raman Data Processed
Mineral: Orthoserpierite
Rruff sample: R050292
Ideal chemistry: CaCu_4_(SO_4_)_2_(OH)_6_3H_2_O
Locality: Platosa mine, Bermijillo, Durango, Mexico
Source: Peter Megaw
Description: Turquoise-blue bladed crystals
Measured chemistry: Ca_1.00_(Cu_3.19_Zn_0.81_)_Σ=4_(S_1.00_O_4_)_2_(OH)_6_·3H_2_O
Raman shift (cm-1)	intensity
145.869	0
149.243	1.7889
152.618	2.49537
155.993	1.63403
159.368	1.58597
162.743	5.23628
166.117	9.29276
169.492	11.054
172.867	5.97179
176.242	2.40768
179.617	0.059441
182.992	0.202492
186.366	0.048401
189.741	2.2299
193.116	5.45163
196.491	9.34529
199.865	14.3767
203.24	17.7023
206.615	22.442
209.99	26.9857
213.365	32.3056
216.74	35.5194
220.114	32.9836
223.489	29.4885
226.864	31.9241
230.239	36.0719
233.614	40.4838
236.988	47.3824
240.363	53.4364
243.738	56.8556
247.113	58.9845
250.488	54.8586
253.863	46.7647
257.237	35.4761
260.612	25.0596
263.987	15.6928
267.362	11.04
270.737	6.01503
274.111	2.15852
277.486	0.641159
280.861	0.43203
284.236	0.243591
287.611	0.315804
290.986	1.03165
294.36	2.20463
297.735	4.6798
301.11	4.25821
304.485	5.50753
307.86	7.03059
311.235	10.5963
314.609	16.1177
317.984	20.6923
321.359	24.0987
324.734	26.9185
328.109	26.3469
331.483	26.7337
334.858	24.6121
338.233	21.2199
341.608	17.1837
344.983	11.6235
348.358	8.3882
351.732	5.4435
355.107	3.28259
358.482	1.25277
361.857	0.308548
365.231	1.55916
368.606	0.870605
371.981	1.97573
375.356	0.164963
378.731	2.12587
382.106	5.19606
385.48	9.35635
388.855	13.9548
392.23	21.1999
395.605	30.3725
398.98	42.9219
402.354	59.5201
405.729	77.0498
409.104	99.2048
412.479	122.228
415.854	139.039
419.229	146.625
422.603	137.644
425.978	118.215
429.353	94.7156
432.728	73.7786
436.103	63.1127
439.478	56.7615
442.852	54.8595
446.227	48.8724
449.602	44.4363
452.977	41.3741
456.352	41.4794
459.726	42.1159
463.101	42.005
466.476	41.1084
469.851	41.3874
473.226	40.2818
476.601	38.6767
479.975	35.8838
483.35	34.3946
486.725	27.9118
490.1	22.6431
493.475	18.4331
496.849	15.504
500.224	11.8241
503.599	7.97697
506.974	6.52721
510.349	3.76032
513.723	2.02898
517.098	0.050598
520.473	0.924538
523.848	0.463638
527.223	1.3213
530.598	0.555199
533.972	0.204338
537.347	0.239624
540.722	0.502533
544.097	1.19067
547.472	0.298721
550.846	0.729141
554.221	1.74344
557.596	1.39786
560.971	0.495117
564.346	0.924858
567.721	2.96882
571.095	4.88207
574.47	5.62263
577.845	6.05937
581.22	8.00839
584.595	10.5625
587.969	14.0692
591.344	16.1734
594.719	20.9877
598.094	27.0319
601.469	28.565
604.843	28.9909
608.218	27.5727
611.593	26.0872
614.968	25.3777
618.343	20.5495
621.718	15.2836
625.092	13.9509
628.467	12.0526
631.842	10.7118
635.217	10.9525
638.592	12.8281
641.966	15.0102
645.341	13.8112
648.716	14.0097
652.091	12.5331
655.466	8.98316
658.841	8.98855
662.215	5.86281
665.59	4.40718
668.965	3.01552
672.34	2.97954
675.715	0.58107
679.09	0.531151
682.464	0.697968
685.839	1.6817
689.214	0.798668
692.589	0.553131
695.964	0.704597
699.338	0.516014
702.713	1.44654
706.088	0.46653
709.463	0.209785
712.838	0.851387
716.212	0.305016
719.587	1.26996
722.962	2.17149
726.337	1.26704
729.712	0.911354
733.087	1.45196
736.461	0.837364
739.836	0.105515
743.211	0.326675
746.586	0.415703
749.961	0.505394
753.335	1.35159
756.71	1.57357
760.085	2.29682
763.46	1.87338
766.835	1.9085
770.21	1.4202
773.584	1.79671
776.959	3.64277
780.334	1.57314
783.709	3.68013
787.084	2.57327
790.458	1.9012
793.833	2.77756
797.208	2.78058
800.583	3.43381
803.958	2.21255
807.332	3.57675
810.707	3.83141
814.082	0.98275
817.457	2.94516
820.832	2.84503
824.207	1.24788
827.581	2.20274
830.956	2.43483
834.331	1.48957
837.706	1.79039
841.081	2.07069
844.456	2.15475
847.83	1.32296
851.205	1.80517
854.58	1.44349
857.955	1.78572
861.33	1.68994
864.704	1.3051
868.079	1.32767
871.454	0.876579
874.829	1.5436
878.204	0.061607
881.578	0.102554
884.953	0.157005
888.328	0.533585
891.703	0.381783
895.078	0.163673
898.453	0.380524
901.827	1.32808
905.202	1.33645
908.577	0.211403
911.952	0.788666
915.327	1.36098
918.702	1.74146
922.076	1.35374
925.451	1.01565
928.826	0.135582
932.201	1.61596
935.576	2.97855
938.95	3.01611
942.325	2.58907
945.7	3.94726
949.075	3.77115
952.45	5.09117
955.824	5.21725
959.199	8.52291
962.574	11.6467
965.949	16.4892
969.324	28.9931
972.698	54.8281
976.073	101.168
979.448	175.225
982.823	299.347
986.198	414.584
989.573	412.443
992.947	274.122
996.322	105.082
999.697	42.0771
1003.07	22.2241
1006.45	13.699
1009.82	7.63113
1013.2	5.61432
1016.57	3.36092
1019.95	1.71037
1023.32	0.441734
1026.7	0.00119
1030.07	1.16149
1033.44	1.04435
1036.82	0.597641
1040.19	1.05794
1043.57	0.57267
1046.94	0.445084
1050.32	1.51994
1053.69	3.93159
1057.07	6.76327
1060.44	7.04068
1063.82	10.7057
1067.19	11.8336
1070.57	15.9289
1073.94	20.5811
1077.32	24.8201
1080.69	24.0943
1084.07	21.965
1087.44	20.9545
1090.82	14.6175
1094.19	15.6115
1097.57	19.1569
1100.94	16.1874
1104.32	14.4262
1107.69	16.6534
1111.07	18.7004
1114.44	24.982
1117.82	32.7022
1121.19	43.5272
1124.57	54.9937
1127.94	65.6565
1131.32	67.4426
1134.69	50.2954
1138.07	30.248
1141.44	17.9532
1144.81	10.0406
1148.19	6.98682
1151.56	4.30155
1154.94	4.67094
1158.31	4.8818
1161.69	7.43275
1165.06	9.33347
1168.44	10.0057
1171.81	10.9989
1175.19	7.7764
1178.56	5.88943
1181.94	2.59922
1185.31	0.986252
1188.69	0.385193
1192.06	0.563148
1195.44	0.250229
1198.81	0.031395
1202.19	0.83371
1205.56	0.028336
1208.94	0.506996
1212.31	0.264221
1215.68	0.258591
1219.06	0.84259
1222.43	1.35179
1225.81	0.649567
1229.18	0.513191
1232.56	1.57786
1235.93	2.14152
1239.31	1.29099
1242.68	0.59906
1246.06	1.01382
1249.43	1.70694
1252.81	2.37436
1256.18	1.70089
1259.56	0.541901
1262.93	1.64727
1266.31	1.14946
1269.68	1.74568
1273.06	1.07278
1276.43	0.229492
1279.81	1.49612
1283.18	0.823364
1286.56	1.93294
1289.93	1.5683
1293.31	0.360352
1296.68	0.249779
1300.06	0.975349
1303.43	1.65826
