Measurement: Raman, 532 nm, unoriented, Raman Data Processed
Mineral: Orthoclase
Rruff sample: R050367
Ideal chemistry: KAlSi_3_O_8_
Locality: Pazunseik, Mandalay Division, Burma
Source: Marcus Origlieri
Description: Green crystal associated with topaz. Single-crystal structure refinement was conducted to demonstrate that it is orthoclase.
Measured chemistry: (K_0.90_Na_0.10_)_Î£=1_Al_1.00_Si_3.00_O_8_; trace amounts of Fe
Raman shift (cm-1)	intensity
126.584	0
129.476	2.6756
132.369	47.5058
135.262	110.095
138.155	168.014
141.047	230.202
143.94	289.711
146.833	379.298
149.725	495.188
152.618	567.216
155.511	499.827
158.404	355.445
161.296	253.397
164.189	189.846
167.082	159.595
169.974	166.398
172.867	183.254
175.76	203.959
178.652	196.097
181.545	138.567
184.438	81.1988
187.331	46.163
190.223	31.7761
193.116	32.1398
196.009	35.1106
198.901	30.2426
201.794	8.53653
204.687	2.62176
207.579	7.30624
210.472	6.79428
213.365	6.04388
216.257	0.411102
219.15	0.397339
222.043	3.22418
224.936	3.94522
227.828	5.41278
230.721	12.1499
233.614	10.7222
236.506	26.646
239.399	34.4323
242.292	48.1385
245.185	66.6748
248.077	94.6518
250.97	121.927
253.863	158.38
256.755	203.456
259.648	249.325
262.541	300.492
265.433	344.849
268.326	373.991
271.219	401.512
274.111	440.121
277.004	492.38
279.897	518.918
282.79	479.726
285.682	385.353
288.575	279.65
291.468	191.749
294.36	125.078
297.253	81.7306
300.146	53.1423
303.038	36.8078
305.931	21.481
308.824	10.478
311.717	5.85031
314.609	0.065643
317.502	0.845398
320.395	1.59683
323.287	4.58429
326.18	7.39746
329.073	11.0396
331.966	9.89957
334.858	6.56421
337.751	4.31747
340.644	3.28278
343.536	4.27508
346.429	9.23086
349.322	13.4629
352.214	16.4501
355.107	23.7631
358	29.5911
360.892	33.1038
363.785	27.151
366.678	23.0918
369.571	13.9025
372.463	6.42392
375.356	0.192535
378.249	0.526398
381.141	1.73612
384.034	1.0708
386.927	5.47372
389.82	10.5268
392.712	20.3129
395.605	27.9484
398.498	36.7779
401.39	50.0481
404.283	58.8835
407.176	50.6769
410.068	34.26
412.961	15.9264
415.854	2.49365
418.747	2.69131
421.639	3.84735
424.532	5.69641
427.425	3.61258
430.317	0.429047
433.21	10.9851
436.103	20.3538
438.995	35.6858
441.888	51.9971
444.781	77.9333
447.673	104.498
450.566	128.976
453.459	141.181
456.352	141.89
459.244	140.591
462.137	157.57
465.03	182.233
467.922	228.141
470.815	297.075
473.708	359.464
476.601	356.687
479.493	285.305
482.386	208.842
485.279	179.376
488.171	154.57
491.064	153.19
493.957	183.517
496.849	263.908
499.742	382.975
502.635	534.701
505.527	739.917
508.42	1009.72
511.313	1249.55
514.206	1210.62
517.098	836.443
519.991	475.091
522.884	280.204
525.776	174.785
528.669	113.382
531.562	75.7649
534.455	51.0062
537.347	34.2726
540.24	24.4676
543.133	18.373
546.025	9.67615
548.918	8.50107
551.811	0.780273
554.703	0.093628
557.596	1.87396
560.489	1.73175
563.381	1.68152
566.274	5.08514
569.167	1.54044
572.06	1.3324
574.952	2.88767
577.845	3.06271
580.738	4.20282
583.63	8.8924
586.523	3.80054
589.416	4.06689
592.308	4.63693
595.201	4.98859
598.094	2.5415
600.987	7.30341
603.879	9.13001
606.772	6.32117
609.665	10.1174
612.557	9.26373
615.45	11.8804
618.343	14.2135
621.236	16.6597
624.128	16.6164
627.021	22.6487
629.914	29.3953
632.806	26.2846
635.699	18.1655
638.592	9.20532
641.484	10.3517
644.377	10.0044
647.27	7.85431
650.163	10.0467
653.055	8.73483
655.948	10.6166
658.841	8.18213
661.733	8.74658
664.626	9.35379
667.519	5.74976
670.411	4.63464
673.304	0.16153
676.197	0.411072
679.09	1.60855
681.982	2.93414
684.875	0.751282
687.768	0.944244
690.66	2.06784
693.553	0.910248
696.446	1.82971
699.338	1.44708
702.231	3.65457
705.124	5.12729
708.016	9.89856
710.909	8.15427
713.802	11.9239
716.695	15.0021
719.587	14.3022
722.48	19.9272
725.373	21.1789
728.265	24.8528
731.158	33.943
734.051	43.2978
736.943	51.3355
739.836	59.3862
742.729	63.3101
745.622	62.8575
748.514	58.9536
751.407	52.7695
754.3	48.453
757.192	44.1852
760.085	41.5958
762.978	37.7207
765.87	35.0332
768.763	31.4834
771.656	28.7827
774.549	27.1326
777.441	25.5163
780.334	25.4327
783.227	28.1324
786.119	27.1698
789.012	26.3826
791.905	34.5974
794.798	37.5164
797.69	35.8046
800.583	40.2956
803.476	45.4256
806.368	53.2626
809.261	47.2078
812.154	39.3649
815.046	27.8256
817.939	17.1022
820.832	6.24582
823.725	5.44226
826.617	1.36258
829.51	0.94751
832.403	1.8172
835.295	1.7811
838.188	3.10132
841.081	1.70883
843.973	0.27655
846.866	1.73651
849.759	0.493408
852.652	0.657318
855.544	3.88901
858.437	2.23044
861.33	0.405182
864.222	1.00238
867.115	0.05658
870.008	3.31769
872.9	0.583618
875.793	3.48169
878.686	2.76529
881.578	1.16678
884.471	1.88959
887.364	3.01965
890.257	4.52451
893.149	2.08447
896.042	1.74814
898.935	0.888733
901.827	4.99496
904.72	1.75998
907.613	1.46915
910.505	0.092499
913.398	4.50833
916.291	2.94791
919.184	2.15973
922.076	1.06122
924.969	2.27759
927.862	4.40399
930.754	3.61444
933.647	3.20013
936.54	2.3746
939.433	3.01279
942.325	1.22849
945.218	0.319092
948.111	0.683746
951.003	0.407959
953.896	2.70471
956.789	1.78091
959.681	0.034088
962.574	2.19931
965.467	4.69064
968.36	6.88977
971.252	7.34546
974.145	13.459
977.038	15.2919
979.93	18.8069
982.823	23.5683
985.716	25.6371
988.608	31.8252
991.501	33.9874
994.394	34.6742
997.287	34.1765
1000.18	31.4349
1003.07	33.11
1005.97	28.9258
1008.86	26.5329
1011.75	22.9276
1014.64	23.8425
1017.53	23.2471
1020.43	26.5445
1023.32	20.2091
1026.21	20.3105
1029.11	18.0999
1032	19.111
1034.89	16.2695
1037.78	16.8049
1040.68	12.4325
1043.57	7.65082
1046.46	5.48456
1049.36	3.9191
1052.25	5.51651
1055.14	2.0943
1058.03	0.283691
1060.93	0.511047
1063.82	1.61609
1066.71	1.46057
1069.6	1.13519
1072.5	2.3725
1075.39	1.55972
1078.28	6.96558
1081.17	4.9534
1084.07	9.95895
1086.96	13.9239
1089.85	16.8226
1092.75	15.2599
1095.64	17.3814
1098.53	21.5826
1101.42	23.1948
1104.32	23.2547
1107.21	24.2225
1110.1	26.5071
1112.99	29.4524
1115.89	31.903
1118.78	35.374
1121.67	39.7086
1124.57	42.2893
1127.46	42.6059
1130.35	45.9759
1133.24	42.5185
1136.14	42.7637
1139.03	37.8365
1141.92	36.2167
1144.81	28.369
1147.71	31.7506
1150.6	22.1617
1153.49	14.1372
1156.38	14.7534
1159.28	10.3175
1162.17	10.6092
1165.06	11.0833
1167.96	7.69275
1170.85	5.03415
1173.74	4.01535
1176.63	4.47089
1179.53	3.46506
1182.42	1.41113
1185.31	0.49176
1188.2	0.02002
1191.1	1.6055
1193.99	0.654999
1196.88	2.08646
1199.78	1.33267
1202.67	1.29559
1205.56	0.177216
1208.45	1.05936
1211.35	0.114075
1214.24	1.65195
1217.13	3.01334
1220.02	2.1889
1222.92	0.903961
1225.81	3.59051
1228.7	2.25378
1231.6	2.6431
1234.49	5.32721
1237.38	2.59592
1240.27	3.21011
1243.17	4.18469
1246.06	3.39969
1248.95	4.18829
1251.84	0.048462
1254.74	2.00131
1257.63	4.06967
1260.52	5.66373
1263.41	4.17923
1266.31	4.36438
1269.2	1.85184
1272.09	3.94015
1274.99	2.71027
1277.88	0.801971
