Measurement: Raman, 514 nm, unoriented, Raman Data Processed
Mineral: Orthoserpierite
Rruff sample: R050292
Ideal chemistry: CaCu_4_(SO_4_)_2_(OH)_6_3H_2_O
Locality: Platosa mine, Bermijillo, Durango, Mexico
Source: Peter Megaw
Description: Turquoise-blue bladed crystals
Measured chemistry: Ca_1.00_(Cu_3.19_Zn_0.81_)_Σ=4_(S_1.00_O_4_)_2_(OH)_6_·3H_2_O
Raman shift (cm-1)	intensity
113.462	0
117.626	635.792
121.788	287.376
125.948	17.061
130.107	12.64
134.263	155.35
138.418	43.688
142.57	166.37
146.721	181.519
150.869	279.323
155.016	196.626
159.161	286.011
163.303	304.295
167.444	405.6
171.583	613.318
175.72	304.211
179.855	150.858
183.988	20.355
188.119	32.111
192.249	64.842
196.376	292.24
200.501	577.422
204.625	810.41
208.746	1181.27
212.866	1222.87
216.983	1792.79
221.099	1669.05
225.213	1494.56
229.325	1438.24
233.435	1522.01
237.543	1785.84
241.649	2213.32
245.753	2754.4
249.855	3205.15
253.956	3036.07
258.054	2587.14
262.15	1756.33
266.245	1052.37
270.338	560.234
274.429	297.908
278.518	10.135
282.605	139.239
286.69	81.595
290.773	70.69
294.854	0.87
298.934	76.235
303.011	132.172
307.087	81.417
311.16	294.456
315.232	536.26
319.302	957.829
323.37	1293.13
327.436	1346.02
331.5	1476.51
335.563	1459.66
339.623	1372.5
343.682	1199.06
347.739	834.961
351.793	661.294
355.846	486.147
359.897	355.771
363.947	199.397
367.994	212.571
372.039	350.369
376.083	300.909
380.125	308.577
384.164	448.526
388.202	575.049
392.238	912.005
396.273	1045.36
400.305	1550.63
404.335	2193.31
408.364	3151.28
412.391	4209.35
416.416	5777.48
420.439	7034.84
424.46	7532.11
428.479	6979.3
432.497	5386.4
436.512	4123.41
440.526	3767.51
444.538	3792.96
448.548	3539.75
452.556	3080.05
456.562	2950.92
460.567	3015.49
464.569	3140.13
468.57	3352.1
472.569	3277.83
476.566	3403.54
480.562	3409.12
484.555	3414.58
488.547	3159.91
492.536	2775.11
496.524	2180.2
500.51	1875.18
504.495	1470.05
508.477	1094.81
512.458	799.469
516.436	424.059
520.413	338.559
524.388	352.725
528.362	56.735
532.333	10.967
536.303	34.851
540.27	59.65
544.236	53.933
548.201	42.053
552.163	58.817
556.123	24.515
560.082	168.235
564.039	112.793
567.994	146.237
571.947	29.359
575.899	213.646
579.848	347.037
583.796	456.855
587.742	625.72
591.687	958.592
595.629	1411.51
599.57	1864.5
603.508	2058.23
607.445	2142.45
611.381	2146.65
615.314	2040.63
619.246	1815.14
623.175	1460.95
627.103	1135.5
631.03	869.683
634.954	913.733
638.877	777.771
642.798	841.696
646.717	1045.49
650.634	999.366
654.549	1102.94
658.463	797.272
662.375	580.598
666.285	593.803
670.193	399.463
674.1	352.52
678.005	215.617
681.908	159.218
685.809	251.898
689.708	193.639
693.606	281.842
697.502	112.485
701.396	44.401
705.289	162.765
709.179	142.544
713.068	67.575
716.955	139.264
720.84	166.087
724.724	190.21
728.606	71.261
732.486	276.437
736.364	103.63
740.24	69.748
744.115	191.328
747.988	186.766
751.859	210.9
755.729	227.472
759.596	68.537
763.462	218.56
767.327	328.342
771.189	159.841
775.05	19.317
778.909	243.373
782.766	371.508
786.621	239.443
790.475	287.386
794.327	214.974
798.177	242.322
802.026	249.476
805.872	356.436
809.717	33.199
813.561	289.744
817.402	256.099
821.242	122.267
825.08	318.215
828.916	333.933
832.751	239.441
836.584	164.774
840.415	289.898
844.244	134.847
848.072	129.271
851.898	123.221
855.722	186.924
859.544	120.626
863.365	55.662
867.184	80.942
871.002	32.315
874.817	95.857
878.631	6.56
882.443	168.701
886.254	160.165
890.062	68.654
893.869	61.983
897.675	61.841
901.478	156.967
905.28	96.273
909.08	204.046
912.879	23.041
916.676	152.854
920.471	2.259
924.264	61.818
928.056	90.139
931.846	139.073
935.634	218.003
939.421	347.127
943.205	116.194
946.989	315.086
950.77	285.827
954.55	472.827
958.328	601.431
962.104	749.262
965.879	767.983
969.652	926.668
973.423	1694.94
977.193	2701.28
980.961	5489.7
984.727	14897.9
988.492	26725.4
992.254	30013.6
996.016	16381.7
999.775	5639.44
1003.53	2217.15
1007.29	1462.84
1011.04	950.622
1014.8	558.564
1018.55	536.228
1022.3	483.438
1026.05	234.798
1029.79	356.86
1033.54	575.581
1037.28	230.065
1041.02	257.467
1044.76	266.112
1048.5	34.974
1052.23	348.869
1055.97	467.328
1059.7	628.588
1063.43	696.553
1067.16	686.449
1070.89	815.822
1074.61	1063.56
1078.34	1677.9
1082.06	1848.39
1085.78	1838.72
1089.5	1520.11
1093.22	1240.37
1096.94	1180.51
1100.65	1178.8
1104.36	1330.04
1108.07	1401.3
1111.78	1521.86
1115.49	1865.96
1119.2	2256.89
1122.9	2746.77
1126.61	3597.32
1130.31	5148.18
1134.01	5232.39
1137.7	3958.09
1141.4	2268.82
1145.1	1280.24
1148.79	1071.03
1152.48	551.588
1156.17	562.305
1159.86	742.332
1163.55	931.723
1167.23	984.834
1170.91	1187.47
1174.6	1073.02
1178.28	815.578
1181.95	827.973
1185.63	410.812
1189.31	384.963
1192.98	374.695
1196.65	276.83
1200.32	131.918
1203.99	331.455
1207.66	159.934
1211.32	68.113
1214.99	135.479
1218.65	302.842
1222.31	279.703
1225.97	196.213
1229.63	262.266
1233.28	108.244
1236.94	193.436
1240.59	148.307
1244.24	107.152
1247.89	76.955
1251.54	141.086
1255.18	84.711
1258.83	328.078
1262.47	91.914
1266.11	105.342
1269.75	128.42
1273.39	140.867
1277.03	46.705
1280.66	14.615
1284.29	375.902
1287.92	375.486
1291.56	184.639
1295.18	213.217
1298.81	192.113
1302.44	48.213
1306.06	120.963
1309.68	61.74
1313.3	24.035
1316.92	11.436
1320.54	106.301
1324.15	170.43
1327.77	66.025
1331.38	166.852
1334.99	209.15
1338.6	9.182
1342.21	68.672
1345.82	61.84
1349.42	181.816
1353.02	370.523
1356.62	338.801
1360.22	447.328
1363.82	605.158
1367.42	242.703
1371.02	259.742
1374.61	232.713
1378.2	428.736
1381.79	383.848
1385.38	397.658
1388.97	447.434
1392.55	519.635
1396.14	338.443
1399.72	350.438
1403.3	402.293
1406.88	518.104
1410.46	191.023
1414.04	277.859
1417.61	169.389
1421.18	260.135
1424.76	253.262
1428.33	428.729
1431.89	363.631
1435.46	468.076
1439.03	517.453
1442.59	436.17
1446.15	444.502
1449.71	17.387
1453.27	301.297
1456.83	9.4
1460.39	179.385
1463.94	356.49
1467.5	370.869
1471.05	462.264
1474.6	652.732
1478.15	605.188
1481.69	728.809
1485.24	761.84
1488.78	341.08
1492.32	267.777
1495.87	204.287
1499.4	409.242
1502.94	124.861
1506.48	521.4
1510.01	279.326
1513.55	361.92
1517.08	676.498
1520.61	539.58
1524.14	558.129
1527.66	119.438
