Measurement: Raman, 532 nm, unoriented, Raman Data Processed
Mineral: Orthoclase
Rruff sample: R060077
Ideal chemistry: KAlSi_3_O_8_
Locality: pegmatite near Minh Tien, 15 km south of Luc Yen, Vietnam
Source: Marcus Origlieri
Description: Green fragment. Crystal structure determined to demonstrate that it is orthoclase
Measured chemistry: (K_0.88_Na_0.12_)AlSi_3_O_8_
Raman shift (cm-1)	intensity
109.656	4.03949
113.031	120.798
116.406	349.65
119.78	605.683
123.155	749.591
126.53	775.46
129.905	863.689
133.28	1056.1
136.655	1376.96
140.029	1776.73
143.404	1932.49
146.779	1999.6
150.154	2227.57
153.529	2665.01
156.903	3099.15
160.278	3104.77
163.653	2604.81
167.028	1936.21
170.403	1506.62
173.778	1332.85
177.152	1148.09
180.527	825.256
183.902	563.554
187.277	444.669
190.651	424.509
194.026	523.059
197.401	606.11
200.776	437.308
204.151	184.075
207.526	54.9333
210.9	2.48438
214.275	11.1435
217.65	26.7911
221.025	20.8237
224.4	24.546
227.774	10.7987
231.149	0.776733
234.524	21.8337
237.899	57.2954
241.274	106.867
244.649	179.393
248.023	278.865
251.398	421.985
254.773	595.625
258.148	813.806
261.523	1087.46
264.897	1383.06
268.272	1678.47
271.647	1993.37
275.022	2350.11
278.397	2716.01
281.772	2768.72
285.146	2306.93
288.521	1628.42
291.896	1032.06
295.271	638.268
298.646	381.215
302.02	224.458
305.395	129.367
308.77	71.5305
312.145	29.6101
315.52	8.8324
318.894	1.92651
322.269	2.6087
325.644	2.59827
329.019	1.22803
332.394	4.59888
335.769	6.36877
339.143	12.0307
342.518	5.63995
345.893	4.89667
349.268	7.58038
352.643	14.9063
356.017	25.5725
359.392	35.2902
362.767	52.1212
366.142	67.1836
369.517	68.0626
372.892	51.4464
376.266	36.1264
379.641	21.3677
383.016	11.921
386.391	15.1973
389.766	30.0636
393.14	52.9278
396.515	85.0125
399.89	134.406
403.265	178.041
406.64	198.433
410.015	133.607
413.389	48.5605
416.764	3.50147
420.139	26.6924
423.514	34.4995
426.889	15.7897
430.264	13.8028
433.638	76.1062
437.013	170.045
440.388	308.341
443.763	494.874
447.137	744.196
450.512	1008.91
453.887	1143.16
457.262	1113.38
460.637	1020.79
464.012	1024.39
467.386	1201.49
470.761	1584.94
474.136	1962.59
477.511	1840.12
480.886	1311.89
484.26	953.866
487.635	813.103
491.01	796.314
494.385	937.394
497.76	1346.14
501.135	2090.65
504.509	3254.6
507.884	5086.03
511.259	7289.92
514.634	7796.36
518.009	5189.39
521.384	2752.29
524.758	1492.36
528.133	868.539
531.508	549.543
534.883	347.366
538.258	222.274
541.632	133.56
545.007	72.806
548.382	32.5706
551.757	6.77411
555.132	10.7343
558.506	20.6844
561.881	21.4365
565.256	16.1425
568.631	1.89215
572.006	10.0597
575.381	35.1378
578.755	63.3892
582.13	67.635
585.505	42.7488
588.88	22.5469
592.255	9.35284
595.63	5.8772
599.004	9.80133
602.379	10.7283
605.754	14.0571
609.129	8.43811
612.504	17.9142
615.878	20.2884
619.253	23.3618
622.628	30.0399
626.003	46.568
629.378	55.0692
632.752	71.6155
636.127	51.7737
639.502	32.7666
642.877	25.9311
646.252	32.1265
649.626	38.0483
653.001	35.0509
656.376	41.7552
659.751	36.4198
663.126	34.3419
666.501	20.3054
669.875	11.5317
673.25	9.19751
676.625	1.49658
680	3.6286
683.375	4.75775
686.75	7.33289
690.124	7.92969
693.499	1.48218
696.874	3.59393
700.249	13.4187
703.624	25.5259
706.998	34.082
710.373	47.2779
713.748	58.3862
717.123	68.3254
720.498	73.6052
723.872	89.9302
727.247	108.783
730.622	137.338
733.997	178.348
737.372	226.754
740.746	282.368
744.121	305.83
747.496	317.64
750.871	315.789
754.246	313.981
757.621	314.243
760.995	310.303
764.37	296.966
767.745	302.302
771.12	288.398
774.495	270.221
777.87	251.83
781.244	240.922
784.619	242.798
787.994	263.129
791.369	294.386
794.744	339.776
798.118	364.548
801.493	386.013
804.868	412.144
808.243	436.234
811.618	435.089
814.992	339.974
818.367	205.384
821.742	104.175
825.117	43.2783
828.492	15.4347
831.867	6.57935
835.241	1.37634
838.616	1.21137
841.991	0.983643
845.366	7.65881
848.741	4.52222
852.115	2.35706
855.49	5.03095
858.865	1.94818
862.24	1.98846
865.615	2.21094
868.99	1.74384
872.364	7.0874
875.739	2.46417
879.114	4.18555
882.489	8.35608
885.864	11.0088
889.239	11.9087
892.613	17.517
895.988	16.3408
899.363	15.5664
902.738	15.2014
906.112	14.9756
909.487	11.5913
912.862	13.7938
916.237	7.78149
919.612	7.32617
922.987	5.85413
926.361	12.191
929.736	6.6015
933.111	5.27039
936.486	3.59656
939.861	2.44464
943.236	7.78693
946.61	6.58868
949.985	10.4139
953.36	12.8143
956.735	16.0284
960.11	22.0947
963.484	33.7805
966.859	45.3931
970.234	54.0287
973.609	67.1207
976.984	91.8539
980.359	110.438
983.733	131.118
987.108	145.383
990.483	160.205
993.858	171.892
997.232	175.938
1000.61	163.07
1003.98	152.149
1007.36	137.507
1010.73	128.39
1014.11	109.853
1017.48	104.478
1020.86	94.8653
1024.23	96.1173
1027.61	88.0154
1030.98	83.0284
1034.36	77.3803
1037.73	64.8781
1041.11	50.0164
1044.48	38.7822
1047.86	28.632
1051.23	26.6123
1054.6	13.415
1057.98	7.8197
1061.35	4.2113
1064.73	11.111
1068.1	6.89752
1071.48	7.16376
1074.85	18.5934
1078.23	42.7324
1081.6	51.0892
1084.98	70.9689
1088.35	102.268
1091.73	111.516
1095.1	126.343
1098.48	137.443
1101.85	144.356
1105.23	154.378
1108.6	163.692
1111.98	172.089
1115.35	186.778
1118.73	202.412
1122.1	228.496
1125.48	242.563
1128.85	248.363
1132.22	247.61
1135.6	232.537
1138.97	228.333
1142.35	203.039
1145.72	176.475
1149.1	151.418
1152.47	117.422
1155.85	98.6312
1159.22	83.8324
1162.6	61.5394
1165.97	54.1835
1169.35	42.2603
1172.72	33.095
1176.1	20.0761
1179.47	22.3746
1182.85	13.965
1186.22	10.0493
1189.6	7.41956
1192.97	4.34216
1196.35	1.36645
1199.72	3.9845
1203.1	2.52777
1206.47	2.41126
1209.85	0.869629
1213.22	3.93866
1216.6	1.159
1219.97	3.74066
1223.35	6.83258
1226.72	5.89148
1230.1	3.35022
1233.47	8.47662
1236.84	10.2812
1240.22	10.6178
1243.59	8.4458
1246.97	11.1159
1250.34	15.4741
1253.72	17.0056
1257.09	12.6509
1260.47	6.58069
1263.84	10.8194
1267.22	9.22571
1270.59	4.12939
1273.97	7.51111
1277.34	6.90753
1280.72	5.5697
1284.09	6.46814
1287.47	2.38989
1290.84	10.1326
1294.22	2.39166
1297.59	3.56189
1300.97	0
