Measurement: Raman, 532 nm, unoriented, Raman Data Processed
Mineral: Orthoserpierite
Rruff sample: R060977
Ideal chemistry: CaCu_4_(SO_4_)_2_(OH)_6_3H_2_O
Locality: Copper Creek, Galuiro Mountains, Pinal County, Arizona, USA
Source: Michael Scott
Description: Blue-green platy crystals in masses with chrysocolla
Raman shift (cm-1)	intensity
118.148	0
121.522	33.0711
124.897	133.502
128.272	196.255
131.647	217.287
135.022	166.453
138.397	242.07
141.771	221.099
145.146	283.35
148.521	312.27
151.896	293.436
155.271	278.459
158.645	231.126
162.02	228.098
165.395	283.125
168.77	211.876
172.145	133.058
175.519	55.4631
178.894	47.4008
182.269	85.9415
185.644	118.625
189.019	150.8
192.394	220.72
195.768	230.784
199.143	310.971
202.518	332.756
205.893	403.459
209.268	376.463
212.643	413.281
216.017	372.427
219.392	333.925
222.767	296.843
226.142	310.74
229.517	308.536
232.891	399.352
236.266	429.604
239.641	426.639
243.016	459.378
246.391	407.929
249.765	363.078
253.14	259.344
256.515	195.77
259.89	133.656
263.265	85.9515
266.639	30.3726
270.014	8.034
273.389	3.44403
276.764	21.4824
280.139	12.069
283.514	0.261536
286.888	6.25848
290.263	22.0325
293.638	0.286438
297.013	0.218384
300.388	9.47424
303.762	21.1775
307.137	44.7754
310.512	85.6458
313.887	115.234
317.262	156.565
320.637	175.173
324.011	179.492
327.386	190.29
330.761	194.628
334.136	192.694
337.511	164.952
340.885	131.257
344.26	107.311
347.635	79.0864
351.01	74.3887
354.385	21.9935
357.76	19.8961
361.134	10.9815
364.509	21.3258
367.884	10.0304
371.259	4.50348
374.634	8.00427
378.008	22.9078
381.383	7.70007
384.758	41.0263
388.133	77.1025
391.508	154.609
394.882	276.375
398.257	433.552
401.632	628.242
405.007	895.867
408.382	1024.25
411.757	1053.6
415.131	978.66
418.506	863.087
421.881	837.101
425.256	865.632
428.631	821.525
432.005	777.43
435.38	763.136
438.755	776.573
442.13	785.472
445.505	797.475
448.88	725.88
452.254	604.886
455.629	557.284
459.004	568.839
462.379	566.303
465.754	568.605
469.128	608.651
472.503	582.202
475.878	572.009
479.253	523.02
482.628	523.343
486.002	509.547
489.377	454.836
492.752	419.429
496.127	373.792
499.502	356.968
502.877	337.717
506.251	311.622
509.626	267.937
513.001	220.006
516.376	175.115
519.751	95.5065
523.125	49.9512
526.5	28.6539
529.875	6.22968
533.25	14.2628
536.625	2.76672
540	16.6765
543.374	19.5329
546.749	26.9947
550.124	14.107
553.499	6.13898
556.874	3.9173
560.248	25.741
563.623	31.3953
566.998	29.5756
570.373	72.3163
573.748	86.7541
577.122	117.676
580.497	148.677
583.872	196.487
587.247	288.721
590.622	370.983
593.997	461.094
597.371	509.171
600.746	553.926
604.121	535.441
607.496	549.433
610.871	570.71
614.245	529.999
617.62	440.403
620.995	353.268
624.37	314.132
627.745	263.995
631.12	218.792
634.494	187.321
637.869	192.545
641.244	185.59
644.619	208.71
647.994	210.855
651.368	209.094
654.743	204.93
658.118	176.82
661.493	119.213
664.868	90.0038
668.242	67.0664
671.617	64.7801
674.992	12.9633
678.367	22.5618
681.742	29.4584
685.117	1.59262
688.491	0.567322
691.866	19.5198
695.241	7.54123
698.616	2.45773
701.991	17.6938
705.365	12.2832
708.74	1.49475
712.115	15.2046
715.49	21.0769
718.865	21.2292
722.24	21.7549
725.614	27.2956
728.989	20.8173
732.364	21.7749
735.739	36.9927
739.114	37.8712
742.489	38.4518
745.863	26.0086
749.238	38.9295
752.613	40.8693
755.988	44.4887
759.362	51.5097
762.737	56.6992
766.112	56.4351
769.487	40.8979
772.862	33.3518
776.237	26.9647
779.611	9.55664
782.986	14.5312
786.361	29.9736
789.736	17.9987
793.111	29.3479
796.486	32.1183
799.86	32.1402
803.235	42.1615
806.61	27.583
809.985	30.6463
813.36	35.8365
816.734	38.1533
820.109	49.5312
823.484	40.4204
826.859	51.6508
830.234	29.9524
833.609	8.82941
836.983	37.5845
840.358	53.8251
843.733	13.0294
847.108	26.0994
850.482	5.62643
853.857	22.4989
857.232	7.83551
860.607	1.56564
863.982	5.52884
867.357	5.4581
870.731	0.028229
874.106	9.37491
877.481	19.6318
880.856	12.3018
884.231	8.66135
887.606	43.1014
890.98	43.5067
894.355	21.2079
897.73	44.1733
901.105	31.3786
904.48	57.2015
907.854	78.407
911.229	109.654
914.604	104.626
917.979	72.7409
921.354	46.5334
924.729	29.5348
928.103	11.0464
931.478	34.9671
934.853	24.7708
938.228	0.232452
941.602	11.256
944.977	17.9654
948.352	39.7646
951.727	56.4368
955.102	78.5809
958.477	99.7626
961.851	150.283
965.226	224.143
968.601	303.485
971.976	523.939
975.351	899.584
978.726	1560.89
982.1	2794.47
985.475	4415.3
988.85	5740.77
992.225	5523.83
995.6	3518.19
998.974	1291.66
1002.35	569.949
1005.72	315.269
1009.1	175.719
1012.47	108.365
1015.85	80.1377
1019.22	59.6992
1022.6	13.7259
1025.97	21.9727
1029.35	8.91339
1032.72	27.5657
1036.1	1.21674
1039.47	22.8263
1042.85	1.03479
1046.22	4.50153
1049.6	2.62222
1052.97	22.6917
1056.35	9.83255
1059.72	48.6921
1063.1	52.7385
1066.47	73.349
1069.85	136.562
1073.22	182.472
1076.6	221.482
1079.97	245.763
1083.35	275.714
1086.72	276.864
1090.09	222.45
1093.47	215.388
1096.84	220.444
1100.22	262.214
1103.59	287.581
1106.97	320.673
1110.34	369.217
1113.72	422.229
1117.09	483.452
1120.47	610.841
1123.84	688.079
1127.22	813.576
1130.59	894.82
1133.97	789.29
1137.34	599.145
1140.72	384.221
1144.09	259.135
1147.47	187.665
1150.84	139.144
1154.22	115.241
1157.59	119.716
1160.97	136.398
1164.34	159.375
1167.71	153.326
1171.09	164.392
1174.46	122.555
1177.84	84.693
1181.21	24.5266
1184.59	15.7023
1187.96	7.9848
1191.34	16.992
1194.71	4.24747
1198.09	4.08951
1201.46	8.69284
1204.84	0.802032
1208.21	1.49484
1211.59	24.3156
1214.96	2.88614
1218.34	12.3347
1221.71	11.6093
1225.09	26.6813
1228.46	18.463
1231.84	5.13519
1235.21	2.2966
1238.59	28.5213
1241.96	26.5257
1245.34	36.6849
1248.71	16.5343
1252.09	24.3896
1255.46	18.8798
1258.84	27.1656
1262.21	7.62826
1265.59	1.05518
1268.96	40.5982
1272.33	30.8358
1275.71	13.6229
1279.08	23.1883
1282.46	11.2861
1285.83	7.80042
1289.21	29.4627
1292.58	15.2883
1295.96	0
