Measurement: Raman, 785 nm, unoriented, Raman Data Processed
Mineral: Orthoclase
Rruff sample: R070001
Ideal chemistry: KAlSi_3_O_8_
Locality: Lengenbach Quarry, Binnental, Valais, Switzerland
Source: Michael Scott
Description: Colorless single crystal with a habit similar to adularia
Measured chemistry: (K_0.92_Na_0.07_Ba_0.01_)_Σ=1_Al_1.01_Si_2.99_O_8_; darker core :  (K_0.91_Na_0.07_Ba_0.02_)_Σ=1_Al_1.02_Si_2.98_O_8_ ; lighter rim
Raman shift (cm-1)	intensity
138.666	0
141.559	30.7914
144.452	169.872
147.344	436.243
150.237	723.271
153.13	978.483
156.022	1000.95
158.915	799.182
161.808	554.618
164.701	423.424
167.593	371.747
170.486	366.198
173.379	380.911
176.271	361.047
179.164	283.045
182.057	184.017
184.949	165.755
187.842	106.864
190.735	83.5224
193.627	102.355
196.52	104.326
199.413	75.8725
202.306	24.7429
205.198	4.93189
208.091	3.40417
210.984	31.0867
213.876	3.59393
216.769	13.6935
219.662	2.24445
222.554	12.2194
225.447	8.92169
228.34	6.16333
231.232	2.38104
234.125	0.653198
237.018	30.7751
239.911	49.3766
242.803	90.9631
245.696	126.377
248.589	184.597
251.481	273.57
254.374	341.75
257.267	436.068
260.159	554.09
263.052	626.142
265.945	746.702
268.838	832.714
271.73	894.422
274.623	1061.18
277.516	1222.84
280.408	1335.94
283.301	1398.21
286.194	1288.59
289.087	1036.77
291.979	754.326
294.872	540.955
297.765	376.813
300.657	251.933
303.55	173.952
306.443	152.106
309.335	94.5076
312.228	69.4006
315.121	42.3763
318.014	37.3451
320.906	38.0721
323.799	14.3127
326.692	10.686
329.584	44.3002
332.477	37.2555
335.37	9.96448
338.262	9.63403
341.155	11.8749
344.048	3.82007
346.94	9.44763
349.833	24.6979
352.726	38.0855
355.619	54.0183
358.511	82.5496
361.404	108.761
364.297	127.73
367.189	138.884
370.082	150.891
372.975	127.489
375.868	104.04
378.76	95.3133
381.653	68.1267
384.546	60.4564
387.438	91.2915
390.331	134.076
393.224	187.465
396.116	232.705
399.009	317.153
401.902	315.923
404.795	337.425
407.687	262.348
410.58	187.879
413.473	105.87
416.365	26.4603
419.258	7.44128
422.151	30.5386
425.043	26.3627
427.936	42.6393
430.829	10.1739
433.721	16.6567
436.614	54.0643
439.507	178.3
442.4	291.769
445.292	466.781
448.185	662.939
451.078	892.947
453.97	1003.01
456.863	1025.38
459.756	1063.65
462.649	1230.5
465.541	1522.24
468.434	1938.41
471.327	2541.73
474.219	2787.46
477.112	2504.55
480.005	1802.46
482.897	1303.22
485.79	963.09
488.683	838.14
491.575	770.378
494.468	869.106
497.361	1258.85
500.254	1906.1
503.146	2896.49
506.039	4307
508.932	6256.59
511.824	8046.1
514.717	7753.57
517.61	5308.66
520.503	3079.46
523.395	1749.35
526.288	1092.19
529.181	716.242
532.073	452.942
534.966	340.98
537.859	218.817
540.751	158.584
543.644	73.9134
546.537	36.6525
549.429	53.7792
552.322	22.8774
555.215	10.8706
558.107	20.8462
561	11.8811
563.893	5.47314
566.786	17.8221
569.678	19.056
572.571	25.3099
575.464	17.234
578.356	22.5171
581.249	24.5975
584.142	50.1168
587.034	24.3994
589.927	5.88074
592.82	28.2101
595.713	68.0892
598.605	8.36755
601.498	53.9471
604.391	51.2434
607.283	46.2172
610.176	65.0033
613.069	34.5926
615.962	42.3566
618.854	27.8158
621.747	34.6108
624.64	23.1594
627.532	3.02173
630.425	60.6847
633.318	44.1666
636.21	14.8509
639.103	12.8048
641.996	25.2787
644.889	33.2778
647.781	16.5236
650.674	51.2487
653.567	38.6589
656.459	43.866
659.352	50.7477
662.245	10.8346
665.138	40.4166
668.03	47.9341
670.923	4.59802
673.816	25.2241
676.708	25.2717
679.601	0.283691
682.494	7.35742
685.386	0.480957
688.279	25.731
691.172	7.5
694.064	20.9434
696.957	17.3557
699.85	45.6072
702.743	34.908
705.635	60.1814
708.528	68.1177
711.421	102.135
714.313	100.544
717.206	128.55
720.099	134.568
722.991	118.567
725.884	121.52
728.777	175.896
731.67	166.193
734.562	168.439
737.455	208.005
740.348	241.596
743.24	235.737
746.133	279.01
749.026	303.149
751.918	301.341
754.811	249.913
757.704	231.422
760.596	217.874
763.489	235.872
766.382	176.465
769.275	174.842
772.167	140.507
775.06	131.248
777.953	112.216
780.845	77.1797
783.738	102.922
786.631	102.398
789.524	119.06
792.416	145.595
795.309	121.775
798.202	132.045
801.094	150.271
803.987	115.894
806.88	141.912
809.772	142.252
812.665	91.6812
815.558	91.5979
818.451	75.196
821.343	49.0835
824.236	8.44141
827.129	28.9936
830.021	3.74316
832.914	15.3232
835.807	1.68384
838.699	20.2661
841.592	30.977
844.485	23.8477
847.378	26.1057
850.27	34.2615
853.163	4.22778
856.056	27.3557
858.948	10.6006
861.841	12.6018
864.734	27.8738
867.626	37.2185
870.519	35.3235
873.412	12.6643
876.304	20.5264
879.197	48.2581
882.09	49.7895
884.983	20.1245
887.875	4.87793
890.768	12.6321
893.661	35.9268
896.553	37.4949
899.446	27.563
902.339	25.6206
905.231	45.456
908.124	28.5601
911.017	37.1553
913.91	41.5742
916.802	24.1702
919.695	4.03955
922.588	22.6697
925.48	41.0464
928.373	37.2305
931.266	53.7105
934.159	46.1362
937.051	64.9043
939.944	68.4561
942.837	9.125
945.729	29.197
948.622	35.3977
951.515	4.47046
954.407	20.0623
957.3	6.43945
960.193	6.573
963.085	72.9531
965.978	26.5942
968.871	5.80518
971.764	1.16846
974.656	12.4653
977.549	56.9316
980.442	86.7331
983.334	101.79
986.227	79.7729
989.12	94.9763
992.013	85.6953
994.905	124.272
997.798	171.293
1000.69	145.333
1003.58	106.553
1006.48	140.855
1009.37	94.4519
1012.26	98.4441
1015.15	86.9219
1018.05	86.1165
1020.94	87.4365
1023.83	46.458
1026.72	72.2019
1029.62	39.1641
1032.51	44.6843
1035.4	50.238
1038.3	49.1728
1041.19	21.7227
1044.08	72.2686
1046.97	30.5959
1049.87	65.3613
1052.76	77.8425
1055.65	73.3088
1058.55	43.1028
1061.44	69.9893
1064.33	43.095
1067.22	31.5959
1070.12	13.6421
1073.01	7.38135
1075.9	14.1084
1078.79	28.551
1081.69	63.363
1084.58	96.9868
1087.47	63.7881
1090.36	116.104
1093.26	106.045
1096.15	118.414
1099.04	179.315
1101.93	125.258
1104.83	200.963
1107.72	260.101
1110.61	320.178
1113.51	370.392
1116.4	357.408
1119.29	410.211
1122.18	427.342
1125.08	435.123
1127.97	454.462
1130.86	376.467
1133.76	379.826
1136.65	291.773
1139.54	297.822
1142.43	268.978
1145.33	266.051
1148.22	214.326
1151.11	173.778
1154	127.655
1156.9	94.1538
1159.79	109.444
1162.68	59.7727
1165.57	52.325
1168.47	39.0618
1171.36	63.8394
1174.25	80.7869
1177.14	46.5466
1180.04	17.8784
1182.93	18.2754
1185.82	0.763672
1188.72	21.2815
1191.61	15.7173
1194.5	7.61206
1197.39	34.7322
1200.29	26.6526
1203.18	32.8201
1206.07	36.7295
1208.96	22.5308
1211.86	33.2761
1214.75	9.66479
1217.64	31.2607
1220.54	63.3916
1223.43	27.4319
1226.32	71.1099
1229.21	52.332
1232.11	66.7986
1235	15.8147
1237.89	49.3721
1240.79	31.969
1243.68	10.419
