Measurement: Raman, 514 nm, unoriented, Raman Data Processed
Mineral: Orthoclase
Rruff sample: R040055
Ideal chemistry: KAlSi_3_O_8_
Locality: Madagascar
Source: Bob Downs
Description: Pale yellow fragments
Measured chemistry: Light: K_0.96_(Al_0.96_Si_0.03_Fe_0.02_)Si_3.00_O_8_; dark: (K_0.90_Na_0.02_)(Al_0.91_Si_0.08_Fe_0.02_)Si_3.00_O_8
Raman shift (cm-1)	intensity
128.146	0
132.309	975.387
136.47	4364.56
140.63	8481.56
144.787	10145.5
148.942	14604.8
153.096	20566.7
157.247	22550
161.396	17415.1
165.544	10316.6
169.689	5993.69
173.833	3944.76
177.974	2502.2
182.114	1961.84
186.251	1225.69
190.387	565.072
194.52	356.662
198.652	203.031
202.782	87.393
206.909	288.225
211.035	281.84
215.159	185.725
219.281	251.076
223.4	353.994
227.518	219.949
231.634	114.199
235.748	22.709
239.86	175.945
243.97	679.178
248.079	1038.6
252.185	1530.46
256.289	2982.14
260.391	3851.69
264.492	5280.07
268.59	7312.05
272.687	9942.15
276.781	12173.9
280.874	14153
284.964	13489.2
289.053	10190.6
293.14	6808.66
297.225	4127.42
301.308	2798.05
305.389	2048.82
309.468	1481.72
313.545	1253.46
317.62	1068.42
321.693	1360.76
325.765	1355.15
329.834	1091.98
333.902	1225.4
337.967	1059.54
342.031	1097.82
346.093	1211.12
350.153	1089.08
354.21	1202.55
358.267	1267.89
362.321	1195.25
366.373	1244.33
370.423	999.393
374.471	539.633
378.518	257.82
382.563	232.172
386.605	115.145
390.646	21.689
394.685	201.422
398.722	428.811
402.757	293.9
406.79	261.199
410.821	330.523
414.851	121.186
418.878	124.611
422.904	29.955
426.927	12.402
430.949	158.939
434.969	414.029
438.987	410.91
443.003	1075.54
447.018	1919.06
451.03	2492.54
455.041	3151.01
459.049	2601.37
463.056	3055.85
467.061	4470.08
471.064	7022.85
475.065	9081.63
479.064	7380.6
483.062	5443.85
487.057	4205.44
491.051	3742.61
495.043	3833.06
499.032	5057.01
503.02	9155.06
507.007	18257.3
510.991	30168.8
514.973	31374.2
518.954	20080.5
522.933	10358.4
526.91	5419.62
530.885	3218.28
534.858	2021.04
538.829	1570.4
542.799	1039.34
546.766	920.467
550.732	706.531
554.696	599.51
558.658	447.295
562.618	227.297
566.576	345.582
570.533	375.777
574.488	198.561
578.44	425.859
582.391	478.648
586.341	229.26
590.288	345.328
594.233	153.873
598.177	468.605
602.119	340.428
606.059	365.91
609.997	113.057
613.933	452.848
617.868	353.307
621.801	642.438
625.731	560.242
629.66	1074.74
633.588	1103.94
637.513	575.863
641.437	610.484
645.358	323.818
649.278	392.867
653.196	94.623
657.113	226.029
661.027	173.047
664.94	21.818
668.851	370.021
672.76	19.525
676.667	88.408
680.572	217.5
684.476	375.441
688.378	9.564
692.278	64.543
696.176	430.807
700.072	569.145
703.967	140.447
707.86	539.391
711.751	576.885
715.64	244.939
719.527	322.176
723.413	340.223
727.297	223.266
731.179	575.797
735.059	487.012
738.937	783.633
742.814	775.781
746.689	1092.02
750.562	1015.85
754.433	757.062
758.303	886.848
762.17	1211.35
766.036	1133.55
769.901	776.684
773.763	915.074
777.624	1053.11
781.482	775.289
785.339	642.707
789.195	676.707
793.048	932.258
796.9	1132.44
800.75	1017.07
804.598	1009.54
808.445	1729.53
812.289	1291
816.132	1059.97
819.973	425.453
823.813	493.875
827.65	123.09
831.486	459.707
835.32	41.094
839.152	244.074
842.983	474.66
846.812	468.711
850.639	12.254
854.464	148.453
858.288	336.801
862.11	86.902
865.93	146.488
869.748	232.703
873.564	175.688
877.379	198.578
881.192	68.297
885.004	171.078
888.813	65.25
892.621	113.09
896.427	23.645
900.232	323.41
904.034	42.746
907.835	274.914
911.634	23.582
915.432	147.27
919.227	14.949
923.021	271.758
926.813	453.281
930.604	152.73
934.393	21.902
938.18	7.363
941.965	245.52
945.749	561.312
949.53	513.629
953.311	627.594
957.089	554.555
960.866	553.496
964.641	438.512
968.414	783.949
972.185	824.449
975.955	679.047
979.723	619.672
983.49	814.668
987.254	1370.29
991.017	1410.27
994.779	1373.99
998.538	1479.04
1002.3	1942.77
1006.05	1347.8
1009.81	1212.13
1013.56	1468.39
1017.31	1293.85
1021.06	1214.31
1024.81	1204.01
1028.55	1257.29
1032.3	1270.11
1036.04	940.992
1039.78	864.297
1043.52	676.523
1047.26	784.012
1050.99	1083.2
1054.73	846.508
1058.46	1094.34
1062.19	557.344
1065.92	408.344
1069.65	816.926
1073.37	777.957
1077.1	759.543
1080.82	1232.56
1084.54	944.715
1088.26	1153.69
1091.97	916.754
1095.69	937.984
1099.4	1097.74
1103.12	840.453
1106.83	1134.32
1110.54	888.641
1114.24	1153.86
1117.95	1533.35
1121.65	2106.05
1125.35	2257.89
1129.06	2246.75
1132.75	2193.5
1136.45	1714.97
1140.15	1902.29
1143.84	1477.8
1147.53	1602.74
1151.22	1116
1154.91	1234.2
1158.6	721.648
1162.28	979.691
1165.97	876.367
1169.65	901.188
1173.33	376.688
1177.01	1000.82
1180.69	536.5
1184.36	614.801
1188.04	261.988
1191.71	263.691
1195.38	73.848
1199.05	505.258
1202.71	348.598
1206.38	622.098
1210.04	224.688
1213.71	321.539
1217.37	566.102
1221.03	98.801
1224.68	231.938
1228.34	267.723
1231.99	502.395
1235.65	636.477
1239.3	799.523
1242.95	514.352
1246.59	211.805
1250.24	71.957
1253.88	132.66
1257.53	56.637
1261.17	144.355
1264.81	347.012
1268.45	301.477
1272.08	73.602
1275.72	245.426
1279.35	15.039
1282.98	296.891
1286.61	305.648
1290.24	199.676
1293.87	42.145
1297.49	263.52
1301.11	292.527
1304.73	137.57
1308.36	349.414
1311.97	466.52
1315.59	82.867
1319.2	333.535
1322.82	90.578
1326.43	19.312
1330.04	33.582
1333.65	59
1337.26	405.309
1340.86	279.219
1344.47	599.898
1348.07	676.992
1351.67	571.535
1355.27	1059.38
1358.87	1127.43
1362.46	983.434
1366.06	1042.87
1369.65	1072.65
1373.24	886.16
1376.83	952.043
1380.42	484.242
1384	523.855
1387.59	776
1391.17	672.703
1394.75	369.844
1398.33	647.789
1401.91	233.977
1405.49	463.926
1409.06	19.461
1412.64	200.781
1416.21	651.832
1419.78	41.637
1423.35	591.832
1426.91	392.77
1430.48	195.418
1434.05	471.855
1437.61	689.016
1441.17	295.641
1444.73	73.938
1448.29	114.664
