Measurement: Raman, 780 nm, unoriented, Raman Data Processed
Mineral: Orthoclase
Rruff sample: R060077
Ideal chemistry: KAlSi_3_O_8_
Locality: pegmatite near Minh Tien, 15 km south of Luc Yen, Vietnam
Source: Marcus Origlieri
Description: Green fragment. Crystal structure determined to demonstrate that it is orthoclase
Measured chemistry: (K_0.88_Na_0.12_)AlSi_3_O_8_
Raman shift (cm-1)	intensity
109.859	0
113.234	4.26123
116.608	74.8926
119.983	176.625
123.358	218.247
126.733	172.947
130.108	262.707
133.482	565.286
136.857	1037.66
140.232	1516.24
143.607	1681.88
146.982	1761.86
150.357	2066.56
153.731	2564.07
157.106	3064.87
160.481	2978.12
163.856	2286.41
167.231	1584.17
170.606	1134.24
173.98	909.089
177.355	701.574
180.73	479.014
184.105	334.231
187.48	272.846
190.854	232.117
194.229	282.237
197.604	297.36
200.979	167.602
204.354	56.8833
207.728	22.2632
211.103	23.0879
214.478	20.9531
217.853	10.7588
221.228	13.6748
224.602	1.78711
227.977	9.02832
231.352	22.8301
234.727	43.8799
238.102	85.4219
241.477	133.133
244.851	179.398
248.226	242.183
251.601	363.816
254.976	483.97
258.351	676.648
261.726	908.859
265.1	1174.72
268.475	1392.46
271.85	1714.24
275.225	2022.62
278.6	2289.73
281.974	2240.4
285.349	1745.71
288.724	1174.54
292.099	768.988
295.474	490.685
298.849	264.017
302.223	156.167
305.598	87.3555
308.973	30.667
312.348	33.5137
315.723	10.6699
319.097	27.5742
322.472	8.47266
325.847	9.97656
329.222	32.9736
332.597	37.6152
335.971	26.9736
339.346	100.336
342.721	64.79
346.096	51.0098
349.471	50.5693
352.846	43.666
356.22	39.9815
359.595	80.2647
362.97	75.3799
366.345	51.3213
369.72	28.5498
373.094	66.8926
376.469	21.9014
379.844	44.6191
383.219	46.6103
386.594	27.249
389.969	0.951172
393.343	4.66992
396.718	13.9922
400.093	53.4736
403.468	36.625
406.843	55.6572
410.217	13.916
413.592	37.8193
416.967	12.5879
420.342	30.8906
423.717	24.0547
427.091	34.7871
430.466	32.4971
433.841	91.7861
437.216	122.037
440.591	170.269
443.966	231.654
447.34	329.062
450.715	463.123
454.09	495.154
457.465	498.58
460.84	502.85
464.214	626.127
467.589	804.9
470.964	1099.98
474.339	1296.21
477.714	1111.19
481.089	791.049
484.463	584.881
487.838	509.295
491.213	538.207
494.588	675.482
497.963	991.182
501.337	1385.53
504.712	2047.73
508.087	3094.18
511.462	4293.2
514.837	4105.61
518.212	2528.3
521.586	1308.22
524.961	714.898
528.336	429.201
531.711	335.102
535.086	131.606
538.46	71.2773
541.835	45.5312
545.21	56.4863
548.585	29.3262
551.96	51.5234
555.335	34.8457
558.709	12.293
562.084	42.8398
565.459	16.4492
568.834	28.0332
572.209	68.4629
575.583	41.8281
578.958	31.6406
582.333	82.2773
585.708	34.7051
589.083	144.682
592.457	49.5488
595.832	43.4883
599.207	86.5234
602.582	91.3867
605.957	139.83
609.332	106.51
612.706	115.4
616.081	182.127
619.456	199.41
622.831	126.603
626.206	164.457
629.58	243.984
632.955	165.91
636.33	248.537
639.705	140.793
643.08	134.666
646.455	69.8594
649.829	80.6719
653.204	109.803
656.579	26.9004
659.954	44.8945
663.329	40.0488
666.703	9.91406
670.078	49.0996
673.453	45.6445
676.828	9.58398
680.203	41.3184
683.577	19.1191
686.952	82.5703
690.327	69.2812
693.702	108.002
697.077	18.1309
700.452	11.4941
703.826	8.96094
707.201	9.85938
710.576	35.3594
713.951	24.0078
717.326	44.084
720.701	94.9961
724.075	72.5371
727.45	34.1406
730.825	5.98828
734.2	109.961
737.575	86.1699
740.949	151.055
744.324	126.344
747.699	78.0508
751.074	123.297
754.449	69.168
757.823	98.4258
761.198	26.4766
764.573	22.8281
767.948	48.3594
771.323	29.8203
774.698	55.3906
778.072	34.9648
781.447	60.8633
784.822	28.4883
788.197	0.535156
791.572	74.0586
794.947	91.7344
798.321	114.875
801.696	64.8125
805.071	4.57031
808.446	185.074
811.821	190.688
815.195	122.371
818.57	109.066
821.945	105.305
825.32	47.8906
828.695	32.5273
832.069	69.7227
835.444	61.3086
838.819	119.519
842.194	194.531
845.569	245.859
848.943	121.477
852.318	111.168
855.693	153.102
859.068	76.8672
862.443	13.9453
865.818	118.238
869.192	105.793
872.567	63.7109
875.942	14.0977
879.317	49.9922
882.692	12.1914
886.067	56.8359
889.441	61.5664
892.816	41.4414
896.191	3.32031
899.566	68.8867
902.941	115.148
906.315	16.8164
909.69	68.6602
913.065	70.6211
916.44	49.6016
919.815	125.684
923.189	111.019
926.564	19.2227
929.939	45.4688
933.314	15.5078
936.689	40.8125
940.063	83.6211
943.438	75.8516
946.813	77.8242
950.188	62.4648
953.563	38.5625
956.938	45.9609
960.312	78.2227
963.687	106.141
967.062	49.582
970.437	126.106
973.812	23.2617
977.187	30.2148
980.561	12.5234
983.936	86.8477
987.311	34.0273
990.686	193.043
994.061	116.742
997.435	141.106
1000.81	139.176
1004.18	139.691
1007.56	198.539
1010.93	164.164
1014.31	113.582
1017.68	218.875
1021.06	154.723
1024.43	126.848
1027.81	104.269
1031.18	121.703
1034.56	156.574
1037.93	237.766
1041.31	85.3477
1044.68	159.242
1048.06	84.8516
1051.43	222.371
1054.81	204.031
1058.18	253.652
1061.56	311.531
1064.93	148.773
1068.31	186.516
1071.68	195.555
1075.06	145.891
1078.43	140.574
1081.81	122.238
1085.18	173.828
1088.56	166.152
1091.93	226.293
1095.31	191.348
1098.68	101.438
1102.06	119.188
1105.43	28.1875
1108.8	35.2031
1112.18	121.07
1115.55	18.6328
1118.93	61.4609
1122.3	1.23438
1125.68	17.8086
1129.05	16.0117
1132.43	89.9531
1135.8	154.102
1139.18	124.656
1142.55	202.973
1145.93	100.648
1149.3	82.082
1152.68	89.1406
1156.05	154.719
1159.43	177.715
1162.8	291.785
1166.18	237.543
1169.55	239.309
1172.93	193.059
1176.3	195.191
1179.68	257.254
1183.05	162.902
1186.42	207.269
1189.8	244.555
1193.17	236.348
1196.55	258.262
1199.92	291.039
1203.3	233.504
1206.67	244.551
1210.05	131.531
1213.42	176.269
1216.8	146.629
1220.17	57.2305
1223.55	55.5156
1226.92	93.0469
1230.3	110.598
1233.67	46.6758
1237.05	22.3906
1240.42	15.3984
1243.8	21.7852
1247.17	135.301
1250.55	82.375
1253.92	44.7969
1257.3	61.6641
1260.67	6.69922
1264.05	7.84375
1267.42	183.144
1270.8	206.019
1274.17	201.508
1277.55	66.0625
1280.92	61.5
1284.3	0
