Measurement: Raman, 785 nm, unoriented, Raman Data Processed
Mineral: Orthoserpierite
Rruff sample: R060793
Ideal chemistry: CaCu_4_(SO_4_)_2_(OH)_6_3H_2_O
Locality: Mi Fiel Rosita mine, Bolsico District, Copiapo, Chile
Source: Bob Jenkins
Description: Light blue aggregate of lathlike crystals
Raman shift (cm-1)	intensity
89.708	0
93.083	1.12106
96.458	19.4886
99.832	15.3008
103.207	10.1146
106.582	22.7468
109.957	15.7463
113.332	4.09238
116.706	1.45109
120.081	2.60233
123.456	1.20435
126.831	4.98808
130.206	16.6437
133.581	16.7838
136.955	2.90931
140.33	18.3468
143.705	29.6116
147.08	50.6492
150.455	47.1913
153.829	52.0227
157.204	38.3103
160.579	46.8724
163.954	56.9394
167.329	52.288
170.704	56.706
174.078	49.3431
177.453	28.357
180.828	29.3302
184.203	32.9365
187.578	25.7741
190.952	24.2957
194.327	22.4747
197.702	28.153
201.077	28.1197
204.452	17.2719
207.827	38.1195
211.201	35.5919
214.576	48.5417
217.951	38.9248
221.326	48.7123
224.701	50.1633
228.076	49.0959
231.45	40.2701
234.825	59.5934
238.2	63.2255
241.575	75.6956
244.95	75.6085
248.324	74.5596
251.699	75.3153
255.074	80.5877
258.449	52.1281
261.824	40.691
265.198	26.9209
268.573	19.0707
271.948	18.3894
275.323	14.2233
278.698	10.3021
282.073	1.31715
285.447	0.40007
288.822	4.73112
292.197	1.09223
295.572	4.79627
298.947	12.1935
302.321	12.8297
305.696	12.0242
309.071	26.7544
312.446	21.7916
315.821	42.2216
319.195	44.1761
322.57	43.233
325.945	41.8476
329.32	45.7212
332.695	41.9588
336.07	36.0628
339.444	30.5174
342.819	28.0408
346.194	20.214
349.569	14.6143
352.944	21.4353
356.319	7.02872
359.693	4.58086
363.068	8.09577
366.443	2.58362
369.818	0.672676
373.193	3.38934
376.567	3.56206
379.942	4.521
383.317	5.97167
386.692	11.4382
390.067	13.1583
393.441	22.4463
396.816	26.1353
400.191	36.9909
403.566	60.7162
406.941	57.8703
410.316	77.2988
413.69	97.7571
417.065	134.126
420.44	155.608
423.815	167.45
427.19	148.36
430.565	136.344
433.939	125.966
437.314	102.491
440.689	109.001
444.064	105.722
447.439	90.6443
450.813	80.4464
454.188	89.8291
457.563	90.5689
460.938	86.452
464.313	74.5637
467.687	79.9705
471.062	90.5131
474.437	111.63
477.812	108.95
481.187	105.826
484.561	101.457
487.936	109.168
491.311	85.6816
494.686	56.927
498.061	53.7101
501.436	34.0785
504.81	27.9966
508.185	16.5101
511.56	1.2459
514.935	11.2332
518.31	6.62326
521.685	4.30357
525.059	7.95653
528.434	6.84061
531.809	2.67959
535.184	7.15787
538.559	5.47782
541.933	1.20435
545.308	0.442909
548.683	1.47584
552.058	9.48938
555.433	4.62237
558.807	8.94887
562.182	13.6429
565.557	15.7963
568.932	2.17631
572.307	9.21071
575.682	27.646
579.056	8.39823
582.431	20.0268
585.806	23.6027
589.181	28.9167
592.556	39.3897
595.93	60.0104
599.305	62.4895
602.68	75.7925
606.055	87.2794
609.43	73.2097
612.805	79.7759
616.179	61.3323
619.554	41.5667
622.929	25.6428
626.304	23.2964
629.679	14.032
633.054	28.9375
636.428	28.2963
639.803	25.8052
643.178	47.4145
646.553	30.196
649.928	30.5607
653.302	18.5724
656.677	0.931839
660.052	13.5055
663.427	13.6112
666.802	0.660912
670.177	9.70125
673.551	17.2159
676.926	5.75208
680.301	16.4817
683.676	10.0879
687.05	5.47994
690.425	9.36034
693.8	16.7074
697.175	9.39944
700.55	2.83872
703.925	12.0404
707.299	1.51519
710.674	7.10985
714.049	4.81512
717.424	12.0935
720.799	5.93444
724.174	15.5311
727.548	19.1258
730.923	14.8748
734.298	4.61295
737.673	7.84283
741.048	3.81521
744.422	2.54593
747.797	7.33961
751.172	8.29483
754.547	9.93936
757.922	5.51272
761.297	15.8538
764.671	14.0364
768.046	4.98917
771.421	5.25514
774.796	1.63247
778.171	6.55543
781.545	0.609848
784.92	6.11312
788.295	7.58313
791.67	5.12244
795.045	10.1473
798.419	0.975883
801.794	2.56889
805.169	6.96213
808.544	18.5166
811.919	11.7346
815.294	11.6831
818.668	11.9721
822.043	10.0145
825.418	3.79669
828.793	2.87084
832.168	13.5123
835.542	18.1233
838.917	1.45439
842.292	8.90758
845.667	11.245
849.042	14.5149
852.417	19.4821
855.791	9.85987
859.166	15.0255
862.541	8.51343
865.916	3.3047
869.291	8.18001
872.665	1.15488
876.04	0.51429
879.415	1.47524
882.79	13.0342
886.165	12.341
889.539	3.82909
892.914	9.16801
896.289	9.95927
899.664	1.14468
903.039	2.27752
906.414	13.3974
909.788	5.06884
913.163	1.60509
916.538	8.45052
919.913	1.84715
923.288	6.23878
926.662	2.73373
930.037	4.65696
933.412	2.06604
936.787	10.7415
940.162	5.71976
943.537	14.8154
946.911	1.71354
950.286	11.7155
953.661	19.3256
957.036	23.1471
960.411	17.5354
963.786	24.3349
967.16	44.9817
970.535	51.7674
973.91	98.875
977.285	193.786
980.659	370.858
984.034	719.931
987.409	874.262
990.784	582.436
994.159	259.383
997.534	116.908
1000.91	52.7434
1004.28	33.9592
1007.66	32.1934
1011.03	25.4327
1014.41	14.6257
1017.78	13.3324
1021.16	5.73397
1024.53	1.64668
1027.91	2.71853
1031.28	5.34515
1034.66	5.14548
1038.03	1.58427
1041.41	9.94462
1044.78	16.5558
1048.16	17.2705
1051.53	17.2482
1054.91	8.18153
1058.28	20.3681
1061.65	27.0902
1065.03	26.0587
1068.4	37.4003
1071.78	34.6034
1075.15	37.4615
1078.53	25.8344
1081.9	27.7539
1085.28	21.0927
1088.65	4.18382
1092.03	13.9345
1095.4	7.22186
1098.78	5.06055
1102.15	14.4296
1105.53	13.7533
1108.9	24.4113
1112.28	32.6824
1115.65	38.8399
1119.03	43.5998
1122.4	52.6689
1125.78	58.949
1129.15	64.9107
1132.53	62.3293
1135.9	42.0047
1139.28	35.5641
1142.65	24.9861
1146.03	23.256
1149.4	11.9783
1152.78	17.9806
1156.15	21.808
1159.53	8.93402
1162.9	8.44279
1166.27	5.61259
1169.65	12.173
1173.02	18.7598
1176.4	4.7553
1179.77	6.51837
1183.15	9.51282
1186.52	11.8939
1189.9	6.73186
1193.27	7.57362
1196.65	4.64539
1200.02	14.9553
1203.4	21.659
1206.77	2.32627
1210.15	3.26599
1213.52	6.42728
1216.9	12.7426
1220.27	18.1571
1223.65	22.152
1227.02	25.8786
1230.4	19.5348
1233.77	24.1666
1237.15	14.5496
1240.52	10.0262
1243.89	1.96124
1247.27	10.0851
1250.64	15.8231
1254.02	21.1107
1257.39	16.7011
1260.77	13.3663
1264.14	19.3633
1267.52	19.6559
1270.89	13.2642
