Measurement: Raman, 532 nm, unoriented, Raman Data Processed
Mineral: Osarizawaite
Rruff sample: R060395
Ideal chemistry: CuPbAl_2_(SO_4_)_2_(OH)_6_
Locality: Silver Hill mine, Pima County, Arizona, USA
Source: Michael Scott
Description: Pale blue drusy coating
Raman shift (cm-1)	intensity
155.639	0
158.532	18.691
161.424	49.3629
164.317	73.9287
167.21	106.094
170.102	133.852
172.995	108.026
175.888	79.6301
178.78	50.9989
181.673	32.8663
184.566	25.451
187.459	31.1245
190.351	38.761
193.244	52.489
196.137	66.4554
199.029	76.3864
201.922	100.945
204.815	132.035
207.708	153.483
210.6	183.23
213.493	195.477
216.386	198.267
219.278	184.601
222.171	155.244
225.064	131.71
227.956	113.459
230.849	103.186
233.742	94.388
236.635	93.7336
239.527	94.2567
242.42	99.3359
245.313	96.6551
248.205	94.639
251.098	89.9347
253.991	76.9772
256.884	54.1783
259.776	33.9374
262.669	10.1802
265.562	1.72263
268.454	3.41855
271.347	5.18039
274.24	3.70712
277.132	4.80127
280.025	1.42071
282.918	1.31491
285.81	2.75827
288.703	5.52722
291.596	7.62085
294.489	7.60208
297.381	10.9052
300.274	9.99393
303.167	11.0076
306.059	11.7076
308.952	12.1258
311.845	10.663
314.738	9.57371
317.63	7.16075
320.523	6.37505
323.416	8.57115
326.308	3.7948
329.201	5.05467
332.094	4.35387
334.986	3.71783
337.879	0.602264
340.772	4.93356
343.665	6.05615
346.557	6.7547
349.45	10.4623
352.343	12.9969
355.235	17.3371
358.128	20.0413
361.021	21.0428
363.913	26.4139
366.806	29.4863
369.699	36.693
372.592	40.7503
375.484	45.3487
378.377	45.5194
381.27	45.9226
384.162	39.9257
387.055	35.5962
389.948	27.9368
392.841	18.2686
395.733	12.3677
398.626	6.17422
401.519	0.401917
404.411	1.16687
407.304	1.67804
410.197	4.94922
413.089	2.08374
415.982	0.782684
418.875	2.32696
421.767	6.95535
424.66	14.0115
427.553	28.8455
430.446	39.893
433.338	64.0645
436.231	92.8403
439.124	131.724
442.017	175.975
444.909	219.356
447.802	272.418
450.695	306.549
453.587	333.297
456.48	339.679
459.373	333.66
462.265	308.963
465.158	282.612
468.051	266.671
470.943	263.738
473.836	268.891
476.729	285.837
479.622	299.832
482.514	307.804
485.407	299.253
488.3	285.254
491.192	274.055
494.085	262.254
496.978	258.056
499.87	262.548
502.763	252.57
505.656	228.248
508.549	179.249
511.441	122.517
514.334	71.0802
517.227	38.2371
520.119	17.9656
523.012	6.73866
525.905	2.71294
528.798	0.651077
531.69	1.76611
534.583	0.258408
537.476	2.07947
540.368	3.83874
543.261	2.62895
546.154	0.179153
549.047	2.06285
551.939	3.1904
554.832	3.61809
557.725	9.22296
560.617	8.29794
563.51	15.9473
566.403	17.8508
569.295	24.0105
572.188	24.6871
575.081	27.0746
577.973	25.883
580.866	27.5054
583.759	26.6215
586.652	28.1312
589.544	31.0305
592.437	39.1198
595.33	44.0718
598.222	47.5222
601.115	58.0211
604.008	67.7446
606.901	79.1834
609.793	90.7341
612.686	106.471
615.579	117.162
618.471	135.939
621.364	153.078
624.257	183.304
627.149	211.03
630.042	241.442
632.935	273.267
635.828	297.242
638.72	298.211
641.613	267.117
644.506	230.811
647.398	204.534
650.291	193.607
653.184	182.483
656.077	158.857
658.969	120.982
661.862	79.0274
664.755	51.0331
667.647	34.8344
670.54	21.1069
673.433	13.0491
676.325	9.85295
679.218	4.02458
682.111	2.31274
685.004	1.49234
687.896	0.522003
690.789	1.84258
693.682	0.676056
696.574	1.6479
699.467	4.75299
702.36	0.181335
705.253	1.7655
708.145	1.69962
711.038	1.46623
713.931	0.339905
716.823	1.30748
719.716	0.322006
722.609	0.522339
725.501	3.22289
728.394	1.65891
731.287	1.53938
734.179	3.72284
737.072	4.02589
739.965	1.72464
742.858	0.695206
745.75	1.92651
748.643	2.03688
751.536	4.97134
754.428	1.44853
757.321	2.43991
760.214	0.370926
763.107	3.02838
765.999	0.15889
768.892	0.938431
771.785	1.33339
774.677	2.32695
777.57	0.634201
780.463	0.705658
783.356	0.625153
786.248	0.453629
789.141	0.657852
792.034	0.315414
794.926	1.41737
797.819	2.70486
800.712	1.59839
803.604	0.605637
806.497	2.28166
809.39	0.274323
812.283	0.522217
815.175	1.99734
818.068	1.14911
820.961	1.11327
823.853	2.08757
826.746	5.96991
829.639	6.36398
832.531	4.45136
835.424	6.70781
838.317	3.72255
841.21	5.8752
844.102	5.74297
846.995	3.679
849.888	5.93564
852.78	7.85025
855.673	9.53641
858.566	10.7197
861.458	11.8181
864.351	11.0856
867.244	12.3482
870.136	14.5136
873.029	17.1049
875.922	13.0167
878.815	16.7992
881.707	19.2371
884.6	21.0801
887.493	20.8388
890.385	20.1635
893.278	21.1385
896.171	21.408
899.064	20.3025
901.956	18.887
904.849	19.3026
907.742	16.9246
910.634	14.3398
913.527	9.3829
916.42	10.8633
919.312	8.84163
922.205	8.37016
925.098	5.0674
927.991	2.61519
930.883	0.221207
933.776	0.172821
936.669	0.855515
939.562	2.83943
942.454	1.44295
945.347	2.97337
948.24	1.6795
951.132	4.10468
954.025	3.73067
956.918	0.069366
959.81	6.21402
962.703	9.34979
965.596	17.5897
968.489	28.9235
971.381	44.0779
974.274	64.4587
977.167	97.3706
980.059	136.823
982.952	192.096
985.845	263.691
988.737	356.786
991.63	469.863
994.523	607.763
997.415	749.429
1000.31	852.052
1003.2	913.494
1006.09	959.978
1008.99	1037.31
1011.88	1143.34
1014.77	1282.15
1017.66	1390.83
1020.56	1325.64
1023.45	1011.62
1026.34	620.627
1029.23	339.225
1032.13	198.065
1035.02	123.195
1037.91	97.3126
1040.81	85.9993
1043.7	87.1311
1046.59	97.7226
1049.48	109.753
1052.38	118.066
1055.27	127.516
1058.16	125.356
1061.06	112.911
1063.95	90.5028
1066.84	75.1428
1069.73	59.2503
1072.63	45.969
1075.52	35.5165
1078.41	26.8969
1081.3	19.251
1084.2	11.7712
1087.09	2.47201
1089.98	0.901917
1092.88	0.461182
1095.77	1.50983
1098.66	4.5069
1101.55	1.36502
1104.45	2.65964
1107.34	1.1626
1110.23	2.12973
1113.12	5.58972
1116.02	14.299
1118.91	16.3912
1121.8	17.9051
1124.69	25.1875
1127.59	28.1124
1130.48	35.8395
1133.37	40.3263
1136.27	47.5591
1139.16	48.3339
1142.05	53.6401
1144.94	49.3734
1147.84	47.1456
1150.73	44.0594
1153.62	34.7292
1156.51	23.9504
1159.41	17.4217
1162.3	11.684
1165.19	4.27799
1168.09	1.72522
1170.98	0.798126
1173.87	0.281281
1176.76	5.89294
1179.66	8.47287
1182.55	11.807
1185.44	17.6617
1188.33	18.1413
1191.23	20.3108
1194.12	16.252
1197.01	17.1197
1199.9	11.9716
1202.8	11.4247
1205.69	8.82164
1208.58	6.17007
1211.48	5.30231
1214.37	4.92335
1217.26	3.77591
1220.15	4.77719
1223.05	5.62237
1225.94	5.80362
1228.83	6.92374
1231.72	5.69997
1234.62	3.33855
1237.51	0.702698
1240.4	1.14433
1243.3	0.7267
1246.19	2.45508
1249.08	0.724304
1251.97	0.475693
1254.87	7.27553
1257.76	7.92493
1260.65	13.0854
1263.54	12.9279
1266.44	16.1618
1269.33	22.5433
1272.22	22.5608
1275.12	21.514
1278.01	18.7319
1280.9	14.8463
1283.79	15.2714
1286.69	12.3665
1289.58	9.00935
1292.47	8.12424
1295.36	4.80473
1298.26	3.80099
1301.15	0.13324
