Measurement: Raman, 532 nm, unoriented, Raman Data Processed
Mineral: Osarizawaite
Rruff sample: R060401
Ideal chemistry: CuPbAl_2_(SO_4_)_2_(OH)_6_
Locality: Akita Prefecture, Japan
Source: American Museum of Natural History
Description: Yellowish-green granular mass
Raman shift (cm-1)	intensity
159.496	0
162.388	18.0827
165.281	22.8132
168.174	41.8593
171.067	35.1364
173.959	34.6339
176.852	20.3805
179.745	22.2479
182.637	19.1821
185.53	13.03
188.423	25.1689
191.315	37.2456
194.208	53.327
197.101	62.5483
199.994	86.6943
202.886	107.771
205.779	118.485
208.672	140.365
211.565	152.109
214.457	151.372
217.35	151.081
220.243	151.138
223.135	119.651
226.028	99.5604
228.921	82.1705
231.813	87.7272
234.706	73.36
237.599	84.98
240.492	74.9208
243.384	67.8827
246.277	60.6363
249.17	63.4475
252.062	55.0907
254.955	38.5651
257.848	20.6808
260.74	8.89215
263.633	4.21888
266.526	4.24701
269.418	0.84314
272.311	8.07486
275.204	2.4183
278.097	1.14841
280.989	12.2032
283.882	9.83749
286.775	4.8895
289.667	4.33966
292.56	5.98712
295.453	4.50885
298.346	4.98502
301.238	0.139282
304.131	8.11487
307.024	0.814392
309.916	3.99899
312.809	10.5908
315.702	-0.477704
318.594	8.17075
321.487	4.60236
324.38	15.571
327.273	15.6888
330.165	1.84656
333.058	5.12851
335.951	9.93771
338.843	13.8642
341.736	11.4859
344.629	24.2309
347.522	15.2416
350.414	14.8441
353.307	17.1321
356.2	23.9399
359.092	18.6504
361.985	18.6969
364.878	22.3537
367.77	27.9503
370.663	35.4034
373.556	29.6785
376.449	24.2293
379.341	26.7629
382.234	20.1708
385.127	30.4178
388.019	12.5874
390.912	15.0595
393.805	18.0865
396.697	4.17545
399.59	2.71185
402.483	5.82135
405.376	7.81006
408.268	2.0278
411.161	3.039
414.054	0.533752
416.946	2.14236
419.839	17.6711
422.732	7.63089
425.625	24.1101
428.517	37.5835
431.41	65.4981
434.303	81.0791
437.195	123.122
440.088	164.157
442.981	221.791
445.873	255.485
448.766	287.505
451.659	300.427
454.551	310.009
457.444	290.604
460.337	264.761
463.23	232.487
466.122	220.283
469.015	209.554
471.908	214.318
474.8	211.145
477.693	218.613
480.586	218.667
483.479	214.505
486.371	207.093
489.264	193.208
492.157	188.375
495.049	164.879
497.942	153.339
500.835	138.145
503.728	125.912
506.62	95.1975
509.513	57.9089
512.406	27.6224
515.298	19.2158
518.191	1.07657
521.084	5.04898
523.976	4.65543
526.869	11.0908
529.762	7.90497
532.654	2.02399
535.547	0.285156
538.44	4.0556
541.333	9.70111
544.225	19.9404
547.118	18.69
550.011	19.5258
552.903	31.6395
555.796	33.7988
558.689	47.6004
561.582	50.8247
564.474	58.6597
567.367	66.4711
570.26	76.9175
573.152	77.5109
576.045	75.084
578.938	67.45
581.83	71.4862
584.723	66.1368
587.616	59.1204
590.509	57.9942
593.401	62.3759
596.294	57.2552
599.187	67.3023
602.079	73.9721
604.972	77.4163
607.865	94.9533
610.758	97.1189
613.65	117.838
616.543	136.268
619.436	164.283
622.328	192.149
625.221	224.103
628.114	229.109
631.006	246.316
633.899	243.76
636.792	242.713
639.684	228.354
642.577	191.344
645.47	172.123
648.363	151.936
651.255	138.136
654.148	123.77
657.041	103.258
659.933	73.2013
662.826	47.3002
665.719	17.7303
668.612	16.2658
671.504	13.7341
674.397	1.67819
677.29	8.91019
680.182	1.78598
683.075	0.608063
685.968	2.87671
688.861	1.78732
691.753	3.80109
694.646	5.14224
697.539	5.69281
700.431	6.17178
703.324	3.9484
706.217	4.93042
709.109	3.62201
712.002	1.0748
714.895	1.21718
717.788	4.81442
720.68	4.53149
723.573	3.16562
726.466	14.9601
729.358	9.50263
732.251	8.74341
735.144	4.58633
738.036	12.0219
740.929	1.90408
743.822	12.5488
746.715	13.366
749.607	6.41623
752.5	13.1287
755.393	13.4506
758.285	10.006
761.178	7.21756
764.071	4.32745
766.963	9.86691
769.856	9.6478
772.749	5.25995
775.642	5.35644
778.534	3.03189
781.427	1.53876
784.32	0.970337
787.212	4.47555
790.105	3.63925
792.998	2.79166
795.89	1.72134
798.783	1.83868
801.676	6.34256
804.569	1.08972
807.461	4.11948
810.354	0.510315
813.247	8.03705
816.139	1.4736
819.032	3.21591
821.925	1.63712
824.818	11.4339
827.71	9.51126
830.603	11.9696
833.496	5.9866
836.388	5.76181
839.281	1.15356
842.174	6.95444
845.067	7.24316
847.959	13.3419
850.852	3.11343
853.745	6.25674
856.637	6.12988
859.53	14.8295
862.423	13.4966
865.315	10.6691
868.208	12.2611
871.101	15.8408
873.994	21.7138
876.886	18.9945
879.779	18.4936
882.672	23.9926
885.564	22.6945
888.457	17.0942
891.35	20.621
894.242	12.8899
897.135	26.3276
900.028	21.5942
902.92	16.9617
905.813	15.2986
908.706	20.2641
911.599	18.566
914.491	7.94687
917.384	10.4753
920.277	3.58481
923.169	9.99911
926.062	8.81683
928.955	10.1189
931.847	5.87424
934.74	2.91736
937.633	4.28564
940.526	1.88342
943.418	3.57165
946.311	0.805695
949.204	2.66421
952.096	5.27371
954.989	0.156372
957.882	4.21179
960.775	8.38925
963.667	10.0653
966.56	12.397
969.453	13.8261
972.345	28.1908
975.238	43.1637
978.131	60.641
981.024	93.9175
983.916	119.668
986.809	168.703
989.702	225.289
992.594	314.214
995.487	403.567
998.38	479.603
1001.27	523.874
1004.16	539.266
1007.06	569.53
1009.95	628.947
1012.84	697.189
1015.74	779.389
1018.63	770.296
1021.52	615.385
1024.41	417.367
1027.31	238.566
1030.2	144.486
1033.09	80.3214
1035.98	72.2708
1038.88	59.5416
1041.77	55.3035
1044.66	70.8459
1047.56	84.8966
1050.45	86.3605
1053.34	96.1671
1056.23	87.584
1059.13	86.2966
1062.02	78.5941
1064.91	62.0338
1067.81	56.9253
1070.7	47.424
1073.59	32.4363
1076.48	33.2754
1079.38	25.0112
1082.27	11.1666
1085.16	15.6035
1088.05	5.36249
1090.95	7.15479
1093.84	0.364746
1096.73	6.44144
1099.62	3.19159
1102.52	4.10718
1105.41	4.27719
1108.3	15.5785
1111.19	24.5802
1114.09	23.1556
1116.98	34.2259
1119.87	35.7017
1122.77	45.2041
1125.66	47.0907
1128.55	46.1089
1131.44	52.7028
1134.34	40.0145
1137.23	54.6905
1140.12	46.3173
1143.02	48.3541
1145.91	44.6907
1148.8	31.1867
1151.69	31.6693
1154.59	18.3245
1157.48	10.9307
1160.37	1.81222
1163.26	10.7701
1166.16	0.885712
1169.05	1.62686
1171.94	2.2695
1174.84	4.66937
1177.73	8.39694
1180.62	16.6133
1183.51	26.2894
1186.4	30.2155
1189.3	30.5855
1192.19	26.3654
1195.08	25.7425
1197.98	18.8882
1200.87	24.5972
1203.76	26.3448
1206.65	17.2205
1209.55	15.3243
1212.44	16.9278
1215.33	13.0147
1218.22	15.3493
1221.12	12.7176
1224.01	0.20224
1226.9	9.4082
1229.8	8.53372
1232.69	10.7736
1235.58	5.10147
1238.47	4.78772
1241.37	7.62186
1244.26	0.89505
1247.15	4.86255
1250.05	8.9762
1252.94	9.11703
1255.83	6.22494
1258.72	10.9311
1261.62	13.6565
1264.51	22.1392
1267.4	19.957
1270.29	15.289
1273.19	12.775
1276.08	12.8083
1278.97	14.5808
1281.87	9.80078
1284.76	17.8337
1287.65	13.6116
1290.54	11.3349
1293.43	5.54407
1296.33	2.17715
1299.22	8.37036
1302.11	3.61667
