Measurement: Raman, 780 nm, unoriented, Raman Data Processed
Mineral: Osarizawaite
Rruff sample: R060395
Ideal chemistry: CuPbAl_2_(SO_4_)_2_(OH)_6_
Locality: Silver Hill mine, Pima County, Arizona, USA
Source: Michael Scott
Description: Pale blue drusy coating
Raman shift (cm-1)	intensity
165.816	0
168.708	4.018
171.601	6.82689
174.494	8.38179
177.386	8.60845
180.279	3.42044
183.172	0.545311
186.065	0.541374
188.957	2.09969
191.85	8.12662
194.743	10.6897
197.635	16.5405
200.528	20.9705
203.421	28.3274
206.313	29.795
209.206	35.76
212.099	37.8235
214.992	36.4603
217.884	33.7186
220.777	29.2789
223.67	25.2119
226.562	24.9263
229.455	22.4924
232.348	22.6484
235.24	20.7467
238.133	18.7492
241.026	19.1649
243.918	13.6865
246.811	12.3139
249.704	11.9731
252.597	6.59483
255.489	1.84965
258.382	2.56376
261.275	1.996
264.167	0.185532
267.06	3.97403
269.953	0.275551
272.846	0.603317
275.738	3.63222
278.631	3.36238
281.524	3.38897
284.416	3.91928
287.309	2.19986
290.202	3.65346
293.094	6.85381
295.987	6.63865
298.88	7.80572
301.772	8.74473
304.665	6.62464
307.558	9.57719
310.45	6.58707
313.343	4.79564
316.236	7.77216
319.129	6.10121
322.021	6.59716
324.914	2.23125
327.807	1.83092
330.699	2.43626
333.592	4.1788
336.485	1.29245
339.377	4.29644
342.27	3.05614
345.163	2.18556
348.056	0.853668
350.948	0.41938
353.841	0.492542
356.734	0.840622
359.626	2.17021
362.519	4.08223
365.412	4.56099
368.305	6.08894
371.197	5.4377
374.09	5.32233
376.983	3.98232
379.875	2.33365
382.768	3.8622
385.661	3.28814
388.553	1.61857
391.446	0.839439
394.339	0.523277
397.231	0.185257
400.124	0.340389
403.017	1.34551
405.909	0.202713
408.802	0.975037
411.695	0.150326
414.588	1.06992
417.48	2.78531
420.373	5.91865
423.266	8.33227
426.158	12.6557
429.051	19.0607
431.944	27.9333
434.837	34.8845
437.729	45.2864
440.622	54.484
443.515	63.3059
446.407	72.0706
449.3	78.1837
452.193	79.6266
455.085	80.7114
457.978	76.8864
460.871	70.3744
463.764	66.8411
466.656	66.2537
469.549	65.677
472.442	65.3643
475.334	68.5746
478.227	70.9135
481.12	70.4666
484.012	71.5145
486.905	70.3911
489.798	69.6445
492.69	68.1035
495.583	66.9262
498.476	65.9528
501.369	61.6373
504.261	53.9452
507.154	40.0079
510.047	29.3948
512.939	18.1887
515.832	8.40592
518.725	5.86665
521.617	0.362122
524.51	1.2879
527.403	1.83503
530.296	0.654247
533.188	0.368137
536.081	0.439121
538.974	1.62479
541.866	0.4842
544.759	0.781075
547.652	2.05734
550.544	1.2157
553.437	0.343384
556.33	2.33692
559.222	0.847118
562.115	4.54485
565.008	2.72681
567.901	5.02567
570.793	2.4268
573.686	5.0506
576.579	5.82178
579.471	6.48609
582.364	6.12385
585.257	5.49461
588.149	6.257
591.042	7.78176
593.935	9.42047
596.828	11.4631
599.72	14.0562
602.613	14.5826
605.506	18.2862
608.398	21.9903
611.291	25.4934
614.184	28.0014
617.077	32.1985
619.969	39.7218
622.862	42.02
625.755	49.4223
628.647	51.003
631.54	52.4265
634.433	51.076
637.325	47.2786
640.218	39.6676
643.111	34.3072
646.004	25.5677
648.896	25.3294
651.789	19.6279
654.682	15.6038
657.574	12.1472
660.467	9.40719
663.36	9.33235
666.252	5.6936
669.145	2.29664
672.038	2.44633
674.931	0.742702
677.823	2.34697
680.716	1.63569
683.609	0.630426
686.501	1.47664
689.394	0.869061
692.287	1.78083
695.179	1.42356
698.072	1.64187
700.965	0.534948
703.857	0.321552
706.75	1.84698
709.643	1.35268
712.535	2.02693
715.428	0.946684
718.321	0.709787
721.214	2.20497
724.106	0.942739
726.999	0.201794
729.892	0.880253
732.784	2.85308
735.677	0.964853
738.57	0.236418
741.462	2.19855
744.355	1.10556
747.248	3.05388
750.141	0.38077
753.033	2.13453
755.926	1.07695
758.819	1.60396
761.711	1.1957
764.604	0.723001
767.497	2.04501
770.389	1.72939
773.282	0.747105
776.175	0.284666
779.068	1.32235
781.96	1.00555
784.853	1.24226
787.746	3.13354
790.638	3.0129
793.531	1.16519
796.424	1.90087
799.317	1.45321
802.209	1.96497
805.102	2.87209
807.995	2.20509
810.887	3.91679
813.78	2.7165
816.673	3.62293
819.565	5.16476
822.458	0.182663
825.351	4.54454
828.244	1.18891
831.136	3.42297
834.029	3.32877
836.922	4.20476
839.814	3.46212
842.707	0.910828
845.6	4.28333
848.492	5.08052
851.385	6.13316
854.278	6.47027
857.17	4.94995
860.063	6.13143
862.956	5.02741
865.849	7.58006
868.741	5.20372
871.634	6.46235
874.527	5.83694
877.419	7.1788
880.312	4.60016
883.205	6.24564
886.097	6.1911
888.99	5.84494
891.883	4.64768
894.775	5.12425
897.668	5.55358
900.561	4.86509
903.454	2.84988
906.346	0.725838
909.239	2.82867
912.132	3.60633
915.024	1.36882
917.917	2.24243
920.81	0.197081
923.702	0.497274
926.595	0.652256
929.488	2.24625
932.381	0.396189
935.273	2.45109
938.166	0.919643
941.059	1.22499
943.951	1.53682
946.844	0.155704
949.737	1.26367
952.63	0.934155
955.522	0.410088
958.415	0.776661
961.308	3.36539
964.2	3.60396
967.093	6.60404
969.986	12.1747
972.878	18.868
975.771	25.9065
978.664	38.4613
981.557	49.6664
984.449	67.1419
987.342	86.8935
990.235	110.948
993.127	134.192
996.02	155.303
998.913	174.278
1001.8	182.497
1004.7	195.416
1007.59	206.007
1010.48	220.041
1013.38	227.306
1016.27	228.413
1019.16	204.471
1022.05	159.968
1024.95	101.962
1027.84	62.2925
1030.73	39.5221
1033.62	23.3301
1036.52	20.3111
1039.41	19.6895
1042.3	19.646
1045.2	18.9632
1048.09	19.0364
1050.98	19.7831
1053.87	19.1486
1056.77	17.5694
1059.66	13.4821
1062.55	10.3326
1065.44	7.69794
1068.34	6.08946
1071.23	4.30768
1074.12	2.20306
1077.02	1.21597
1079.91	0.48653
1082.8	1.20136
1085.69	0.639156
1088.59	0.389923
1091.48	0.947422
1094.37	2.78489
1097.26	2.21728
1100.16	1.25964
1103.05	4.79582
1105.94	4.16427
1108.84	8.11328
1111.73	9.27106
1114.62	7.26672
1117.51	8.13601
1120.41	11.2674
1123.3	14.2584
1126.19	13.8259
1129.08	17.0445
1131.98	17.4224
1134.87	18.0602
1137.76	15.3958
1140.65	13.6495
1143.55	12.793
1146.44	12.9877
1149.33	9.44315
1152.23	6.62918
1155.12	6.49827
1158.01	4.8278
1160.9	4.64758
1163.8	0.688305
1166.69	0.770283
1169.58	1.77506
1172.47	0.234844
1175.37	2.94046
1178.26	3.1466
1181.15	3.15632
1184.05	6.02071
1186.94	5.89795
1189.83	8.41037
1192.72	8.58715
1195.62	8.17736
1198.51	8.62428
1201.4	4.79663
1204.29	2.84526
1207.19	5.73092
1210.08	3.51487
1212.97	4.62793
1215.87	3.94109
1218.76	3.01377
1221.65	2.51776
1224.54	2.37667
1227.44	2.79019
1230.33	3.41379
1233.22	2.32824
1236.11	1.30998
1239.01	4.93304
1241.9	1.90736
1244.79	4.77635
1247.68	5.09654
1250.58	3.68726
1253.47	5.62239
1256.36	6.53292
1259.26	5.4432
1262.15	9.82577
1265.04	7.59921
1267.93	5.14218
1270.83	5.69042
1273.72	7.2903
1276.61	3.41757
1279.5	2.73299
1282.4	0.252964
