Measurement: Raman, 532 nm, unoriented, Raman Data Processed
Mineral: Osumilite
Rruff sample: R060385
Ideal chemistry: KFe^2+^_2_(Al_5_Si_10_)O_30_
Locality: Funtanafigu Quarry, Monte Arci, near Oristano, Sardinia
Source: Michael Scott
Description: Black tabular distorted hexagonal crystals associated with colorless tridymite
Measured chemistry: (K_0.72_Na_0.15_Ca_0.01_)_Σ=0.88_(Fe^2+^_1.07_Mg_0.93_Mn_0.06_)_Σ=2.06_(Al_2.69_Fe^3+^_0.31_)_Σ=3_(Si_10.28_Al_1.72_)_Σ=12_O_30_
Raman shift (cm-1)	intensity
182.637	0
185.53	0.357727
188.423	2.17163
191.315	2.77107
194.208	4.74649
197.101	1.17287
199.994	2.10452
202.886	2.69008
205.779	0.897675
208.672	0.029816
211.565	0.501724
214.457	0.137161
217.35	0.325699
220.243	2.70329
223.135	3.86034
226.028	2.74301
228.921	1.53661
231.813	1.89082
234.706	0.202148
237.599	1.7054
240.492	3.78301
243.384	1.71568
246.277	4.21077
249.17	4.46054
252.062	9.26178
254.955	7.17526
257.848	7.95398
260.74	12.1836
263.633	17.0606
266.526	21.0584
269.418	27.8846
272.311	35.8409
275.204	38.7129
278.097	43.067
280.989	36.3939
283.882	26.3289
286.775	18.9655
289.667	10.4196
292.56	4.95408
295.453	3.28197
298.346	3.27106
301.238	1.23267
304.131	1.96934
307.024	1.46985
309.916	3.93343
312.809	3.71397
315.702	2.37178
318.594	5.20805
321.487	2.34824
324.38	1.49201
327.273	1.21386
330.165	1.55936
333.058	0.025299
335.951	1.46984
338.843	1.64184
341.736	0.022675
344.629	2.78564
347.522	0.784874
350.414	3.03887
353.307	2.39301
356.2	4.49081
359.092	7.52248
361.985	7.3428
364.878	11.868
367.77	16.7583
370.663	18.5288
373.556	24.9028
376.449	27.8923
379.341	25.346
382.234	23.0981
385.127	19.0829
388.019	19.8417
390.912	11.2813
393.805	11.1132
396.697	4.5018
399.59	6.56793
402.483	5.44278
405.376	4.56718
408.268	6.17943
411.161	4.17342
414.054	2.13892
416.946	2.00513
419.839	1.81871
422.732	3.48682
425.625	5.61775
428.517	2.87158
431.41	6.39139
434.303	5.61983
437.195	6.37595
440.088	11.0783
442.981	16.6164
445.873	21.3241
448.766	24.8832
451.659	33.4462
454.551	41.8084
457.444	48.868
460.337	62.7132
463.23	77.3129
466.122	90.9749
469.015	106.978
471.908	120.041
474.8	122.609
477.693	113.726
480.586	85.5646
483.479	57.2065
486.371	30.8553
489.264	15.6405
492.157	6.67706
495.049	0.895096
497.942	2.83756
500.835	3.8212
503.728	1.63812
506.62	2.64561
509.513	9.0248
512.406	16.3265
515.298	23.7354
518.191	27.8644
521.084	34.1784
523.976	41.8261
526.869	47.6526
529.762	50.4684
532.654	54.2571
535.547	56.1172
538.44	59.8845
541.333	59.7668
544.225	61.6945
547.118	61.7589
550.011	52.0399
552.903	47.2597
555.796	35.5331
558.689	31.1163
561.582	26.9481
564.474	23.8065
567.367	21.9926
570.26	18.7236
573.152	13.3939
576.045	10.8462
578.938	2.29269
581.83	2.53683
584.723	2.68806
587.616	2.1046
590.509	1.96881
593.401	2.03226
596.294	1.21992
599.187	0.885666
602.079	2.117
604.972	2.93686
607.865	8.15945
610.758	9.24861
613.65	13.0545
616.543	16.3684
619.436	16.7735
622.328	22.6267
625.221	24.7792
628.114	25.4739
631.006	25.4767
633.899	23.8776
636.792	23.3932
639.684	18.5608
642.577	18.8907
645.47	10.605
648.363	12.0414
651.255	8.07916
654.148	8.27191
657.041	6.4555
659.933	5.16422
662.826	3.96881
665.719	2.35701
668.612	0.751213
671.504	1.46761
674.397	2.46526
677.29	2.3119
680.182	0.019005
683.075	0.255074
685.968	0.573334
688.861	0.634247
691.753	2.49493
694.646	0.182404
697.539	1.19065
700.431	0.980347
703.324	0.664352
706.217	3.39999
709.109	3.42334
712.002	2.49916
714.895	4.6891
717.788	4.27696
720.68	6.87528
723.573	3.83074
726.466	6.98621
729.358	7.5154
732.251	3.92169
735.144	6.14357
738.036	5.97466
740.929	4.77618
743.822	7.99568
746.715	8.73103
749.607	7.93631
752.5	9.21118
755.393	10.2624
758.285	8.98805
761.178	13.6068
764.071	13.5554
766.963	14.3771
769.856	16.0741
772.749	15.6324
775.642	14.547
778.534	15.8465
781.427	16.4798
784.32	17.2936
787.212	15.8669
790.105	14.7389
792.998	15.8859
795.89	15.2532
798.783	13.2412
801.676	12.2465
804.569	12.2476
807.461	11.0877
810.354	8.76858
813.247	5.74389
816.139	5.52649
819.032	5.68082
821.925	5.98183
824.818	4.2317
827.71	1.23128
830.603	3.24208
833.496	3.7665
836.388	2.10757
839.281	0.66687
842.174	0.395424
845.067	0.070137
847.959	3.22434
850.852	0.696869
853.745	2.62869
856.637	1.88783
859.53	2.0219
862.423	2.39132
865.315	1.74205
868.208	2.85178
871.101	1.6571
873.994	1.14291
876.886	1.86919
879.779	1.0956
882.672	1.07858
885.564	1.80797
888.457	1.4921
891.35	1.24349
894.242	1.94807
897.135	0.042572
900.028	6.76781
902.92	2.60629
905.813	3.82726
908.706	1.96082
911.599	0.516953
914.491	0.3675
917.384	0.933891
920.277	3.96732
923.169	3.21728
926.062	4.91326
928.955	5.24069
931.847	7.04677
934.74	5.72508
937.633	7.74383
940.526	5.66969
943.418	6.59129
946.311	8.68055
949.204	6.14891
952.096	9.29661
954.989	9.47237
957.882	10.5425
960.775	10.808
963.667	12.4361
966.56	13.8715
969.453	14.6815
972.345	16.2286
975.238	15.4282
978.131	17.62
981.024	15.9905
983.916	18.4561
986.809	14.5799
989.702	14.0383
992.594	9.83478
995.487	9.84256
998.38	7.88345
1001.27	7.94879
1004.16	4.59576
1007.06	3.57394
1009.95	3.65459
1012.84	2.40825
1015.74	0.608414
1018.63	0.409073
1021.52	1.4261
1024.41	1.3246
1027.31	2.19546
1030.2	2.83716
1033.09	2.07752
1035.98	3.79138
1038.88	1.51405
1041.77	2.53356
1044.66	3.48901
1047.56	1.69127
1050.45	4.22367
1053.34	2.60901
1056.23	2.39018
1059.13	3.71633
1062.02	3.09699
1064.91	6.43598
1067.81	4.81078
1070.7	4.66615
1073.59	6.26035
1076.48	5.1542
1079.38	4.34822
1082.27	2.0565
1085.16	0.569382
1088.05	0.931206
1090.95	1.8695
1093.84	0.294418
1096.73	0.654755
1099.62	0.797752
1102.52	0.444176
1105.41	3.45288
1108.3	0.487198
1111.19	4.23355
1114.09	3.36891
1116.98	4.02398
1119.87	7.02306
1122.77	6.05881
1125.66	7.63463
1128.55	5.07692
1131.44	9.39972
1134.34	7.644
1137.23	6.09051
1140.12	8.91569
1143.02	9.97173
1145.91	11.7224
1148.8	12.7449
1151.69	9.02482
1154.59	12.1045
1157.48	10.5435
1160.37	12.9818
1163.26	13.4085
1166.16	14.7494
1169.05	15.1837
1171.94	15.2947
1174.84	14.1829
1177.73	9.90751
1180.62	12.7535
1183.51	9.72253
1186.4	12.052
1189.3	10.6023
1192.19	10.6431
1195.08	9.42077
1197.98	9.03813
1200.87	6.603
1203.76	7.11867
1206.65	5.13991
1209.55	5.62431
1212.44	4.8476
1215.33	4.35039
1218.22	3.92552
1221.12	0.784561
1224.01	0.872749
1226.9	1.85134
1229.8	0.885208
1232.69	1.65675
1235.58	1.70824
1238.47	0.090515
1241.37	0.098198
1244.26	0.32653
1247.15	0.808517
1250.05	0.56015
1252.94	3.20349
1255.83	3.39278
1258.72	1.0214
1261.62	3.17291
1264.51	1.94463
1267.4	2.75051
1270.29	3.34608
1273.19	1.63039
1276.08	3.47789
1278.97	2.16482
1281.87	1.00352
1284.76	2.42734
1287.65	1.60957
1290.54	2.19731
1293.43	0.704803
1296.33	2.08478
1299.22	1.93288
1302.11	0.770866
