Measurement: Raman, 780 nm, unoriented, Raman Data Processed
Mineral: Otavite
Rruff sample: R050677
Ideal chemistry: CdCO_3_
Locality: Tsumeb mine, Tsumeb, Otavi District, Oshikoto, Namibia
Source: University of Arizona Mineral Museum
Description: White rhombohedra
Measured chemistry: (Cd_0.91_Zn_0.05_Pb_0.04_)_Σ=1_CO_3_ ; = lighter phase. The crystal is zoned. The darker phase is (Cd_0.93_Zn_0.05_Pb_0.02_)_Σ=1_CO_3_ ; the inclusion is cerussite: Pb_1.00_CO_3_
Raman shift (cm-1)	intensity
90.5957	0
93.9705	7.10374
97.3453	2.22002
100.72	6.1928
104.095	5.00735
107.47	9.56065
110.845	2.38609
114.219	2.26853
117.594	0.255646
120.969	1.48472
124.344	1.55946
127.719	2.53975
131.094	4.65888
134.468	9.46683
137.843	17.285
141.218	30.2849
144.593	38.4031
147.968	54.4637
151.342	74.3631
154.717	95.487
158.092	122.472
161.467	116.543
164.842	78.2473
168.216	46.8308
171.591	27.1951
174.966	17.1014
178.341	9.50896
181.716	5.20483
185.09	2.44351
188.465	0.011841
191.84	0.121227
195.215	0.052673
198.59	0.251736
201.965	0.417206
205.339	0.356354
208.714	0.589386
212.089	2.0406
215.464	2.65893
218.839	2.90633
222.214	5.37322
225.588	5.69026
228.963	9.48241
232.338	12.5604
235.713	17.9432
239.088	25.8141
242.462	34.1718
245.837	49.51
249.212	71.1381
252.587	96.582
255.962	128.195
259.336	167.061
262.711	207.957
266.086	259.532
269.461	306.398
272.836	302.535
276.211	239.936
279.585	158.02
282.96	98.3673
286.335	62.427
289.71	39.401
293.085	26.3985
296.459	16.1295
299.834	11.8267
303.209	7.46894
306.584	5.47824
309.959	5.18363
313.334	3.98249
316.708	3.00542
320.083	1.46704
323.458	0.145458
326.833	0.212639
330.207	0.327206
333.582	0.410221
336.957	0.314392
340.332	0.15202
343.707	0.213707
347.082	0.097652
350.456	1.59014
353.831	0.917027
357.206	0.100948
360.581	0.99107
363.956	1.84317
367.33	2.07623
370.705	2.34106
374.08	2.91194
377.455	2.37054
380.83	2.52663
384.205	3.04434
387.579	1.90088
390.954	1.49131
394.329	2.69
397.704	2.20376
401.079	2.46364
404.453	1.82212
407.828	0.991642
411.203	0.702877
414.578	0.341404
417.953	1.33867
421.327	1.20717
424.702	1.36814
428.077	1.78873
431.452	0.894997
434.827	0.201725
438.202	1.64619
441.576	0.353279
444.951	1.28697
448.326	0.470049
451.701	0.513262
455.076	0.545052
458.45	0.016161
461.825	1.02791
465.2	0.913921
468.575	0.64098
471.95	0.296412
475.325	0.828297
478.699	0.326508
482.074	0.265232
485.449	0.574764
488.824	0.491266
492.199	0.65708
495.573	0.208035
498.948	0.174644
502.323	0.384798
505.698	0.615938
509.073	0.445045
512.447	0.03204
515.822	0.941528
519.197	0.982023
522.572	1.13482
525.947	1.36833
529.322	0.592873
532.696	0.880613
536.071	0.167076
539.446	0.937208
542.821	0.73819
546.196	1.12298
549.57	1.59443
552.945	1.31762
556.32	0.776688
559.695	1.19837
563.07	1.2305
566.444	1.33369
569.819	0.936106
573.194	1.3152
576.569	1.20391
579.944	0.892315
583.319	1.86058
586.693	0.807625
590.068	0.174292
593.443	0.692118
596.818	0.796621
600.193	0.933094
603.567	0.542244
606.942	0.506008
610.317	0.65239
613.692	1.68462
617.067	1.13953
620.442	1.40355
623.816	1.5218
627.191	1.23016
630.566	1.25281
633.941	0.801125
637.316	0.800327
640.69	1.22432
644.065	1.34675
647.44	1.07143
650.815	1.14837
654.19	0.955065
657.564	1.72978
660.939	0.90683
664.314	0.231577
667.689	0.056425
671.064	1.03982
674.439	1.58343
677.813	1.65542
681.188	0.862612
684.563	0.630095
687.938	0.293585
691.313	1.16962
694.688	1.60291
698.062	2.62811
701.437	2.95854
704.812	4.8521
708.187	8.05473
711.562	12.0272
714.936	18.0034
718.311	11.872
721.686	5.18136
725.061	1.85739
728.436	1.38227
731.81	0.923983
735.185	0.083458
738.56	0.086975
741.935	0.116125
745.31	0.599115
748.684	0.407679
752.059	0.606611
755.434	0.255894
758.809	0.588421
762.184	1.3902
765.559	2.23781
768.933	1.46085
772.308	1.75686
775.683	0.860586
779.058	1.04696
782.433	1.3248
785.808	1.35115
789.182	3.07114
792.557	3.22036
795.932	3.89532
799.307	6.81792
802.682	9.56078
806.056	14.2126
809.431	16.6365
812.806	17.0136
816.181	13.8635
819.556	10.5963
822.93	5.50391
826.305	2.97423
829.68	2.16087
833.055	2.28676
836.43	2.56941
839.804	1.02709
843.179	1.61378
846.554	0.899075
849.929	1.37618
853.304	1.27995
856.679	1.60133
860.053	3.02312
863.428	1.62676
866.803	1.33606
870.178	0.798883
873.553	1.42314
876.927	1.29236
880.302	0.64118
883.677	0.847794
887.052	0.630198
890.427	0.723846
893.802	0.983608
897.176	0.854641
900.551	0.275843
903.926	1.3317
907.301	0.999519
910.676	0.282948
914.05	0.290333
917.425	0.108253
920.8	0.463509
924.175	0.53223
927.55	0.029449
930.924	0.219311
934.299	0.316168
937.674	0.995798
941.049	0.154104
944.424	0.468374
947.799	0.011015
951.173	0.183592
954.548	0.648312
957.923	0.68326
961.298	0.247931
964.673	0.352205
968.047	0.271139
971.422	0.465048
974.797	0.595346
978.172	0.661892
981.547	0.608303
984.922	1.0002
988.296	1.12479
991.671	0.696932
995.046	0.442616
998.421	1.2521
1001.8	0.897518
1005.17	1.32966
1008.54	1.42935
1011.92	0.635633
1015.29	0.278038
1018.67	0.165499
1022.04	0.114153
1025.42	0.243216
1028.79	0.332878
1032.17	0.27627
1035.54	0.265278
1038.92	0.993822
1042.29	0.347342
1045.67	1.47802
1049.04	2.71891
1052.42	5.99466
1055.79	5.75136
1059.17	3.88193
1062.54	7.64346
1065.92	7.76912
1069.29	13.004
1072.67	24.6903
1076.04	55.0648
1079.42	98.8639
1082.79	173.509
1086.17	321.03
1089.54	315.237
1092.92	84.2052
1096.29	23.3712
1099.66	8.65506
1103.04	4.84094
1106.41	2.64522
1109.79	2.75021
1113.16	1.20681
1116.54	0.829638
1119.91	0.118073
1123.29	1.32045
1126.66	0.334755
1130.04	0.518085
1133.41	0.98806
1136.79	0.811852
1140.16	1.15359
1143.54	1.97162
1146.91	1.49738
1150.29	1.52784
1153.66	2.69547
1157.04	2.12143
1160.41	2.50196
1163.79	2.04876
1167.16	1.74963
1170.54	2.35934
1173.91	1.60701
1177.29	1.81608
1180.66	2.29454
1184.04	1.65745
1187.41	1.17105
1190.79	0.49781
1194.16	0.212879
1197.54	0.40871
1200.91	0.268372
1204.28	0.739208
1207.66	0.748665
1211.03	0.159752
1214.41	0.549103
1217.78	0.66013
1221.16	1.51167
1224.53	0.47076
1227.91	2.43159
1231.28	3.33102
1234.66	4.97991
1238.03	6.57457
1241.41	5.21212
1244.78	7.98834
1248.16	6.48675
1251.53	6.39106
1254.91	6.90427
1258.28	6.22192
1261.66	5.72883
1265.03	4.80973
1268.41	4.68912
1271.78	5.20806
1275.16	2.57397
1278.53	2.67275
1281.9	1.44044
