Measurement: Raman, 532 nm, unoriented, Raman Data Processed
Mineral: Otavite
Rruff sample: R050677
Ideal chemistry: CdCO_3_
Locality: Tsumeb mine, Tsumeb, Otavi District, Oshikoto, Namibia
Source: University of Arizona Mineral Museum
Description: White rhombohedra
Measured chemistry: (Cd_0.91_Zn_0.05_Pb_0.04_)_Σ=1_CO_3_ ; = lighter phase. The crystal is zoned. The darker phase is (Cd_0.93_Zn_0.05_Pb_0.02_)_Σ=1_CO_3_ ; the inclusion is cerussite: Pb_1.00_CO_3_
Raman shift (cm-1)	intensity
90.7474	0
94.1222	8.05565
97.4971	5.37692
100.872	6.74504
104.247	1.08461
107.621	0.04306
110.996	0.112045
114.371	0.6521
117.746	5.48392
121.121	4.32461
124.496	8.13313
127.87	7.80882
131.245	16.5229
134.62	17.3441
137.995	28.5986
141.37	50.6049
144.744	73.9203
148.119	101.598
151.494	137.624
154.869	183.361
158.244	240.187
161.619	253.5
164.993	187.458
168.368	108.983
171.743	63.1593
175.118	40.5019
178.493	24.5203
181.868	14.9014
185.242	8.26137
188.617	5.97408
191.992	2.62988
195.367	0.503723
198.742	0.224182
202.116	0.476898
205.491	0.664383
208.866	1.74907
212.241	0.503403
215.616	1.0742
218.99	1.65764
222.365	4.09248
225.74	9.13945
229.115	13.1789
232.49	17.887
235.865	29.4505
239.239	45.4862
242.614	64.2715
245.989	90.847
249.364	131.193
252.739	189.286
256.113	267.027
259.488	361.074
262.863	466.794
266.238	592.071
269.613	720.784
272.988	780.583
276.362	651.183
279.737	432.453
283.112	272.086
286.487	170.544
289.862	108.212
293.236	70.8813
296.611	46.6691
299.986	31.328
303.361	21.4598
306.736	19.6279
310.111	19.8175
313.485	14.3363
316.86	11.75
320.235	10.1095
323.61	6.00778
326.985	6.23088
330.359	4.68806
333.734	5.16548
337.109	5.55475
340.484	3.73941
343.859	2.85185
347.233	2.84827
350.608	0.438995
353.983	1.26979
357.358	1.01219
360.733	1.72498
364.108	1.19505
367.482	0.907883
370.857	0.390808
374.232	1.85461
377.607	0.949692
380.982	0.793457
384.356	0.429688
387.731	1.05759
391.106	0.280655
394.481	3.38428
397.856	3.19002
401.231	3.95741
404.605	3.04253
407.98	6.21823
411.355	4.31641
414.73	5.58983
418.105	6.62157
421.479	4.48889
424.854	3.31015
428.229	2.76613
431.604	2.46748
434.979	2.38295
438.354	1.49251
441.728	2.617
445.103	2.01964
448.478	1.0128
451.853	0.688248
455.228	0.075958
458.603	1.0049
461.977	1.05452
465.352	0.542847
468.727	1.15242
472.102	0.382751
475.477	1.04413
478.851	0.182022
482.226	0.127136
485.601	1.47711
488.976	1.08939
492.351	1.51479
495.726	0.292435
499.1	1.34936
502.475	1.63669
505.85	0.673767
509.225	0.755386
512.6	2.17996
515.974	0.112213
519.349	1.60774
522.724	0.288361
526.099	0.938736
529.474	1.79172
532.848	2.66173
536.223	0.665634
539.598	0.342407
542.973	2.42819
546.348	1.90784
549.722	2.7798
553.097	1.32336
556.472	0.860519
559.847	2.00235
563.222	2.87585
566.597	1.22749
569.971	1.29532
573.346	1.53503
576.721	0.024063
580.096	0.643066
583.471	1.07738
586.846	1.57909
590.22	0.214417
593.595	0.542023
596.97	0.582001
600.345	0.870712
603.72	1.9482
607.094	2.15294
610.469	3.65147
613.844	3.26979
617.219	2.78749
620.594	1.69095
623.968	1.33243
627.343	2.11955
630.718	2.29338
634.093	1.32288
637.468	1.61238
640.843	2.8127
644.217	2.51497
647.592	1.28889
650.967	1.08324
654.342	1.75491
657.717	0.008026
661.091	0.061356
664.466	1.96931
667.841	0.428314
671.216	1.30678
674.591	0.952408
677.966	1.49478
681.34	0.100235
684.715	0.859268
688.09	1.01508
691.465	0.797821
694.84	2.91792
698.215	4.32155
701.589	7.17108
704.964	12.4672
708.339	17.0937
711.714	30.4572
715.089	42.533
718.463	33.2001
721.838	13.8203
725.213	7.83855
728.588	2.91153
731.963	0.090393
735.337	0.07666
738.712	0.787338
742.087	0.466293
745.462	0.160522
748.837	1.07185
752.212	1.3054
755.586	2.26228
758.961	3.15947
762.336	6.62189
765.711	9.30774
769.086	10.0646
772.46	10.8725
775.835	8.73741
779.21	9.22327
782.585	11.3577
785.96	14.3681
789.335	16.9661
792.709	19.925
796.084	29.5092
799.459	40.0064
802.834	61.587
806.209	87.2083
809.583	106.535
812.958	107.014
816.333	86.0472
819.708	56.3871
823.083	33.4564
826.457	20.3273
829.832	12.3151
833.207	10.7875
836.582	4.84116
839.957	6.51346
843.332	10.6071
846.706	6.18454
850.081	5.11381
853.456	6.3696
856.831	9.79657
860.206	12.3386
863.581	8.17226
866.955	4.27103
870.33	2.65974
873.705	0.98317
877.08	0.081482
880.455	0.082962
883.829	0.686325
887.204	0.796356
890.579	1.24782
893.954	1.57251
897.329	0.763184
900.703	0.561584
904.078	2.06746
907.453	2.10748
910.828	1.74858
914.203	2.21719
917.578	3.36717
920.952	3.7747
924.327	3.06143
927.702	1.40092
931.077	0.415665
934.452	2.29063
937.827	0.493958
941.201	1.62186
944.576	0.303085
947.951	0.114426
951.326	1.20515
954.701	1.70166
958.075	2.50012
961.45	0.752808
964.825	0.514847
968.2	0.7379
971.575	0.961227
974.949	0.415329
978.324	0.012466
981.699	1.00584
985.074	2.6792
988.449	3.08229
991.823	2.37288
995.198	3.03348
998.573	2.95009
1001.95	3.86104
1005.32	3.29445
1008.7	3.08853
1012.07	2.08977
1015.45	3.81284
1018.82	0.962814
1022.2	0.297989
1025.57	1.0719
1028.95	2.98489
1032.32	4.57774
1035.7	4.72745
1039.07	4.97704
1042.45	6.34531
1045.82	5.31113
1049.19	8.37578
1052.57	9.93658
1055.94	15.3639
1059.32	16.5481
1062.69	20.6918
1066.07	32.6229
1069.44	47.8535
1072.82	84.2484
1076.19	179.875
1079.57	398.321
1082.94	681.089
1086.32	1177.41
1089.69	1397.83
1093.07	455.157
1096.44	124.058
1099.82	44.7293
1103.19	23.0315
1106.57	13.5178
1109.94	7.24033
1113.32	4.45996
1116.69	2.72501
1120.07	2.42047
1123.44	3.18152
1126.82	1.01897
1130.19	0.058716
1133.57	1.21358
1136.94	0.259308
1140.32	1.30815
1143.69	0.099503
1147.07	0.269897
1150.44	0.564011
1153.82	1.40949
1157.19	1.39224
1160.56	0.094208
1163.94	1.51558
1167.31	1.17476
1170.69	0.874344
1174.06	1.86407
1177.44	3.78883
1180.81	1.00676
1184.19	2.74686
1187.56	3.11497
1190.94	2.71582
1194.31	2.78567
1197.69	0.612549
1201.06	0.876923
1204.44	2.07773
1207.81	1.26862
1211.19	1.71783
1214.56	1.15301
1217.94	1.58121
1221.31	2.29129
1224.69	1.32745
1228.06	0.721405
1231.44	0.682251
1234.81	0.133759
1238.18	0.803925
1241.56	1.5477
1244.93	2.24341
1248.31	2.32107
1251.68	0.651276
1255.06	4.25064
1258.43	2.58536
1261.81	2.26895
1265.18	0.058319
1268.56	2.50064
1271.93	2.23798
1275.31	0.792969
1278.68	1.547
1282.06	5.87784
1285.43	1.16058
1288.81	1.85983
1292.18	5.15259
1295.56	0.736511
1298.93	1.45569
