Measurement: Raman, 785 nm, unoriented, Raman Data Processed
Mineral: Ottensite
Rruff sample: R070115
Ideal chemistry: Na_3_(Sb_2_O_3_)_3_(SbS_3_)3H_2_O
Locality: Qinglong District, Qinglong, Qianxi'n Autonomous Prefecture (Qianxi'nan Buyizu Miaozu), Guizhou
Source: Michael Scott
Description: Loose red-brown granular glassy fragments intimately associated with mopungite
Raman shift (cm-1)	intensity
170.004	0
172.897	153.022
175.789	303.738
178.682	347.001
181.575	519.577
184.467	630.367
187.36	703.143
190.253	691.341
193.145	668.202
196.038	455.793
198.931	315.397
201.823	256.643
204.716	123.416
207.609	41.1416
210.502	40.5703
213.394	69.4321
216.287	5.63477
219.18	2.91846
222.072	29.2275
224.965	61.9277
227.858	26.3125
230.75	194.005
233.643	367.347
236.536	584.319
239.429	819.817
242.321	1221.4
245.214	1290.34
248.107	1118.26
250.999	708.912
253.892	268.249
256.785	24.8662
259.677	197.34
262.57	313.974
265.463	277.086
268.356	55.5742
271.248	414.657
274.141	1057.65
277.034	2064.8
279.926	3530.07
282.819	5156.9
285.712	6945.81
288.604	8792.88
291.497	9798.7
294.39	9723.9
297.283	8531.69
300.175	6944.09
303.068	5305.36
305.961	4246.02
308.853	3545.99
311.746	3465.87
314.639	3702.47
317.531	4343.69
320.424	5200.47
323.317	6570.94
326.209	8191.72
329.102	9513.59
331.995	10936.8
334.888	12409.5
337.78	13988.7
340.673	15221
343.566	16861.9
346.458	20692.3
349.351	25406.9
352.244	24426
355.137	17372.4
358.029	9993.58
360.922	5546.76
363.815	3128.89
366.707	1826.74
369.6	1225.41
372.493	1054.98
375.385	1064.04
378.278	1239.95
381.171	1392.32
384.063	1642.45
386.956	1703.54
389.849	1862.63
392.742	1988.04
395.634	1992.88
398.527	1891.02
401.42	1836.51
404.312	1749.31
407.205	1485.87
410.098	1247.78
412.99	996.379
415.883	709.891
418.776	476.087
421.668	258.487
424.561	110.839
427.454	83.4189
430.347	177.363
433.239	208.24
436.132	288.589
439.025	242.837
441.917	214.865
444.81	129.184
447.703	57.3557
450.596	61.5217
453.488	274.281
456.381	553.874
459.274	911.006
462.166	1372.22
465.059	1883.12
467.952	2376.19
470.844	2851.66
473.737	3153.64
476.63	3286.93
479.522	3152.11
482.415	2830.62
485.308	2577.41
488.201	2226.28
491.093	1956.87
493.986	1678.17
496.879	1571.52
499.771	1554.86
502.664	1779.57
505.557	2079.03
508.45	2704.85
511.342	3615.56
514.235	4789.65
517.128	6290.68
520.02	8157.85
522.913	10176.1
525.806	12059.2
528.698	13467.8
531.591	14186.4
534.484	13935.3
537.376	12578.1
540.269	10775.3
543.162	8748.67
546.055	6917.36
548.947	5220.98
551.84	3913.85
554.733	2870.19
557.625	2109.01
560.518	1461.2
563.411	1039.39
566.303	598.52
569.196	375.8
572.089	242.126
574.982	103.116
577.874	92.0054
580.767	82.198
583.66	198.314
586.552	262.327
589.445	312.655
592.338	357.633
595.231	491.756
598.123	594.67
601.016	851.063
603.909	1058.31
606.801	1298.48
609.694	1514.31
612.587	1537.37
615.479	1498.3
618.372	1271.52
621.265	1049.92
624.158	704.631
627.05	421.179
629.943	235.32
632.836	82.7899
635.728	46.3363
638.621	60.1317
641.514	102.996
644.406	91.9611
647.299	93.2446
650.192	64.1433
653.085	28.4126
655.977	38.7853
658.87	62.4187
661.763	95.2277
664.655	98.5088
667.548	177.439
670.441	177.764
673.333	215.875
676.226	279.146
679.119	256.916
682.011	303.375
684.904	314.468
687.797	319.278
690.689	349.981
693.582	434.417
696.475	398.667
699.368	379.445
702.26	372.381
705.153	313.363
708.046	262.856
710.938	208.086
713.831	191.754
716.724	165.619
719.616	170.151
722.509	182.036
725.402	180.075
728.295	223.422
731.187	226.146
734.08	255.916
736.973	330.897
739.865	412.29
742.758	490.224
745.651	575.973
748.543	725.264
751.436	775.376
754.329	869.203
757.222	916.325
760.114	905.306
763.007	847.919
765.9	753.009
768.792	709.986
771.685	579.946
774.578	476.327
777.471	384.182
780.363	288.629
783.256	246.065
786.149	180.578
789.041	102.65
791.934	87.3641
794.827	46.1163
797.719	57.6427
800.612	49.9824
803.505	13.6663
806.398	1.90607
809.29	20.7714
812.183	9.3316
815.076	0.297852
817.968	14.0503
820.861	33.8033
823.754	12.9296
826.646	0.749329
829.539	8.24701
832.432	6.71631
835.324	9.18137
838.217	2.41873
841.11	14.8361
844.003	5.43744
846.895	17.9529
849.788	7.40631
852.681	8.24396
855.573	0.554199
858.466	26.445
861.359	15.1291
864.251	23.6635
867.144	18.5382
870.037	4.46805
872.93	8.02045
875.822	8.05081
878.715	29.6814
881.608	5.04288
884.5	29.1732
887.393	12.9132
890.286	26.4908
893.178	16.4673
896.071	1.51437
898.964	5.09174
901.856	6.77719
904.749	5.06699
907.642	14.6122
910.535	5.53067
913.427	5.00339
916.32	11.341
919.213	17.5057
922.105	18.9803
924.998	13.211
927.891	25.9061
930.784	14.7393
933.676	1.13113
936.569	3.84341
939.462	17.5806
942.354	19.5576
945.247	21.8073
948.14	30.0728
951.032	21.4317
953.925	17.6669
956.818	23.2371
959.711	28.9769
962.603	16.2277
965.496	24.0836
968.389	11.9817
971.281	8.72226
974.174	15.2101
977.067	24.6897
979.959	22.0898
982.852	29.3036
985.745	9.01187
988.638	18.8518
991.53	9.35501
994.423	8.98306
997.316	29.0314
1000.21	42.9952
1003.1	6.09061
1005.99	23.8734
1008.89	9.24869
1011.78	6.3753
1014.67	24.1104
1017.56	13.2988
1020.46	22.1948
1023.35	22.6258
1026.24	23.3239
1029.13	32.3515
1032.03	13.2921
1034.92	21.4371
1037.81	45.0844
1040.71	0.549103
1043.6	22.6873
1046.49	5.45465
1049.38	22.0288
1052.28	15.639
1055.17	67.7432
1058.06	31.0108
1060.95	16.5207
1063.85	14.3179
1066.74	18.1352
1069.63	8.59802
1072.53	19.5203
1075.42	4.83688
1078.31	26.7137
1081.2	35.5596
1084.1	16.2908
1086.99	13.6854
1089.88	6.8367
1092.78	16.6297
1095.67	28.2039
1098.56	14.6495
1101.45	28.1468
1104.35	20.6748
1107.24	10.6611
1110.13	18.3624
1113.02	33.7927
1115.92	8.50854
1118.81	22.8657
1121.7	26.9304
1124.59	4.37787
1127.49	18.534
1130.38	21.5362
1133.27	23.3769
1136.16	25.3987
1139.06	15.3211
1141.95	8.11984
1144.84	6.56181
1147.74	13.776
1150.63	20.6874
1153.52	29.4789
1156.41	17.6707
1159.31	0.089722
1162.2	19.6721
1165.09	20.6008
1167.98	20.0968
1170.88	17.2639
1173.77	19.6722
1176.66	0.862671
1179.56	13.5335
1182.45	23.1943
1185.34	14.4764
1188.23	13.2147
1191.13	11.0425
1194.02	30.6266
1196.91	7.22945
1199.8	16.0139
1202.7	29.3579
1205.59	23.2845
1208.48	15.6038
1211.38	11.9766
1214.27	11.6019
1217.16	23.1695
1220.05	27.356
1222.95	3.86794
1225.84	0.180115
1228.73	17.3817
1231.62	16.7843
1234.52	1.4357
1237.41	0.832382
1240.3	26.0605
1243.19	9.24123
