Measurement: Raman, 780 nm, unoriented, Raman Data Processed
Mineral: Ottoite
Rruff sample: R130126
Ideal chemistry: Pb_2_TeO_5_
Locality: Grand Central mine, Tombstone, Cochise County, Arizona
Source: Bob Jenkins
Description: Clusters of pale yellow-green spear-shaped crystals, in subparallel to divergent intergrowths.
Raman shift (cm-1)	intensity
152.428	0
155.321	0.016083
158.214	0.258667
161.107	0.506134
163.999	6.54056
166.892	16.3803
169.785	36.6875
172.677	60.8468
175.57	83.5295
178.463	104.456
181.355	134.541
184.248	169.027
187.141	209.717
190.033	240.711
192.926	204.731
195.819	126.733
198.712	73.2896
201.604	47.072
204.497	31.8312
207.39	24.5828
210.282	21.9487
213.175	22.9287
216.068	32.5703
218.96	50.4438
221.853	74.8344
224.746	106.379
227.638	134.737
230.531	165.422
233.424	206.648
236.317	239.026
239.209	265.243
242.102	257.71
244.995	199.821
247.887	130.675
250.78	79.4624
253.673	48.0255
256.565	30.3417
259.458	17.0345
262.351	12.9994
265.244	4.8372
268.136	2.63448
271.029	1.15454
273.922	1.74826
276.814	2.54794
279.707	2.36435
282.6	0.648499
285.493	1.35936
288.385	4.88354
291.278	12.3506
294.171	22.8415
297.063	40.1606
299.956	68.101
302.849	94.5374
305.741	128.548
308.634	164.457
311.527	200.815
314.42	240.637
317.312	277.541
320.205	287.055
323.098	255.109
325.99	188.073
328.883	121.663
331.776	76.7213
334.668	45.0251
337.561	29.1935
340.454	17.3082
343.346	9.02513
346.239	5.23421
349.132	0.530029
352.024	0.488876
354.917	1.05669
357.81	0.135437
360.703	3.38069
363.595	7.86571
366.488	15.6185
369.381	22.3891
372.273	29.3014
375.166	37.0772
378.059	44.4952
380.952	45.3122
383.844	39.3322
386.737	27.123
389.63	17.3722
392.522	9.98299
395.415	7.87854
398.308	7.50357
401.2	12.4439
404.093	18.4053
406.986	21.7845
409.878	29.788
412.771	37.5042
415.664	45.9903
418.557	49.3075
421.449	37.9937
424.342	22.2688
427.235	10.1282
430.127	4.96297
433.02	4.45547
435.913	5.72673
438.805	6.66345
441.698	9.39156
444.591	10.6301
447.484	11.2498
450.376	11.4839
453.269	8.96518
456.162	6.17366
459.054	3.19685
461.947	1.21239
464.84	0.604111
467.733	0.66423
470.625	1.14534
473.518	0.564941
476.411	0.350571
479.303	0.390549
482.196	0.109283
485.089	0.245987
487.981	0.471786
490.874	1.44574
493.767	1.43498
496.659	2.84531
499.552	3.67227
502.445	3.42395
505.337	4.2753
508.23	4.66364
511.123	6.22951
514.016	6.92036
516.908	7.60229
519.801	7.65868
522.694	9.86751
525.586	9.60593
528.479	10.3251
531.372	11.8587
534.264	13.3149
537.157	16.1477
540.05	15.8328
542.943	15.204
545.835	16.5216
548.728	15.9983
551.621	17.6221
554.513	18.467
557.406	18.161
560.299	15.5095
563.192	10.7761
566.084	6.6015
568.977	5.18642
571.87	2.87729
574.762	1.00783
577.655	0.214615
580.548	1.10152
583.44	0.097855
586.333	0.969086
589.226	0.939713
592.119	0.695633
595.011	1.79036
597.904	0.514938
600.797	0.339859
603.689	0.321213
606.582	0.053848
609.475	0.596756
612.367	0.499756
615.26	0.016251
618.153	0.386124
621.045	2.27936
623.938	3.55351
626.831	3.62386
629.723	4.08148
632.616	6.18712
635.509	8.20706
638.402	10.5752
641.294	12.3282
644.187	16.8557
647.08	21.8218
649.972	26.5774
652.865	35.7772
655.758	45.9367
658.65	62.403
661.543	87.9144
664.436	126.725
667.329	192.302
670.221	297.857
673.114	444.628
676.007	596.765
678.899	764.251
681.792	961.045
684.685	1138.68
687.577	1118.61
690.47	825.691
693.363	515.356
696.256	323.812
699.148	216.188
702.041	154.335
704.934	108.559
707.826	78.1919
710.719	58.5508
713.612	43.6479
716.505	32.322
719.397	25.6906
722.29	20.3265
725.183	16.9059
728.075	13.6644
730.968	11.1595
733.861	9.56131
736.753	6.55687
739.646	6.96011
742.539	4.16765
745.432	3.22861
748.324	1.63268
751.217	0.088226
754.11	0.048874
757.002	0.618362
759.895	0.044296
762.788	0.532898
765.68	1.14617
768.573	1.61372
771.466	0.197807
774.359	0.028687
777.251	0.792282
780.144	0.041641
783.037	0.416885
785.929	0.622559
788.822	2.49863
791.715	1.55722
794.607	2.76324
797.5	2.89244
800.393	3.32007
803.285	3.05806
806.178	3.25632
809.071	2.38609
811.963	2.83446
814.856	3.75112
817.749	4.16764
820.642	3.61631
823.534	4.07969
826.427	3.28936
829.32	3.79545
832.212	2.90614
835.105	2.55184
837.998	2.02686
840.89	1.79858
843.783	2.264
846.676	1.44423
849.569	2.04446
852.461	1.21046
855.354	1.37288
858.247	1.97781
861.139	2.39863
864.032	2.63469
866.925	1.53131
869.817	1.90593
872.71	2.21155
875.603	1.20544
878.495	0.738678
881.388	0.681511
884.281	1.35328
887.174	1.16143
890.066	1.97624
892.959	0.541046
895.852	1.40192
898.744	1.85804
901.637	1.49069
904.53	1.16256
907.423	0.196365
910.315	0.208755
913.208	0.043968
916.101	0.811806
918.993	0.103233
921.886	0.209572
924.779	1.1043
927.671	1.54715
930.564	0.585327
933.457	0.136154
936.35	0.862526
939.242	0.589668
942.135	1.0059
945.028	0.744804
947.92	1.16605
950.813	1.1808
953.706	0.633163
956.598	1.32342
959.491	2.01724
962.384	1.10491
965.277	1.19667
968.169	0.726723
971.062	0.822327
973.955	0.794579
976.847	1.19702
979.74	0.963158
982.633	1.46459
985.525	0.739777
988.418	0.139824
991.311	1.10707
994.203	0.373062
997.096	2.06212
999.989	0.523857
1002.88	0.218491
1005.77	0.511017
1008.67	0.14135
1011.56	0.20414
1014.45	0.768387
1017.35	0.188538
1020.24	0.017937
1023.13	0.537064
1026.02	0.862953
1028.92	0.477409
1031.81	0.160919
1034.7	0.110481
1037.59	1.19245
1040.49	0.051613
1043.38	0.29808
1046.27	1.05228
1049.16	0.475098
1052.06	0.354637
1054.95	0.771996
1057.84	0.895523
1060.74	0.59848
1063.63	0.087563
1066.52	0.662102
1069.41	0.559288
1072.31	0.451469
1075.2	0.50692
1078.09	0.425491
1080.98	0.323456
1083.88	1.67819
1086.77	0.06134
1089.66	5.23731
1092.56	0.810432
1095.45	1.00346
1098.34	1.07991
1101.23	1.09103
1104.13	0.806618
1107.02	1.8859
1109.91	1.08759
1112.8	1.28658
1115.7	1.40228
1118.59	2.05323
1121.48	3.01453
1124.38	2.44826
1127.27	2.49337
1130.16	3.45423
1133.05	5.57655
1135.95	2.57768
1138.84	2.79182
1141.73	3.29689
1144.62	3.75114
1147.52	4.077
1150.41	3.06333
1153.3	3.46674
1156.19	3.0733
1159.09	4.09187
1161.98	4.56246
1164.87	4.72781
1167.77	4.9742
1170.66	5.78419
1173.55	5.78001
1176.44	5.93339
1179.34	6.16387
1182.23	5.25718
1185.12	5.74649
1188.01	5.88603
1190.91	5.02102
1193.8	4.93919
1196.69	4.94052
1199.59	4.17579
1202.48	3.33601
1205.37	2.92122
1208.26	3.10424
1211.16	2.18773
1214.05	1.81461
1216.94	0.450806
1219.83	0.103333
1222.73	0.700417
1225.62	0.779297
1228.51	0.44368
1231.4	0.757713
1234.3	0.581833
1237.19	1.65755
1240.08	1.41394
1242.97	2.35352
1245.87	3.30206
1248.76	3.68009
1251.65	4.54403
1254.55	5.02064
1257.44	2.64267
1260.33	2.52144
1263.22	2.89058
1266.12	3.23373
1269.01	2.11121
1271.9	3.58717
1274.8	3.03152
1277.69	2.04277
1280.58	1.30003
1283.47	0.089859
