Measurement: Raman, 532 nm, unoriented, Raman Data Processed
Mineral: Ottoite
Rruff sample: R130126
Ideal chemistry: Pb_2_TeO_5_
Locality: Grand Central mine, Tombstone, Cochise County, Arizona
Source: Bob Jenkins
Description: Clusters of pale yellow-green spear-shaped crystals, in subparallel to divergent intergrowths.
Raman shift (cm-1)	intensity
225.801	0
228.693	2.42999
231.586	18.6749
234.479	39.9768
237.371	65.3661
240.264	92.7411
243.157	90.5189
246.05	65.4829
248.942	42.3571
251.835	24.7902
254.728	17.6457
257.62	10.456
260.513	6.01889
263.406	2.5639
266.298	3.29358
269.191	1.49274
272.084	0.121124
274.977	0.313416
277.869	2.37393
280.762	1.07526
283.655	0.096924
286.547	0.766174
289.44	3.32648
292.333	6.68759
295.226	11.0123
298.118	18.3307
301.011	27.2191
303.904	41.8058
306.796	59.4779
309.689	78.9901
312.582	103.408
315.474	131.498
318.367	158.374
321.26	167.085
324.152	147.671
327.045	105.649
329.938	68.4006
332.831	43.6177
335.723	27.7004
338.616	19.4436
341.509	10.7247
344.401	9.56973
347.294	4.29965
350.187	2.48453
353.079	0.714355
355.972	0.383453
358.865	0.790466
361.758	3.04724
364.65	2.21732
367.543	5.38739
370.436	8.15936
373.328	13.6063
376.221	19.1607
379.114	22.5924
382.007	22.8422
384.899	18.8331
387.792	11.4199
390.685	5.56442
393.577	3.19156
396.47	0.135193
399.363	1.29807
402.255	2.7435
405.148	4.91907
408.041	8.52637
410.933	12.5491
413.826	19.6759
416.719	26.0236
419.612	24.2698
422.504	14.9425
425.397	7.37967
428.29	4.6174
431.182	4.76566
434.075	4.02371
436.968	4.96417
439.861	8.80939
442.753	11.4514
445.646	11.4178
448.539	14.7329
451.431	12.6749
454.324	10.4998
457.217	5.22678
460.109	4.92896
463.002	2.71835
465.895	0.125458
468.788	0.933441
471.68	1.23215
474.573	2.67133
477.466	0.995117
480.358	0.975464
483.251	0.911072
486.144	0.278168
489.036	0.0466
491.929	0.326965
494.822	1.03326
497.714	1.46652
500.607	2.00147
503.5	1.23224
506.393	0.610077
509.285	0.310272
512.178	2.28744
515.071	2.08548
517.963	2.9577
520.856	2.41183
523.749	4.12512
526.641	7.4241
529.534	7.55215
532.427	9.11542
535.32	14.1893
538.212	14.1665
541.105	14.6866
543.998	13.589
546.89	13.5851
549.783	13.6232
552.676	16.8409
555.568	15.7148
558.461	17.815
561.354	12.1374
564.247	8.3338
567.139	6.00913
570.032	4.67523
572.925	1.69373
575.817	1.76388
578.71	0.009277
581.603	0.575897
584.495	0.602997
587.388	1.88757
590.281	1.40936
593.174	0.412659
596.066	0.869415
598.959	0.324982
601.852	1.36426
604.744	1.16357
607.637	0.442383
610.53	1.69311
613.423	1.78519
616.315	0.097473
619.208	1.69486
622.101	2.15558
624.993	2.88763
627.886	2.98672
630.779	2.5369
633.671	3.9932
636.564	3.43732
639.457	5.35394
642.35	5.31247
645.242	10.8872
648.135	11.7901
651.028	16.7808
653.92	24.7793
656.813	29.6275
659.706	38.6159
662.598	54.8725
665.491	83.1305
668.384	120.551
671.277	187.251
674.169	287.811
677.062	414.331
679.955	583.429
682.847	800.654
685.74	978.749
688.633	942.392
691.525	670.218
694.418	413.931
697.311	267.924
700.203	187.563
703.096	133.564
705.989	96.9241
708.882	68.6526
711.774	51.7583
714.667	35.8713
717.56	28.7518
720.452	22.0029
723.345	18.9355
726.238	13.3026
729.13	11.6721
732.023	9.78424
734.916	10.0057
737.809	7.54858
740.701	2.52811
743.594	1.50714
746.487	5.547
749.379	1.12347
752.272	1.20215
755.165	0.351959
758.058	0.433594
760.95	0.791809
763.843	2.01083
766.736	0.120361
769.628	0.082031
772.521	1.33984
775.414	2.76694
778.306	1.88123
781.199	0.961487
784.092	1.05151
786.985	0.403015
789.877	1.13202
792.77	1.19928
795.663	2.53384
798.555	2.55408
801.448	0.234558
804.341	1.5387
807.233	3.67352
810.126	2.3186
813.019	3.69144
815.912	2.14117
818.804	3.56635
821.697	4.24557
824.59	4.70373
827.482	2.13229
830.375	0.592987
833.268	2.29724
836.16	3.22168
839.053	3.08429
841.946	3.51309
844.838	3.44437
847.731	3.71628
850.624	3.70303
853.517	2.6546
856.409	4.82761
859.302	2.80789
862.195	2.34235
865.087	3.30133
867.98	2.6929
870.873	3.0715
873.765	1.8952
876.658	1.96207
879.551	2.19165
882.444	0.985992
885.336	0.069061
888.229	0.651733
891.122	1.29251
894.014	2.24771
896.907	8.29416
899.8	3.4552
902.692	2.14081
905.585	0.538177
908.478	3.34857
911.371	2.39386
914.263	1.03095
917.156	0.827606
920.049	1.62711
922.941	3.77231
925.834	1.42319
928.727	2.3649
931.62	0.115784
934.512	2.38937
937.405	2.63284
940.298	5.28262
943.19	2.86316
946.083	4.04617
948.976	2.98941
951.868	1.12006
954.761	0.742767
957.654	0.266815
960.547	0.384491
963.439	3.06979
966.332	1.01428
969.225	3.79959
972.117	4.65323
975.01	3.94458
977.903	4.16885
980.795	3.14719
983.688	1.69672
986.581	3.47498
989.473	2.8526
992.366	3.5509
995.259	0.172882
998.152	2.52594
1001.04	1.57129
1003.94	1.69571
1006.83	1.41504
1009.72	1.66174
1012.62	2.19775
1015.51	0.029541
1018.4	1.12695
1021.29	3.46072
1024.19	0.935791
1027.08	2.27008
1029.97	2.32501
1032.86	1.3598
1035.76	2.31171
1038.65	0.635803
1041.54	0.516815
1044.43	0.507629
1047.33	0.619629
1050.22	0.548462
1053.11	1.63
1056.01	1.28101
1058.9	0.125183
1061.79	0.297607
1064.68	1.18103
1067.58	1.09192
1070.47	1.28186
1073.36	0.832458
1076.26	2.33954
1079.15	2.21948
1082.04	1.84094
1084.93	5.30261
1087.83	2.32977
1090.72	3.5221
1093.61	1.75006
1096.5	0.742249
1099.4	2.42804
1102.29	2.79034
1105.18	2.31671
1108.07	2.24097
1110.97	1.58929
1113.86	1.81903
1116.75	2.21802
1119.64	1.83868
1122.54	4.2619
1125.43	1.40375
1128.32	2.10333
1131.22	2.1156
1134.11	4.30719
1137	3.97961
1139.89	3.23804
1142.79	2.35956
1145.68	3.19244
1148.57	2.93396
1151.46	1.42169
1154.36	1.16687
1157.25	2.6134
1160.14	2.66699
1163.04	2.1593
1165.93	0.157166
1168.82	2.49823
1171.71	2.13843
1174.61	4.57806
1177.5	2.48114
1180.39	1.6571
1183.28	3.586
1186.18	0.416687
1189.07	1.06311
1191.96	3.86389
1194.86	3.16943
1197.75	4.57642
1200.64	4.53949
1203.53	4.65533
1206.43	2.59985
1209.32	5.13464
1212.21	3.55273
1215.1	1.14557
1218	0.839783
1220.89	1.43115
1223.78	0.967712
1226.67	1.56744
1229.57	0.202271
1232.46	0.929688
1235.35	0.505981
1238.25	0.469543
1241.14	1.66846
1244.03	2.47528
1246.92	1.67987
1249.82	0.338257
1252.71	0.944214
1255.6	2.26617
1258.49	2.43561
1261.39	3.73554
1264.28	4.53442
1267.17	3.68384
1270.07	3.48633
1272.96	2.09088
1275.85	2.31616
1278.74	2.93256
1281.64	3.73737
1284.53	1.28101
1287.42	1.11481
1290.31	1.43677
1293.21	0.725891
1296.1	2.68164
1298.99	2.16772
1301.88	0
