Measurement: Raman, 532 nm, unoriented, Raman Data Processed
Mineral: Ottrelite
Rruff sample: R060832
Ideal chemistry: Mn^2+^Al_2_O(SiO_4_)(OH)_2_
Locality: Ottre, Belgium
Source: Michael Scott
Description: Black pseudohexagonal flakes
Raman shift (cm-1)	intensity
120.077	0
122.969	51.8382
125.862	95.5695
128.755	124.739
131.648	58.2101
134.54	8.53241
137.433	40.1785
140.326	88.1227
143.218	21.7344
146.111	5.5744
149.004	21.4238
151.896	21.5291
154.789	2.22418
157.682	14.369
160.574	13.8011
163.467	17.931
166.36	30.1666
169.252	1.15802
172.145	31.4686
175.038	19.2621
177.931	21.2036
180.823	35.4464
183.716	25.2195
186.609	72.0374
189.501	81.0513
192.394	103.443
195.287	129.122
198.179	124.592
201.072	173.296
203.965	216.264
206.858	220.657
209.75	206.011
212.643	200.375
215.536	195.362
218.428	143.856
221.321	121.115
224.214	113.347
227.107	104.657
229.999	72.9249
232.892	99.8588
235.785	94.777
238.677	71.0675
241.57	92.7788
244.463	80.5009
247.355	121.663
250.248	148.772
253.141	157.398
256.033	166.602
258.926	160.162
261.819	126.861
264.712	118.653
267.604	97.8993
270.497	65.9522
273.39	97.9537
276.282	112.333
279.175	160.881
282.068	202.239
284.96	249.793
287.853	275.25
290.746	245.772
293.639	149.691
296.531	87.5358
299.424	68.613
302.317	23.5208
305.209	16.7299
308.102	27.8436
310.995	9.17071
313.887	17.9819
316.78	4.68207
319.673	8.75787
322.565	1.11072
325.458	5.06677
328.351	35.3151
331.244	47.7257
334.136	59.2768
337.029	85.0402
339.922	53.0637
342.814	70.2039
345.707	46.846
348.6	62.3482
351.493	65.0347
354.385	65.9641
357.278	63.1595
360.171	43.4846
363.063	22.6396
365.956	48.291
368.849	18.4723
371.741	7.81574
374.634	20.0888
377.527	0.027588
380.419	1.43103
383.312	15.7965
386.205	22.8712
389.098	29.4365
391.99	23.2194
394.883	49.9824
397.776	58.2516
400.668	62.4836
403.561	59.1777
406.454	86.3127
409.346	111.516
412.239	137.844
415.132	133.852
418.024	139.328
420.917	197.961
423.81	208.3
426.703	236.549
429.595	263.45
432.488	288.492
435.381	299.975
438.273	301.261
441.166	330.008
444.059	331.267
446.952	327.605
449.844	346.818
452.737	376.004
455.63	376.609
458.522	448.28
461.415	542.469
464.308	582.665
467.2	453.205
470.093	262.221
472.986	149.226
475.878	97.9528
478.771	17.1565
481.664	6.22168
484.557	5.76331
487.449	30.4535
490.342	25.045
493.235	54.4021
496.127	85.9734
499.02	125.761
501.913	129.2
504.805	130.795
507.698	147.149
510.591	168.878
513.484	100.478
516.376	73.7437
519.269	43.5785
522.162	50.5535
525.054	81.3782
527.947	99.5024
530.84	47.7419
533.732	26.5182
536.625	1.53333
539.518	8.25641
542.41	21.3978
545.303	14.3292
548.196	44.7479
551.089	119.657
553.981	152.06
556.874	49.1689
559.767	4.80835
562.659	2.54095
565.552	3.8382
568.445	13.0771
571.337	13.6585
574.23	66.6262
577.123	119.077
580.016	278.088
582.908	475.325
585.801	789.675
588.694	1406.66
591.586	2225.07
594.479	3626.86
597.372	2440.55
600.264	930.011
603.157	604.567
606.05	488.856
608.942	436.539
611.835	419.987
614.728	361.173
617.621	308.599
620.513	266.813
623.406	226.285
626.299	187.769
629.191	161.887
632.084	129.248
634.977	94.5503
637.87	77.2835
640.762	78.3868
643.655	43.1432
646.548	26.8465
649.44	45.4613
652.333	38.8946
655.226	9.32648
658.118	22.8575
661.011	6.96191
663.904	11.7393
666.797	28.2928
669.689	30.0181
672.582	9.95047
675.475	10.3512
678.367	7.55893
681.26	19.7185
684.153	20.3988
687.045	1.59247
689.938	42.5731
692.831	19.2343
695.723	15.0229
698.616	26.4886
701.509	36.187
704.402	41.1841
707.294	17.6908
710.187	36.5661
713.08	49.4847
715.972	78.6592
718.865	112.949
721.758	121.822
724.65	148.595
727.543	204.053
730.436	229.655
733.328	208.339
736.221	222.738
739.114	223.404
742.007	228.543
744.899	201.112
747.792	181.094
750.685	157.321
753.577	70.122
756.47	85.1022
759.363	71.4506
762.255	52.9324
765.148	42.9524
768.041	10.0023
770.934	4.2847
773.826	22.2695
776.719	21.8917
779.612	13.9067
782.504	3.43948
785.397	20.0132
788.29	4.04782
791.183	10.0685
794.075	31.6442
796.968	18.4039
799.861	14.7632
802.753	7.72122
805.646	5.67166
808.539	0.652649
811.431	4.18872
814.324	24.3873
817.217	0.46109
820.109	5.09186
823.002	18.3683
825.895	25.7477
828.788	42.0211
831.68	102.707
834.573	137.497
837.466	188.386
840.358	207.729
843.251	230.565
846.144	194.545
849.036	163.37
851.929	137.947
854.822	113.983
857.715	88.7827
860.607	61.7261
863.5	101.868
866.393	110.011
869.285	168.926
872.178	252.301
875.071	368.978
877.963	432.136
880.856	479.92
883.749	423.429
886.641	343.776
889.534	218.438
892.427	174.459
895.32	135.917
898.212	85.8282
901.105	69.4128
903.998	71.3832
906.89	83.0779
909.783	76.1288
912.676	61.4636
915.568	31.1232
918.461	25.225
921.354	34.3646
924.246	46.6912
927.139	32.481
930.032	42.7067
932.925	9.6908
935.817	16.5625
938.71	28.0626
941.603	34.2409
944.495	28.9045
947.388	43.1677
950.281	52.3699
953.173	63.6602
956.066	61.8486
958.959	51.7639
961.852	42.5442
964.744	41.4137
967.637	11.668
970.53	20.1944
973.422	13.4902
976.315	12.606
979.208	12.9657
982.101	12.1328
984.993	3.79562
987.886	1.47818
990.779	10.4974
993.671	6.23911
996.564	5.04736
999.457	9.61404
1002.35	40.4085
1005.24	23.8087
1008.13	30.8839
1011.03	37.8903
1013.92	28.0977
1016.81	8.7186
1019.71	21.8879
1022.6	28.4186
1025.49	27.3071
1028.38	38.3351
1031.28	15.6407
1034.17	16.5057
1037.06	10.1484
1039.95	29.2384
1042.85	22.8519
1045.74	28.9276
1048.63	21.6422
1051.53	16.1504
1054.42	27.4151
1057.31	15.3521
1060.2	24.1504
1063.1	19.2338
1065.99	17.1173
1068.88	26.6947
1071.77	18.1735
1074.67	14.5167
1077.56	31.6376
1080.45	35.7684
1083.35	17.3496
1086.24	62.6516
1089.13	35.4746
1092.02	54.3524
1094.92	25.2772
1097.81	21.5276
1100.7	19.1305
1103.59	19.9446
1106.49	28.1281
1109.38	26.0075
1112.27	11.2694
1115.16	20.1119
1118.06	11.2179
1120.95	1.22046
1123.84	14.304
1126.73	46.1147
1129.63	3.51361
1132.52	17.1377
1135.41	21.3163
1138.31	43.4535
1141.2	40.9111
1144.09	27.1754
1146.98	22.5486
1149.88	26.9263
1152.77	12.6558
1155.66	37.4626
1158.56	41.9715
1161.45	45.0541
1164.34	12.9634
1167.23	39.2466
1170.13	38.9096
1173.02	37.2447
1175.91	35.7342
1178.8	26.3147
1181.7	18.0485
1184.59	25.7345
1187.48	30.7299
1190.38	14.5789
1193.27	2.48117
1196.16	2.5856
1199.05	39.0382
1201.94	35.076
1204.84	34.2913
1207.73	3.03134
1210.62	26.6946
1213.52	31.4974
1216.41	26.7948
1219.3	34.0478
1222.19	13.9084
1225.09	14.9908
1227.98	21.6751
1230.87	14.1316
1233.77	30.9439
1236.66	38.9869
1239.55	15.2908
1242.44	39.3066
1245.34	26.1139
1248.23	4.03888
1251.12	23.3722
1254.01	23.9535
1256.91	16.0701
1259.8	2.13696
