Measurement: Raman, 785 nm, unoriented, Raman Data Processed
Mineral: Ottrelite
Rruff sample: R060832
Ideal chemistry: Mn^2+^Al_2_O(SiO_4_)(OH)_2_
Locality: Ottre, Belgium
Source: Michael Scott
Description: Black pseudohexagonal flakes
Raman shift (cm-1)	intensity
128.277	0
131.17	29.9746
134.062	38.3369
136.955	5.15949
139.848	0.390991
142.741	20.4295
145.633	88.4066
148.526	221.317
151.419	240.524
154.311	183.385
157.204	78.5394
160.097	62.1803
162.989	82.7358
165.882	93.3348
168.775	136.1
171.668	128.682
174.56	111.085
177.453	97.3812
180.346	75.0849
183.238	82.889
186.131	105.281
189.024	135.021
191.917	106.971
194.809	168.32
197.702	205.023
200.595	247.412
203.487	247.284
206.38	241.484
209.273	215.882
212.165	220.738
215.058	190.724
217.951	176.482
220.844	136.604
223.736	144.454
226.629	120.68
229.522	93.6238
232.414	72.5723
235.307	88.1636
238.2	103.556
241.092	106.517
243.985	142.644
246.878	202.826
249.77	227.28
252.663	213.165
255.556	170.733
258.449	149.643
261.341	106.693
264.234	86.864
267.127	34.5531
270.019	31.2797
272.912	34.6797
275.805	79.9138
278.697	184.706
281.59	280.659
284.483	359.753
287.376	363.06
290.268	302.845
293.161	223.363
296.054	152.017
298.946	128.496
301.839	78.4279
304.732	57.9362
307.625	21.4783
310.517	8.52197
313.41	3.17944
316.303	15.8743
319.195	17.2026
322.088	13.304
324.981	61.6668
327.873	141.019
330.766	161.987
333.659	132.336
336.551	104.099
339.444	68.508
342.337	30.4928
345.23	34.6834
348.122	36.494
351.015	46.6908
353.908	46.9116
356.8	40.1585
359.693	47.2918
362.586	29.4453
365.478	40.5365
368.371	99.5478
371.264	51.6189
374.157	44.8472
377.049	7.6825
379.942	13.5101
382.835	13.1171
385.727	24.0345
388.62	24.3527
391.513	11.1133
394.406	50.2041
397.298	72.8468
400.191	76.7404
403.084	65.4203
405.976	126.046
408.869	126.564
411.762	114.367
414.654	122.627
417.547	158
420.44	164.177
423.332	178.882
426.225	180.1
429.118	175.357
432.011	180.271
434.903	209.76
437.796	225.417
440.689	256.125
443.581	254.602
446.474	309.378
449.367	309.795
452.26	296.176
455.152	346.365
458.045	458.969
460.938	620.086
463.83	697.782
466.723	523.868
469.616	264.992
472.508	182.639
475.401	100.726
478.294	72.3281
481.187	61.6542
484.079	93.7302
486.972	181.443
489.865	265.426
492.757	424.77
495.65	604.229
498.543	691.696
501.435	663.554
504.328	644.316
507.221	642.548
510.114	594.308
513.006	442.571
515.899	325.057
518.792	253.69
521.684	256.286
524.577	227.641
527.47	273.386
530.362	218.371
533.255	161.798
536.148	19.0989
539.04	17.4539
541.933	1.83008
544.826	41.569
547.719	81.6655
550.611	175.357
553.504	225.816
556.397	47.1376
559.289	7.5719
562.182	9.83301
565.075	25.8192
567.967	21.6062
570.86	1.5946
573.753	56.535
576.646	115.56
579.538	210.601
582.431	443.764
585.324	966.886
588.216	2071.55
591.109	3706.4
594.002	5683.03
596.895	3560.2
599.787	1320.06
602.68	768.961
605.573	594.973
608.465	537.32
611.358	515.855
614.251	428.595
617.144	372.774
620.036	307.393
622.929	261.889
625.822	242.916
628.714	185.601
631.607	163.796
634.5	130.575
637.392	110.008
640.285	89.0773
643.178	45.7944
646.071	40.5571
648.963	30.2176
651.856	29.6055
654.749	24.2608
657.641	11.7563
660.534	21.7784
663.427	27.9515
666.319	0.585632
669.212	18.4638
672.105	19.3021
674.997	32.2305
677.89	3.97028
680.783	16.728
683.676	18.3992
686.568	25.165
689.461	2.09882
692.354	4.06091
695.246	17.3265
698.139	34.2885
701.032	8.79315
703.924	26.8117
706.817	22.851
709.71	25.1332
712.603	68.7408
715.495	47.095
718.388	59.9374
721.281	86.155
724.173	113.668
727.066	123.844
729.959	145.135
732.851	145.69
735.744	148.268
738.637	134.676
741.53	130.094
744.422	132.591
747.315	120.939
750.208	97.104
753.1	70.0331
755.993	26.2585
758.886	58.6126
761.779	66.7743
764.671	24.7107
767.564	27.2585
770.457	1.14966
773.349	27.596
776.242	29.7218
779.135	7.85474
782.027	23.4383
784.92	4.65869
787.813	27.9257
790.706	27.2394
793.598	22.8199
796.491	38.8038
799.384	1.96558
802.276	6.86926
805.169	40.637
808.062	23.5252
810.954	1.31604
813.847	10.7991
816.74	14.8767
819.633	34.7225
822.525	23.6944
825.418	38.5528
828.311	64.8569
831.203	79.1877
834.096	156.221
836.989	163.662
839.881	206.732
842.774	214.192
845.667	213.298
848.559	186.96
851.452	153.518
854.345	115.472
857.238	111.642
860.13	111.434
863.023	96.4909
865.916	147.899
868.808	202.603
871.701	279.144
874.594	414.324
877.486	512.152
880.379	527.669
883.272	438.129
886.165	334.595
889.057	212.779
891.95	140.539
894.843	112.097
897.735	121.92
900.628	81.0745
903.521	69.8902
906.413	51.364
909.306	53.9435
912.199	59.0573
915.092	37.8357
917.984	42.2781
920.877	6.15436
923.77	19.3338
926.663	9.82684
929.555	8.66174
932.448	36.2441
935.341	13.1133
938.233	50.7667
941.126	24.9999
944.019	38.7602
946.911	39.0427
949.804	35.5903
952.697	35.4441
955.59	60.1844
958.482	41.4103
961.375	57.6576
964.268	51.4076
967.16	27.2354
970.053	47.2557
972.946	14.6479
975.838	2.52685
978.731	26.3908
981.624	5.72351
984.516	18.1539
987.409	43.7398
990.302	10.913
993.195	6.69373
996.087	25.7716
998.98	9.64771
1001.87	22.6336
1004.76	19.3322
1007.66	46.937
1010.55	2.12152
1013.44	10.6207
1016.34	25.033
1019.23	5.34357
1022.12	24.131
1025.01	31.7791
1027.91	2.21887
1030.8	27.275
1033.69	26.5669
1036.59	31.5773
1039.48	23.6422
1042.37	16.7462
1045.26	19.5868
1048.16	15.3954
1051.05	18.6862
1053.94	44.8724
1056.83	14.9858
1059.73	27.4946
1062.62	54.9396
1065.51	38.9744
1068.4	34.6605
1071.3	40.7581
1074.19	21.889
1077.08	55.3769
1079.98	37.6614
1082.87	10.0045
1085.76	4.86206
1088.65	30.7535
1091.55	41.1133
1094.44	32.6484
1097.33	43.114
1100.22	11.3724
1103.12	42.7305
1106.01	40.0973
1108.9	26.7462
1111.8	21.4302
1114.69	5.55469
1117.58	14.402
1120.47	39.4227
1123.37	10.9122
1126.26	24.9632
1129.15	7.77423
1132.04	9.76245
1134.94	33.1356
1137.83	4.2583
1140.72	43.9777
1143.62	34.1575
1146.51	7.68018
1149.4	46.1444
1152.29	14.4405
1155.19	35.4044
1158.08	23.7012
1160.97	59.3315
1163.86	33.272
1166.76	13.6705
1169.65	3.53015
1172.54	4.54224
1175.43	17.8545
1178.33	38.7496
1181.22	21.2183
1184.11	49.0378
1187.01	17.3226
1189.9	33.9094
1192.79	25.2237
1195.68	45.7377
1198.58	41.7504
1201.47	57.7165
1204.36	11.1782
1207.25	0.037231
1210.15	42.9064
1213.04	28.9106
1215.93	70.5126
1218.83	63.2028
1221.72	72.0809
1224.61	67.9587
1227.5	60.6765
1230.4	74.7225
1233.29	37.5945
1236.18	10.4183
1239.07	14.4797
1241.97	32.5491
1244.86	39.5413
1247.75	71.204
1250.64	30.9138
1253.54	51.269
1256.43	0.218689
