Measurement: Raman, 532 nm, unoriented, Raman Data Processed
Mineral: Overite
Rruff sample: R100024
Ideal chemistry: CaMgAl(PO_4_)_2_(OH)4H_2_O
Locality: Clay Canyon deposit, near Fairfield, Utah County, Utah, USA
Source: Terry Szenics
Description: Light apple-green lathlike crystals
Raman shift (cm-1)	intensity
164.738	0
167.631	4.22485
170.524	4.16663
173.416	11.8524
176.309	9.24524
179.202	23.2931
182.094	30.3302
184.987	30.5527
187.88	25.0265
190.773	15.5015
193.665	9.16663
196.558	12.7026
199.451	3.552
202.343	1.57031
205.236	1.08398
208.129	3.61194
211.021	8.17346
213.914	34.0005
216.807	51.48
219.699	75.5604
222.592	98.264
225.485	122.798
228.377	146.653
231.27	163.187
234.163	163.414
237.056	141.901
239.948	102.755
242.841	70.3981
245.734	43.7321
248.626	25.1686
251.519	15.1926
254.412	7.35376
257.305	0.565796
260.197	0.322021
263.09	0.610107
265.983	6.5968
268.875	8.43372
271.768	2.58813
274.661	4.77051
277.553	1.177
280.446	9.23328
283.339	23.8081
286.232	56.2079
289.124	90.7913
292.017	114.048
294.91	119.104
297.802	110.339
300.695	100.482
303.588	82.1344
306.481	63.6272
309.373	51.1766
312.266	41.1328
315.159	33.448
318.051	29.1003
320.944	15.2371
323.837	11.9397
326.729	13.7747
329.622	21.9863
332.515	21.6528
335.408	25.2106
338.3	17.8995
341.193	22.9918
344.086	30.2366
346.978	45.4102
349.871	61.8509
352.764	60.2618
355.656	79.8751
358.549	83.6504
361.442	80.0636
364.334	57.995
367.227	30.3528
370.12	13.3323
373.012	1.3031
375.905	9.29248
378.798	3.8136
381.691	2.70142
384.583	0.661987
387.476	1.24255
390.369	8.1062
393.261	7.85205
396.154	3.02685
399.047	4.6571
401.94	7.3302
404.832	17.7155
407.725	22.1957
410.618	31.5438
413.51	41.1082
416.403	53.5486
419.296	65.6354
422.188	77.7596
425.081	84.3618
427.974	86.6427
430.866	97.9186
433.759	87.0928
436.652	90.8809
439.545	79.4105
442.437	73.3125
445.33	62.9066
448.223	63.3389
451.115	56.7557
454.008	71.2649
456.901	77.4696
459.793	94.9742
462.686	114.148
465.579	122.649
468.472	131.675
471.364	129.649
474.257	130.073
477.15	140.707
480.042	138.873
482.935	151.146
485.828	168.95
488.721	180.325
491.613	186.533
494.506	167.506
497.399	125.7
500.291	93.007
503.184	64.5075
506.077	39.5175
508.969	21.7296
511.862	14.3427
514.755	14.5402
517.648	4.18738
520.54	0.971313
523.433	3.88477
526.326	1.71533
529.218	5.43298
532.111	0.190674
535.004	4.11621
537.896	8.04712
540.789	11.454
543.682	15.8173
546.575	20.0115
549.467	28.1472
552.36	23.3123
555.253	21.0646
558.145	28.275
561.038	33.859
563.931	45.8765
566.823	63.4681
569.716	88.9435
572.609	106.777
575.502	126.997
578.394	151.069
581.287	171.017
584.18	179.209
587.072	177.161
589.965	176.051
592.858	158.981
595.75	124.416
598.643	77.689
601.536	50.0037
604.428	30.5627
607.321	21.4783
610.214	23.7614
613.107	26.3795
615.999	24.5625
618.892	30.2533
621.785	35.8831
624.677	44.587
627.57	46.738
630.463	45.6615
633.356	47.7894
636.248	43.4586
639.141	32.3433
642.034	16.78
644.926	12.6615
647.819	10.1389
650.712	6.09375
653.604	3.58411
656.497	3.49658
659.39	2.70483
662.283	1.25488
665.175	2.12891
668.068	5.12036
670.961	2.73071
673.853	1.9668
676.746	5.1687
679.639	1.09766
682.531	10.4264
685.424	4.1604
688.317	6.2489
691.21	4.80115
694.102	9.36902
696.995	5.24268
699.888	14.3227
702.78	9.77685
705.673	13.5836
708.566	14.9919
711.458	22.2593
714.351	21.3179
717.244	15.7035
720.136	12.9357
723.029	15.3874
725.922	15.3415
728.815	18.2515
731.707	11.1682
734.6	12.4106
737.493	12.7097
740.385	8.82117
743.278	5.84631
746.171	12.5286
749.063	12.0416
751.956	8.83874
754.849	3.79504
757.742	1.98083
760.634	0.854736
763.527	10.0696
766.42	5.16711
769.312	5.55359
772.205	8.20032
775.098	4.48193
777.99	3.57263
780.883	8.85596
783.776	3.61621
786.669	8.95178
789.561	5.99426
792.454	7.08325
795.347	5.47046
798.239	3.2511
801.132	11.1893
804.025	6.33398
806.918	8.58777
809.81	7.995
812.703	2.35718
815.596	11.6118
818.488	7.5946
821.381	13.7231
824.274	4.1897
827.166	2.98816
830.059	5.30408
832.952	7.1759
835.845	4.95496
838.737	0.589233
841.63	0.257568
844.523	3.63843
847.415	1.42419
850.308	13.4807
853.201	5.64795
856.093	13.5008
858.986	12.0783
861.879	16.9646
864.771	13.0745
867.664	10.9236
870.557	0.369995
873.45	9.84607
876.342	8.8468
879.235	5.18127
882.128	7.54407
885.02	6.02002
887.913	0.902832
890.806	0.509033
893.698	5.29675
896.591	4.27258
899.484	3.03796
902.377	3.15686
905.269	1.60571
908.162	1.16138
911.055	0.206055
913.947	3.12976
916.84	8.9342
919.733	6.92468
922.625	1.89233
925.518	3.83679
928.411	6.23547
931.304	12.2645
934.196	10.6867
937.089	12.7627
939.982	23.7948
942.875	35.947
945.767	65.4098
948.66	86.4071
951.553	126.087
954.445	207.884
957.338	348.615
960.231	589.558
963.123	894.147
966.016	1334.22
968.909	1915.56
971.802	2089.22
974.694	1346.52
977.587	706.059
980.48	428.214
983.372	294.329
986.265	215.92
989.158	165.591
992.05	112.304
994.943	76.1242
997.836	48.7852
1000.73	33.0515
1003.62	21.4398
1006.51	20.6681
1009.41	18.4457
1012.3	19.718
1015.19	19.785
1018.09	23.5116
1020.98	28.7571
1023.87	22.0435
1026.76	9.48999
1029.66	10.4705
1032.55	0.348755
1035.44	0.946777
1038.33	1.22192
1041.23	0.963989
1044.12	6.41321
1047.01	22.0649
1049.9	32.3114
1052.8	50.0155
1055.69	68.9285
1058.58	81.8005
1061.47	88.594
1064.37	80.8025
1067.26	55.4663
1070.15	34.8788
1073.05	17.5584
1075.94	17.3275
1078.83	12.696
1081.72	7.53796
1084.62	5.40649
1087.51	1.77478
1090.4	1.04846
1093.3	0.980469
1096.19	1.95093
1099.08	1.00024
1101.97	2.85864
1104.87	1.0603
1107.76	0.386475
1110.65	0.942383
1113.54	5.69946
1116.44	6.21558
1119.33	7.83911
1122.22	14.0054
1125.12	8.4502
1128.01	9.9834
1130.9	15.0508
1133.79	17.7737
1136.68	26.6838
1139.58	18.6489
1142.47	21.7651
1145.36	17.8154
1148.26	16.7407
1151.15	19.4717
1154.04	32.2932
1156.93	39.9209
1159.83	40.353
1162.72	40.9653
1165.61	45.623
1168.51	47.1841
1171.4	38.3538
1174.29	32.0283
1177.18	20.5676
1180.08	7.91577
1182.97	9.73096
1185.86	9.93921
1188.75	6.25732
1191.65	12.1834
1194.54	1.6167
1197.43	8.55347
1200.33	6.38647
1203.22	4.60498
1206.11	5.61328
1209	3.57202
1211.9	3.27295
1214.79	19.0366
1217.68	1.23608
1220.57	1.32471
1223.47	2.32153
1226.36	7.66846
1229.25	2.37036
1232.14	5.05054
1235.04	0.864258
1237.93	5.66406
1240.82	3.89502
1243.71	0.226318
1246.61	7.37817
1249.5	8.22681
1252.39	15.7107
1255.29	19.6301
1258.18	5.8042
1261.07	5.58374
1263.96	6.02808
1266.86	4.84668
1269.75	12.6199
1272.64	11.167
1275.54	10.9841
1278.43	3.65161
1281.32	7.86597
1284.21	2.06836
1287.11	0.880371
1290	5.39038
1292.89	1.53833
1295.78	8.71704
1298.68	11.366
1301.57	7.97607
