Measurement: Raman, 780 nm, unoriented, Raman Data Processed
Mineral: Overite
Rruff sample: R100024
Ideal chemistry: CaMgAl(PO_4_)_2_(OH)4H_2_O
Locality: Clay Canyon deposit, near Fairfield, Utah County, Utah, USA
Source: Terry Szenics
Description: Light apple-green lathlike crystals
Raman shift (cm-1)	intensity
92.9796	0
96.3544	7.84222
99.7292	7.66806
103.104	14.6477
106.479	11.9362
109.854	0.570587
113.228	3.08118
116.603	6.86385
119.978	15.1614
123.353	29.068
126.728	45.2227
130.102	63.9378
133.477	76.5085
136.852	75.5669
140.227	53.7625
143.602	37.7859
146.977	22.2067
150.351	8.05998
153.726	4.48061
157.101	2.16949
160.476	1.896
163.851	0.826233
167.226	2.77678
170.6	7.17676
173.975	10.202
177.35	9.56552
180.725	14.9251
184.1	8.96036
187.474	4.59297
190.849	3.90219
194.224	5.22881
197.599	4.59288
200.974	2.57333
204.349	3.31596
207.723	6.24298
211.098	16.3456
214.473	26.5005
217.848	35.6954
221.223	48.2062
224.597	55.7647
227.972	58.6896
231.347	50.9205
234.722	43.4502
238.097	35.1396
241.471	26.3882
244.846	21.7846
248.221	17.8265
251.596	13.0727
254.971	9.09782
258.346	11.4365
261.72	12.6917
265.095	10.9519
268.47	12.7777
271.845	12.8986
275.22	11.1364
278.594	9.58583
281.969	10.0233
285.344	14.6606
288.719	21.4701
292.094	23.1765
295.469	21.3107
298.843	17.4713
302.218	12.7069
305.593	8.82104
308.968	6.34316
312.343	3.88899
315.717	3.16151
319.092	1.54158
322.467	0.809784
325.842	2.20151
329.217	1.08021
332.592	0.294449
335.966	2.69048
339.341	4.43353
342.716	6.72165
346.091	10.2133
349.466	12.8328
352.841	19.034
356.215	20.0359
359.59	16.9657
362.965	13.324
366.34	4.59174
369.715	3.19226
373.089	2.26759
376.464	1.28082
379.839	2.29067
383.214	0.48204
386.589	0.367981
389.964	1.13086
393.338	1.43207
396.713	0.478043
400.088	2.88153
403.463	3.74057
406.838	6.71121
410.212	12.9343
413.587	19.1638
416.962	28.682
420.337	34.52
423.712	39.741
427.087	45.2511
430.461	44.8599
433.836	41.4263
437.211	38.4374
440.586	32.3066
443.961	29.1214
447.335	26.9124
450.71	25.9654
454.085	27.7088
457.46	31.9698
460.835	38.7436
464.209	45.0549
467.584	47.1385
470.959	48.5221
474.334	57.0138
477.709	65.5415
481.084	76.7003
484.458	88.1033
487.833	99.7793
491.208	104.366
494.583	91.6511
497.958	66.1013
501.332	41.0801
504.707	24.9854
508.082	15.5988
511.457	5.40959
514.832	5.22408
518.207	0.336243
521.581	0.430534
524.956	2.27218
528.331	1.65422
531.706	0.250122
535.081	0.098579
538.455	4.20387
541.83	5.50512
545.205	8.35451
548.58	10.7014
551.955	12.5853
555.33	14.7826
558.704	19.9639
562.079	30.928
565.454	44.1756
568.829	57.52
572.204	76.1884
575.578	93.7527
578.953	108.819
582.328	104.965
585.703	90.2197
589.078	72.4908
592.452	57.5191
595.827	42.9351
599.202	28.8148
602.577	19.2954
605.952	13.6311
609.327	12.0328
612.701	12.5226
616.076	15.0644
619.451	18.8561
622.826	23.8388
626.201	25.2928
629.576	24.353
632.95	23.2711
636.325	19.1469
639.7	13.8563
643.075	10.6036
646.45	6.82272
649.824	3.38341
653.199	2.05308
656.574	1.33677
659.949	0.261177
663.324	0.747246
666.698	0.499435
670.073	0.648949
673.448	1.31586
676.823	2.74817
680.198	1.04384
683.573	2.63333
686.947	0.58181
690.322	2.24331
693.697	3.29833
697.072	3.82304
700.447	2.07848
703.822	4.87772
707.196	5.62096
710.571	4.62882
713.946	4.23831
717.321	4.03303
720.696	5.41425
724.07	4.9506
727.445	3.43123
730.82	3.81061
734.195	3.46278
737.57	3.36799
740.944	2.19192
744.319	0.553497
747.694	1.03101
751.069	2.00401
754.444	0.679199
757.818	1.61929
761.193	1.59501
764.568	0.565353
767.943	2.06625
771.318	0.894104
774.693	0.469604
778.067	0.208221
781.442	0.163979
784.817	0.007133
788.192	1.0331
791.567	0.423462
794.942	2.05652
798.316	1.31709
801.691	2.1115
805.066	5.16452
808.441	4.39843
811.816	6.86782
815.19	5.47774
818.565	3.64854
821.94	2.82968
825.315	3.31976
828.69	2.72223
832.064	2.28918
835.439	1.98276
838.814	2.89848
842.189	3.22652
845.564	4.40482
848.939	4.07998
852.313	5.42379
855.688	5.981
859.063	7.75805
862.438	6.31236
865.813	6.20829
869.188	5.0471
872.562	3.70889
875.937	5.87101
879.312	2.63874
882.687	3.69979
886.062	3.04032
889.436	0.246452
892.811	1.50841
896.186	0.44796
899.561	0.693008
902.936	0.077354
906.311	1.79246
909.685	0.614647
913.06	0.482101
916.435	1.22617
919.81	1.03289
923.185	1.47642
926.559	2.20361
929.934	1.61795
933.309	3.31914
936.684	3.33404
940.059	8.49921
943.433	13.7041
946.808	23.9604
950.183	39.7058
953.558	73.4287
956.933	140.865
960.308	235.937
963.682	326.88
967.057	461.059
970.432	561.468
973.807	374.622
977.182	179.69
980.557	108.954
983.931	74.5035
987.306	55.8206
990.681	37.7618
994.056	23.3601
997.431	13.4318
1000.8	9.22704
1004.18	6.57747
1007.55	5.44122
1010.93	6.25647
1014.3	8.19875
1017.68	9.91878
1021.05	10.1178
1024.43	6.54939
1027.8	1.71447
1031.18	2.05875
1034.55	0.793381
1037.93	3.87926
1041.3	6.06105
1044.68	15.1623
1048.05	20.8976
1051.43	30.3263
1054.8	38.911
1058.18	46.874
1061.55	45.3179
1064.93	36.964
1068.3	26.372
1071.68	15.7693
1075.05	8.40149
1078.43	4.4441
1081.8	1.78326
1085.18	1.4051
1088.55	1.96962
1091.92	0.341103
1095.3	0.759445
1098.67	0.753738
1102.05	0.953835
1105.42	1.68917
1108.8	0.832321
1112.17	1.77036
1115.55	3.22126
1118.92	2.87054
1122.3	3.81265
1125.67	5.17397
1129.05	5.20293
1132.42	6.87466
1135.8	8.66252
1139.17	8.68179
1142.55	8.66097
1145.92	8.16477
1149.3	8.68026
1152.67	12.3789
1156.05	12.5236
1159.42	15.9854
1162.8	17.8567
1166.17	17.5855
1169.55	16.3166
1172.92	11.2574
1176.3	7.66007
1179.67	5.21866
1183.05	3.71337
1186.42	3.53143
1189.8	3.2286
1193.17	2.15567
1196.55	1.64431
1199.92	1.76594
1203.29	0.843689
1206.67	1.3958
1210.04	0.908035
1213.42	1.48177
1216.79	0.566761
1220.17	0.415306
1223.54	1.90604
1226.92	2.61386
1230.29	0.988148
1233.67	2.12791
1237.04	1.17083
1240.42	1.82633
1243.79	2.38728
1247.17	1.24409
1250.54	1.22874
1253.92	0.867947
1257.29	2.17829
1260.67	1.9961
1264.04	4.05399
1267.42	1.73764
1270.79	0.506802
1274.17	0.254974
1277.54	0.343079
1280.91	0.894337
1284.29	0.303211
