Measurement: Raman, 532 nm, unoriented, Raman Data Processed
Mineral: Oxystannomicrolite
Rruff sample: R120163
Ideal chemistry: Sn_2_Ta_2_O_6_O
Locality: Alto Ligonha, Mozambique
Source: Marcus Origlieri
Description: Reddish brown octahedral fragment
Raman shift (cm-1)	intensity
196.392	0
199.284	35.3557
202.177	50.0461
205.07	43.1024
207.962	22.3102
210.855	5.51599
213.748	0.750244
216.64	4.3031
219.533	2.59595
222.426	3.9707
225.319	7.84644
228.211	1.92517
231.104	5.73853
233.997	23.1549
236.889	57.9777
239.782	83.9435
242.675	110.581
245.567	129.25
248.46	139.52
251.353	150.718
254.245	166.663
257.138	182.485
260.031	204.53
262.924	224.737
265.816	254.125
268.709	290.452
271.602	333.331
274.494	392.942
277.387	452.143
280.28	521.612
283.173	590.392
286.065	651.68
288.958	702.795
291.851	718.007
294.743	704.543
297.636	684.724
300.529	635.664
303.421	576.654
306.314	515.043
309.207	452.576
312.099	401.73
314.992	351.51
317.885	320.657
320.778	294.772
323.67	291.172
326.563	300.41
329.456	314.945
332.348	311.353
335.241	307.736
338.134	286.178
341.027	251.399
343.919	210.67
346.812	171.626
349.705	134.561
352.597	111.378
355.49	83.9116
358.383	61.3989
361.276	53.7223
364.168	41.8533
367.061	33.6821
369.954	16.6349
372.846	13.8058
375.739	9.4469
378.632	8.03906
381.524	2.91748
384.417	5.07324
387.31	9.83447
390.202	10.187
393.095	7.97632
395.988	10.012
398.881	6.30969
401.773	1.07031
404.666	7.65784
407.559	9.12329
410.451	11.9987
413.344	20.2855
416.237	27.0732
419.13	26.1744
422.022	30.9083
424.915	29.2914
427.808	36.5631
430.7	41.2659
433.593	36.1918
436.486	38.7032
439.378	41.863
442.271	44.8265
445.164	40.0017
448.057	38.4413
450.949	35.7529
453.842	19.6314
456.735	8.48193
459.627	3.97217
462.52	2.50085
465.413	2.6051
468.305	8.37366
471.198	0.103027
474.091	7.00537
476.983	22.6185
479.876	40.9429
482.769	69.4115
485.662	108.997
488.554	166.937
491.447	257.885
494.34	373.416
497.232	517.556
500.125	689.506
503.018	856.005
505.911	988.904
508.803	1058.77
511.696	1054.24
514.589	994.484
517.481	909.032
520.374	808.582
523.267	735.042
526.159	678.31
529.052	636.273
531.945	604.727
534.837	580.96
537.73	553.904
540.623	528.412
543.516	489.7
546.408	454.791
549.301	415.149
552.194	364.27
555.086	313.251
557.979	258.29
560.872	209.214
563.764	154.131
566.657	108.97
569.55	69.0483
572.443	37.7458
575.335	10.2584
578.228	10.8035
581.121	15.4984
584.013	18.2363
586.906	5.90637
589.799	8.02942
592.692	34.2206
595.584	61.4153
598.477	96.4784
601.37	129.138
604.262	165.609
607.155	198.151
610.048	228.537
612.94	248.164
615.833	266.141
618.726	278.757
621.619	284.302
624.511	289.841
627.404	282.358
630.297	282.579
633.189	277.786
636.082	272.248
638.975	260.333
641.867	248.517
644.76	243.732
647.653	241.54
650.545	231.966
653.438	233.44
656.331	226.701
659.224	222.065
662.116	209.243
665.009	202.554
667.902	188.739
670.794	181.862
673.687	174.578
676.58	169.303
679.472	159.235
682.365	149.133
685.258	135.451
688.151	125.678
691.043	118.469
693.936	98.4811
696.829	84.6912
699.721	68.0879
702.614	53.5418
705.507	41.7744
708.399	36.6371
711.292	24.9707
714.185	15.7543
717.078	12.5844
719.97	6.40686
722.863	4.83984
725.756	0.783081
728.648	0.35376
731.541	5.51154
734.434	7.17224
737.327	10.3216
740.219	8.2641
743.112	6.3728
746.005	4.88043
748.897	3.00732
751.79	3.87366
754.683	6.88586
757.575	13.1217
760.468	26.4216
763.361	39.9662
766.254	55.9253
769.146	74.5612
772.039	93.7903
774.932	114.382
777.824	133.714
780.717	154.008
783.61	173.696
786.502	194.305
789.395	210.3
792.288	229.079
795.181	243.754
798.073	251.933
800.966	260.483
803.859	259.661
806.751	256.811
809.644	252.231
812.537	241.489
815.429	224.497
818.322	209.737
821.215	195.356
824.107	176.951
827	154.462
829.893	135.054
832.786	114.634
835.678	98.4372
838.571	81.3949
841.464	67.4226
844.356	52.2437
847.249	36.3836
850.142	23.066
853.034	17.6724
855.927	11.9996
858.82	8.36945
861.713	8.99066
864.605	9.10248
867.498	9.90857
870.391	15.8842
873.283	17.9513
876.176	22.0732
879.069	27.7924
881.962	31.8821
884.854	40.0242
887.747	47.007
890.64	48.2294
893.532	56.1393
896.425	62.6562
899.318	66.4232
902.21	71.2981
905.103	78.4888
907.996	78.7447
910.889	83.4986
913.781	84.973
916.674	81.9499
919.567	86.4918
922.459	84.7512
925.352	76.6197
928.245	72.9636
931.137	61.7875
934.03	55.1677
936.923	44.6823
939.816	31.6162
942.708	22.1068
945.601	20.5201
948.494	11.1605
951.386	4.23267
954.279	1.36719
957.172	2.94019
960.064	4.935
962.957	3.68066
965.85	4.39545
968.742	3.60767
971.635	2.21258
974.528	2.72809
977.421	1.88303
980.313	2.19019
983.206	0.739807
986.099	1.56967
988.991	0.539429
991.884	3.49097
994.777	2.23624
997.669	1.43832
1000.56	4.99725
1003.46	4.21594
1006.35	3.53528
1009.24	7.9534
1012.13	10.2805
1015.03	11.2576
1017.92	9.29877
1020.81	10.9504
1023.7	11.3999
1026.6	10.3748
1029.49	9.47211
1032.38	10.1174
1035.28	11.9019
1038.17	13.8377
1041.06	11.8227
1043.95	16.6672
1046.85	18.2469
1049.74	18.8412
1052.63	25.7222
1055.52	24.7564
1058.42	29.0712
1061.31	28.9888
1064.2	36.2104
1067.09	38.4283
1069.99	42.1504
1072.88	45.8813
1075.77	47.0123
1078.66	49.6294
1081.56	53.6388
1084.45	57.6433
1087.34	56.9301
1090.24	57.7454
1093.13	54.3268
1096.02	56.0422
1098.91	51.8712
1101.81	51.7903
1104.7	48.2739
1107.59	45.8892
1110.48	46.8982
1113.38	47.4076
1116.27	48.6594
1119.16	56.2314
1122.06	58.9158
1124.95	64.1278
1127.84	68.9639
1130.73	70.4194
1133.63	70.0689
1136.52	68.505
1139.41	62.8967
1142.3	64.0021
1145.2	48.2041
1148.09	41.285
1150.98	32.6677
1153.88	27.5092
1156.77	27.1558
1159.66	20.195
1162.55	21.3076
1165.45	19.3039
1168.34	17.3205
1171.23	16.7737
1174.12	13.7961
1177.02	10.7253
1179.91	8.30731
1182.8	5.2984
1185.69	4.30408
1188.59	2.52441
1191.48	2.64197
1194.37	1.23065
1197.27	3.92371
1200.16	2.91119
1203.05	0.833801
1205.94	0.994751
1208.84	1.33929
1211.73	3.53827
1214.62	3.93939
1217.52	7.18036
1220.41	5.88055
1223.3	6.90234
1226.19	4.97681
1229.09	2.85083
1231.98	1.43915
1234.87	6.2912
1237.76	14.2889
1240.66	22.3921
1243.55	37.2081
1246.44	54.4697
1249.33	71.1891
1252.23	92.9174
1255.12	116.261
1258.01	144.596
1260.9	166.444
1263.8	189.495
1266.69	216.195
1269.58	247.806
1272.48	269.768
1275.37	288.544
1278.26	292.987
1281.15	287.469
1284.05	262.047
1286.94	223.71
1289.83	179.094
1292.72	126.003
1295.62	70.9305
1298.51	21.379
1301.4	3.42114
