Measurement: Raman, 532 nm, unoriented, Raman Data Processed
Mineral: Paakkonenite
Rruff sample: R060709
Ideal chemistry: Sb_2_AsS_2_
Locality: Caiwa mine, Danfeng, Shangluo Prefecture, Shaanxi, Northwest Region, China
Source: Bob Jenkins
Description: Black metallic bladed crystals associated with needles of stibnite crystals
Raman shift (cm-1)	intensity
114.773	0
117.666	29.1927
120.559	86.1816
123.451	153.823
126.344	149.405
129.237	182.784
132.13	119.304
135.022	3.0824
137.915	14.11
140.808	32.5605
143.7	51.2744
146.593	54.3395
149.486	7.36218
152.379	24.8402
155.271	2.00018
158.164	40.3868
161.057	101.973
163.949	242.553
166.842	356.939
169.735	422.226
172.627	337.173
175.52	308.791
178.413	327.868
181.305	390.366
184.198	499.163
187.091	661.909
189.983	959.982
192.876	1409.04
195.769	2046.07
198.662	2126.32
201.554	2324.88
204.447	2916.22
207.34	1782.88
210.232	805.587
213.125	579.388
216.018	535.404
218.911	529.643
221.803	550.027
224.696	552.443
227.589	570.491
230.481	589.967
233.374	547.478
236.267	477.115
239.159	368.847
242.052	293.277
244.945	260.409
247.838	205.464
250.73	312.939
253.623	400.602
256.516	603.426
259.408	630.528
262.301	285.918
265.194	78.7165
268.086	27.0125
270.979	20.1811
273.872	38.781
276.764	8.01129
279.657	25.4028
282.55	64.47
285.442	106.655
288.335	150.479
291.228	206.537
294.121	267.697
297.013	281.478
299.906	229.043
302.799	171.352
305.691	127.138
308.584	138.5
311.477	183.208
314.37	301.169
317.262	338.304
320.155	152.738
323.048	104.722
325.94	51.5516
328.833	47.3899
331.726	74.2629
334.618	47.0138
337.511	6.89783
340.404	9.39642
343.296	25.2985
346.189	15.6818
349.082	11.7859
351.975	2.91382
354.867	6.00424
357.76	31.1673
360.653	47.3334
363.545	57.9341
366.438	66.8461
369.331	70.0388
372.223	68.1926
375.116	91.3409
378.009	97.8313
380.902	66.9327
383.794	114.682
386.687	117.973
389.58	76.0515
392.472	74.6076
395.365	93.6639
398.258	99.1139
401.15	99.3014
404.043	70.0272
406.936	67.4477
409.829	58.2701
412.721	33.6494
415.614	24.1406
418.507	29.375
421.399	43.4067
424.292	39.7541
427.185	2.5899
430.077	20.9117
432.97	16.6892
435.863	5.21262
438.755	55.5278
441.648	28.1564
444.541	26.6447
447.434	37.8925
450.326	24.5159
453.219	16.4436
456.112	17.974
459.004	22.7182
461.897	25.1828
464.79	3.672
467.683	27.6439
470.575	15.1033
473.468	5.70904
476.361	36.2075
479.253	9.54794
482.146	29.9493
485.039	49.3804
487.931	23.8438
490.824	3.58856
493.717	28.6968
496.609	44.4893
499.502	27.1787
502.395	5.58713
505.288	10.6447
508.18	10.6502
511.073	7.50382
513.966	13.4925
516.858	17.7859
519.751	0.5224
522.644	16.2012
525.536	34.5958
528.429	29.6046
531.322	3.55103
534.215	4.33209
537.107	19.4461
540	26.2124
542.893	15.0003
545.785	17.281
548.678	10.77
551.571	13.8626
554.463	11.8822
557.356	8.50235
560.249	24.9025
563.141	25.6245
566.034	16.9129
568.927	23.6084
571.82	34.8597
574.712	39.4757
577.605	46.6146
580.498	29.2445
583.39	24.7783
586.283	22.4851
589.176	44.8203
592.068	15.9419
594.961	21.4779
597.854	0.264313
600.746	4.7692
603.639	30.5432
606.532	26.0706
609.425	7.34699
612.317	10.7863
615.21	23.2077
618.103	38.8574
620.995	17.3236
623.888	17.5873
626.781	9.04312
629.673	22.0923
632.566	6.43619
635.459	4.45252
638.352	18.9337
641.244	4.57639
644.137	27.7857
647.03	33.1474
649.922	29.9712
652.815	5.01117
655.708	32.8386
658.601	25.307
661.493	54.8255
664.386	20.0912
667.279	46.1238
670.171	12.1647
673.064	16.747
675.957	33.5865
678.849	4.78479
681.742	15.6429
684.635	25.9199
687.528	21.7296
690.42	52.1019
693.313	12.0701
696.206	47.0466
699.098	20.1367
701.991	39.1382
704.884	31.5756
707.776	37.1329
710.669	6.84799
713.562	31.6012
716.454	31.1557
719.347	41.9657
722.24	12.2876
725.133	40.2247
728.025	14.1569
730.918	29.4205
733.811	22.4053
736.703	27.898
739.596	39.5467
742.489	48.4982
745.381	42.0625
748.274	36.2954
751.167	13.3841
754.059	24.6041
756.952	10.7947
759.845	28.3787
762.737	32.9215
765.63	22.2645
768.523	33.2001
771.416	20.7313
774.308	32.0322
777.201	37.8863
780.094	9.39508
782.986	29.9265
785.879	25.7316
788.772	43.4175
791.665	32.7788
794.557	39.9607
797.45	34.7221
800.343	7.11231
803.235	30.5298
806.128	10.921
809.021	24.0451
811.913	19.6885
814.806	25.4125
817.699	44.38
820.591	54.9089
823.484	33.5813
826.377	29.3805
829.27	27.0421
832.162	9.41232
835.055	11.0492
837.948	2.84348
840.84	24.9495
843.733	17.8946
846.626	4.71585
849.519	23.6214
852.411	40.6954
855.304	4.39255
858.197	27.9041
861.089	16.5005
863.982	54.0829
866.875	21.1048
869.767	5.22583
872.66	12.1045
875.553	5.91043
878.445	16.0256
881.338	28.8571
884.231	26.4684
887.124	9.00235
890.016	60.3382
892.909	22.026
895.802	23.5006
898.694	16.7111
901.587	33.9898
904.48	20.9191
907.372	14.3646
910.265	20.0422
913.158	29.5117
916.051	35.4269
918.943	11.904
921.836	24.0937
924.729	30.923
927.621	12.4188
930.514	34.3146
933.407	17.0063
936.299	36.3318
939.192	35.0278
942.085	37.9424
944.977	29.2052
947.87	55.927
950.763	20.5561
953.656	18.1356
956.548	32.6607
959.441	21.5276
962.334	24.9822
965.226	27.0491
968.119	1.68771
971.012	25.8892
973.904	1.13629
976.797	19.9273
979.69	31.7343
982.583	33.8832
985.475	20.7026
988.368	29.9151
991.261	43.8565
994.153	18.8383
997.046	13.6913
999.939	21.7751
1002.83	22.2754
1005.72	14.3041
1008.62	23.6515
1011.51	35.9062
1014.4	18.3812
1017.29	30.5175
1020.19	20.5669
1023.08	38.2207
1025.97	22.3972
1028.87	37.6444
1031.76	16.782
1034.65	30.8615
1037.54	29.0285
1040.44	28.712
1043.33	24.5444
1046.22	26.3273
1049.12	20.0348
1052.01	28.3268
1054.9	2.08447
1057.79	3.53827
1060.68	14.8744
1063.58	36.8157
1066.47	3.76984
1069.36	27.8718
1072.26	5.23993
1075.15	17.0477
1078.04	24.1903
1080.93	9.82849
1083.83	30.4
1086.72	16.9317
1089.61	18.9774
1092.51	22.2711
1095.4	34.1686
1098.29	31.5956
1101.18	8.0694
1104.08	1.12909
1106.97	27.1799
1109.86	22.5794
1112.75	37.4459
1115.65	27.969
1118.54	19.3365
1121.43	17.2421
1124.33	24.9319
1127.22	19.7855
1130.11	32.7861
1133	9.62756
1135.9	17.9827
1138.79	17.82
1141.68	11.3619
1144.57	27.0309
1147.47	36.2549
1150.36	12.2206
1153.25	11.337
1156.14	13.6081
1159.04	14.4985
1161.93	10.6084
1164.82	1.03931
1167.71	25.4913
1170.61	38.2477
1173.5	28.9214
1176.39	19.5077
1179.29	2.46515
1182.18	16.8527
1185.07	20.1666
1187.96	32.6982
1190.86	55.7719
1193.75	21.0186
1196.64	14.5412
1199.54	0.318909
1202.43	4.69702
1205.32	12.5935
1208.21	9.44013
1211.11	14.7098
1214	32.6614
1216.89	12.0466
1219.78	2.91052
1222.68	29.4693
1225.57	7.82355
1228.46	26.2914
1231.35	3.05609
1234.25	19.7333
1237.14	7.23669
1240.03	21.5947
1242.92	8.30426
1245.82	23.0604
1248.71	15.921
1251.6	3.28717
1254.5	42.9527
1257.39	23.8146
1260.28	22.3805
1263.17	24.0364
1266.07	21.0281
