Measurement: Raman, 785 nm, unoriented, Raman Data Processed
Mineral: Paakkonenite
Rruff sample: R060709
Ideal chemistry: Sb_2_AsS_2_
Locality: Caiwa mine, Danfeng, Shangluo Prefecture, Shaanxi, Northwest Region, China
Source: Bob Jenkins
Description: Black metallic bladed crystals associated with needles of stibnite crystals
Raman shift (cm-1)	intensity
155.276	0
158.169	125.628
161.062	417.271
163.954	602.876
166.847	483.451
169.74	328.508
172.632	111.888
175.525	3.32187
178.418	1.31845
181.311	15.8585
184.203	191.614
187.096	493.642
189.989	995.896
192.881	1672.77
195.774	2439.4
198.667	2343.12
201.559	2342.7
204.452	2568.76
207.345	1548.18
210.238	720.646
213.13	639.631
216.023	632.486
218.916	671.138
221.808	727.937
224.701	726.426
227.594	718.956
230.486	735.154
233.379	738.498
236.272	692.562
239.165	603.146
242.057	575.517
244.95	432.027
247.843	262.422
250.735	204.422
253.628	208.301
256.521	188.605
259.413	133.622
262.306	54.7473
265.199	13.4071
268.091	4.8921
270.984	1.15592
273.877	1.69812
276.77	4.79747
279.662	6.91057
282.555	28.3173
285.448	38.9231
288.34	78.5084
291.233	112.399
294.126	137.956
297.018	165.102
299.911	193.816
302.804	258.7
305.697	377.091
308.589	599.762
311.482	918.024
314.375	1180.07
317.267	1292.67
320.16	1002.51
323.053	541.811
325.945	327.042
328.838	217.671
331.731	132.487
334.624	93.9506
337.516	33.0209
340.409	2.79837
343.302	3.76376
346.194	4.53911
349.087	20.1501
351.98	3.21482
354.872	4.12713
357.765	2.16264
360.658	2.3936
363.551	22.1281
366.443	34.9394
369.336	32.9295
372.229	54.3223
375.121	51.6712
378.014	49.7537
380.907	72.3857
383.799	44.034
386.692	47.3235
389.585	78.2021
392.478	43.9293
395.37	44.3046
398.263	63.8971
401.156	42.0523
404.048	42.8009
406.941	41.1254
409.834	29.8609
412.727	44.3369
415.619	33.8522
418.512	2.74431
421.405	2.21958
424.297	27.0005
427.19	21.3286
430.083	2.82066
432.975	4.78934
435.868	3.33102
438.761	0.73891
441.654	0.134502
444.546	24.354
447.439	23.0078
450.332	20.0669
453.224	23.58
456.117	23.6614
459.01	35.4699
461.902	22.9761
464.795	8.75298
467.688	17.2607
470.581	0.323514
473.473	7.39002
476.366	15.5209
479.259	16.3343
482.151	34.3193
485.044	45.7953
487.937	42.0975
490.829	35.1845
493.722	49.5143
496.615	51.3474
499.508	30.5892
502.4	26.3359
505.293	11.1592
508.186	1.1014
511.078	0.164964
513.971	9.99517
516.864	22.9779
519.756	17.1849
522.649	29.5992
525.542	24.7498
528.435	33.4438
531.327	10.5367
534.22	8.16559
537.113	8.55539
540.005	49.0258
542.898	25.28
545.791	31.5329
548.683	0.109155
551.576	13.6926
554.469	0.689417
557.362	34.4748
560.254	0.197183
563.147	38.9383
566.04	5.76492
568.932	7.08456
571.825	20.5541
574.718	27.8814
577.61	12.4221
580.503	12.3477
583.396	33.6218
586.289	37.9794
589.181	16.3983
592.074	3.66029
594.967	0.457748
597.859	6.34212
600.752	32.7779
603.645	13.2153
606.537	25.0173
609.43	8.42697
612.323	19.6268
615.216	20.8824
618.108	22.3651
621.001	3.93575
623.894	27.4691
626.786	6.74357
629.679	14.1045
632.572	8.76839
635.464	4.15948
638.357	2.49507
641.25	16.0981
644.143	14.3185
647.035	16.4121
649.928	10.6966
652.821	23.0741
655.713	13.0298
658.606	22.9946
661.499	12.9349
664.391	1.5179
667.284	28.98
670.177	4.19882
673.07	13.9063
675.962	7.31461
678.855	12.6504
681.748	1.57074
684.64	19.8506
687.533	16.4477
690.426	33.6597
693.318	15.9797
696.211	30.3583
699.104	34.286
701.997	14.9385
704.889	4.05171
707.782	15.9558
710.675	2.95292
713.567	35.7121
716.46	2.32733
719.353	5.19234
722.245	4.22174
725.138	0.220335
728.031	8.91289
730.924	15.3471
733.816	30.2016
736.709	12.6842
739.602	13.5138
742.494	31.3423
745.387	14.0246
748.28	2.63535
751.172	23.3103
754.065	1.11872
756.958	19.0794
759.851	24.9655
762.743	11.9898
765.636	24.9493
768.529	17.0025
771.421	6.43947
774.314	17.9658
777.207	32.3355
780.099	35.0715
782.992	43.4095
785.885	31.7789
788.778	18.9944
791.67	1.18186
794.563	5.03137
797.456	16.3707
800.348	6.27394
803.241	3.18088
806.134	10.3395
809.026	14.6258
811.919	37.8592
814.812	37.1553
817.705	39.4879
820.597	19.7964
823.49	25.7282
826.383	3.94385
829.275	21.024
832.168	2.67648
835.061	11.0477
837.953	0.083471
840.846	14.7941
843.739	12.4276
846.631	33.7165
849.524	16.7087
852.417	37.7259
855.31	28.6493
858.202	21.4184
861.095	12.2289
863.988	21.4466
866.88	5.66827
869.773	20.9739
872.666	32.7418
875.558	2.42326
878.451	73.1702
881.344	30.9271
884.237	3.92528
887.129	10.7765
890.022	21.2807
892.915	5.38236
895.807	14.2467
898.7	27.4806
901.593	19.4052
904.485	27.6374
907.378	1.36433
910.271	14.0787
913.164	5.88585
916.056	0.582019
918.949	25.2236
921.842	22.0414
924.734	11.6028
927.627	17.1396
930.52	32.5491
933.412	39.259
936.305	30.658
939.198	28.4595
942.091	29.3086
944.983	5.65095
947.876	13.5622
950.769	9.30697
953.661	8.63547
956.554	16.1776
959.447	11.3547
962.339	7.27584
965.232	39.4706
968.125	33.8481
971.018	52.9701
973.91	38.7339
976.803	40.0625
979.696	27.8611
982.588	15.0037
985.481	23.939
988.374	26.7398
991.266	17.7847
994.159	12.8559
997.052	25.3698
999.945	18.3961
1002.84	19.8128
1005.73	42.6642
1008.62	48.1196
1011.51	39.2042
1014.41	3.3876
1017.3	19.4382
1020.19	0.48722
1023.09	17.552
1025.98	5.23923
1028.87	12.1927
1031.76	2.68448
1034.66	19.0189
1037.55	9.24462
1040.44	19.964
1043.34	26.1678
1046.23	54.2088
1049.12	17.9498
1052.01	31.3157
1054.91	5.91507
1057.8	12.3633
1060.69	2.89278
1063.58	7.64567
1066.48	11.7336
1069.37	8.67397
1072.26	22.0568
1075.15	7.90241
1078.05	29.5853
1080.94	19.374
1083.83	14.7579
1086.73	37.7143
1089.62	11.1054
1092.51	30.1268
1095.4	32.0797
1098.3	10.4936
1101.19	4.10993
1104.08	15.4171
1106.97	3.25266
1109.87	27.9154
1112.76	13.1019
1115.65	18.1288
1118.55	31.3706
1121.44	7.73873
1124.33	22.3971
1127.22	17.1528
1130.12	57.2362
1133.01	14.5465
1135.9	29.2691
1138.79	3.62997
1141.69	4.92353
1144.58	18.291
1147.47	26.2115
1150.37	17.8887
1153.26	40.7979
1156.15	27.691
1159.04	37.7129
1161.94	28.7425
1164.83	28.0402
1167.72	12.3128
1170.61	12.8411
1173.51	19.6473
1176.4	7.29401
1179.29	14.0449
1182.18	68.1755
1185.08	29.6449
1187.97	26.7647
1190.86	39.8248
1193.76	32.4298
1196.65	40.9761
1199.54	38.9072
1202.43	53.3162
1205.33	17.9756
1208.22	5.56475
1211.11	25.8808
1214	11.4256
1216.9	19.1046
1219.79	44.1648
1222.68	37.9085
1225.58	59.9641
1228.47	59.9855
1231.36	44.8867
1234.25	34.1968
1237.15	26.8667
1240.04	14.1104
1242.93	36.0657
1245.82	22.696
1248.72	27.1563
1251.61	11.0134
1254.5	2.15813
1257.39	14.4331
