Measurement: Raman, 532 nm, unoriented, Raman Data Processed
Mineral: Pabstite
Rruff sample: R060386
Ideal chemistry: BaSnSi_3_O_9_
Locality: Kalkar Quarry, Santa Cruz County, California, USA
Source: Michael Scott
Description: Colorless, with a faint hint of pink, lamellar crystals associated with actinolite, diopside and calcite. Strongly fluorescent under short-wave ultraviolet light
Measured chemistry: Ba_1.00_(Sn_0.76_Ti_0.24_)_Î£=1_Si_3.00_O_9_; trace amounts of Fe
Raman shift (cm-1)	intensity
187.267	0
190.16	703.822
193.052	2255.94
195.945	2597.03
198.838	2611.3
201.731	3390.47
204.623	5452.43
207.516	5354.49
210.409	2521.65
213.301	843.865
216.194	28.2344
219.087	29.0801
221.979	33.9922
224.872	173.6
227.765	507.742
230.657	462.455
233.55	88.9043
236.443	66.6484
239.336	269.85
242.228	629.578
245.121	1403.12
248.014	2500.3
250.906	4051.8
253.799	6136.09
256.692	8765.08
259.584	11951.9
262.477	14766.3
265.37	16296.2
268.263	13500.8
271.155	8386.98
274.048	4582.83
276.941	2535.55
279.833	1362.3
282.726	846.383
285.619	600.686
288.512	381.15
291.404	273.711
294.297	111.303
297.19	131.334
300.082	109.168
302.975	77.1367
305.868	75.2168
308.76	162.221
311.653	111.32
314.546	115.773
317.438	182.168
320.331	321.934
323.224	557.043
326.117	1036.07
329.009	1598.21
331.902	2125.43
334.795	2811.97
337.687	3628.13
340.58	5323.7
343.473	4388.39
346.365	2390.97
349.258	1998.88
352.151	2090.9
355.044	2509.75
357.936	3282.42
360.829	4606.87
363.722	6616.53
366.614	9025.15
369.507	11874
372.4	14261.8
375.293	15517.8
378.185	14545.7
381.078	11221.4
383.971	8208.98
386.863	6207.72
389.756	5216.82
392.649	4823.59
395.541	4561.5
398.434	4663.84
401.327	4144.13
404.219	2856.35
407.112	1732.76
410.005	977.938
412.898	565.949
415.79	198.711
418.683	23.6797
421.576	27.1523
424.469	97.7852
427.361	3.97656
430.254	24.1602
433.147	152.68
436.039	78.9023
438.932	9.50391
441.825	35.0156
444.717	15.8711
447.61	45.0859
450.503	24.1445
453.396	410.398
456.288	829.625
459.181	1399.46
462.074	2180.66
464.966	2983.52
467.859	3671.47
470.752	3947.75
473.644	3529.09
476.537	2473.38
479.43	1621.52
482.322	1196.81
485.215	789.777
488.108	488.465
491.001	241.809
493.893	217.285
496.786	413.328
499.679	455.125
502.571	540.613
505.464	658.285
508.357	807.664
511.25	1289.69
514.142	2511.7
517.035	4454.06
519.928	8379.26
522.82	13580.8
525.713	19319.1
528.606	25295.3
531.498	29373.5
534.391	21439.3
537.284	10365.5
540.177	4823.85
543.069	2531.76
545.962	1360.91
548.855	580.285
551.747	350.543
554.64	626.379
557.533	1450.26
560.425	4838.07
563.318	10342.3
566.211	17099.1
569.104	23861.6
571.996	36182.8
574.889	30786.3
577.782	9814.14
580.674	3764.78
583.567	2210.09
586.46	1204.59
589.352	811.047
592.245	626.762
595.138	167.625
598.031	43.7266
600.923	15.8594
603.816	3.24219
606.709	313.117
609.601	109.129
612.494	58.4141
615.387	33.918
618.279	61.4805
621.172	409.648
624.065	606.914
626.958	906.066
629.85	1196.23
632.743	1620.26
635.636	1698.45
638.528	1550.76
641.421	896.961
644.314	450.945
647.207	310.371
650.099	362.023
652.992	502.137
655.885	379.559
658.777	545.469
661.67	608.664
664.563	562.547
667.455	479.457
670.348	361.965
673.241	472.617
676.134	486.141
679.026	344.859
681.919	329.277
684.812	224.625
687.704	155.336
690.597	155.481
693.49	87.1641
696.382	115.758
699.275	86.0234
702.168	96.6875
705.061	159.574
707.953	25.4609
710.846	110.246
713.739	9.58594
716.631	106.234
719.524	129.93
722.417	37.207
725.309	190.418
728.202	329.336
731.095	443.297
733.987	636.754
736.88	644.445
739.773	789.871
742.666	962.672
745.558	962.086
748.451	1233.18
751.344	1217.21
754.236	1109.36
757.129	1066.67
760.022	869.481
762.915	838.836
765.807	702.5
768.7	655.891
771.593	596.703
774.485	417.613
777.378	212.199
780.271	64.8711
783.163	9.38281
786.056	95.9297
788.949	161.262
791.842	19.0781
794.734	321.508
797.627	364.117
800.52	427.973
803.412	246.215
806.305	457.391
809.198	475.051
812.091	424.305
814.983	527.359
817.876	554.348
820.769	545.148
823.661	838.016
826.554	818.231
829.447	568.797
832.339	574.281
835.232	473.93
838.125	557.156
841.018	407.301
843.91	401.215
846.803	350.789
849.696	492.848
852.588	412.664
855.481	446.109
858.374	576.562
861.266	374.504
864.159	228.148
867.052	120.805
869.944	32.4297
872.837	126.769
875.73	227.699
878.623	204.176
881.515	127.156
884.408	101.441
887.301	223.43
890.193	639.551
893.086	972.801
895.979	1397.4
898.871	2051
901.764	3149.28
904.657	4778.59
907.55	6639.41
910.442	8865.46
913.335	11398.4
916.228	13448.7
919.12	15113.5
922.013	15975.3
924.906	16748.3
927.798	17377.3
930.691	17521.3
933.584	16812.7
936.477	15287.6
939.369	14015.5
942.262	12559.7
945.155	11333.9
948.047	9903.87
950.94	7552.82
953.833	5140.89
956.726	3340.53
959.618	1972.38
962.511	1400.02
965.404	961.953
968.296	792.461
971.189	554.762
974.082	473.731
976.974	631.477
979.867	546.859
982.76	762.59
985.653	667.797
988.545	1127.34
991.438	1099.74
994.331	1174.61
997.223	804.055
1000.12	476.144
1003.01	199.637
1005.9	72.1211
1008.79	209.598
1011.69	112.894
1014.58	514.348
1017.47	555.57
1020.37	581.898
1023.26	559.227
1026.15	703.512
1029.04	394.496
1031.94	707.519
1034.83	719.43
1037.72	806.07
1040.61	720.797
1043.51	762.898
1046.4	776.844
1049.29	438.281
1052.18	378.84
1055.08	9.6875
1057.97	105.023
1060.86	140.527
1063.76	125.805
1066.65	66.1641
1069.54	300.82
1072.43	84.4766
1075.33	150.918
1078.22	338.211
1081.11	637.793
1084	803.867
1086.9	1182.17
1089.79	1609.69
1092.68	1824.75
1095.58	1824.16
1098.47	2031.33
1101.36	2050.8
1104.25	2166.42
1107.15	2031.5
1110.04	2328.79
1112.93	2316.78
1115.82	2026.89
1118.72	1494.6
1121.61	1270.12
1124.5	919.707
1127.39	868.613
1130.29	624.266
1133.18	341.738
1136.07	403.516
1138.97	511.816
1141.86	369.688
1144.75	477.152
1147.64	436.102
1150.54	321.812
1153.43	417.93
1156.32	640.047
1159.21	306.793
1162.11	349.25
1165	315.297
1167.89	154.121
1170.79	146.043
1173.68	148.316
1176.57	239.184
1179.46	333.148
1182.36	417.273
1185.25	564.18
1188.14	473.938
1191.03	343.922
1193.93	52.5078
1196.82	74.1328
1199.71	12.0312
1202.61	32.9922
1205.5	77.125
1208.39	91.0391
1211.28	262.875
1214.18	172.703
1217.07	242.418
1219.96	608.953
1222.85	671.125
1225.75	492.156
1228.64	582.898
1231.53	620.699
1234.42	516.879
1237.32	415.457
1240.21	472.352
1243.1	579.512
1246	508.43
1248.89	850.719
1251.78	522.129
1254.67	768.168
1257.57	554.613
1260.46	568.914
1263.35	475.852
1266.24	350.637
1269.14	97.3711
1272.03	290.023
1274.92	236.488
1277.82	164.121
1280.71	200.492
1283.6	164.734
1286.49	271.359
1289.39	197.027
1292.28	244.965
1295.17	155.148
1298.06	67.0391
1300.96	403.625
