Measurement: Raman, 785 nm, unoriented, Raman Data Processed
Mineral: Pabstite
Rruff sample: R060386
Ideal chemistry: BaSnSi_3_O_9_
Locality: Kalkar Quarry, Santa Cruz County, California, USA
Source: Michael Scott
Description: Colorless, with a faint hint of pink, lamellar crystals associated with actinolite, diopside and calcite. Strongly fluorescent under short-wave ultraviolet light
Measured chemistry: Ba_1.00_(Sn_0.76_Ti_0.24_)_Î£=1_Si_3.00_O_9_; trace amounts of Fe
Raman shift (cm-1)	intensity
217.443	0
220.335	2.03906
223.228	233.357
226.121	391.168
229.013	604.93
231.906	308.34
234.799	193.768
237.692	220.602
240.584	438.818
243.477	647.467
246.37	1189.24
249.262	1788.68
252.155	2962.8
255.048	4161.9
257.941	5632.59
260.833	7537.47
263.726	9694.68
266.619	10197.4
269.511	8033.81
272.404	4679.69
275.297	2556.23
278.19	1346.3
281.082	786.715
283.975	545.953
286.868	359.502
289.76	395.18
292.653	253.305
295.546	59.0645
298.438	41.8906
301.331	91.4961
304.224	12.7969
307.116	18.25
310.009	70.4062
312.902	54.0312
315.795	149.963
318.687	65.8418
321.58	110.945
324.473	484.394
327.365	603.258
330.258	865.777
333.151	1152.54
336.043	1620.15
338.936	2225.99
341.829	3025.86
344.721	2021.91
347.614	1112.85
350.507	1086.01
353.4	1015.28
356.292	1268.99
359.185	1693.86
362.078	2467.6
364.97	3224.01
367.863	4415.79
370.756	5828.7
373.649	7001.09
376.541	7666.88
379.434	6865.86
382.327	5135.52
385.219	3837.92
388.112	2945.2
391.005	2550.23
393.897	2406.09
396.79	2636.16
399.683	2657.37
402.575	2343.4
405.468	1484.05
408.361	900.789
411.254	460.381
414.146	198.148
417.039	225.664
419.932	76.0723
422.824	27.4512
425.717	4.57812
428.61	141.043
431.502	55.0879
434.395	12.6367
437.288	4.04102
440.181	119.852
443.073	2.66992
445.966	12.2832
448.859	51.9961
451.751	54.582
454.644	235.111
457.537	401.922
460.43	661.082
463.322	1145.64
466.215	1404.82
469.108	1659.67
472	1676.24
474.893	1476.24
477.786	1004.68
480.678	653.178
483.571	514.438
486.464	314.656
489.356	201.582
492.249	233.754
495.142	239.84
498.035	229.393
500.927	387.565
503.82	489.609
506.713	378.721
509.605	510.789
512.498	889.17
515.391	1643.75
518.284	2978.28
521.176	5118.43
524.069	7651.82
526.962	11160.6
529.854	15510.1
532.747	16834.3
535.64	11173.9
538.533	5322.46
541.425	2567.31
544.318	1255.88
547.211	657.383
550.103	283.418
552.996	192.945
555.889	371.039
558.781	1161.52
561.674	3323.36
564.567	5582.06
567.459	8775.65
570.352	14805.8
573.245	22323.9
576.138	14586.3
579.03	4599.76
581.923	1850.8
584.816	949.631
587.708	639.055
590.601	204.184
593.494	116.707
596.386	12.1582
599.279	26.668
602.172	111.42
605.064	23.8398
607.957	112.703
610.85	38.1387
613.743	2.67188
616.635	13.9062
619.528	143.643
622.421	209.242
625.313	412.541
628.206	601.426
631.099	865.637
633.991	959.625
636.884	1103.08
639.777	767.67
642.67	330.856
645.562	153.844
648.455	27.8438
651.348	101.787
654.24	33.0039
657.133	68.9785
660.026	121.826
662.918	173.596
665.811	162.715
668.704	507.869
671.597	538.664
674.489	226.291
677.382	178.607
680.275	332.264
683.167	168.422
686.06	70.332
688.953	25.1328
691.846	77.4121
694.738	26.5977
697.631	156.706
700.524	44.0684
703.416	70.9844
706.309	34.9043
709.202	150.344
712.094	46.2461
714.987	85.418
717.88	45.1582
720.773	60.4053
723.665	104.553
726.558	0.077148
729.451	70.7373
732.343	108.783
735.236	138.171
738.129	257.847
741.021	374.43
743.914	230.817
746.807	283.55
749.699	423.396
752.592	335.187
755.485	303.258
758.378	224.629
761.27	245.391
764.163	253.312
767.056	226.199
769.948	149.614
772.841	271.604
775.734	130.533
778.626	20.249
781.519	13.0723
784.412	32.5508
787.305	2.37207
790.197	75.9502
793.09	66.9756
795.983	34.3301
798.875	102.814
801.768	67.8525
804.661	54.6426
807.553	82.2891
810.446	112.914
813.339	85.0059
816.232	181.57
819.124	173.886
822.017	167.934
824.91	125.554
827.802	266.055
830.695	128.897
833.588	117.579
836.481	198.085
839.373	107.476
842.266	118.053
845.159	174.18
848.051	79.8125
850.944	13.9717
853.837	143.535
856.729	64.1289
859.622	154.279
862.515	87.4424
865.408	25.3945
868.3	108.952
871.193	3.17969
874.086	68.082
876.978	40.1084
879.871	42.3018
882.764	28.6885
885.656	59.751
888.549	120.473
891.442	245.726
894.335	236.575
897.227	439.537
900.12	682.34
903.013	1043.41
905.905	1427.8
908.798	2174.01
911.691	2780.52
914.583	3660.53
917.476	4285.01
920.369	4837.26
923.261	5131.23
926.154	5437.3
929.047	5590.2
931.94	5638.27
934.832	5335.15
937.725	4905
940.618	4376.33
943.51	3989.96
946.403	3619.79
949.296	3007.84
952.188	2385.43
955.081	1656.89
957.974	1040.57
960.867	745.325
963.759	419.656
966.652	418.168
969.545	397.544
972.437	330.212
975.33	283.239
978.223	303.85
981.115	226.199
984.008	224.95
986.901	366.567
989.794	461.032
992.686	557.012
995.579	358.644
998.472	438.069
1001.36	193.954
1004.26	152.284
1007.15	83.0176
1010.04	19.7373
1012.93	2.08301
1015.83	121.221
1018.72	6.70312
1021.61	86.3379
1024.51	120.713
1027.4	98.2598
1030.29	132.644
1033.18	85.4678
1036.08	254.815
1038.97	215.106
1041.86	252.31
1044.76	262.894
1047.65	401.519
1050.54	418.162
1053.43	274.44
1056.33	88.3633
1059.22	66.5557
1062.11	36.2324
1065	0.008789
1067.9	15.2451
1070.79	8.64941
1073.68	12.5674
1076.58	1.81836
1079.47	98.8516
1082.36	120.237
1085.25	271.372
1088.14	303.091
1091.04	387.538
1093.93	430.922
1096.82	457.876
1099.72	566.44
1102.61	541.587
1105.5	507.13
1108.39	560.224
1111.29	574.394
1114.18	632.526
1117.07	548.261
1119.96	390.379
1122.86	255.395
1125.75	282.576
1128.64	334.976
1131.54	216.392
1134.43	88.9561
1137.32	67.29
1140.21	82.8945
1143.11	176.096
1146	78.2842
1148.89	140.079
1151.79	109.46
1154.68	40.8164
1157.57	80.9531
1160.46	118.464
1163.36	95.2998
1166.25	120.642
1169.14	1.30859
1172.03	33.3272
1174.93	65.6924
1177.82	54.332
1180.71	218.831
1183.6	123.182
1186.5	195.557
1189.39	189.333
1192.28	55.9004
1195.17	52.3184
1198.07	60.7744
1200.96	39.0723
1203.85	64.4512
1206.75	65.6357
1209.64	25.2148
1212.53	15.1318
1215.42	122.299
1218.32	98.709
1221.21	182.626
1224.1	67.4375
1226.99	126.274
1229.89	107.293
1232.78	59.6152
1235.67	10.9688
1238.57	37.0098
1241.46	38.917
