Measurement: Raman, 785 nm, unoriented, Raman Data Processed
Mineral: Painite
Rruff sample: R060957
Ideal chemistry: CaZrAl_9_O_15_(BO_3_)
Locality: Ohngaing Village, Mogok, Burma
Source: Marcus Origlieri
Description: Single crystal, reddish-brown to orangish prism section, several prism forms, small transparent areas.
Raman shift (cm-1)	intensity
179.382	0
182.275	70.2812
185.167	1476.59
188.06	3500.16
190.953	5629.25
193.845	5715.97
196.738	7283.31
199.631	7531.06
202.524	8433.19
205.416	7230.06
208.309	4700.5
211.202	3151.16
214.094	4408.81
216.987	6261.09
219.88	8224.44
222.773	9031.03
225.665	7659.41
228.558	5521.94
231.451	5364.81
234.343	6537.16
237.236	7714.69
240.129	8038.19
243.021	7297.5
245.914	4857.84
248.807	3180.59
251.7	3510.44
254.592	5509.38
257.485	6619.81
260.378	6149.28
263.27	5719.56
266.163	3957.22
269.056	1835.25
271.948	1255.22
274.841	1440.34
277.734	3560.22
280.627	5223.5
283.519	6095.22
286.412	6096.06
289.305	3876.78
292.197	1385.62
295.09	406.844
297.983	936.5
300.875	2721.34
303.768	5699.56
306.661	6671.28
309.553	5988.19
312.446	2594.28
315.339	535.5
318.231	704.656
321.124	653.469
324.017	3214.62
326.91	5444.09
329.802	5778.22
332.695	4365.03
335.588	2150.16
338.48	182.5
341.373	165.688
344.266	1294.25
347.159	2650.5
350.051	4416.16
352.944	4400.25
355.837	3979.53
358.729	1695.78
361.622	82.9062
364.515	696.281
367.407	86.375
370.3	2925.84
373.193	4145.16
376.086	5627.84
378.978	4472.34
381.871	2527.19
384.764	396.406
387.656	43.0938
390.549	1377.31
393.442	3817.59
396.334	5318.66
399.227	5223.59
402.12	3672.12
405.012	1552.53
407.905	253.094
410.798	1231.12
413.691	3312.47
416.583	5529.19
419.476	6128.69
422.369	4664.56
425.261	3864.53
428.154	2152.75
431.047	2234.91
433.94	2333.19
436.832	3246.28
439.725	4062.91
442.618	4308.31
445.51	4577.31
448.403	3645.44
451.296	2587.66
454.188	1776.53
457.081	1590.59
459.974	2269.44
462.866	3007.84
465.759	3326.97
468.652	3704.69
471.545	2931.88
474.437	1747.53
477.33	92.9062
480.223	3.8125
483.115	298.688
486.008	1788.28
488.901	3882.75
491.793	4380.91
494.686	3327.06
497.579	1857.53
500.472	638.812
503.364	179.062
506.257	663.344
509.15	2450.62
512.042	2527.97
514.935	2685.78
517.828	3597.75
520.721	3515.78
523.613	2610.81
526.506	3327.28
529.399	3271.53
532.291	3206.69
535.184	3513.62
538.077	3089.56
540.969	2586.94
543.862	1699.72
546.755	958.656
549.647	152.281
552.54	977.5
555.433	993.094
558.326	1976.72
561.218	1975.88
564.111	2189.44
567.004	1878.97
569.896	213.844
572.789	39.3125
575.682	282.625
578.574	437.312
581.467	1387.72
584.36	1867.59
587.253	1477.25
590.145	1322.28
593.038	239.875
595.931	665.344
598.823	1169.19
601.716	2493
604.609	2598
607.501	3231.25
610.394	3509.88
613.287	3287.03
616.179	2803.09
619.072	2982.19
621.965	3334.09
624.858	3309.94
627.75	3135.34
630.643	2821.28
633.536	2322.09
636.428	2231.53
639.321	2211.41
642.214	2023.78
645.106	1139.41
647.999	677.906
650.892	850.625
653.784	1366.91
656.677	1894.75
659.57	2442.97
662.463	444.094
665.355	251.188
668.248	126.062
671.141	669.25
674.033	701.781
676.926	1269.19
679.819	1232.47
682.712	176.188
685.604	189.281
688.497	121.938
691.39	791.719
694.282	1538.62
697.175	2232.44
700.068	2696.22
702.96	2486.38
705.853	344.469
708.746	423.781
711.639	641.688
714.531	1619.44
717.424	1802.09
720.317	2372.34
723.209	2270.41
726.102	1005.34
728.995	587.656
731.887	185.375
734.78	741.531
737.673	1214.28
740.566	1844.56
743.458	1190.06
746.351	2143.75
749.244	2392.62
752.136	2201.06
755.029	2428.88
757.922	973.406
760.814	1559.19
763.707	1582
766.6	3095.34
769.492	3607.47
772.385	2933.94
775.278	2598.66
778.171	1700.12
781.063	2730.78
783.956	3397.03
786.849	4660.47
789.741	5165.78
792.634	4651.91
795.527	4070.97
798.419	4037.5
801.312	3417.44
804.205	3253.03
807.098	4124.41
809.99	4125.66
812.883	5335.44
815.776	4854.91
818.668	5011.91
821.561	2589.53
824.454	2869.62
827.346	2355.06
830.239	1457.62
833.132	1685.81
836.024	1225.97
838.917	786.562
841.81	291.906
844.703	639.219
847.595	1074.5
850.488	613.531
853.381	281.562
856.273	345.281
859.166	367.062
862.059	479.688
864.952	31.1562
867.844	142.688
870.737	453.656
873.63	640.906
876.522	524.812
879.415	1210.19
882.308	1183.69
885.2	1663.94
888.093	1392.84
890.986	1395.84
893.879	1172.25
896.771	604.062
899.664	852.969
902.557	1199.78
905.449	1532.56
908.342	1618.69
911.235	2429.38
914.127	2170.19
917.02	1485.53
919.913	830.125
922.806	803.781
925.698	1261.59
928.591	1504
931.484	1824.59
934.376	1714.31
937.269	746.625
940.162	45.75
943.054	43.625
945.947	599.125
948.84	542.781
951.732	1044.75
954.625	1528.22
957.518	1322.53
960.411	1437.59
963.303	1370.5
966.196	1417.12
969.089	1233.97
971.981	1538.78
974.874	1372.47
977.767	1420.25
980.659	1871.22
983.552	1680.03
986.445	1541.78
989.338	1835.84
992.23	1627.94
995.123	1827.62
998.016	2665.47
1000.91	3596.44
1003.8	2942.03
1006.69	3302.16
1009.59	2581.59
1012.48	2539.22
1015.37	3719.16
1018.26	3225.5
1021.16	4229
1024.05	4218.25
1026.94	4010.5
1029.84	3648.97
1032.73	3672.56
1035.62	3319.88
1038.51	2313.09
1041.41	2235.69
1044.3	1369.22
1047.19	1586.97
1050.08	1027.25
1052.98	1360.47
1055.87	1085.47
1058.76	1023.19
1061.65	989.219
1064.55	25.9688
1067.44	225.312
1070.33	364.688
1073.23	640.719
1076.12	698
1079.01	809.688
1081.9	180.094
1084.8	127.031
1087.69	374.469
1090.58	46.25
1093.47	1339.03
1096.37	1773.22
1099.26	1729.06
1102.15	1415.44
1105.05	144.469
1107.94	193.062
1110.83	1089.81
1113.72	1597.41
1116.62	1639.19
1119.51	1156.16
1122.4	870.438
1125.29	1317.91
1128.19	1293.09
1131.08	779.938
1133.97	476.625
1136.87	724.094
1139.76	559.094
1142.65	618.906
1145.54	608.031
1148.44	33.875
1151.33	490.406
1154.22	147.562
1157.11	1371.12
1160.01	863.188
1162.9	1210.38
1165.79	999.531
1168.68	630.188
1171.58	858.156
1174.47	831.156
1177.36	146
1180.26	253.625
1183.15	35.9688
1186.04	55.9062
1188.93	670.156
1191.83	468.188
1194.72	499.094
1197.61	1270.84
1200.51	1742.16
1203.4	1082.88
1206.29	649.062
1209.18	881.625
1212.08	457.219
1214.97	1151.62
1217.86	1319.38
1220.75	1259.34
1223.65	1954.75
1226.54	1274.59
1229.43	418.062
1232.32	711.594
1235.22	1130.12
1238.11	1234.97
1241	978.281
1243.89	1023.25
1246.79	839.344
1249.68	137.203
1252.57	589.438
1255.47	312.031
1258.36	447.109
1261.25	1081.17
1264.14	335.484
1267.04	479.812
1269.93	212.25
