Measurement: Raman, 532 nm, unoriented, Raman Data Processed
Mineral: Painite
Rruff sample: R060957
Ideal chemistry: CaZrAl_9_O_15_(BO_3_)
Locality: Ohngaing Village, Mogok, Burma
Source: Marcus Origlieri
Description: Single crystal, reddish-brown to orangish prism section, several prism forms, small transparent areas.
Raman shift (cm-1)	intensity
116.22	105.094
119.595	535.664
122.969	724.359
126.344	937.797
129.719	897.758
133.094	990.195
136.469	1242.98
139.843	1195.32
143.218	1031.66
146.593	1177.65
149.968	895.734
153.343	237.922
156.718	179
160.092	613.125
163.467	1401.61
166.842	1150.07
170.217	1134.63
173.592	609.805
176.966	1715.06
180.341	2940.82
183.716	3195.91
187.091	1341.03
190.466	1248.22
193.84	709.742
197.215	644.656
200.59	1127.21
203.965	2055.98
207.34	3470.1
210.714	2391.86
214.089	2611.18
217.464	4377.71
220.839	7027.03
224.214	6907.73
227.589	3897.04
230.963	1671.59
234.338	815.805
237.713	382.883
241.088	344.375
244.463	468.977
247.838	881.391
251.212	671.359
254.587	119.438
257.962	1.125
261.337	310.906
264.712	857.234
268.086	751.609
271.461	663.82
274.836	792.82
278.211	1427.12
281.586	2071.17
284.96	2034.02
288.335	1482.31
291.71	965.617
295.085	882.75
298.46	550.352
301.834	1217.41
305.209	2413.76
308.584	2707.03
311.959	1166.07
315.334	462.656
318.709	6.625
322.083	66.8359
325.458	333.883
328.833	352.023
332.208	168.148
335.583	23.0234
338.957	261.695
342.332	519.867
345.707	297.203
349.082	897.141
352.457	1114.15
355.832	562.016
359.206	68.75
362.581	119.922
365.956	73.8828
369.331	575.375
372.706	1798.92
376.08	3363.59
379.455	4946.03
382.83	4712.23
386.205	2065.56
389.58	1598.59
392.954	1626.95
396.329	2479.62
399.704	4116.48
403.079	3611.05
406.454	3027.97
409.829	3867.48
413.203	2401.21
416.578	579.141
419.953	213.539
423.328	285.656
426.703	592.078
430.077	2695.81
433.452	6580.06
436.827	10041
440.202	5432.62
443.577	2647.91
446.952	2924.05
450.326	1766.06
453.701	1538.03
457.076	3153.27
460.451	6314.65
463.826	11718.7
467.2	18744
470.575	11258
473.95	3891.98
477.325	1618.75
480.7	301.711
484.074	657.211
487.449	1558.09
490.824	2315.68
494.199	2243.34
497.574	1791.58
500.949	2239.17
504.323	3656.05
507.698	5833.31
511.073	7217.09
514.448	6086.93
517.823	5317.42
521.197	6804.08
524.572	9629.76
527.947	11510.8
531.322	9036.99
534.697	5057.16
538.072	2880.88
541.446	1678.2
544.821	303.641
548.196	433.242
551.571	683.203
554.946	191.359
558.32	499.875
561.695	2370.03
565.07	4542.85
568.445	8284.68
571.82	12808.2
575.194	13792.1
578.569	8490.12
581.944	5432.57
585.319	4908.64
588.694	5384.57
592.068	5131.04
595.443	4261.33
598.818	3260.92
602.193	3795.45
605.568	4977.22
608.942	6890.69
612.317	10141.1
615.692	15206.4
619.067	19656.8
622.442	15903.6
625.817	11143.5
629.191	7607.16
632.566	5163.02
635.941	3682.47
639.316	2624.1
642.691	2206.11
646.066	2334.16
649.44	2953.18
652.815	3062.33
656.19	1922.69
659.565	1083.9
662.94	364.641
666.314	248.781
669.689	385.352
673.064	64.3047
676.439	413.695
679.814	57.7812
683.188	728.109
686.563	859.32
689.938	1498.06
693.313	2226.48
696.688	2464.48
700.062	2457.28
703.437	2952.66
706.812	2545.32
710.187	1772.84
713.562	1409.16
716.937	1443.31
720.311	1796.47
723.686	1222.84
727.061	648.641
730.436	206.328
733.811	146.305
737.185	197.898
740.56	169.18
743.935	282.164
747.31	569.398
750.685	615.508
754.059	45.875
757.434	886.078
760.809	648.688
764.184	833.43
767.559	1891.52
770.934	3154.88
774.308	3307.17
777.683	3489.85
781.058	4055.57
784.433	5086.16
787.808	6055.53
791.183	6350.03
794.557	6543.43
797.932	5295.66
801.307	4272.32
804.682	3434.19
808.057	3224.33
811.431	2910.85
814.806	2588.06
818.181	2019.55
821.556	1228.6
824.931	680.25
828.305	1121.2
831.68	897.102
835.055	758.742
838.43	791.93
841.805	741.102
845.179	1175.2
848.554	1053.88
851.929	451.742
855.304	36.3828
858.679	248.289
862.053	308.656
865.428	249.945
868.803	57.4375
872.178	122.812
875.553	187.867
878.928	27.1172
882.302	197.094
885.677	549.242
889.052	640.367
892.427	1078.13
895.802	1447.55
899.177	977.039
902.551	561.836
905.926	580.898
909.301	434.938
912.676	583.867
916.051	509.805
919.425	637.133
922.8	955.484
926.175	321.711
929.55	351.133
932.925	106.195
936.299	323.711
939.674	549.609
943.049	319.148
946.424	219.875
949.799	58.375
953.173	118.969
956.548	96.9297
959.923	42.0703
963.298	69.4766
966.673	62.7422
970.048	52.9766
973.422	149.156
976.797	791.406
980.172	1172.34
983.547	2245.09
986.922	3934.99
990.296	4741.09
993.671	2388.37
997.046	839.93
1000.42	739
1003.8	869.664
1007.17	356.172
1010.54	168.445
1013.92	239.648
1017.29	22.1172
1020.67	71.2188
1024.05	774.711
1027.42	311.18
1030.79	203.195
1034.17	475.859
1037.54	265.195
1040.92	543.039
1044.29	232.148
1047.67	267.367
1051.04	234.102
1054.42	674.133
1057.79	848.609
1061.17	586.18
1064.54	51.5234
1067.92	175.57
1071.29	282.586
1074.67	512.297
1078.04	47.125
1081.42	36.8828
1084.79	358.57
1088.17	530.25
1091.54	580.766
1094.92	769.031
1098.29	820.445
1101.66	645.516
1105.04	1255.34
1108.41	1105.52
1111.79	640.445
1115.16	670.367
1118.54	457.383
1121.91	32.5547
1125.29	260.57
1128.66	700.766
1132.04	892.977
1135.41	783.656
1138.79	742.148
1142.16	645.289
1145.54	140.781
1148.91	155.359
1152.29	478.609
1155.66	730.906
1159.04	703.281
1162.41	494.211
1165.79	52.5938
1169.16	241.32
1172.54	412.336
1175.91	814.266
1179.29	757.352
1182.66	909.906
1186.04	1010.73
1189.41	601.508
1192.79	450.266
1196.16	510.305
1199.54	644.594
1202.91	311.82
1206.29	342.992
1209.66	477.812
1213.03	888.523
1216.41	397.852
1219.78	452.836
1223.16	599.102
1226.53	515.07
1229.91	662.398
1233.28	712.531
1236.66	1062.16
1240.03	599.188
1243.41	672.188
1246.78	913.617
1250.16	1065.69
1253.53	452.469
1256.91	830.586
1260.28	845.148
1263.66	113.625
1267.03	73.5859
1270.41	944.312
1273.78	2052.23
1277.16	1469.3
1280.53	1355.54
1283.9	1179.76
1287.28	1126.38
1290.65	825.891
1294.03	701.195
