Measurement: Raman, 532 nm, unoriented, Raman Data Processed
Mineral: Painite
Rruff sample: R100164
Ideal chemistry: CaZrAl_9_O_15_(BO_3_)
Locality: Mogok, Burma
Source: William W. Pinch
Description: Brown fragment associated with red ruby corundum
Raman shift (cm-1)	intensity
169.62	0
172.513	6.03638
175.406	5.44043
178.298	40.2993
181.191	98.439
184.084	127.837
186.976	52.011
189.869	30.5808
192.762	20.978
195.655	5.65454
198.547	1.45508
201.44	3.46899
204.333	15.238
207.225	37.1736
210.118	33.3411
213.011	29.543
215.904	40.8848
218.796	68.282
221.689	77.2244
224.582	78.6846
227.474	33.1797
230.367	16.8418
233.26	8.77417
236.152	5.45679
239.045	15.7717
241.938	25.3965
244.831	29.0891
247.723	33.8174
250.616	37.7517
253.509	23.3879
256.401	14.5427
259.294	19.2993
262.187	28.6406
265.079	24.071
267.972	26.3159
270.865	16.4336
273.758	21.8227
276.65	18.9155
279.543	22.5422
282.436	22.6377
285.328	28.7351
288.221	40.2576
291.114	40.8577
294.007	32.7017
296.899	21.1868
299.792	27.773
302.685	28.8125
305.577	38.2227
308.47	37.5073
311.363	37.053
314.255	20.9773
317.148	10.4661
320.041	5.20532
322.933	6.38599
325.826	1.23389
328.719	5.07349
331.612	1.18286
334.504	3.03857
337.397	2.65332
340.29	4.78686
343.183	5.94604
346.075	8.63208
348.968	19.2827
351.861	28.7205
354.753	25.5252
357.646	18.1502
360.539	3.60522
363.431	1.05811
366.324	10.4011
369.217	11.8999
372.11	17.5684
375.002	28.5496
377.895	37.5413
380.788	70.2666
383.68	71.4839
386.573	46.7612
389.466	34.2695
392.358	51.5793
395.251	78.8765
398.144	107.212
401.036	106.156
403.929	67.9351
406.822	33.9202
409.715	16.449
412.607	10.752
415.5	4.98315
418.393	5.5603
421.285	2.89673
424.178	5.13281
427.071	12.5691
429.964	22.9729
432.856	50.6306
435.749	84.2078
438.642	78.885
441.534	42.5908
444.427	24.074
447.32	36.7082
450.212	39.2888
453.105	37.3962
455.998	48.2888
458.891	68.7722
461.783	90.4976
464.676	148.631
467.569	196.998
470.461	166.007
473.354	85.7683
476.247	51.064
479.139	33.741
482.032	17.4507
484.925	0.195557
487.818	2.01709
490.71	2.17871
493.603	13.5749
496.496	9.60718
499.388	10.5813
502.281	0.198486
505.174	11.9207
508.067	17.6314
510.959	29.9094
513.852	35.427
516.745	31.4761
519.637	43.2764
522.53	61.791
525.423	92.6433
528.316	110.084
531.208	107.932
534.101	106.285
536.994	111.114
539.886	106.269
542.779	72.9448
545.672	39.6897
548.564	7.95654
551.457	0.64624
554.35	11.3955
557.242	0.346436
560.135	2.06885
563.028	18.7556
565.921	33.5081
568.813	67.6826
571.706	92.2549
574.599	94.886
577.491	74.6218
580.384	47.5852
583.277	53.709
586.17	71.0176
589.062	79.0894
591.955	74.7593
594.848	46.0779
597.74	20.9624
600.633	16.905
603.526	9.23169
606.418	3.9375
609.311	21.5794
612.204	39.1301
615.097	58.9121
617.989	79.9448
620.882	79.0808
623.775	61.2334
626.667	40.3315
629.56	22.2278
632.453	10.0288
635.346	9.80005
638.238	17.6602
641.131	29.6316
644.024	33.3154
646.916	38.6174
649.809	42.1824
652.702	36.7578
655.594	36.509
658.487	38.4958
661.38	24.8455
664.273	11.6101
667.165	3.17017
670.058	4.18091
672.951	2.81934
675.843	5.26538
678.736	2.75366
681.629	5.93237
684.521	8.50415
687.414	12.2602
690.307	27.1604
693.199	27.1545
696.092	21.1948
698.985	31.5998
701.878	36.4082
704.77	50.6985
707.663	57.9634
710.556	63.1765
713.448	72.5215
716.341	84.9873
719.234	89.2007
722.127	68.7393
725.019	48.4905
727.912	29.9507
730.805	10.3001
733.697	0.526123
736.59	3.40576
739.483	1.9729
742.375	3.86792
745.268	6.52466
748.161	2.87305
751.054	4.07129
753.946	6.27466
756.839	13.1455
759.732	18.7195
762.625	24.1123
765.517	32.8628
768.41	44.064
771.303	43.55
774.195	58.9158
777.088	72.2759
779.981	97.4817
782.873	118.074
785.766	143.77
788.659	169.427
791.552	177.368
794.444	173.68
797.337	152.465
800.23	141.796
803.122	119.898
806.015	96.2451
808.908	78.8906
811.8	67.8294
814.693	63.1218
817.586	47.635
820.479	39.196
823.371	28.063
826.264	19.3367
829.157	19.8511
832.049	21.0811
834.942	21.8147
837.835	17.781
840.727	34.0349
843.62	39.5754
846.513	41.6101
849.405	41.6858
852.298	36.4692
855.191	30.9187
858.084	26.4617
860.976	32.4946
863.869	30.4019
866.762	33.2434
869.654	40.3237
872.547	40.7769
875.44	33.1284
878.333	25.3872
881.225	20.5703
884.118	5.44385
887.011	0.415039
889.903	0.055664
892.796	6.51123
895.689	0.750244
898.582	4.64893
901.474	5.7644
904.367	2.146
907.26	8.17969
910.152	7.5354
913.045	5.94629
915.938	6.39258
918.83	10.4392
921.723	8.18628
924.616	12.1453
927.509	20.4214
930.401	20.1633
933.294	15.5437
936.187	18.4441
939.079	2.84668
941.972	6.89868
944.865	13.2373
947.757	3.92847
950.65	3.1626
953.543	2.7168
956.436	1.09228
959.328	4.74243
962.221	6.45483
965.114	12.2866
968.006	16.197
970.899	14.8181
973.792	23.4045
976.684	28.7715
979.577	54.3689
982.47	63.8755
985.362	91.3958
988.255	124.183
991.148	126.5
994.041	80.6448
996.933	45.3181
999.826	29.6543
1002.72	18.7678
1005.61	14.3704
1008.5	11.7473
1011.4	10.8608
1014.29	13.6985
1017.18	6.67822
1020.08	6.15674
1022.97	2.60083
1025.86	1.09058
1028.75	5.02734
1031.65	5.53979
1034.54	9.61108
1037.43	3.88086
1040.32	2.34839
1043.22	11.6484
1046.11	6.79956
1049	0.49292
1051.89	0.304199
1054.79	0.732178
1057.68	3.27612
1060.57	3.8042
1063.47	4.60376
1066.36	8.99194
1069.25	7.40845
1072.14	9.90015
1075.04	5.80493
1077.93	10.7017
1080.82	9.16602
1083.71	9.70483
1086.61	7.91772
1089.5	6.1499
1092.39	1.98389
1095.29	0.580811
1098.18	3.5249
1101.07	3.62695
1103.96	3.72705
1106.86	10.9058
1109.75	9.07056
1112.64	16.6062
1115.53	14.2358
1118.43	9.82373
1121.32	15.292
1124.21	4.66943
1127.11	14.7983
1130	5.34106
1132.89	7.28528
1135.78	3.71057
1138.68	4.87073
1141.57	1.54822
1144.46	4.11719
1147.35	7.75549
1150.25	10.4642
1153.14	5.09399
1156.03	5.65613
1158.92	1.94849
1161.82	15.5798
1164.71	15.9127
1167.6	7.58606
1170.5	3.16663
1173.39	8.22876
1176.28	5.12854
1179.17	7.73938
1182.07	1.93152
1184.96	4.47363
1187.85	2.32385
1190.74	3.12317
1193.64	2.15576
1196.53	0.769043
1199.42	1.59558
1202.32	1.05811
1205.21	1.64624
1208.1	1.04358
1210.99	1.27368
1213.89	2.82947
1216.78	1.90625
1219.67	2.28308
1222.56	3.80188
1225.46	7.65198
1228.35	8.92712
1231.24	7.90198
1234.13	2.67102
1237.03	0.862549
1239.92	3.02954
1242.81	10.8569
1245.71	17.4533
1248.6	20.9006
1251.49	29.3037
1254.38	20.7615
1257.28	22.656
1260.17	15.8641
1263.06	27.642
1265.95	24.1373
1268.85	17.7803
1271.74	14.4613
1274.63	14.6935
1277.53	12.1659
1280.42	14.3864
1283.31	9.06726
1286.2	7.87585
1289.1	7.55481
1291.99	8.38354
1294.88	6.07727
1297.78	1.57044
1300.67	4.7052
