Measurement: Raman, 780 nm, unoriented, Raman Data Processed
Mineral: Palenzonaite
Rruff sample: R060455
Ideal chemistry: NaCa_2_Mn^2+^_2_(VO_4_)_3_
Locality: Molinello mine, Val Graveglia, Genova Province, Liguria, Italy
Source: Michael Scott
Description: Dark-red massive crystals associated with calcite, quartz, and muscovite
Raman shift (cm-1)	intensity
92.5678	0
95.9426	15.0902
99.3174	8.54683
102.692	1.26263
106.067	16.4439
109.442	35.0054
112.817	51.5307
116.192	84.6763
119.566	134.514
122.941	202.74
126.316	242.017
129.691	212.437
133.066	133.956
136.44	94.7596
139.815	78.8572
143.19	68.2978
146.565	66.9343
149.94	61.9387
153.315	55.8617
156.689	55.7637
160.064	51.2111
163.439	55.9789
166.814	49.1983
170.189	36.6369
173.563	19.4311
176.938	7.30164
180.313	2.49735
183.688	10.6326
187.063	13.6165
190.437	4.32217
193.812	3.18835
197.187	9.95889
200.562	4.4386
203.937	23.5575
207.311	48.273
210.686	67.0004
214.061	101.595
217.436	143.585
220.811	193.822
224.186	237.648
227.56	237.396
230.935	202.081
234.31	181.806
237.685	167.496
241.06	165.532
244.435	118.594
247.809	86.2087
251.184	35.525
254.559	3.44367
257.934	20.2275
261.309	5.67432
264.683	22.2698
268.058	87.4866
271.433	166.886
274.808	269.654
278.183	377.467
281.558	483.647
284.932	562.787
288.307	618.015
291.682	648.61
295.057	683.505
298.432	763.685
301.806	942.02
305.181	1254.55
308.556	1596.19
311.931	1895.3
315.306	2210.5
318.68	2654.98
322.055	3052.49
325.43	2593.67
328.805	1588.06
332.18	903.155
335.555	528.69
338.929	346.136
342.304	257.241
345.679	292.275
349.054	208.348
352.429	192.06
355.803	157.507
359.178	121.412
362.553	86.7999
365.928	43.0895
369.303	26.4524
372.678	4.02826
376.052	6.16962
379.427	13.5175
382.802	0.032166
386.177	12.8463
389.552	14.2295
392.926	22.1048
396.301	9.44244
399.676	4.62939
403.051	6.59357
406.426	0.602783
409.8	11.0697
413.175	39.6242
416.55	74.8169
419.925	101.841
423.3	130.444
426.675	149.522
430.049	165.643
433.424	206.908
436.799	278.62
440.174	376.401
443.549	478.333
446.923	544.459
450.298	554.422
453.673	525.904
457.048	475.351
460.423	434.559
463.798	398.112
467.172	358.247
470.547	323.812
473.922	276.406
477.297	208.272
480.672	140.044
484.046	77.4436
487.421	29.0309
490.796	0.044769
494.171	11.8015
497.546	12.405
500.921	12.9395
504.295	4.56508
507.67	7.01183
511.045	18.9054
514.42	27.4668
517.795	29.236
521.169	27.2055
524.544	30.8416
527.919	27.8981
531.294	31.4525
534.669	31.9586
538.044	37.0206
541.418	39.4059
544.793	40.1458
548.168	41.1514
551.543	40.8619
554.918	33.9851
558.293	29.7974
561.667	23.1061
565.042	24.4799
568.417	25.9565
571.792	23.9484
575.167	24.6978
578.541	25.2999
581.916	26.9436
585.291	29.5254
588.666	30.3117
592.041	33.5292
595.415	32.3437
598.79	36.3725
602.165	39.4059
605.54	44.1562
608.915	49.4059
612.29	56.3779
615.664	58.9852
619.039	67.3426
622.414	73.942
625.789	78.1605
629.164	86.6627
632.538	92.1823
635.913	99.3242
639.288	101.945
642.663	111.228
646.038	118.479
649.413	129.521
652.787	141.876
656.162	154.721
659.537	170.337
662.912	186.915
666.287	194.817
669.661	202.646
673.036	197.162
676.411	185.987
679.786	166.033
683.161	151.874
686.535	130.942
689.91	111.846
693.285	94.4451
696.66	68.9962
700.035	48.8753
703.41	31.2502
706.784	8.77306
710.159	6.58267
713.534	20.0973
716.909	34.497
720.284	41.1869
723.659	40.3025
727.033	31.1375
730.408	14.5516
733.783	19.7754
737.158	60.0218
740.533	130.44
743.907	208.694
747.282	314.239
750.657	436.512
754.032	551.614
757.407	672.824
760.782	785.496
764.156	879.523
767.531	969.627
770.906	1024.82
774.281	1108.82
777.656	1240.81
781.03	1451.44
784.405	1773.59
787.78	2286.3
791.155	3152.22
794.53	4376.98
797.904	6100.81
801.279	8541.64
804.654	11377.7
808.029	13821.3
811.404	15286.7
814.779	16116.1
818.153	16629.1
821.528	16009.8
824.903	13550.7
828.278	10156.5
831.653	6719.84
835.028	4148.23
838.402	2535.37
841.777	1486.47
845.152	837.981
848.527	394.533
851.902	145.578
855.276	14.5665
858.651	78.3989
862.026	34.6583
865.401	147.245
868.776	379.454
872.15	635.59
875.525	911.556
878.9	1142.6
882.275	1308.37
885.65	1465.4
889.024	1539.24
892.399	1625.76
895.774	1675.08
899.149	1677.93
902.524	1498.44
905.899	1087.34
909.273	577.783
912.648	199.4
916.023	27.9259
919.398	20.0452
922.773	9.67718
926.148	0.95697
929.522	16.1586
932.897	21.7412
936.272	15.5167
939.647	5.44801
943.022	10.5912
946.396	32.2293
949.771	52.5002
953.146	74.0204
956.521	95.6145
959.896	112.963
963.27	132.72
966.645	152.707
970.02	169.169
973.395	179.905
976.77	190.252
980.145	191.599
983.519	195.659
986.894	195.905
990.269	181.779
993.644	166.889
997.019	147.039
1000.39	130.032
1003.77	119.779
1007.14	113.125
1010.52	107.009
1013.89	98.1525
1017.27	90.7263
1020.64	86.7444
1024.02	83.4459
1027.39	76.1169
1030.77	74.6425
1034.14	67.829
1037.52	61.9973
1040.89	55.5652
1044.27	50.898
1047.64	45.8177
1051.02	39.8331
1054.39	33.8423
1057.77	32.5298
1061.14	30.549
1064.52	26.933
1067.89	23.1138
1071.27	25.0392
1074.64	22.6464
1078.01	22.5853
1081.39	25.8932
1084.76	39.4326
1088.14	44.3518
1091.51	26.3353
1094.89	23.3535
1098.26	15.4526
1101.64	16.3657
1105.01	13.7072
1108.39	12.6752
1111.76	11.2189
1115.14	8.46198
1118.51	7.83817
1121.89	6.4003
1125.26	2.8228
1128.64	1.64841
1132.01	2.56937
1135.39	2.04286
1138.76	5.0862
1142.14	5.6434
1145.51	7.36462
1148.88	4.82904
1152.26	2.4043
1155.63	2.26132
1159.01	1.1893
1162.38	6.65318
1165.76	11.7852
1169.13	18.6064
1172.51	25.7744
1175.88	34.1689
1179.26	38.7396
1182.63	48.1908
1186.01	54.1642
1189.38	60.4654
1192.76	63.7145
1196.13	69.4302
1199.51	72.7138
1202.88	73.5189
1206.26	73.1336
1209.63	72.3401
1213.01	71.8035
1216.38	72.4789
1219.76	73.5593
1223.13	76.9518
1226.51	80.5494
1229.88	77.5124
1233.26	73.7963
1236.63	76.7723
1240.01	70.0899
1243.38	65.7336
1246.76	60.927
1250.13	55.8069
1253.51	52.6607
1256.88	41.8845
1260.25	32.4332
1263.63	25.7004
1267	19.816
1270.38	11.4889
1273.75	10.9621
1277.13	5.50478
1280.5	0.425873
1283.88	0.902969
