Measurement: Raman, 532 nm, unoriented, Raman Data Processed
Mineral: Palermoite
Rruff sample: R130090
Ideal chemistry: Li_2_SrAl_4_(PO_4_)_4_(OH)_4_
Locality: Palermo Mine, N. Groton, New Hampshire, USA
Source: William W. Pinch and Don Doell
Description: Colorless prismatic crystal, associated with quartz
Raman shift (cm-1)	intensity
236.889	0
239.782	9.97555
242.675	3.98859
245.567	0.021729
248.46	0.021484
251.353	2.21191
254.245	5.02087
257.138	4.61292
260.031	3.64987
262.924	6.02145
265.816	11.2136
268.709	15.6689
271.602	11.0128
274.494	11.023
277.387	13.3234
280.28	14.3073
283.173	12.376
286.065	6.60696
288.958	3.34653
291.851	1.6806
294.743	2.87338
297.636	2.88989
300.529	7.51718
303.421	15.2951
306.314	30.1014
309.207	49.3861
312.099	76.4985
314.992	104.138
317.885	138.525
320.778	186.717
323.67	254.634
326.563	305.545
329.456	297.629
332.348	227.907
335.241	184.601
338.134	157.594
341.027	129.075
343.919	99.213
346.812	71.5928
349.705	54.4429
352.597	45.2941
355.49	41.9987
358.383	41.1298
361.276	46.6562
364.168	52.002
367.061	56.73
369.954	54.5095
372.846	42.044
375.739	26.556
378.632	17.3931
381.524	9.54681
384.417	3.33304
387.31	2.8703
390.202	0.820557
393.095	0.77298
395.988	0.715851
398.881	0.995636
401.773	5.05649
404.666	13.8947
407.559	20.759
410.451	31.7297
413.344	46.5826
416.237	63.2672
419.13	86.6656
422.022	111.703
424.915	133.643
427.808	162.979
430.7	194.569
433.593	218.563
436.486	210.343
439.378	152.832
442.271	103.235
445.164	76.6302
448.057	62.5253
450.949	52.2454
453.842	39.3952
456.735	24.7163
459.627	13.9877
462.52	5.51947
465.413	0.765869
468.305	2.28888
471.198	0.247833
474.091	0.704224
476.983	3.34491
479.876	7.77808
482.769	9.17911
485.662	19.66
488.554	19.322
491.447	23.5637
494.34	33.1126
497.232	39.3623
500.125	50.8349
503.018	58.5859
505.911	67.0119
508.803	71.808
511.696	78.4224
514.589	76.8143
517.481	77.7046
520.374	75.8716
523.267	71.0313
526.159	64.1766
529.052	56.8136
531.945	51.5443
534.837	48.1068
537.73	42.2187
540.623	36.3256
543.516	27.4828
546.408	20.4534
549.301	16.4198
552.194	11.3758
555.086	7.49307
557.979	4.59265
560.872	2.57471
563.764	0.656921
566.657	0.246124
569.55	0.568878
572.443	0.483093
575.335	1.05423
578.228	1.36237
581.121	1.91168
584.013	3.00961
586.906	8.18573
589.799	11.3199
592.692	17.5984
595.584	25.9112
598.477	28.6748
601.37	32.5263
604.262	33.7469
607.155	29.6877
610.048	28.3481
612.94	31.1299
615.833	35.4542
618.726	38.6921
621.619	33.058
624.511	24.4793
627.404	19.9296
630.297	17.4593
633.189	19.4846
636.082	21.4273
638.975	19.7363
641.867	16.1212
644.76	14.3633
647.653	13.5869
650.545	16.8135
653.438	19.6331
656.331	18.2222
659.224	18.4897
662.116	14.3935
665.009	10.7639
667.902	4.55539
670.794	2.93985
673.687	6.42972
676.58	1.87662
679.472	0.598083
682.365	0.946075
685.258	2.00803
688.151	4.62003
691.043	0.003326
693.936	1.1738
696.829	0.115143
699.721	1.54257
702.614	0.074677
705.507	1.05176
708.399	0.633392
711.292	3.05002
714.185	0.626617
717.078	0.783722
719.97	3.40772
722.863	2.55505
725.756	2.22464
728.648	3.66482
731.541	1.95654
734.434	5.0444
737.327	3.01324
740.219	3.68201
743.112	2.84509
746.005	3.71338
748.897	2.67874
751.79	1.3717
754.683	0.487579
757.575	2.12518
760.468	2.36755
763.361	2.56213
766.254	2.10074
769.146	1.80884
772.039	1.72772
774.932	1.19293
777.824	8.14084
780.717	2.11389
783.61	0.946899
786.502	2.23535
789.395	0.608673
792.288	1.71036
795.181	3.07849
798.073	0.400879
800.966	3.24857
803.859	1.20087
806.751	2.45901
809.644	3.17038
812.537	3.00113
815.429	3.64468
818.322	3.9007
821.215	6.56137
824.107	7.02762
827	8.83035
829.893	7.19272
832.786	3.89786
835.678	5.49716
838.571	6.6055
841.464	7.27496
844.356	7.82059
847.249	8.70664
850.142	7.89371
853.034	6.18839
855.927	6.97226
858.82	7.89066
861.713	6.77414
864.605	5.59112
867.498	5.29922
870.391	3.10855
873.283	2.28125
876.176	0.454132
879.069	0.789978
881.962	0.2547
884.854	2.97965
887.747	1.32895
890.64	0.354279
893.532	0.946045
896.425	0.808167
899.318	0.088684
902.21	1.36768
905.103	1.53027
907.996	0.591858
910.889	0.838989
913.781	0.68573
916.674	5.27862
919.567	8.40131
922.459	13.2244
925.352	17.9396
928.245	26.5549
931.137	37.3749
934.03	55.325
936.923	75.0948
939.816	97.9551
942.708	118.02
945.601	135.545
948.494	134.273
951.386	117.791
954.279	89.0113
957.172	62.1893
960.064	44.6049
962.957	31.2228
965.85	27.6741
968.742	30.674
971.635	30.9896
974.528	32.4167
977.421	36.791
980.313	38.3459
983.206	44.2571
986.099	47.3695
988.991	55.1385
991.884	66.1503
994.777	79.187
997.669	101.51
1000.56	124.746
1003.46	139.093
1006.35	145.439
1009.24	151.1
1012.13	157.584
1015.03	169.61
1017.92	188.621
1020.81	211.374
1023.7	230.78
1026.6	238.195
1029.49	212.778
1032.38	159.766
1035.28	102.822
1038.17	56.905
1041.06	31.0244
1043.95	14.1242
1046.85	6.43561
1049.74	0.957397
1052.63	3.78888
1055.52	5.60327
1058.42	3.14221
1061.31	0.669128
1064.2	3.68634
1067.09	11.9316
1069.99	20.6684
1072.88	25.1747
1075.77	30.6398
1078.66	38.9009
1081.56	51.8343
1084.45	73.0682
1087.34	100.943
1090.24	139.701
1093.13	165.733
1096.02	133.054
1098.91	71.4315
1101.81	37.9672
1104.7	21.6102
1107.59	14.9202
1110.48	9.36188
1113.38	5.45966
1116.27	4.49066
1119.16	2.24786
1122.06	4.91571
1124.95	11.6011
1127.84	23.2347
1130.73	38.037
1133.63	64.4627
1136.52	94.829
1139.41	127.387
1142.3	165.933
1145.2	202.459
1148.09	186.435
1150.98	108.308
1153.88	49.679
1156.77	22.4704
1159.66	11.7872
1162.55	5.06006
1165.45	3.57135
1168.34	0.283508
1171.23	0.842651
1174.12	0.499878
1177.02	0.203064
1179.91	0.816467
1182.8	2.0614
1185.69	1.20636
1188.59	0.894592
1191.48	0.12854
1194.37	1.33508
1197.27	3.31732
1200.16	3.61487
1203.05	0.885071
1205.94	1.79987
1208.84	7.58075
1211.73	6.09491
1214.62	6.82458
1217.52	5.66296
1220.41	8.15546
1223.3	4.8056
1226.19	7.79748
1229.09	9.19196
1231.98	9.33313
1234.87	7.09351
1237.76	7.8905
1240.66	7.13666
1243.55	5.10913
1246.44	7.67023
1249.33	3.08807
1252.23	3.80426
1255.12	1.87793
1258.01	1.59631
1260.9	4.08533
1263.8	2.0545
1266.69	5.26849
1269.58	4.48242
1272.48	3.61054
1275.37	2.59808
1278.26	0.211792
1281.15	4.65051
1284.05	2.57831
1286.94	4.62024
1289.83	0.680603
1292.72	1.54724
1295.62	3.03467
1298.51	1.94629
1301.4	0.381958
