Measurement: Raman, 780 nm, unoriented, Raman Data Processed
Mineral: Palermoite
Rruff sample: R130090
Ideal chemistry: Li_2_SrAl_4_(PO_4_)_4_(OH)_4_
Locality: Palermo Mine, N. Groton, New Hampshire, USA
Source: William W. Pinch and Don Doell
Description: Colorless prismatic crystal, associated with quartz
Raman shift (cm-1)	intensity
91.1996	0
94.5744	7.30309
97.9492	4.76953
101.324	0.405121
104.699	7.20699
108.074	5.55226
111.448	2.59392
114.823	2.95673
118.198	1.37228
121.573	1.07735
124.948	1.99924
128.322	6.43097
131.697	7.8275
135.072	13.4071
138.447	20.6361
141.822	24.0108
145.197	27.9916
148.571	30.2463
151.946	30.8917
155.321	31.7557
158.696	37.6036
162.071	48.6268
165.446	54.9113
168.82	41.8707
172.195	19.6638
175.57	8.39605
178.945	3.66023
182.32	0.375412
185.694	1.39039
189.069	0.84671
192.444	0.773613
195.819	0.470856
199.194	2.42768
202.569	4.71755
205.943	7.36761
209.318	10.3944
212.693	14.2577
216.068	17.7929
219.442	25.2126
222.817	33.745
226.192	46.1799
229.567	61.3615
232.942	77.9066
236.317	82.9145
239.691	63.855
243.066	44.5522
246.441	34.3275
249.816	30.4041
253.191	26.9491
256.565	19.8345
259.94	16.1402
263.315	14.4961
266.69	12.6637
270.065	12.7511
273.44	14.3074
276.814	16.4778
280.189	16.8698
283.564	12.4997
286.939	5.51147
290.314	1.15898
293.688	1.29479
297.063	1.05131
300.438	0.726944
303.813	4.92571
307.188	14.1657
310.562	24.3319
313.937	40.0039
317.312	62.1686
320.687	92.77
324.062	128.717
327.437	138.515
330.811	104.814
334.186	75.9563
337.561	61.6112
340.936	46.5513
344.311	30.8555
347.685	20.9138
351.06	18.2439
354.435	16.7667
357.81	18.551
361.185	22.9023
364.56	25.5463
367.934	26.4812
371.309	20.6115
374.684	12.8682
378.059	6.53153
381.434	3.3034
384.808	0.437893
388.183	0.932465
391.558	1.20594
394.933	0.239368
398.308	0.751076
401.683	3.76262
405.057	9.82248
408.432	13.7042
411.807	21.317
415.182	31.4761
418.557	41.6299
421.931	52.3549
425.306	63.9778
428.681	77.6486
432.056	91.6686
435.431	90.2793
438.805	65.6189
442.18	47.4553
445.555	40.1637
448.93	32.813
452.305	23.9453
455.68	15.0259
459.054	7.97
462.429	4.58461
465.804	0.750027
469.179	0.621326
472.554	0.068035
475.928	0.565414
479.303	2.44025
482.678	3.04542
486.053	6.31503
489.428	9.61882
492.803	12.7771
496.177	16.5583
499.552	21.88
502.927	25.8228
506.302	29.1906
509.677	31.6003
513.051	33.5154
516.426	34.5847
519.801	31.8041
523.176	29.8871
526.551	27.1618
529.926	25.6339
533.3	23.083
536.675	19.0057
540.05	15.4712
543.425	11.2423
546.799	7.86799
550.174	4.70655
553.549	3.17208
556.924	1.57291
560.299	0.155197
563.674	0.182968
567.048	0.470158
570.423	0.29953
573.798	0.331196
577.173	0.073101
580.548	1.05363
583.923	4.32561
587.297	8.16188
590.672	14.3714
594.047	20.9668
597.422	30.7293
600.797	38.2859
604.171	34.8569
607.546	25.0391
610.921	21.3683
614.296	22.0163
617.671	25.036
621.045	21.7516
624.42	15.3394
627.795	11.4921
631.17	14.0846
634.545	16.4723
637.919	16.0886
641.294	13.914
644.669	14.7722
648.044	16.3007
651.419	18.6364
654.794	20.7755
658.168	18.8112
661.543	13.9084
664.918	8.40441
668.293	4.38792
671.668	2.27709
675.043	1.43964
678.417	0.376366
681.792	0.094318
685.167	0.426456
688.542	0.078812
691.917	0.220524
695.291	0.097244
698.666	0.046192
702.041	0.570591
705.416	0.122234
708.791	0.026016
712.165	0.882114
715.54	0.373371
718.915	0.494587
722.29	0.223457
725.665	0.036121
729.039	0.86245
732.414	0.747791
735.789	0.27446
739.164	0.855419
742.539	0.274246
745.914	0.464905
749.288	0.058201
752.663	1.30362
756.038	0.897327
759.413	0.248524
762.788	0.267029
766.163	0.427734
769.537	0.486961
772.912	0.195
776.287	1.49776
779.662	0.358223
783.037	0.708637
786.411	0.776787
789.786	0.927998
793.161	0.338905
796.536	0.718716
799.911	1.27328
803.285	1.19272
806.66	1.65802
810.035	1.58499
813.41	2.00707
816.785	1.65162
820.159	2.12068
823.534	2.24493
826.909	2.1246
830.284	2.873
833.659	2.20891
837.034	3.05952
840.408	3.54469
843.783	2.88273
847.158	3.78764
850.533	4.64283
853.908	5.39338
857.283	4.63882
860.657	4.35799
864.032	4.18599
867.407	2.59301
870.782	2.02429
874.157	1.71946
877.531	1.72361
880.906	0.590214
884.281	0.399925
887.656	0.615639
891.031	0.302055
894.405	0.065289
897.78	0.147179
901.155	0.117691
904.53	1.33382
907.905	0.304863
911.279	0.383305
914.654	0.196671
918.029	2.23754
921.404	3.19795
924.779	4.50911
928.154	10.064
931.528	16.7975
934.903	25.9273
938.278	37.0539
941.653	47.4493
945.028	53.3191
948.403	54.5552
951.777	44.8375
955.152	32.1736
958.527	23.1184
961.902	16.6967
965.277	14.4453
968.651	16.6162
972.026	19.2262
975.401	22.4808
978.776	24.2649
982.151	27.6746
985.525	29.3279
988.9	33.0548
992.275	40.9004
995.65	51.4339
999.025	63.9034
1002.4	73.5487
1005.77	74.6485
1009.15	76.2732
1012.52	80.0947
1015.9	89.5966
1019.27	102.561
1022.65	115.325
1026.02	118.893
1029.4	102.07
1032.77	65.186
1036.15	36.3994
1039.52	18.299
1042.9	8.63383
1046.27	3.51943
1049.65	1.50979
1053.02	2.1998
1056.4	1.59501
1059.77	0.421185
1063.15	2.32822
1066.52	7.67061
1069.9	13.0344
1073.27	17.4109
1076.64	21.1847
1080.02	22.4112
1083.39	26.505
1086.77	38.5963
1090.14	58.1477
1093.52	63.573
1096.89	33.6358
1100.27	14.1978
1103.64	6.20211
1107.02	3.02065
1110.39	0.516804
1113.77	0.260113
1117.14	3.82772
1120.52	6.27927
1123.89	4.5773
1127.27	14.2526
1130.64	19.6876
1134.02	30.1848
1137.39	41.9615
1140.77	58.028
1144.14	75.6635
1147.52	65.447
1150.89	30.7198
1154.27	11.9823
1157.64	4.95652
1161.02	2.61464
1164.39	0.663042
1167.77	0.777424
1171.14	0.178324
1174.52	0.75601
1177.89	0.554747
1181.27	0.330681
1184.64	0.112453
1188.01	0.045996
1191.39	0.932804
1194.76	0.549221
1198.14	0.841871
1201.51	0.819796
1204.89	1.63787
1208.26	1.22722
1211.64	1.6986
1215.01	1.79326
1218.39	2.75189
1221.76	2.79811
1225.14	3.50764
1228.51	4.09314
1231.89	2.71267
1235.26	2.17228
1238.64	2.14776
1242.01	0.963676
1245.39	0.655499
1248.76	1.44682
1252.14	0.709335
1255.51	0.891296
1258.88	0.09124
1262.26	0.229706
1265.63	0.538551
1269.01	0.949181
1272.38	0.446625
1275.76	0.32638
1279.13	0.651081
1282.51	0.32358
