Measurement: Raman, 532 nm, unoriented, Raman Data Processed
Mineral: Palermoite
Rruff sample: R120141
Ideal chemistry: Li_2_SrAl_4_(PO_4_)_4_(OH)_4_
Locality: Palermo No. 1 mine, Groton, New Hampshire, USA
Source: Benjamin N. Schumer
Description: Striated, colorless, elongated prismatic crystals, associated with quartz and radiating childrenite.
Measured chemistry: (Li_1.87_Na_0.14_)(Sr_0.79_Ca_0.21_)(Al_3.89_Fe_0.01_)(PO_4_)_4.06_(OH)_3.99_
Raman shift (cm-1)	intensity
193.017	0
195.909	5.6991
198.802	3.3858
201.695	0.131042
204.588	1.21777
207.48	7.79858
210.373	14.9869
213.266	17.3438
216.158	18.2727
219.051	18.616
221.944	18.6915
224.836	21.1144
227.729	33.6347
230.622	38.6687
233.514	55.1671
236.407	64.1475
239.3	73.0204
242.193	68.7784
245.085	68.7921
247.978	78.7545
250.871	93.3467
253.763	104.456
256.656	85.891
259.549	51.4515
262.442	34.9659
265.334	29.9645
268.227	28.2775
271.12	32.326
274.012	39.749
276.905	52.1426
279.798	63.9245
282.69	64.4884
285.583	47.8557
288.476	27.269
291.368	11.8949
294.261	2.70746
297.154	1.67694
300.047	1.91022
302.939	1.241
305.832	0.523163
308.725	7.68192
311.617	18.2712
314.51	30.8127
317.403	48.3549
320.296	65.6339
323.188	95.9109
326.081	129.687
328.974	138.638
331.866	109.185
334.759	80.5228
337.652	65.901
340.544	54.7565
343.437	38.4499
346.33	28.7409
349.223	21.1457
352.115	22.2247
355.008	26.1121
357.901	29.9484
360.793	34.2921
363.686	43.7175
366.579	49.3634
369.471	47.2218
372.364	38.375
375.257	25.3633
378.149	17.1298
381.042	6.96915
383.935	3.44086
386.828	0.189331
389.72	2.9964
392.613	1.45816
395.506	2.81406
398.398	8.27765
401.291	18.1913
404.184	30.9526
407.077	49.7496
409.969	75.6882
412.862	103.71
415.755	125.404
418.647	121.983
421.54	108.031
424.433	96.5127
427.325	94.5399
430.218	104.566
433.111	119.211
436.003	121.973
438.896	98.2847
441.789	77.047
444.682	63.4335
447.574	58.723
450.467	54.277
453.36	43.8312
456.252	23.0973
459.145	12.9196
462.038	3.72174
464.93	0.704773
467.823	1.60565
470.716	2.72699
473.609	3.54657
476.501	3.31885
479.394	5.78149
482.287	9.18921
485.179	12.7928
488.072	18.3536
490.965	26.6631
493.858	34.8189
496.75	43.076
499.643	57.977
502.536	66.8188
505.428	76.5251
508.321	79.5294
511.214	82.4438
514.106	78.6093
516.999	80.059
519.892	83.1576
522.784	85.4713
525.677	94.0579
528.57	101.323
531.463	108.63
534.355	112.121
537.248	100.926
540.141	84.9814
543.033	68.2398
545.926	49.5646
548.819	37.2449
551.712	26.5092
554.604	19.8213
557.497	14.283
560.39	9.79956
563.282	4.74194
566.175	2.96118
569.068	3.39862
571.96	2.9682
574.853	3.57556
577.746	2.51269
580.639	9.23315
583.531	21.397
586.424	46.8357
589.317	87.7489
592.209	143.547
595.102	224.543
597.995	326.616
600.888	426.644
603.78	449.131
606.673	347.625
609.566	218.578
612.458	149.941
615.351	118.535
618.244	109.449
621.136	105.963
624.029	97.4407
626.922	90.2987
629.814	101.024
632.707	127.314
635.6	148.488
638.493	146.333
641.385	127.606
644.278	116.886
647.171	122.669
650.063	140.68
652.956	163.854
655.849	180.704
658.741	178.928
661.634	150.952
664.527	107.823
667.42	71.1341
670.312	46.5071
673.205	28.9121
676.098	19.611
678.99	9.19611
681.883	4.57989
684.776	1.42664
687.668	1.07404
690.561	1.65588
693.454	1.31323
696.347	2.37299
699.239	2.16687
702.132	3.00275
705.025	1.32465
707.917	0.454468
710.81	0.204468
713.703	1.49768
716.596	1.0249
719.488	1.32239
722.381	2.39319
725.274	1.11139
728.166	2.94849
731.059	1.11652
733.952	2.96435
736.844	3.48926
739.737	3.68494
742.63	2.21075
745.523	7.73651
748.415	4.23236
751.308	6.92786
754.201	0.043518
757.093	1.04089
759.986	0.5495
762.879	1.72351
765.771	1.86566
768.664	4.57678
771.557	0.449768
774.449	5.63678
777.342	3.87183
780.235	2.47614
783.128	1.84882
786.02	2.52679
788.913	0.68103
791.806	4.4563
794.698	5.67474
797.591	6.7088
800.484	6.01178
803.376	5.25708
806.269	7.60516
809.162	10.033
812.055	8.19098
814.947	9.07068
817.84	9.0282
820.733	15.0134
823.625	13.3702
826.518	17.1207
829.411	12.8425
832.303	15.3478
835.196	13.9828
838.089	13.9804
840.982	18.3085
843.874	18.1283
846.767	18.2017
849.66	17.2592
852.552	20.3966
855.445	19.2498
858.338	23.2523
861.231	21.9206
864.123	20.4097
867.016	20.4139
869.909	19.111
872.801	15.3419
875.694	14.6512
878.587	14.198
881.479	11.5021
884.372	9.82483
887.265	8.01135
890.158	7.32422
893.05	7.37915
895.943	8.55054
898.836	7.11432
901.728	3.81903
904.621	1.77509
907.514	0.785156
910.406	1.63586
913.299	0.684875
916.192	2.31464
919.085	1.75671
921.977	2.03955
924.87	1.4079
927.763	4.48108
930.655	1.49951
933.548	1.19928
936.441	8.41406
939.333	10.7357
942.226	14.1657
945.119	22.5586
948.011	29.9571
950.904	37.2816
953.797	42.8014
956.69	49.8442
959.582	74.7373
962.475	102.789
965.368	129.131
968.26	150.21
971.153	172.721
974.046	198.153
976.938	219.481
979.831	237.434
982.724	244.7
985.617	257.275
988.509	273.748
991.402	296.561
994.295	335.581
997.187	383.291
1000.08	424.909
1002.97	447.624
1005.87	446.179
1008.76	438.263
1011.65	434.97
1014.54	440.062
1017.44	464.907
1020.33	497.245
1023.22	530.613
1026.11	542.233
1029.01	509.07
1031.9	400.983
1034.79	269.565
1037.68	162.929
1040.58	90.5631
1043.47	50.1548
1046.36	27.287
1049.26	9.20007
1052.15	0.884399
1055.04	6.85193
1057.93	1.4071
1060.83	7.13562
1063.72	24.3162
1066.61	48.093
1069.51	89.0731
1072.4	131.43
1075.29	177.751
1078.18	191.349
1081.08	143.675
1083.97	90.5963
1086.86	52.8877
1089.75	31.5549
1092.65	29.5649
1095.54	20.3428
1098.43	9.39246
1101.33	3.03809
1104.22	3.59619
1107.11	6.73718
1110	4.71753
1112.89	3.05786
1115.79	0.96814
1118.68	4.979
1121.57	3.2168
1124.47	6.62622
1127.36	8.0011
1130.25	12.382
1133.14	20.3946
1136.04	24.5442
1138.93	29.5609
1141.82	30.0331
1144.71	26.5259
1147.61	27.5132
1150.5	23.6551
1153.39	13.3239
1156.29	6.14087
1159.18	9.27649
1162.07	6.68005
1164.96	4.94397
1167.86	3.45044
1170.75	4.83398
1173.64	4.45422
1176.54	5.72058
1179.43	3.19958
1182.32	2.15393
1185.21	4.96252
1188.11	0.970825
1191	3.34753
1193.89	3.44165
1196.78	7.08704
1199.68	8.96362
1202.57	5.22827
1205.46	10.5061
1208.35	8.172
1211.25	8.88745
1214.14	12.4183
1217.03	9.2926
1219.92	6.87939
1222.82	8.14771
1225.71	10.3451
1228.6	5.67285
1231.5	10.0384
1234.39	5.72815
1237.28	5.08521
1240.17	5.82336
1243.07	5.94702
1245.96	3.18176
1248.85	6.2489
1251.74	7.01257
1254.64	0.170776
1257.53	5.30359
1260.42	7.59607
1263.32	7.2384
1266.21	2.88415
1269.1	5.90259
1271.99	2.26172
1274.89	5.33728
1277.78	4.93115
1280.67	5.26697
1283.57	6.0249
1286.46	3.07092
1289.35	2.40369
1292.24	2.70679
1295.13	4.46436
1298.03	2.0846
1300.92	1.13794
