Measurement: Raman, 780 nm, unoriented, Raman Data Processed
Mineral: Palermoite
Rruff sample: R120141
Ideal chemistry: Li_2_SrAl_4_(PO_4_)_4_(OH)_4_
Locality: Palermo No. 1 mine, Groton, New Hampshire, USA
Source: Benjamin N. Schumer
Description: Striated, colorless, elongated prismatic crystals, associated with quartz and radiating childrenite.
Measured chemistry: (Li_1.87_Na_0.14_)(Sr_0.79_Ca_0.21_)(Al_3.89_Fe_0.01_)(PO_4_)_4.06_(OH)_3.99_
Raman shift (cm-1)	intensity
116.27	0
119.644	1.2001
123.019	6.95767
126.394	10.3931
129.769	23.2251
133.144	35.1617
136.518	52.7811
139.893	67.1335
143.268	76.0414
146.643	84.2059
150.018	79.4689
153.393	74.6219
156.767	69.6265
160.142	71.8224
163.517	83.5276
166.892	96.5625
170.267	67.2174
173.642	28.5747
177.016	10.5977
180.391	1.09181
183.766	2.8818
187.141	1.99231
190.516	1.70233
193.89	0.7211
197.265	2.93538
200.64	10.463
204.015	15.7284
207.39	16.9651
210.764	19.571
214.139	22.1466
217.514	25.6637
220.889	31.2462
224.264	35.5499
227.638	43.5746
231.013	55.7838
234.388	73.384
237.763	87.8576
241.138	82.9734
244.513	76.355
247.887	81.6194
251.262	93.6866
254.637	93.0068
258.012	61.2129
261.387	40.0204
264.762	34.323
268.136	34.5506
271.511	39.6407
274.886	51.6117
278.261	67.3082
281.635	71.981
285.01	52.8501
288.385	27.7438
291.76	11.0359
295.135	1.45163
298.51	2.80293
301.884	2.07594
305.259	3.46905
308.634	11.8834
312.009	27.146
315.384	40.2272
318.759	60.8804
322.133	88.7353
325.508	122.01
328.883	128.11
332.258	93.6702
335.633	67.9437
339.007	51.7156
342.382	36.6922
345.757	23.176
349.132	17.4604
352.507	16.9148
355.882	22.144
359.256	25.7543
362.631	31.0709
366.006	35.0252
369.381	34.4426
372.755	25.3654
376.13	14.7444
379.505	5.1862
382.88	0.059387
386.255	2.76352
389.63	3.61656
393.004	0.788422
396.379	6.37109
399.754	17.0054
403.129	30.855
406.504	46.6529
409.878	69.5226
413.253	98.7749
416.628	116.181
420.003	106.903
423.378	96.0881
426.753	95.6742
430.127	105.579
433.502	117.718
436.877	114.939
440.252	87.6429
443.627	72.6131
447.001	66.9407
450.376	58.9181
453.751	42.0769
457.126	22.5865
460.501	10.5073
463.875	4.74095
467.25	0.72673
470.625	1.91188
474	1.54414
477.375	0.496506
480.75	6.03209
484.124	10.4269
487.499	17.0402
490.874	22.3144
494.249	29.9291
497.624	41.2087
500.998	50.4395
504.373	60.4681
507.748	63.2896
511.123	66.3955
514.498	65.4344
517.873	63.876
521.247	66.8195
524.622	68.5712
527.997	75.9241
531.372	81.2459
534.747	77.8264
538.121	66.7224
541.496	51.8787
544.871	36.9109
548.246	24.6203
551.621	15.1999
554.995	8.39925
558.37	3.78812
561.745	1.43809
565.12	0.32663
568.495	2.97826
571.87	3.05826
575.244	1.50832
578.619	13.4673
581.994	24.2113
585.369	44.0467
588.744	79.1856
592.119	125.095
595.493	187.729
598.868	278.763
602.243	348.633
605.618	285.937
608.993	171.119
612.367	106.064
615.742	83.6877
619.117	74.7614
622.492	65.9547
625.867	58.6673
629.241	59.4089
632.616	77.172
635.991	94.3272
639.366	89.5728
642.741	85.3158
646.115	91.8155
649.49	105.312
652.865	123.437
656.24	138.788
659.615	131.245
662.99	97.2092
666.364	62.9848
669.739	36.7452
673.114	21.0868
676.489	11.8544
679.864	5.74338
683.239	3.07616
686.613	0.239769
689.988	0.694542
693.363	1.40065
696.738	0.629959
700.112	0.295929
703.487	0.154427
706.862	0.878876
710.237	1.05823
713.612	0.327576
716.987	1.57255
720.361	0.911331
723.736	1.50069
727.111	0.521515
730.486	1.64004
733.861	2.85585
737.236	2.1834
740.61	3.72273
743.985	1.61568
747.36	1.82259
750.735	2.71426
754.11	0.450203
757.484	0.934555
760.859	0.939499
764.234	0.742241
767.609	0.092628
770.984	0.081413
774.359	0.573257
777.733	0.066971
781.108	0.595688
784.483	1.41042
787.858	2.51557
791.232	1.79695
794.607	2.40591
797.982	3.03664
801.357	3.51665
804.732	2.84728
808.107	4.61242
811.481	4.86407
814.856	5.16556
818.231	5.64996
821.606	6.89485
824.981	6.92706
828.356	7.79799
831.73	7.86531
835.105	8.58955
838.48	8.03364
841.855	10.1071
845.23	9.82626
848.604	10.7952
851.979	10.8934
855.354	11.4609
858.729	12.6261
862.104	12.4872
865.479	13.2296
868.853	11.2736
872.228	11.3768
875.603	9.74015
878.978	8.71698
882.352	7.97283
885.727	5.777
889.102	5.92721
892.477	4.54608
895.852	4.47682
899.227	3.23692
902.601	1.34422
905.976	0.809898
909.351	0.648773
912.726	1.27746
916.101	2.31385
919.476	0.913246
922.85	1.57629
926.225	2.29813
929.6	1.68051
932.975	1.3579
936.35	4.36771
939.724	10.1117
943.099	16.3325
946.474	25.9571
949.849	36.6007
953.224	50.6191
956.598	68.3712
959.973	116.302
963.348	197.488
966.723	149.698
970.098	124.932
973.472	134.43
976.847	145.501
980.222	154.019
983.597	162.802
986.972	171.145
990.347	188.656
993.721	217.883
997.096	250.436
1000.47	278.825
1003.85	285.3
1007.22	276.706
1010.6	271.544
1013.97	277.044
1017.35	293.595
1020.72	320.264
1024.1	339.406
1027.47	333.999
1030.84	274.465
1034.22	176.327
1037.59	96.6662
1040.97	49.051
1044.34	20.7898
1047.72	6.61765
1051.09	1.159
1054.47	2.23068
1057.84	1.45663
1061.22	5.61454
1064.59	14.5528
1067.97	31.7918
1071.34	53.9368
1074.72	79.6877
1078.09	86.1205
1081.47	57.7528
1084.84	30.1183
1088.22	18.7484
1091.59	16.4026
1094.97	15.5598
1098.34	6.57566
1101.71	0.261368
1105.09	2.38586
1108.46	2.02109
1111.84	2.40292
1115.21	1.03701
1118.59	0.73912
1121.96	2.68682
1125.34	3.93753
1128.71	5.79794
1132.09	9.03117
1135.46	14.7217
1138.84	16.438
1142.21	18.0506
1145.59	18.8546
1148.96	17.8262
1152.34	12.5629
1155.71	8.58125
1159.09	8.14425
1162.46	7.3929
1165.84	5.78744
1169.21	4.64538
1172.59	3.11967
1175.96	2.5212
1179.34	2.2234
1182.71	0.903412
1186.09	1.73895
1189.46	1.92469
1192.84	2.43843
1196.21	1.55012
1199.59	2.57078
1202.96	3.1282
1206.34	3.20504
1209.71	2.67411
1213.08	2.46583
1216.46	3.15337
1219.83	3.42249
1223.21	2.46213
1226.58	3.69429
1229.96	3.48875
1233.33	2.64434
1236.71	2.72847
1240.08	2.75324
1243.46	2.96192
1246.83	1.39396
1250.21	0.796333
1253.58	0.420235
1256.96	0.489349
1260.33	0.207207
1263.71	0.157654
1267.08	0.213455
1270.46	0.703369
1273.83	1.17015
1277.21	1.58973
1280.58	0.616112
1283.95	0
