Measurement: Raman, 514 nm, unoriented, Raman Data Processed
Mineral: Papagoite
Rruff sample: R040182
Ideal chemistry: CaCuAlSi_2_O_6_(OH)_3_
Locality: Ajo, Pima County, Arizona, USA
Source: University of Arizona Mineral Museum
Description: Blue crusty coating
Measured chemistry: Ca_0.97_Cu_1.00_Al_0.98_Si_2.03_O_6_(OH)_3_
Raman shift (cm-1)	intensity
98.947	0
103.124	20.123
107.3	599.74
111.473	1541.94
115.644	4046.65
119.813	6982.86
123.981	2737.34
128.146	862.009
132.309	1820.49
136.47	4799.75
140.63	5268.83
144.787	604.023
148.942	256.073
153.096	46.266
157.247	28.858
161.396	20.623
165.544	211.672
169.689	363.217
173.833	648.417
177.974	1391.23
182.114	1740.67
186.251	2407.73
190.387	1006.68
194.52	1628.89
198.652	3726.59
202.782	6420.87
206.909	8871.81
211.035	4081.41
215.159	1707.67
219.281	900.623
223.4	427.76
227.518	564.648
231.634	571.527
235.748	1141.94
239.86	2260.58
243.97	5166.04
248.079	6628.26
252.185	7008.17
256.289	4893.73
260.391	2759.92
264.492	3277.31
268.59	2464.91
272.687	1759.49
276.781	1741.66
280.874	2047.78
284.964	1686.44
289.053	1026.4
293.14	842.443
297.225	1722.39
301.308	2109.2
305.389	702.778
309.468	720.041
313.545	1137.94
317.62	1423.25
321.693	1004.05
325.765	752.74
329.834	420.759
333.902	296.151
337.967	175.899
342.031	63.004
346.093	61.478
350.153	178.709
354.21	41.785
358.267	193.626
362.321	159.828
366.373	81.24
370.423	130.625
374.471	357.07
378.518	1096.02
382.563	1637.54
386.605	1389.47
390.646	476.297
394.685	147.673
398.722	297.879
402.757	374.345
406.79	807.113
410.821	2068.18
414.851	5537.53
418.878	8965.15
422.904	7250.05
426.927	2551.23
430.949	1522.85
434.969	2206.89
438.987	3979.29
443.003	4120.04
447.018	2184.09
451.03	1750.44
455.041	2765.08
459.049	4793.98
463.056	7299.14
467.061	9514.54
471.064	18385.2
475.065	25512.1
479.064	12534.4
483.062	5311.87
487.057	2681.6
491.051	1444.52
495.043	955.624
499.032	569.916
503.02	415.063
507.007	282.35
510.991	328.211
514.973	121.47
518.954	262.559
522.933	158.685
526.91	187.681
530.885	581.632
534.858	1053.94
538.829	1324.6
542.799	863.187
546.766	639.077
550.732	728.02
554.696	783.302
558.658	1333.54
562.618	1459.87
566.576	2228.29
570.533	4029.8
574.488	6651.4
578.44	5655.06
582.391	2937.9
586.341	1475.71
590.288	962.586
594.233	565.521
598.177	423.075
602.119	305.536
606.059	267.898
609.997	267.717
613.933	288.857
617.868	523.027
621.801	1034.97
625.731	2217.19
629.66	4760.33
633.588	4871.31
637.513	2062.21
641.437	975.528
645.358	384.763
649.278	337.989
653.196	174.403
657.113	85.403
661.027	115.535
664.94	41.579
668.851	101.627
672.76	27.781
676.667	106.111
680.572	19.426
684.476	47.388
688.378	4.131
692.278	1.269
696.176	63.988
700.072	25.223
703.967	86.869
707.86	263.892
711.751	277.788
715.64	204.648
719.527	252.479
723.413	170.28
727.297	137.053
731.179	173.798
735.059	96.517
738.937	144.204
742.814	307.556
746.689	443.501
750.562	713.133
754.433	1025.72
758.303	1156.28
762.17	829.812
766.036	518.326
769.901	225.82
773.763	62.291
777.624	172.736
781.482	54.146
785.339	4.49
789.195	79.299
793.048	24.299
796.9	170.621
800.75	352.528
804.598	222.424
808.445	693.31
812.289	790.153
816.132	808.376
819.973	450.492
823.813	302.483
827.65	231.962
831.486	214.562
835.32	117.725
839.152	183.209
842.983	290.416
846.812	224.688
850.639	40.071
854.464	36.933
858.288	355.083
862.11	93.685
865.93	253.135
869.748	270.934
873.564	274.967
877.379	97.115
881.192	111.408
885.004	132.848
888.813	36.407
892.621	62.957
896.427	86.688
900.232	144.508
904.034	115.423
907.835	192.42
911.634	289.597
915.432	277.854
919.227	413.156
923.021	404.636
926.813	496.13
930.604	619.005
934.393	703.654
938.18	991.477
941.965	1054.29
945.749	1057.9
949.53	1096.95
953.311	784.091
957.089	628.312
960.866	354.608
964.641	449.996
968.414	461.505
972.185	486.145
975.955	582.922
979.723	390.025
983.49	624.524
987.254	789.438
991.017	720.475
994.779	486.637
998.538	374.854
1002.3	434.345
1006.05	352.573
1009.81	411.687
1013.56	406.648
1017.31	461.211
1021.06	482.84
1024.81	523.27
1028.55	616.042
1032.3	675.347
1036.04	823.684
1039.78	813.045
1043.52	1156.16
1047.26	1789.16
1050.99	3500.55
1054.73	5578.94
1058.46	5198.64
1062.19	3136.95
1065.92	1954.86
1069.65	1569.57
1073.37	1324.01
1077.1	1304.72
1080.82	1703
1084.54	1717.77
1088.26	1657.97
1091.97	1233.58
1095.69	935.054
1099.4	617.404
1103.12	422.443
1106.83	296.155
1110.54	169.626
1114.24	81.134
1117.95	143.577
1121.65	166.599
1125.35	391.684
1129.06	116.667
1132.75	39.767
1136.45	57.121
1140.15	74.675
1143.84	12.909
1147.53	72.866
1151.22	60.311
1154.91	16.85
1158.6	22.673
1162.28	4.566
1165.97	139.986
1169.65	34.256
1173.33	23.03
1177.01	83.538
1180.69	93.553
1184.36	167.074
1188.04	119.124
1191.71	17.427
1195.38	45.528
1199.05	34.126
1202.71	49.862
1206.38	61.258
1210.04	184.832
1213.71	75.284
1217.37	277.709
1221.03	155.844
1224.68	110.712
1228.34	122.281
1231.99	195.575
1235.65	282.884
1239.3	272.654
1242.95	233.155
1246.59	165.387
1250.24	301.338
1253.88	265.021
1257.53	128.35
1261.17	220.359
1264.81	171.047
1268.45	203.421
1272.08	36.508
1275.72	70.057
1279.35	66.855
1282.98	63.273
1286.61	148.218
1290.24	100.606
1293.87	53.596
1297.49	75.392
1301.11	136.787
1304.73	60.338
1308.36	28.5
1311.97	39.982
1315.59	131.535
1319.2	75.955
1322.82	54.791
1326.43	1.805
1330.04	108.832
1333.65	120.385
1337.26	92.945
1340.86	63.805
1344.47	148.469
1348.07	160.236
1351.67	57.469
1355.27	135.459
1358.87	194.576
1362.46	249.857
1366.06	242.654
1369.65	289.135
1373.24	258.375
1376.83	357.836
1380.42	189.596
1384	177.799
1387.59	366.885
1391.17	214.004
1394.75	157.854
1398.33	328.791
1401.91	135.209
1405.49	346.691
1409.06	199.312
1412.64	199.396
1416.21	34.404
1419.78	321.133
1423.35	220.605
1426.91	285.098
1430.48	193.361
1434.05	213.77
1437.61	488.391
1441.17	188.404
1444.73	311.281
1448.29	254.91
1451.84	203.643
1455.4	302.471
1458.95	323.82
1462.5	477.029
1466.05	399.254
1469.6	346.033
1473.15	378.404
1476.69	406.418
1480.24	228.326
1483.78	151.582
1487.32	269.332
1490.86	134.928
1494.39	290.811
1497.93	290.537
1501.46	88.307
1505	143.518
1508.53	62.32
1512.06	147.285
1515.59	283.336
1519.11	118.113
