Measurement: Raman, 785 nm, unoriented, Raman Data Processed
Mineral: Papagoite
Rruff sample: R040182
Ideal chemistry: CaCuAlSi_2_O_6_(OH)_3_
Locality: Ajo, Pima County, Arizona, USA
Source: University of Arizona Mineral Museum
Description: Blue crusty coating
Measured chemistry: Ca_0.97_Cu_1.00_Al_0.98_Si_2.03_O_6_(OH)_3_
Raman shift (cm-1)	intensity
173.088	0
175.981	2.18927
178.873	18.9512
181.766	50.9586
184.659	146.913
187.552	171.887
190.444	220.084
193.337	369.64
196.23	542.563
199.122	768.347
202.015	980.317
204.908	1198.35
207.8	931.677
210.693	439.528
213.586	190.653
216.478	60.0658
219.371	9.32117
222.264	1.46896
225.157	9.12634
228.049	19.1772
230.942	63.5561
233.835	124.419
236.727	215.564
239.62	334.957
242.513	498.348
245.405	596.918
248.298	603.239
251.191	615.662
254.084	582.803
256.976	403.469
259.869	375.882
262.762	496.505
265.654	570.663
268.547	379.462
271.44	241.935
274.332	219.722
277.225	242.828
280.118	271.16
283.011	205.112
285.903	116.971
288.796	21.6131
291.689	3.89258
294.581	3.89224
297.474	20.6547
300.367	23.1501
303.26	87.9584
306.152	120.119
309.045	172.885
311.938	254.717
314.83	321.284
317.723	332.768
320.616	301.08
323.508	259.098
326.401	197.436
329.294	184.46
332.187	140.715
335.079	131.269
337.972	102.293
340.865	100.529
343.757	70.9737
346.65	37.428
349.543	16.6603
352.435	3.55688
355.328	7.7084
358.221	4.61642
361.113	17.1639
364.006	6.82156
366.899	6.58972
369.792	10.7401
372.684	53.2011
375.577	93.0042
378.47	125.574
381.362	149.283
384.255	187.257
387.148	158.874
390.041	51.8725
392.933	2.77506
395.826	6.52991
398.719	35.65
401.611	50.4606
404.504	158.529
407.397	181.52
410.289	282.658
413.182	429.086
416.075	546.454
418.967	446.376
421.86	300.089
424.753	152.526
427.646	76.9534
430.538	59.6059
433.431	92.65
436.324	133.609
439.216	182.996
442.109	216.514
445.002	212.712
447.894	248.149
450.787	312.577
453.68	448.096
456.573	657.759
459.465	943.288
462.358	1219.05
465.251	1434.24
468.143	1652.49
471.036	2041.16
473.929	2094.32
476.822	1539.36
479.714	871.772
482.607	484.957
485.5	283.816
488.392	172.36
491.285	104.632
494.178	69.632
497.07	58.3953
499.963	15.6999
502.856	15.8957
505.748	3.85171
508.641	7.3129
511.534	3.28159
514.427	7.34924
517.319	14.035
520.212	25.8907
523.105	62.9459
525.997	131.766
528.89	178.657
531.783	278.619
534.676	373.443
537.568	423.359
540.461	300.999
543.354	192.459
546.246	113.619
549.139	107.385
552.032	103.947
554.924	90.752
557.817	121.033
560.71	103.095
563.602	107.113
566.495	110.586
569.388	120.462
572.281	109.183
575.173	91.9284
578.066	80.2106
580.959	55.3641
583.851	16.6283
586.744	8.99237
589.637	6.79672
592.529	1.72647
595.422	3.12103
598.315	9.88538
601.208	9.16418
604.1	12.3463
606.993	24.0977
609.886	47.4174
612.778	82.1511
615.671	120.251
618.564	182.873
621.457	290.494
624.349	429.57
627.242	584.817
630.135	675.722
633.027	579.434
635.92	371.851
638.813	196.317
641.705	126.294
644.598	58.6957
647.491	34.2358
650.384	36.6042
653.276	20.8686
656.169	16.8994
659.062	1.99561
661.954	20.9543
664.847	2.06216
667.74	9.69214
670.632	16.4928
673.525	1.01059
676.418	15.2794
679.311	14.1598
682.203	7.67133
685.096	1.30341
687.989	2.67285
690.881	2.64432
693.774	1.15845
696.667	45.6951
699.559	28.9926
702.452	39.4602
705.345	53.7841
708.237	49.4892
711.13	57.4474
714.023	51.0667
716.916	49.889
719.808	12.6698
722.701	39.5604
725.594	15.1165
728.486	24.1374
731.379	1.64371
734.272	31.582
737.164	21.2287
740.057	33.5068
742.95	40.1226
745.843	39.4629
748.735	68.5662
751.628	77.5275
754.521	105.293
757.413	81.3464
760.306	82.6938
763.199	56.2294
766.091	32.3539
768.984	33.1111
771.877	14.21
774.77	19.8836
777.662	7.7912
780.555	20.7002
783.448	7.99634
786.34	4.74399
789.233	0.366669
792.126	6.21729
795.019	10.763
797.911	1.42246
800.804	18.3764
803.697	40.5855
806.589	39.6323
809.482	44.0526
812.375	69.605
815.267	68.2338
818.16	66.2914
821.053	42.4592
823.946	41.3554
826.838	49.5866
829.731	14.5094
832.624	24.1072
835.516	9.30673
838.409	18.6024
841.302	13.4679
844.194	13.089
847.087	14.4611
849.98	14.6361
852.872	11.9755
855.765	23.6204
858.658	18.6103
861.551	13.0145
864.443	36.291
867.336	36.8617
870.229	37.6194
873.121	24.5919
876.014	35.9268
878.907	13.8823
881.799	27.3035
884.692	10.4449
887.585	22.0981
890.478	5.93259
893.37	4.19766
896.263	19.7543
899.156	26.1715
902.048	4.27115
904.941	20.0727
907.834	0.006561
910.726	4.60275
913.619	3.74533
916.512	3.46942
919.405	4.40552
922.297	33.3873
925.19	21.5319
928.083	25.9795
930.975	13.4913
933.868	29.1878
936.761	41.7528
939.654	56.1726
942.546	69.1683
945.439	69.2652
948.332	49.8475
951.224	33.7756
954.117	46.5521
957.01	35.8616
959.902	22.6911
962.795	25.9695
965.688	32.3119
968.581	52.03
971.473	63.2446
974.366	55.1202
977.259	82.7116
980.151	74.3969
983.044	85.3267
985.937	61.921
988.829	58.0166
991.722	27.1648
994.615	26.4279
997.508	4.69061
1000.4	4.46365
1003.29	30.3685
1006.19	10.7151
1009.08	1.09546
1011.97	8.88846
1014.86	18.7129
1017.76	15.63
1020.65	3.14572
1023.54	22.9433
1026.43	16.16
1029.33	11.6991
1032.22	27.8381
1035.11	53.8036
1038.01	72.6601
1040.9	107.493
1043.79	212.603
1046.68	338.035
1049.58	485.222
1052.47	602.465
1055.36	653.554
1058.25	507.733
1061.15	328.341
1064.04	229.053
1066.93	156.909
1069.83	137.662
1072.72	112.109
1075.61	113.928
1078.5	151.947
1081.4	146.613
1084.29	158.428
1087.18	126.021
1090.07	114.888
1092.97	66.4356
1095.86	46.3508
1098.75	25.5752
1101.64	33.3798
1104.54	4.39941
1107.43	32.7039
1110.32	13.5903
1113.21	2.29413
1116.11	3.80716
1119	11.2346
1121.89	8.85971
1124.79	6.38516
1127.68	22.0581
1130.57	17.8908
1133.46	11.4605
1136.36	21.4234
1139.25	14.2383
1142.14	2.18744
1145.04	17.3983
1147.93	8.20334
1150.82	23.4618
1153.71	18.8333
1156.61	5.06827
1159.5	18.3097
1162.39	20.8809
1165.28	17.3391
1168.18	23.7871
1171.07	14.0943
1173.96	21.7931
1176.86	5.1134
1179.75	23.7969
1182.64	10.7878
1185.53	21.2754
1188.43	10.6203
1191.32	23.8497
1194.21	22.7065
1197.1	30.5744
1200	23.0584
1202.89	23.3609
1205.78	28.8402
1208.67	21.4526
1211.57	10.8648
1214.46	27.6813
1217.35	2.77927
1220.24	14.8491
1223.14	4.3143
1226.03	0
