Measurement: Raman, 532 nm, unoriented, Raman Data Processed
Mineral: Papagoite
Rruff sample: R040182
Ideal chemistry: CaCuAlSi_2_O_6_(OH)_3_
Locality: Ajo, Pima County, Arizona, USA
Source: University of Arizona Mineral Museum
Description: Blue crusty coating
Measured chemistry: Ca_0.97_Cu_1.00_Al_0.98_Si_2.03_O_6_(OH)_3_
Raman shift (cm-1)	intensity
127.484	0
130.859	92.3111
134.234	356.347
137.609	655.694
140.984	239.699
144.358	46.8013
147.733	5.06262
151.108	22.6014
154.483	4.4046
157.858	2.7904
161.233	20.1125
164.607	25.6989
167.982	81.2075
171.357	213.79
174.732	352.719
178.107	488.332
181.482	594.627
184.856	813.805
188.231	664.216
191.606	1016.6
194.981	1608.08
198.356	2475.09
201.731	3248.32
205.105	3859.83
208.48	2433
211.855	895.054
215.23	313.529
218.605	97.8723
221.979	15.1592
225.354	8.92932
228.729	72.683
232.104	267.155
235.479	576.961
238.853	1110.57
242.228	1716.64
245.603	2274.53
248.978	2205.58
252.353	2238.21
255.727	1496.61
259.102	909.169
262.477	1118.18
265.852	1191.88
269.227	638.782
272.602	483.313
275.976	563.871
279.351	637.183
282.726	581.016
286.101	213.735
289.476	4.27161
292.851	16.3168
296.225	117.324
299.6	199.262
302.975	114.681
306.35	143.499
309.725	288.853
313.099	442.029
316.474	508.992
319.849	429.956
323.224	339.551
326.599	273.528
329.974	203.369
333.348	146.866
336.723	128.559
340.098	117.05
343.473	78.4346
346.848	8.53284
350.223	13.1971
353.597	34.8755
356.972	38.2849
360.347	58.2871
363.722	14.9652
367.097	28.8896
370.471	135.654
373.846	277.775
377.221	496.377
380.596	657.21
383.971	678.231
387.346	439.519
390.72	127.635
394.095	54.2612
397.47	109.728
400.845	265.405
404.219	576.191
407.594	1145.42
410.969	1888.42
414.344	2813.2
417.719	3162.24
421.094	2703.67
424.469	1267.55
427.843	771.775
431.218	882.389
434.593	1237.39
437.968	1740.19
441.343	1864.82
444.717	1171.13
448.092	1030.06
451.467	1304.03
454.842	1997.88
458.217	3112.72
461.591	4671.44
464.966	6200.86
468.341	7886.44
471.716	9664.5
475.091	8950.76
478.466	4904.16
481.84	2409.72
485.215	1305.12
488.59	746.078
491.965	416.201
495.34	275.366
498.714	116.738
502.089	46.1589
505.464	11.4585
508.839	44.2153
512.214	44.9626
515.589	51.891
518.963	38.6387
522.338	14.7152
525.713	115.723
529.088	283.893
532.463	481.737
535.837	592.092
539.212	485.763
542.587	293.169
545.962	250.113
549.337	267.305
552.712	355.768
556.086	524.949
559.461	739.691
562.836	1076.48
566.211	1461.64
569.586	1991.62
572.96	2423.11
576.335	2245.01
579.71	1321.02
583.085	681.959
586.46	344.945
589.835	209.868
593.209	89.9166
596.584	47.6581
599.959	50.0955
603.334	34.4058
606.709	69.0335
610.083	82.7832
613.458	186.258
616.833	472.102
620.208	856.629
623.583	1384.9
626.958	1986.19
630.332	2227.69
633.707	1603.92
637.082	738.084
640.457	336.931
643.832	195.215
647.207	98.0828
650.581	29.5142
653.956	25.9266
657.331	40.9293
660.706	27.6467
664.081	0.863647
667.455	15.973
670.83	16.4138
674.205	11.2152
677.58	5.37524
680.955	3.10168
684.33	3.41345
687.704	22.364
691.079	5.17712
694.454	4.27991
697.829	67.6263
701.204	88.4423
704.578	143.343
707.953	161.527
711.328	171.233
714.703	175.776
718.078	155.056
721.452	98.0596
724.827	96.1097
728.202	93.4887
731.577	68.8554
734.952	59.9047
738.327	87.3181
741.701	122.213
745.076	201.322
748.451	291.531
751.826	360.025
755.201	390.197
758.576	358.07
761.95	255.704
765.325	154.397
768.7	110.637
772.075	69.536
775.45	25.6271
778.824	23.4845
782.199	5.7655
785.574	13.2938
788.949	17.0196
792.324	29.1976
795.698	35.4111
799.073	85.2534
802.448	119.167
805.823	187.706
809.198	212.049
812.573	272.958
815.947	225.553
819.322	152.352
822.697	97.412
826.072	85.4594
829.447	37.6993
832.822	36.3849
836.196	22.5946
839.571	10.2167
842.946	9.31946
846.321	9.9281
849.696	23.6455
853.07	16.9727
856.445	28.3291
859.82	30.4652
863.195	28.1674
866.57	21.8616
869.944	56.9973
873.319	55.2924
876.694	55.4047
880.069	74.7224
883.444	21.9939
886.819	29.626
890.193	2.42932
893.568	1.04163
896.943	13.739
900.318	5.422
903.693	15.4801
907.067	10.1932
910.442	27.2537
913.817	56.4226
917.192	96.306
920.567	107.45
923.942	156.436
927.316	185.7
930.691	236.693
934.066	302.972
937.441	397.681
940.816	393.253
944.191	404.003
947.565	319.127
950.94	230.08
954.315	155.694
957.69	129.042
961.065	113.592
964.439	88.7008
967.814	91.9331
971.189	78.0884
974.564	111.465
977.939	131.221
981.313	156.438
984.688	160.839
988.063	118.869
991.438	80.6804
994.813	16.2921
998.188	2.18958
1001.56	12.9777
1004.94	7.75281
1008.31	12.695
1011.69	44.3008
1015.06	44.3192
1018.44	42.8453
1021.81	61.3099
1025.19	71.2672
1028.56	59.2123
1031.94	98.7262
1035.31	173.249
1038.68	277.202
1042.06	542.726
1045.43	933.941
1048.81	1535.9
1052.18	2015.22
1055.56	1973.85
1058.93	1396.53
1062.31	855.698
1065.68	581.201
1069.06	488.549
1072.43	459.47
1075.81	515.501
1079.18	582.459
1082.56	588.315
1085.93	562.763
1089.31	445.443
1092.68	293.32
1096.06	173.271
1099.43	75.1168
1102.81	31.7185
1106.18	35.365
1109.56	20.5614
1112.93	27.1097
1116.31	15.8778
1119.68	9.24463
1123.06	3.448
1126.43	3.21667
1129.81	2.61523
1133.18	5.53271
1136.56	28.2264
1139.93	3.48523
1143.31	1.20728
1146.68	29.4544
1150.05	10.3275
1153.43	2.1449
1156.8	21.8806
1160.18	26.9869
1163.55	19.7753
1166.93	39.439
1170.3	16.403
1173.68	5.90503
1177.05	17.0051
1180.43	0.254272
1183.8	27.8174
1187.18	8.94397
1190.55	22.0762
1193.93	33.833
1197.3	19.5511
1200.68	24.1331
1204.05	21.1741
1207.43	10.5808
1210.8	10.1435
1214.18	33.9376
1217.55	36.0717
1220.93	16.3607
1224.3	1.80994
1227.67	8.22437
1231.05	23.9076
1234.42	37.2162
1237.8	43.5105
1241.17	28.5798
1244.55	23.9364
1247.92	48.566
1251.3	19.7869
1254.67	36.0488
1258.05	21.2963
1261.42	31.8341
1264.8	18.1423
1268.17	14.7344
1271.55	32.3472
1274.92	20.8734
1278.3	47.9386
1281.67	25.3752
1285.05	22.813
1288.42	17.4376
1291.8	2.82458
1295.17	2.13232
1298.55	32.4684
1301.92	7.23608
1305.3	10.2675
