Measurement: Raman, 532 nm, unoriented, Raman Data Processed
Mineral: Parabutlerite
Rruff sample: R110161
Ideal chemistry: Fe^3+^SO_4_(OH)2H_2_O
Locality: Saghand, near Yazd, Iran
Source: George Rossman, California Institute of Technology
Description: Fragment of euhedral orange crystals
Raman shift (cm-1)	intensity
160.881	0
163.774	0.628296
166.667	2.94536
169.559	15.1605
172.452	43.1668
175.345	75.6383
178.237	105.736
181.13	117.363
184.023	124.275
186.916	131.618
189.808	138.759
192.701	151.407
195.594	167.841
198.486	188.767
201.379	205.845
204.272	226.691
207.164	241.363
210.057	258.82
212.95	268.323
215.843	274.816
218.735	278.204
221.628	290.959
224.521	310.552
227.413	343.046
230.306	375.665
233.199	384.892
236.091	355.699
238.984	286.843
241.877	210.701
244.769	150.026
247.662	109.305
250.555	79.3115
253.448	59.4552
256.34	46.9616
259.233	37.3972
262.126	31.2892
265.018	24.187
267.911	18.2706
270.804	13.501
273.697	9.22668
276.589	5.61473
279.482	2.52177
282.375	0.363327
285.267	2.00963
288.16	2.00433
291.053	3.35305
293.945	3.94944
296.838	1.32571
299.731	1.66732
302.623	1.75301
305.516	0.286423
308.409	1.09738
311.302	0.587975
314.194	1.01405
317.087	0.680031
319.98	1.82107
322.872	2.06532
325.765	0.897232
328.658	2.58209
331.55	3.8319
334.443	7.36732
337.336	11.6557
340.229	16.4456
343.121	22.9452
346.014	30.2006
348.907	40.1846
351.799	50.881
354.692	64.9787
357.585	78.0112
360.478	90.1526
363.37	96.4428
366.263	98.8267
369.156	98.0271
372.048	97.6994
374.941	100.368
377.834	106.684
380.726	114.932
383.619	127.629
386.512	144.631
389.404	164.117
392.297	180.465
395.19	191.884
398.083	201.169
400.975	197.533
403.868	183.613
406.761	158.667
409.653	130.907
412.546	101.531
415.439	74.941
418.332	54.2107
421.224	36.3993
424.117	22.2681
427.01	11.8334
429.902	5.1203
432.795	1.11534
435.688	0.210175
438.58	2.84724
441.473	10.2745
444.366	21.8771
447.259	35.3963
450.151	54.277
453.044	73.9226
455.937	96.2961
458.829	120.733
461.722	142.616
464.615	157.784
467.507	154.33
470.4	137.232
473.293	109.664
476.185	81.6799
479.078	57.115
481.971	38.9641
484.864	23.7326
487.756	13.455
490.649	5.84025
493.542	0.540642
496.434	1.73972
499.327	2.62332
502.22	2.61803
505.113	1.81827
508.005	1.09902
510.898	3.805
513.791	8.09106
516.683	15.6684
519.576	24.2526
522.469	36.2975
525.361	52.1812
528.254	74.1218
531.147	96.4219
534.04	125.151
536.932	153.851
539.825	178.072
542.718	193.525
545.61	192.293
548.503	170.702
551.396	137.429
554.288	100.941
557.181	68.9864
560.074	46.468
562.967	28.3488
565.859	17.5013
568.752	10.0709
571.645	5.37934
574.537	0.689682
577.43	2.67647
580.323	0.808678
583.216	0.265533
586.108	0.227585
589.001	3.14093
591.894	6.14451
594.786	9.05971
597.679	12.3694
600.572	12.9392
603.464	11.0591
606.357	8.07197
609.25	5.60895
612.142	4.51304
615.035	2.07331
617.928	1.74056
620.821	1.70637
623.713	0.931843
626.606	0.755039
629.499	1.38464
632.391	1.2175
635.284	1.51889
638.177	0.809124
641.069	0.423149
643.962	0.938068
646.855	0.171059
649.747	0.865051
652.64	0.792496
655.533	1.69206
658.426	1.2528
661.318	1.2652
664.211	0.920506
667.104	0.134529
669.996	0.594231
672.889	0.111423
675.782	0.770237
678.674	1.29711
681.567	0.743114
684.46	0.178036
687.353	0.197598
690.245	0.27935
693.138	1.06098
696.031	0.584908
698.923	0.723248
701.816	0.278553
704.709	0.27689
707.601	0.252197
710.494	0.347271
713.387	0.375481
716.28	0.733223
719.172	0.329891
722.065	0.065151
724.958	0.7967
727.85	0.008915
730.743	0.815456
733.636	1.18456
736.529	0.221054
739.421	0.850967
742.314	0.433449
745.207	0.47514
748.099	0.954826
750.992	1.1628
753.885	0.393875
756.777	1.0232
759.67	0.051762
762.563	0.946789
765.456	0.7477
768.348	0.543324
771.241	0.874092
774.134	1.45769
777.026	0.407314
779.919	0.185135
782.812	0.117321
785.704	0.554005
788.597	0.28503
791.49	0.344341
794.383	0.382851
797.275	0.474529
800.168	0.282227
803.061	0.463856
805.953	1.13973
808.846	1.10617
811.739	1.04194
814.631	0.335972
817.524	0.504417
820.417	0.599129
823.309	0.575207
826.202	0.187347
829.095	0.512661
831.988	0.062828
834.88	0.529797
837.773	0.459953
840.666	0.636501
843.558	0.949802
846.451	1.59686
849.344	1.41896
852.236	1.97439
855.129	2.19956
858.022	2.4753
860.915	2.39067
863.807	1.61983
866.7	0.724632
869.593	0.669495
872.485	0.778515
875.378	0.50724
878.271	0.599049
881.163	1.28781
884.056	0.945366
886.949	0.746536
889.842	0.851112
892.734	1.25003
895.627	1.35978
898.52	2.01172
901.412	3.29402
904.305	2.40596
907.198	2.2557
910.091	2.41077
912.983	2.38516
915.876	2.42495
918.769	2.26636
921.661	2.34008
924.554	2.17787
927.447	1.76512
930.339	1.66593
933.232	2.10442
936.125	1.49937
939.018	0.821056
941.91	0.537109
944.803	0.647808
947.696	0.31694
950.588	0.249203
953.481	0.205608
956.374	0.878864
959.266	0.398136
962.159	0.93174
965.052	0.697197
967.944	1.21877
970.837	3.04721
973.73	4.66262
976.623	7.33929
979.515	12.6467
982.408	16.8033
985.301	22.2276
988.193	26.3525
991.086	31.9045
993.979	40.5385
996.871	52.4389
999.764	71.3258
1002.66	95.8058
1005.55	127.734
1008.44	162.804
1011.34	195.755
1014.23	208.457
1017.12	203.901
1020.01	203.208
1022.91	210.458
1025.8	206.689
1028.69	172.929
1031.58	128.377
1034.48	95.9102
1037.37	80.0483
1040.26	70.3712
1043.15	60.7755
1046.05	47.254
1048.94	34.1074
1051.83	25.0614
1054.73	16.8331
1057.62	12.3434
1060.51	5.57795
1063.4	2.14211
1066.3	1.73877
1069.19	0.982803
1072.08	0.037621
1074.97	1.49764
1077.87	6.25017
1080.76	11.4588
1083.65	18.3886
1086.55	29.8984
1089.44	45.7377
1092.33	66.0068
1095.22	92.563
1098.12	121.935
1101.01	157.124
1103.9	184.449
1106.79	197.64
1109.69	187.392
1112.58	159
1115.47	123.579
1118.37	95.2695
1121.26	70.8402
1124.15	50.7024
1127.04	34.3279
1129.94	20.9949
1132.83	11.4455
1135.72	6.61918
1138.61	1.9313
1141.51	0.8815
1144.4	2.19321
1147.29	0.723511
1150.18	0.274956
1153.08	1.47212
1155.97	3.57663
1158.86	5.49348
1161.76	6.80236
1164.65	9.18186
1167.54	10.8287
1170.43	12.6401
1173.33	15.0636
1176.22	17.4388
1179.11	19.4852
1182	21.6789
1184.9	24.7547
1187.79	28.8865
1190.68	32.161
1193.58	36.5738
1196.47	41.5945
1199.36	44.1908
1202.25	47.0538
1205.15	49.4846
1208.04	50.0371
1210.93	48.9194
1213.82	46.6463
1216.72	41.8519
1219.61	36.8375
1222.5	28.8668
1225.39	24.3575
1228.29	18.9097
1231.18	15.3539
1234.07	9.33458
1236.97	6.85279
1239.86	4.60737
1242.75	3.53176
1245.64	0.927513
1248.54	1.62885
1251.43	0.41832
1254.32	0.402634
1257.21	0.0131
1260.11	0.272404
1263	0.880329
1265.89	0.146484
1268.79	0.975277
1271.68	0.561394
1274.57	1.92065
1277.46	2.01588
1280.36	3.22133
1283.25	1.76894
1286.14	1.98757
1289.03	1.156
1291.93	1.89405
1294.82	1.00934
1297.71	1.24473
1300.61	0.757469
