Measurement: Raman, 532 nm, unoriented, Raman Data Processed
Mineral: Pararobertsite
Rruff sample: R120119
Ideal chemistry: Ca_2_Mn^3+^_3_O_2_(PO_4_)_3_3H_2_O
Locality: Tip Top mine, Custer, South Dakota, USA
Source: Thomas A. Loomis. Anthony R. Kampf provided a few crystals (Kampf 2000).
Description: Spherical aggregate of brown platy crystals on colorless bobdownsite
Raman shift (cm-1)	intensity
218.253	0.39389
221.146	0.029236
224.038	2.03513
226.931	2.15774
229.824	3.82256
232.717	7.66644
235.609	10.4204
238.502	15.0858
241.395	17.7886
244.287	25.198
247.18	25.5905
250.073	29.7534
252.965	32.6525
255.858	34.8476
258.751	36.6407
261.644	30.645
264.536	24.3718
267.429	21.647
270.322	20.3422
273.214	21.8507
276.107	23.6002
279	21.8148
281.892	22.0257
284.785	24.6069
287.678	33.4607
290.571	40.7442
293.463	53.6137
296.356	68.3651
299.249	83.3118
302.141	92.8334
305.034	99.7419
307.927	104.879
310.82	103.811
313.712	103.043
316.605	96.5891
319.498	86.9625
322.39	78.0022
325.283	70.6629
328.176	64.9388
331.068	57.0144
333.961	50.5227
336.854	42.2244
339.747	28.7559
342.639	14.5448
345.532	5.80821
348.425	2.39842
351.317	3.30057
354.21	0.887573
357.103	2.56708
359.995	7.2588
362.888	11.0633
365.781	12.8315
368.673	10.3672
371.566	7.07101
374.459	4.68704
377.352	4.49742
380.244	6.55478
383.137	10.5108
386.03	16.7392
388.922	21.3503
391.815	28.0133
394.708	29.6915
397.601	37.0518
400.493	39.9666
403.386	43.7177
406.279	43.1808
409.171	37.0305
412.064	31.8182
414.957	25.5844
417.849	15.6084
420.742	9.03622
423.635	2.30075
426.527	0.344955
429.42	1.01978
432.313	2.2746
435.206	1.27985
438.098	1.4527
440.991	1.98903
443.884	4.44768
446.776	11.4642
449.669	10.7486
452.562	13.3782
455.454	18.4418
458.347	22.1972
461.24	24.1109
464.133	22.9135
467.025	16.6998
469.918	11.9947
472.811	11.2669
475.703	13.1359
478.596	12.4567
481.489	13.6397
484.382	13.8605
487.274	10.3754
490.167	9.98149
493.06	9.24008
495.952	11.2601
498.845	11.0202
501.738	8.79135
504.63	6.16338
507.523	4.18272
510.416	2.74322
513.308	0.926941
516.201	1.46398
519.094	1.34285
521.987	1.61915
524.879	2.40301
527.772	1.86462
530.665	2.35302
533.557	3.81741
536.45	1.37841
539.343	5.01147
542.236	5.5229
545.128	6.25317
548.021	6.36151
550.914	4.2381
553.806	1.05446
556.699	1.4025
559.592	1.73708
562.484	2.10677
565.377	0.886383
568.27	1.46133
571.163	3.1969
574.055	7.05832
576.948	12.4966
579.841	17.7018
582.733	24.2759
585.626	32.9958
588.519	39.6429
591.411	46.4596
594.304	49.1674
597.197	50.8482
600.09	52.9727
602.982	60.5714
605.875	67.301
608.768	80.3025
611.66	90.1108
614.553	101.678
617.446	108.996
620.338	118.401
623.231	122.374
626.124	119.165
629.016	107.294
631.909	93.6936
634.802	82.3276
637.695	72.0165
640.587	68.0358
643.48	60.7955
646.373	56.352
649.265	54.0008
652.158	53.0722
655.051	54.9474
657.943	57.6975
660.836	59.7497
663.729	63.2931
666.622	59.8073
669.514	54.733
672.407	39.8984
675.3	29.3198
678.192	21.4978
681.085	16.1259
683.978	10.1428
686.87	6.73034
689.763	4.74779
692.656	4.29874
695.549	1.55462
698.441	1.03364
701.334	0.826546
704.227	0.657448
707.119	0.514542
710.012	0.600662
712.905	0.616013
715.798	0.723427
718.69	1.23346
721.583	1.60959
724.476	0.060837
727.368	1.92742
730.261	0.331314
733.154	1.08108
736.046	0.814171
738.939	0.841614
741.832	1.48757
744.725	3.76272
747.617	2.57048
750.51	2.11241
753.403	2.15395
756.295	3.71989
759.188	2.94656
762.081	3.53446
764.973	3.5209
767.866	3.13712
770.759	3.7142
773.652	3.14785
776.544	3.70071
779.437	2.40031
782.33	2.37768
785.222	2.79762
788.115	3.34682
791.008	1.72266
793.9	2.61624
796.793	2.88735
799.686	3.58835
802.578	1.76313
805.471	1.85531
808.364	2.82985
811.257	2.77242
814.149	4.17803
817.042	4.22414
819.935	4.15401
822.827	4.30724
825.72	2.28371
828.613	3.21617
831.505	3.72887
834.398	2.42567
837.291	1.3622
840.184	1.49978
843.076	2.22195
845.969	2.15306
848.862	2.59442
851.754	0.270226
854.647	1.50051
857.54	0.605003
860.433	1.73824
863.325	1.56828
866.218	0.755913
869.111	2.33166
872.003	0.53437
874.896	0.702164
877.789	0.154541
880.681	1.01186
883.574	0.496796
886.467	1.84741
889.36	3.32537
892.252	5.07843
895.145	7.17177
898.038	5.8128
900.93	7.19484
903.823	7.11703
906.716	8.88722
909.608	10.6971
912.501	11.1666
915.394	10.4477
918.287	12.2099
921.179	12.7053
924.072	12.3042
926.965	13.698
929.857	15.2446
932.75	18.2482
935.643	22.6582
938.535	28.342
941.428	36.9024
944.321	46.1729
947.213	53.2026
950.106	57.4008
952.999	56.6415
955.892	55.7742
958.784	55.69
961.677	58.889
964.57	60.3758
967.462	56.1744
970.355	45.8291
973.248	37.7603
976.14	34.0902
979.033	35.2108
981.926	34.1346
984.819	24.8969
987.711	14.1745
990.604	6.37345
993.497	2.00901
996.389	0.340561
999.282	1.97159
1002.17	1.34596
1005.07	0.624779
1007.96	4.62924
1010.85	9.5053
1013.75	14.1265
1016.64	23.5751
1019.53	33.5695
1022.42	43.7224
1025.32	46.2115
1028.21	45.0771
1031.1	44.0397
1033.99	46.8994
1036.89	54.2031
1039.78	62.5363
1042.67	65.3395
1045.57	59.9517
1048.46	52.1026
1051.35	38.7701
1054.24	27.1174
1057.14	20.0543
1060.03	16.633
1062.92	11.1411
1065.81	10.5308
1068.71	8.83304
1071.6	10.9368
1074.49	9.03538
1077.38	9.39671
1080.28	6.55061
1083.17	3.58485
1086.06	0.65667
1088.96	0.38681
1091.85	0.045998
1094.74	0.831085
1097.63	0.996819
1100.53	0.942947
1103.42	1.92713
1106.31	4.29636
1109.2	4.9069
1112.1	5.15251
1114.99	6.39613
1117.88	5.72002
1120.78	4.86837
1123.67	4.48406
1126.56	2.71502
1129.45	2.28519
1132.35	3.20995
1135.24	1.68146
1138.13	0.806152
1141.02	2.14764
1143.92	4.61203
1146.81	1.75365
1149.7	2.39542
1152.6	2.6746
1155.49	2.94164
1158.38	1.00375
1161.27	0.934631
1164.17	1.7289
1167.06	0.759506
1169.95	1.93946
1172.84	2.87699
1175.74	1.93755
1178.63	2.79533
1181.52	2.70029
1184.41	3.95686
1187.31	4.17257
1190.2	7.38706
1193.09	9.33543
1195.99	9.42959
1198.88	8.29769
1201.77	6.21715
1204.66	4.60658
1207.56	2.76342
1210.45	2.9719
1213.34	0.712738
1216.23	1.58636
1219.13	1.66264
1222.02	0.370285
1224.91	0.21862
1227.81	0.093544
1230.7	0.672768
1233.59	0.616623
1236.48	0.749474
1239.38	0.543625
1242.27	0.225647
1245.16	0.613602
1248.05	1.30235
1250.95	1.87832
1253.84	1.57632
1256.73	2.07336
1259.62	2.4007
1262.52	1.99996
1265.41	1.44524
1268.3	1.7567
1271.2	1.41885
1274.09	0.795624
1276.98	0.150383
1279.87	1.52091
1282.77	0.062416
1285.66	0.807877
1288.55	1.15965
1291.44	1.5711
1294.34	1.8867
1297.23	0.646408
1300.12	2.93707
1303.02	0
