Measurement: Raman, 532 nm, unoriented, Raman Data Processed
Mineral: Parabutlerite
Rruff sample: R070547
Ideal chemistry: Fe^3+^SO_4_(OH)2H_2_O
Locality: Chuquicamata mine, Calama, El Loa Province, Antofogasta, Chile
Source: James Shigley
Description: Granular aggregate of orange microcrystals
Raman shift (cm-1)	intensity
150.155	0
153.048	32.8083
155.941	144.187
158.833	178.998
161.726	231.874
164.619	303.301
167.512	355.102
170.404	404.102
173.297	470.422
176.19	577.156
179.082	748.475
181.975	854.122
184.868	987.823
187.761	1049.96
190.653	1051.55
193.546	1180.46
196.439	1284.45
199.331	1479.23
202.224	1710.75
205.117	2058.02
208.009	2333.72
210.902	2677.51
213.795	2756.73
216.688	2702.84
219.58	2721.97
222.473	2914.98
225.366	3429.46
228.258	3899.37
231.151	4586.23
234.044	4885.88
236.936	4575.78
239.829	3594.58
242.722	2577.73
245.614	1636.34
248.507	1145.14
251.4	822.509
254.293	553.536
257.185	424.318
260.078	360.114
262.971	298.059
265.863	336.234
268.756	229.908
271.649	163.177
274.541	131.936
277.434	25.996
280.327	4.60425
283.22	35.5494
286.112	39.1156
289.005	12.0001
291.898	46.2855
294.79	6.20117
297.683	20.0868
300.576	1.19751
303.469	10.0829
306.361	41.8419
309.254	50.303
312.147	4.98987
315.039	5.59851
317.932	4.18713
320.825	36.2233
323.717	3.67151
326.61	19.9127
329.503	3.76587
332.396	14.3114
335.288	4.3186
338.181	34.4791
341.074	96.2488
343.966	160.623
346.859	284.061
349.752	413.889
352.644	568.071
355.537	789.062
358.43	1018.13
361.322	1219.04
364.215	1319.3
367.108	1314.63
370.001	1306.85
372.893	1222.86
375.786	1178.3
378.679	1237.33
381.572	1349.33
384.464	1520.25
387.357	1748.55
390.25	2005.54
393.142	2356.67
396.035	2647.14
398.928	2942.46
401.82	3048.83
404.713	2866.78
407.606	2575.53
410.498	2051.63
413.391	1587.38
416.284	1163.02
419.177	840.49
422.069	535.449
424.962	370.095
427.855	214.38
430.747	111.705
433.64	109.799
436.533	203.505
439.425	314.761
442.318	460.562
445.211	748.121
448.104	1047.24
450.996	1428.41
453.889	1883.84
456.782	2299.92
459.674	2751.92
462.567	3084.01
465.46	3214.7
468.353	3009.81
471.245	2461.52
474.138	1946.4
477.031	1454.21
479.923	1039.23
482.816	691.887
485.709	477.293
488.601	298.225
491.494	143.674
494.387	42.8767
497.279	10.6378
500.172	35.5162
503.065	23.7915
505.958	73.8788
508.85	31.0456
511.743	14.1564
514.636	56.9927
517.528	97.1464
520.421	186.506
523.314	329.298
526.207	490.304
529.099	695.065
531.992	1067.74
534.885	1380.94
537.777	1833.01
540.67	2226.03
543.563	2497.59
546.455	2629.55
549.348	2423.25
552.241	1962.98
555.134	1455.58
558.026	975.303
560.919	616.725
563.812	364.331
566.704	193.56
569.597	87.05
572.49	42.0724
575.382	0.771973
578.275	15.6406
581.168	17.9829
584.061	69.1083
586.953	128.513
589.846	229.128
592.739	323.451
595.631	457.818
598.524	522.984
601.417	485.914
604.309	412.163
607.202	322.366
610.095	269.83
612.987	257.447
615.88	232.871
618.773	188.467
621.666	176.528
624.558	150.097
627.451	125.57
630.344	102.248
633.236	81.3809
636.129	38.0358
639.022	47.2046
641.915	60.9313
644.807	38.5328
647.7	41.3658
650.593	26.425
653.485	50.4484
656.378	15.8644
659.271	19.7255
662.163	7.9342
665.056	16.7344
667.949	16.0934
670.842	5.90405
673.734	8.41907
676.627	7.39661
679.52	7.35437
682.412	6.28796
685.305	10.6516
688.198	19.7366
691.091	28.8714
693.983	55.6561
696.876	31.0731
699.769	35.7554
702.661	28.8601
705.554	77.091
708.447	0.190735
711.339	31.965
714.232	34.1534
717.125	47.2136
720.018	38.1522
722.91	60.0491
725.803	39.8758
728.696	45.0452
731.588	37.7135
734.481	34.9099
737.374	9.35718
740.266	27.3513
743.159	6.51508
746.052	12.7095
748.944	26.3297
751.837	26.5592
754.73	31.0064
757.623	35.2901
760.515	30.8224
763.408	18.4732
766.301	31.5128
769.193	36.3928
772.086	25.3669
774.979	22.1822
777.871	16.6732
780.764	11.1852
783.657	39.2457
786.55	3.37836
789.442	21.007
792.335	29.8966
795.228	26.3578
798.12	12.1183
801.013	1.65729
803.906	4.02936
806.798	13.2654
809.691	11.8472
812.584	1.11517
815.477	7.77032
818.369	5.90582
821.262	26.1731
824.155	21.5372
827.047	1.84674
829.94	2.19757
832.833	5.1759
835.726	4.34534
838.618	8.01361
841.511	25.9466
844.404	15.8942
847.296	23.4599
850.189	38.4192
853.082	7.2085
855.975	16.6892
858.867	30.4581
861.76	40.6154
864.653	16.9792
867.545	45.2234
870.438	47.5
873.331	43.3575
876.223	30.5299
879.116	60.3558
882.009	39.1793
884.902	66.2412
887.794	55.0807
890.687	56.6157
893.58	47.9923
896.472	58.74
899.365	77.0865
902.258	55.5316
905.15	95.9674
908.043	117.149
910.936	102.944
913.828	103.728
916.721	116.626
919.614	124.899
922.507	130.286
925.399	110.64
928.292	88.6849
931.185	82.2463
934.077	87.6987
936.97	59.0257
939.863	46.218
942.755	42.4285
945.648	31.1309
948.541	30.4845
951.434	10.6461
954.326	12.4207
957.219	20.0333
960.112	7.2605
963.004	27.571
965.897	2.53833
968.79	2.7572
971.683	2.7063
974.575	33.1604
977.468	60.1193
980.361	123.251
983.253	197.009
986.146	250.679
989.039	360.022
991.931	390.993
994.824	559.81
997.717	771.99
1000.61	1046.92
1003.5	1535.82
1006.39	2147.81
1009.29	2788.16
1012.18	3272.11
1015.07	3398.35
1017.97	3452.42
1020.86	3676.15
1023.75	3893.46
1026.64	3466.05
1029.54	2629.04
1032.43	1727.54
1035.32	1205.61
1038.21	1010.79
1041.11	987.319
1044	821.804
1046.89	640.345
1049.79	373.345
1052.68	181.292
1055.57	76.5867
1058.46	9.67432
1061.36	14.0881
1064.25	16.5642
1067.14	52.332
1070.03	130.14
1072.93	249.753
1075.82	394.471
1078.71	604.495
1081.61	805.857
1084.5	1123.14
1087.39	1530.38
1090.28	2006.53
1093.18	2550.73
1096.07	3027.42
1098.96	3442.95
1101.85	3720.37
1104.75	3862.31
1107.64	3847.06
1110.53	3562.28
1113.42	3194.1
1116.32	2568.83
1119.21	1977.94
1122.1	1448.3
1125	1050.28
1127.89	675.763
1130.78	392.01
1133.67	188.057
1136.57	68.6145
1139.46	3.48755
1142.35	13.7729
1145.24	36.2734
1148.14	32.303
1151.03	7.33325
1153.92	29.6853
1156.82	91.8855
1159.71	113.856
1162.6	158.115
1165.49	178.823
1168.39	171.835
1171.28	189.285
1174.17	219.276
1177.06	222.325
1179.96	225.196
1182.85	241.143
1185.74	296.091
1188.63	322.271
1191.53	416.106
1194.42	471.762
1197.31	494.611
1200.21	582.046
1203.1	589.447
1205.99	625.648
1208.88	581.107
1211.78	541.801
1214.67	476.469
1217.56	396.549
1220.45	332.544
1223.35	238.883
1226.24	120.22
1229.13	78.7676
1232.03	24.8373
1234.92	5.01843
1237.81	13.6731
1240.7	31.7714
