Measurement: Raman, 532 nm, unoriented, Raman Data Processed
Mineral: Pararealgar
Rruff sample: R150123
Ideal chemistry: AsS
Locality: U.S. Borax mine, Kramer Borate deposit, Boron, California, USA
Source: Michael Scott S106210
Description: Yellowish-orange granular, within a rind of realgar
Raman shift (cm-1)	intensity
113.407	0
116.782	11.2228
120.157	7.27637
123.531	2.18487
126.906	5.93604
130.281	16.3433
133.656	32.8209
137.031	19.9671
140.405	23.5518
143.78	24.7579
147.155	7.17902
150.53	10.0092
153.905	9.52862
157.28	8.86279
160.654	5.61102
164.029	28.4482
167.404	66.6664
170.779	113.434
174.154	141.716
177.528	182.76
180.903	260.978
184.278	330.945
187.653	303.294
191.028	230.478
194.403	186.988
197.777	202.864
201.152	198.626
204.527	168.086
207.902	189.341
211.277	256.363
214.651	351.842
218.026	479.165
221.401	574.028
224.776	623.164
228.151	701.014
231.525	732.434
234.9	677.724
238.275	466.558
241.65	283.346
245.025	162.185
248.4	79.6002
251.774	22.6852
255.149	12.4581
258.524	17.6126
261.899	30.3748
265.274	85.0172
268.649	232.58
272.023	356.631
275.398	150.3
278.773	13.1116
282.148	24.7665
285.523	12.8657
288.897	4.99585
292.272	37.9443
295.647	68.1176
299.022	115.128
302.397	165.143
305.772	219.991
309.146	278.945
312.521	315.685
315.896	374.336
319.271	433.566
322.646	517.826
326.02	600.558
329.395	676.375
332.77	735.079
336.145	786.045
339.52	829.135
342.894	855.557
346.269	830.623
349.644	771.07
353.019	711.456
356.394	676.205
359.769	653.699
363.143	595.448
366.518	491.261
369.893	416.452
373.268	360.714
376.643	309.29
380.017	260.088
383.392	204.35
386.767	157.916
390.142	99.4816
393.517	61.613
396.892	31.5795
400.266	16.2472
403.641	8.50562
407.016	0.413452
410.391	2.13239
413.766	5.83447
417.14	6.53522
420.515	1.28613
423.89	2.44842
427.265	4.10535
430.64	0.864136
434.014	0.904541
437.389	3.54541
440.764	0.307251
444.139	4.36462
447.514	9.87164
450.889	3.49335
454.263	13.6239
457.638	17.5371
461.013	23.2098
464.388	22.8792
467.763	25.1205
471.137	19.5145
474.512	17.5461
477.887	16.8032
481.262	16.7752
484.637	20.0707
488.012	24.4423
491.386	16.2243
494.761	20.2094
498.136	10.0597
501.511	8.6803
504.886	9.95319
508.26	6.16437
511.635	8.22858
515.01	10.2611
518.385	7.25653
521.76	8.17664
525.135	8.00324
528.509	2.06488
531.884	10.2141
535.259	9.20184
538.634	3.97382
542.009	7.92779
545.384	3.17633
548.758	7.02783
552.133	4.81537
555.508	7.66382
558.883	3.99933
562.258	5.94897
565.632	5.53992
569.007	5.83289
572.382	3.89728
575.757	4.68597
579.132	1.87824
582.506	4.77881
585.881	10.8685
589.256	2.6004
592.631	1.75732
596.006	0.620605
599.381	4.49402
602.755	9.80737
606.13	0.025085
609.505	3.21533
612.88	3.59863
616.255	2.69934
619.63	1.85175
623.004	1.84033
626.379	2.02985
629.754	5.80145
633.129	1.66772
636.504	1.05585
639.878	0.049316
643.253	5.1864
646.628	7.59717
650.003	8.38306
653.378	6.42407
656.752	9.64142
660.127	11.0377
663.502	17.9959
666.877	6.07037
670.252	13.6898
673.626	17.6953
677.001	16.6724
680.376	14.9599
683.751	10.481
687.126	11.8582
690.501	14.0851
693.875	15.9946
697.25	18.0001
700.625	17.486
704	14.6148
707.375	21.2132
710.75	11.1707
714.124	15.855
717.499	11.6683
720.874	16.2269
724.249	20.9985
727.624	16.8333
730.998	14.6544
734.373	14.0949
737.748	14.9788
741.123	17.7845
744.498	17.4046
747.872	19.0962
751.247	9.88007
754.622	13.3978
757.997	9.33075
761.372	8.32684
764.747	10.5758
768.121	5.10901
771.496	6.07483
774.871	4.44006
778.246	2.88452
781.621	7.73639
784.995	1.19983
788.37	0.73645
791.745	1.49335
795.12	2.97119
798.495	1.6955
801.87	3.18945
805.244	0.034485
808.619	7.88049
811.994	3.73627
815.369	2.80847
818.744	3.82062
822.119	7.14764
825.493	2.7428
828.868	1.68127
832.243	1.823
835.618	7.11493
838.993	12.1962
842.367	3.26593
845.742	3.5191
849.117	4.96155
852.492	2.02069
855.867	12.0754
859.241	0.123657
862.616	6.38684
865.991	4.16357
869.366	1.85394
872.741	8.85419
876.115	6.10809
879.49	5.48792
882.865	9.91919
886.24	3.89081
889.615	8.28595
892.99	2.26532
896.364	13.5431
899.739	7.14319
903.114	3.62732
906.489	5.68152
909.864	3.93127
913.239	3.27264
916.613	9.24969
919.988	6.01746
923.363	7.62555
926.738	4.45941
930.113	2.7475
933.487	6.12262
936.862	1.95959
940.237	0.994751
943.612	3.74683
946.987	13.0109
950.361	7.3056
953.736	3.41126
957.111	6.79407
960.486	4.0719
963.861	5.83588
967.236	7.86334
970.61	6.05359
973.985	7.59198
977.36	10.8221
980.735	7.42407
984.11	5.35944
987.485	6.87494
990.859	7.66174
994.234	9.54456
997.609	7.14551
1000.98	1.00128
1004.36	8.75787
1007.73	7.98535
1011.11	8.32593
1014.48	4.26721
1017.86	8.14624
1021.23	11.1096
1024.61	1.75263
1027.98	13.2093
1031.36	11.2014
1034.73	3.42603
1038.11	6.62604
1041.48	4.60712
1044.86	10.8423
1048.23	5.14465
1051.61	4.25263
1054.98	7.57953
1058.36	4.25421
1061.73	6.18213
1065.11	1.65546
1068.48	5.31921
1071.86	9.25604
1075.23	5.10693
1078.6	2.73206
1081.98	3.55408
1085.35	4.17926
1088.73	9.12933
1092.1	2.45752
1095.48	11.9299
1098.85	11.0737
1102.23	0.245911
1105.6	1.11914
1108.98	2.86902
1112.35	3.8006
1115.73	10.2497
1119.1	7.77124
1122.48	12.8383
1125.85	1.30939
1129.23	3.2735
1132.6	0.083679
1135.98	2.09717
1139.35	3.26526
1142.73	4.87384
1146.1	7.40204
1149.48	0.529236
1152.85	0.563171
1156.22	9.5484
1159.6	11.2871
1162.97	3.50793
1166.35	1.38977
1169.72	6.72369
1173.1	5.63849
1176.47	10.5491
1179.85	4.62237
1183.22	9.41644
1186.6	10.384
1189.97	0.388062
1193.35	8.10803
1196.72	8.25061
1200.1	15.127
1203.47	4.78296
1206.85	5.59802
1210.22	5.72253
1213.6	2.19482
1216.97	4.46155
1220.35	0.240967
1223.72	3.48022
1227.1	4.90027
1230.47	0.086548
1233.85	1.60742
1237.22	6.2041
1240.6	7.02026
1243.97	3.92004
1247.35	8.13733
1250.72	4.32129
1254.1	6.15454
1257.47	5.32544
1260.85	10.8342
1264.22	6.20386
1267.59	0.583496
1270.97	2.48267
1274.34	10.3575
1277.72	3.65588
1281.09	2.06628
1284.47	2.29309
1287.84	2.50952
1291.22	0.145386
1294.59	4.68213
1297.97	6.50854
1301.34	1.02185
