Measurement: Raman, 780 nm, unoriented, Raman Data Processed
Mineral: Paralaurionite
Rruff sample: R100178
Ideal chemistry: PbCl(OH)
Locality: Sierra Gorda, Antofagasta Province, Chile
Source: Bob Jenkins
Description: Clear to pale violet melted looking blobs or elongated tabular crystals, associated with clear to white hexagonal prismatic penfieldite, blue tabular pseudoboleite, and colorless tabular gypsum.
Raman shift (cm-1)	intensity
163.405	0
166.298	0.931946
169.19	0.67099
172.083	1.83553
174.976	2.90733
177.869	2.83705
180.761	2.52368
183.654	1.9804
186.547	3.78805
189.439	1.06605
192.332	1.09603
195.225	0.387939
198.117	0.714371
201.01	0.351563
203.903	0.575073
206.796	0.038406
209.688	0.791687
212.581	0.815075
215.474	0.037853
218.366	1.62412
221.259	0.859989
224.152	1.12245
227.044	2.13257
229.937	0.367554
232.83	2.31307
235.722	3.49913
238.615	4.82715
241.508	4.8484
244.401	8.09523
247.293	10.4272
250.186	13.7646
253.079	20.6856
255.971	25.5485
258.864	33.2749
261.757	44.596
264.649	52.2702
267.542	60.548
270.435	63.7033
273.328	60.4764
276.22	50.6626
279.113	38.8411
282.006	26.4942
284.898	16.401
287.791	9.76398
290.684	4.39575
293.576	4.22436
296.469	3.41096
299.362	3.24394
302.255	4.33742
305.147	6.66947
308.04	9.33328
310.933	14.6145
313.825	20.5119
316.718	24.8712
319.611	31.9991
322.503	42.7054
325.396	53.5362
328.289	59.8764
331.182	55.1746
334.074	40.9113
336.967	26.6153
339.86	18.2785
342.752	11.7354
345.645	8.78453
348.538	5.4699
351.43	4.09209
354.323	5.14667
357.216	3.42073
360.108	2.88372
363.001	2.7987
365.894	1.43731
368.787	0.998955
371.679	3.23793
374.572	0.587456
377.465	0.889019
380.357	0.427666
383.25	1.46539
386.143	1.65497
389.036	0.880077
391.928	0.566139
394.821	0.540443
397.714	0.952909
400.606	1.09198
403.499	0.452099
406.392	0.447399
409.284	0.822123
412.177	2.13343
415.07	0.80781
417.962	1.0392
420.855	1.42852
423.748	0.757061
426.641	2.09585
429.533	2.42733
432.426	2.10031
435.319	1.85581
438.211	2.76059
441.104	2.7933
443.997	2.73991
446.889	2.3893
449.782	1.83163
452.675	2.34174
455.567	1.8374
458.46	1.79868
461.353	0.92458
464.246	1.71623
467.138	2.03996
470.031	1.99765
472.924	1.78798
475.816	0.898911
478.709	2.4617
481.602	0.596815
484.495	1.19131
487.387	1.61945
490.28	1.79136
493.173	1.52213
496.065	1.04066
498.958	1.19402
501.851	1.53561
504.743	0.344723
507.636	1.4941
510.529	1.63464
513.422	2.07377
516.314	0.78915
519.207	0.74881
522.1	0.632761
524.992	1.51899
527.885	1.64757
530.778	1.7244
533.67	1.00184
536.563	1.82163
539.456	0.871073
542.348	1.36291
545.241	0.636469
548.134	0.354313
551.027	0.78203
553.919	1.29891
556.812	2.29697
559.705	2.43387
562.597	1.79027
565.49	3.07926
568.383	3.34748
571.275	2.64479
574.168	4.09489
577.061	5.73652
579.954	3.71578
582.846	5.54242
585.739	5.2741
588.632	6.13356
591.524	5.74159
594.417	5.1603
597.31	6.35653
600.202	4.73027
603.095	4.09668
605.988	3.94669
608.881	5.56985
611.773	2.48596
614.666	1.80429
617.559	2.48433
620.451	2.49765
623.344	0.749496
626.237	1.76015
629.129	1.6561
632.022	0.242144
634.915	1.214
637.808	1.33684
640.7	0.848213
643.593	0.440022
646.486	1.07096
649.378	1.7079
652.271	0.515701
655.164	0.16601
658.056	0.485029
660.949	0.354225
663.842	0.688122
666.735	1.39011
669.627	0.163208
672.52	1.08542
675.413	1.58999
678.305	1.93585
681.198	0.677759
684.091	0.321653
686.983	2.52228
689.876	1.29091
692.769	0.387089
695.662	2.70064
698.554	1.53139
701.447	2.34271
704.34	2.17109
707.232	1.84871
710.125	2.7317
713.018	1.88138
715.91	2.04864
718.803	4.764
721.696	3.65751
724.588	4.22004
727.481	3.30407
730.374	1.04606
733.266	4.64832
736.159	3.64131
739.052	3.5879
741.945	2.3355
744.837	3.04576
747.73	1.68649
750.623	2.58953
753.515	1.97373
756.408	1.90732
759.301	1.11307
762.193	1.78753
765.086	1.10746
767.979	0.313004
770.872	0.033382
773.764	0.647318
776.657	0.646763
779.55	0.26837
782.442	0.969851
785.335	0.648325
788.228	0.301197
791.12	0.484093
794.013	0.668877
796.906	1.40556
799.799	0.844805
802.691	0.921246
805.584	2.52039
808.477	1.98616
811.369	1.18338
814.262	1.91276
817.155	1.18985
820.048	0.612232
822.94	0.019569
825.833	1.20796
828.726	0.987202
831.618	1.40343
834.511	2.96484
837.404	0.021259
840.296	1.25736
843.189	2.01973
846.082	2.02741
848.975	2.35523
851.867	2.11558
854.76	2.15063
857.653	1.9989
860.545	2.68401
863.438	1.31252
866.331	0.907469
869.223	2.18925
872.116	1.58212
875.009	2.21677
877.901	1.24332
880.794	1.05542
883.687	0.865046
886.58	1.42067
889.472	2.74854
892.365	0.557858
895.258	0.900951
898.15	0.599596
901.043	0.098314
903.936	1.36867
906.828	0.316998
909.721	1.19759
912.614	0.336569
915.506	0.456282
918.399	1.26764
921.292	0.921816
924.185	1.6845
927.077	0.661684
929.97	0.855295
932.863	1.31412
935.755	0.549633
938.648	5.7896
941.541	1.20621
944.433	1.57188
947.326	0.637079
950.219	0.950859
953.112	2.23614
956.004	1.86208
958.897	0.910606
961.79	1.83105
964.682	0.58486
967.575	1.73638
970.468	0.817308
973.361	4.26075
976.253	0.831112
979.146	1.90291
982.039	0.343069
984.931	1.65347
987.824	1.24242
990.717	0.986403
993.609	0.67557
996.502	3.07544
999.395	1.92539
1002.29	1.35905
1005.18	2.17798
1008.07	1.31137
1010.97	1.97937
1013.86	2.00577
1016.75	1.74139
1019.64	0.714342
1022.54	0.645887
1025.43	1.72522
1028.32	1.62059
1031.21	0.453873
1034.11	1.79749
1037	1.49645
1039.89	0.200439
1042.79	2.53185
1045.68	1.59872
1048.57	2.503
1051.46	0.818703
1054.36	1.38594
1057.25	0.284601
1060.14	0.909521
1063.03	1.50572
1065.93	1.70641
1068.82	0.763348
1071.71	2.26629
1074.61	1.35039
1077.5	1.73615
1080.39	0.439747
1083.28	0.482883
1086.18	0.496515
1089.07	0.056635
1091.96	1.73466
1094.85	1.23436
1097.75	3.56098
1100.64	1.46116
1103.53	0.697058
1106.42	0.960903
1109.32	1.12111
1112.21	1.90314
1115.1	1.34223
1117.99	1.22092
1120.89	0.926441
1123.78	0.423126
1126.67	0.571922
1129.57	1.5389
1132.46	0.484446
1135.35	1.73006
1138.24	2.07567
1141.14	3.13305
1144.03	0.164183
1146.92	1.53632
1149.82	0.51296
1152.71	1.29593
1155.6	0.309608
1158.49	1.18715
1161.39	2.35532
1164.28	2.16462
1167.17	2.57805
1170.06	0.241949
1172.96	1.93935
1175.85	1.55145
1178.74	2.40427
1181.63	2.13697
1184.53	1.31745
1187.42	2.47304
1190.31	2.40266
1193.21	0.69487
1196.1	0.689304
1198.99	1.90388
1201.88	2.53247
1204.78	1.23029
1207.67	2.69441
1210.56	2.87357
1213.45	1.57301
1216.35	0.681152
1219.24	1.57214
1222.13	2.56976
1225.03	2.13269
1227.92	1.61216
1230.81	1.83046
1233.7	0.630339
1236.6	2.56787
1239.49	0.658304
1242.38	2.43342
1245.27	2.80931
1248.17	0.716295
1251.06	1.17239
1253.95	1.87887
1256.85	0.89362
1259.74	0.639162
1262.63	2.72079
1265.52	2.20549
1268.42	1.64272
1271.31	0.043434
1274.2	2.22277
1277.09	0.545685
1279.99	0.426222
1282.88	0.378315
