Measurement: Raman, 532 nm, unoriented, Raman Data Processed
Mineral: Paralaurionite
Rruff sample: R050271
Ideal chemistry: PbCl(OH)
Locality: Tiger, Pinal County, Arizona, USA
Source: Marcus Origlieri
Description: Greenish-yellow prismatic crystal
Measured chemistry: (Pb_0.96_[box]_0.04_)Cl(OH)
Raman shift (cm-1)	intensity
175.947	0
178.84	11.03
181.733	30.9878
184.626	36.2049
187.518	42.3281
190.411	59.5816
193.304	59.503
196.196	44.4285
199.089	22.9131
201.982	24.4383
204.875	15.2034
207.767	3.99188
210.66	3.81604
213.553	1.08508
216.445	11.0416
219.338	8.04938
222.231	5.32642
225.123	19.1825
228.016	21.9216
230.909	20.0536
233.802	3.01856
236.694	36.5272
239.587	89.6414
242.48	153.83
245.372	247.066
248.265	393.495
251.158	598.031
254.05	864.367
256.943	1202.18
259.836	1600.95
262.728	2090.68
265.621	2640.13
268.514	3055.42
271.407	3176.84
274.299	2912.43
277.192	2353.64
280.085	1655.45
282.977	1059.62
285.87	658.738
288.763	399.779
291.656	246.097
294.548	173.149
297.441	154.413
300.334	173.312
303.226	252.734
306.119	399.466
309.012	620.497
311.904	954.983
314.797	1376.29
317.69	1881.25
320.582	2479.17
323.475	3243.87
326.368	4071.32
329.261	4482.31
332.153	3915.15
335.046	2815.32
337.939	1869.84
340.831	1257.22
343.724	861.446
346.617	608.589
349.509	452.801
352.402	330.228
355.295	237.479
358.188	179.044
361.08	138.663
363.973	103.516
366.866	81.0731
369.758	59.1596
372.651	49.1518
375.544	35.309
378.436	28.2181
381.329	23.9298
384.222	11.8339
387.115	0.239471
390.007	10.702
392.9	14.6293
395.793	17.041
398.685	16.1054
401.578	15.0398
404.471	8.01514
407.363	0.060822
410.256	5.40483
413.149	8.67783
416.041	16.8242
418.934	25.6125
421.827	27.8107
424.72	40.1118
427.612	44.7649
430.505	48.6826
433.398	54.115
436.29	59.6322
439.183	64.5649
442.076	67.2152
444.969	66.877
447.861	64.05
450.754	66.7245
453.647	63.5043
456.539	58.2558
459.432	49.9591
462.325	42.0113
465.217	37.4678
468.11	38.2086
471.003	31.5947
473.896	30.7602
476.788	29.8707
479.681	25.8032
482.574	24.2124
485.466	26.0508
488.359	16.9193
491.252	16.9056
494.144	13.5155
497.037	14.0929
499.93	10.5853
502.822	8.21594
505.715	7.77258
508.608	7.06078
511.501	1.97789
514.393	0.405685
517.286	0.6008
520.179	0.393738
523.071	1.08554
525.964	3.86827
528.857	1.6055
531.75	0.874634
534.642	6.76502
537.535	6.70847
540.428	11.6615
543.32	15.7939
546.213	15.8337
549.106	24.0268
551.998	31.2128
554.891	37.3363
557.784	46.1934
560.677	63.2926
563.569	71.845
566.462	92.9609
569.355	108.49
572.247	127.419
575.14	151.607
578.033	170.809
580.925	193.067
583.818	218.539
586.711	239.029
589.604	249.388
592.496	264.005
595.389	256.945
598.282	250.356
601.174	229.845
604.067	204.035
606.96	183.281
609.852	156.775
612.745	127.803
615.638	103.376
618.53	76.6935
621.423	57.6088
624.316	39.4708
627.209	26.1068
630.101	17.7208
632.994	10.5204
635.887	3.83872
638.779	0.656464
641.672	4.56839
644.565	3.12189
647.457	5.58505
650.35	2.53464
653.243	3.57214
656.136	0.269592
659.028	0.663239
661.921	4.345
664.814	10.4791
667.706	9.49835
670.599	14.3062
673.492	18.0272
676.385	25.5818
679.277	30.1841
682.17	41.6585
685.063	52.551
687.955	62.4215
690.848	77.3876
693.741	88.7589
696.633	104.528
699.526	120.556
702.419	140.506
705.312	153.25
708.204	171.373
711.097	185.823
713.99	209.424
716.882	227.595
719.775	237.92
722.668	260.721
725.56	263.882
728.453	275.338
731.346	274.469
734.239	263.988
737.131	258.899
740.024	246.209
742.917	229.742
745.809	211.606
748.702	193.813
751.595	172.444
754.487	158.842
757.38	139.137
760.273	121.964
763.165	112.69
766.058	96.0085
768.951	84.3117
771.844	73.8563
774.736	63.4449
777.629	52.1789
780.522	41.8127
783.414	36.5627
786.307	26.3982
789.2	23.1404
792.092	12.6777
794.985	11.336
797.878	8.17609
800.77	3.55066
803.663	0.21077
806.556	0.811905
809.449	0.055481
812.341	3.66304
815.234	1.81222
818.127	2.78932
821.019	2.31
823.912	2.42924
826.805	2.40313
829.697	0.563225
832.59	1.4285
835.483	1.60256
838.376	4.35875
841.268	2.19954
844.161	6.72104
847.054	3.66624
849.946	9.05904
852.839	9.41839
855.732	8.08421
858.625	7.67231
861.517	12.2216
864.41	15.1688
867.303	13.5371
870.195	14.9428
873.088	14.4512
875.981	13.6885
878.873	12.2685
881.766	11.1395
884.659	11.4314
887.552	10.6503
890.444	10.4479
893.337	8.67551
896.23	7.59786
899.122	10.1945
902.015	7.65259
904.908	9.1845
907.8	8.0111
910.693	7.30766
913.586	7.52384
916.479	5.61212
919.371	4.91651
922.264	6.68471
925.157	5.50996
928.049	5.32177
930.942	5.33362
933.835	2.43673
936.727	3.66824
939.62	3.7256
942.513	2.75057
945.405	1.49596
948.298	0.098686
951.191	1.92897
954.084	1.40306
956.976	1.98763
959.869	1.88676
962.762	3.77057
965.654	0.360535
968.547	0.893105
971.44	2.06105
974.332	0.852112
977.225	0.661018
980.118	0.826408
983.011	3.05875
985.903	0.015068
988.796	1.24779
991.689	0.220612
994.581	0.288864
997.474	0.288452
1000.37	1.25659
1003.26	2.68692
1006.15	1.46388
1009.04	0.167099
1011.94	0.478943
1014.83	0.359283
1017.72	3.37501
1020.62	2.36496
1023.51	0.589989
1026.4	0.044357
1029.29	3.39943
1032.19	1.65772
1035.08	3.47716
1037.97	0.781158
1040.87	3.27065
1043.76	0.359543
1046.65	0.499168
1049.54	0.951767
1052.43	2.29198
1055.33	2.97298
1058.22	1.1475
1061.11	1.00285
1064.01	1.20461
1066.9	0.160843
1069.79	1.3893
1072.68	1.72504
1075.58	0.617775
1078.47	2.2724
1081.36	1.33642
1084.26	1.15833
1087.15	1.57793
1090.04	1.52426
1092.93	3.25961
1095.83	1.1056
1098.72	2.46179
1101.61	3.58141
1104.5	1.99588
1107.4	1.25742
1110.29	1.65384
1113.18	3.14427
1116.08	2.17964
1118.97	2.1509
1121.86	2.36665
1124.75	1.18022
1127.65	0.828423
1130.54	3.40585
1133.43	5.04771
1136.32	2.39294
1139.22	2.39014
1142.11	3.5213
1145	0.185074
1147.89	2.84336
1150.79	2.12865
1153.68	3.38681
1156.57	4.35376
1159.46	2.64233
1162.36	3.31811
1165.25	2.21194
1168.14	2.97303
1171.04	2.57601
1173.93	2.99872
1176.82	0.586914
1179.71	1.11131
1182.61	4.47591
1185.5	0.801315
1188.39	1.76302
1191.29	2.51202
1194.18	2.09129
1197.07	1.04114
1199.96	3.3646
1202.86	2.12114
1205.75	2.70207
1208.64	2.60318
1211.53	1.25655
1214.43	2.36878
1217.32	1.37831
1220.21	1.99685
1223.11	4.92497
1226	0.906693
1228.89	2.16991
1231.78	0.260437
1234.67	1.98768
1237.57	2.18684
1240.46	0.394974
1243.35	1.98267
1246.25	3.58633
1249.14	1.58834
1252.03	1.78212
1254.92	3.5417
1257.82	0.362122
1260.71	3.11791
1263.6	4.22486
1266.49	0.220863
1269.39	1.58078
1272.28	1.39181
1275.17	3.32964
1278.07	0.455025
