Measurement: Raman, 780 nm, unoriented, Raman Data Processed
Mineral: Parafransoletite
Rruff sample: R130056
Ideal chemistry: Ca_3_Be_2_(PO_4_)_2_(PO_3_OH)_2_4H_2_O
Locality: Tip Top mine, Custer, South Dakota, USA
Source: Thomas A. Loomis
Description: White bladed crystals
Raman shift (cm-1)	intensity
102.288	0
105.663	67.3347
109.038	179.092
112.413	156.111
115.787	283.478
119.162	193.005
122.537	104.971
125.912	1.79761
129.287	9.35718
132.662	4.21143
136.036	36.4775
139.411	141.593
142.786	238.788
146.161	154.932
149.536	121.752
152.911	158.92
156.285	144.512
159.66	79.3889
163.035	196.917
166.41	293.297
169.785	200.637
173.159	234.745
176.534	362.629
179.909	583.633
183.284	811.308
186.659	861.809
190.033	829.863
193.408	949.911
196.783	969.553
200.158	769.706
203.533	389.815
206.907	167.137
210.282	116.462
213.657	122.882
217.032	229.019
220.407	170.846
223.782	156.254
227.156	162.301
230.531	148.313
233.906	216.736
237.281	208.993
240.656	159.476
244.03	163.907
247.405	165.343
250.78	181.443
254.155	170.492
257.53	157.459
260.904	147.659
264.279	105.746
267.654	34.8987
271.029	1.83289
274.404	17.4264
277.779	1.06787
281.153	16.0647
284.528	15.6532
287.903	17.517
291.278	25.1527
294.653	53.5076
298.027	46.2446
301.402	99.8464
304.777	49.1793
308.152	105.719
311.527	55.2744
314.902	124.269
318.276	123.272
321.651	133.845
325.026	143.192
328.401	120.317
331.776	118.775
335.151	77.6034
338.525	38.0322
341.9	25.4008
345.275	25.786
348.65	21.082
352.024	1.28516
355.399	12.9755
358.774	4.31213
362.149	6.93543
365.524	26.2959
368.899	25.8712
372.273	22.8113
375.648	18.1599
379.023	24.7445
382.398	39.766
385.773	77.8893
389.147	132.866
392.522	187.259
395.897	280.903
399.272	354.647
402.647	510.228
406.022	663.977
409.396	584.145
412.771	459.189
416.146	303.786
419.521	261.041
422.896	264.076
426.27	276.462
429.645	248.616
433.02	171.136
436.395	194.958
439.77	225.741
443.144	331.401
446.519	443.074
449.894	483.473
453.269	314.95
456.644	141.819
460.019	101.565
463.393	60.2213
466.768	151.693
470.143	143.959
473.518	71.7404
476.893	19.7858
480.267	1.45728
483.642	11.0188
487.017	12.9928
490.392	6.71729
493.767	28.6533
497.142	110.872
500.516	196.485
503.891	228.735
507.266	191.715
510.641	228.62
514.016	306.353
517.39	277.435
520.765	236.246
524.14	171.955
527.515	210.38
530.89	187.961
534.264	221.548
537.639	272.014
541.014	297.486
544.389	264.753
547.764	270.138
551.139	276.323
554.513	375.747
557.888	556.422
561.263	540.973
564.638	405.194
568.013	379.546
571.388	362.787
574.762	311.728
578.137	238.425
581.512	147
584.887	115.199
588.261	73.7797
591.636	102.523
595.011	64.3734
598.386	118.542
601.761	154.796
605.136	184.697
608.51	155.186
611.885	104.408
615.26	47.6298
618.635	41.0835
622.01	26.7268
625.385	5.67236
628.759	15.4426
632.134	4.04431
635.509	4.27344
638.884	19.2064
642.259	1.46277
645.633	2.78748
649.008	22.9138
652.383	3.11365
655.758	37.2424
659.133	72.905
662.507	20.2564
665.882	24.6796
669.257	30.6648
672.632	42.4915
676.007	59.6906
679.381	48.1713
682.756	29.783
686.131	39.4393
689.506	0.219482
692.881	20.9662
696.256	2.79236
699.63	43.1886
703.005	61.521
706.38	38.9937
709.755	20.0066
713.13	10.4799
716.505	11.1964
719.879	28.8536
723.254	31.2398
726.629	0.671875
730.004	33.5625
733.379	36.3207
736.753	66.7478
740.128	60.8693
743.503	60.5619
746.878	54.5265
750.253	62.3473
753.627	35.2906
757.002	33.0823
760.377	20.5337
763.752	34.3501
767.127	51.5207
770.501	51.0906
773.876	56.5742
777.251	40.1054
780.626	74.1483
784.001	46.676
787.376	22.2612
790.75	27.3442
794.125	21.6998
797.5	31.5496
800.875	4.396
804.25	27.2007
807.625	2.6294
810.999	13.7336
814.374	50.7357
817.749	14.9198
821.124	22.4891
824.499	27.6393
827.873	16.2344
831.248	43.8285
834.623	34.3783
837.998	22.8298
841.373	29.3754
844.747	16.5334
848.122	42.0873
851.497	40.766
854.872	47.2122
858.247	45.2825
861.621	20.3414
864.996	37.9065
868.371	15.9492
871.746	39.7433
875.121	21.5488
878.495	21.026
881.87	5.36719
885.245	10.3035
888.62	3.43298
891.995	11.1476
895.37	2.01025
898.744	9.54419
902.119	13.8239
905.494	1.00732
908.869	3.62976
912.244	40.4261
915.619	36.2786
918.993	26.7543
922.368	56.9299
925.743	88.9856
929.118	179.504
932.493	291.811
935.867	450.644
939.242	665.225
942.617	916.673
945.992	1152.97
949.367	1022.84
952.741	657.84
956.116	353.842
959.491	210.724
962.866	101.9
966.241	74.0718
969.615	40.6803
972.99	36.4458
976.365	47.0934
979.74	48.6645
983.115	89.8595
986.49	135.363
989.864	309.099
993.239	547.066
996.614	848.915
999.989	1233.87
1003.36	1399.91
1006.74	1133.48
1010.11	764.837
1013.49	486.464
1016.86	381.363
1020.24	257.357
1023.61	173.601
1026.99	134.672
1030.36	136.394
1033.74	72.923
1037.11	18.236
1040.49	15.137
1043.86	5.26257
1047.24	5.54517
1050.61	37.5128
1053.99	83.7588
1057.36	161.041
1060.74	291.707
1064.11	379.031
1067.48	275.886
1070.86	169.294
1074.23	41.6697
1077.61	27.6915
1080.98	2.67285
1084.36	47.5844
1087.73	24.3159
1091.11	15.1962
1094.48	49.5098
1097.86	64.2419
1101.23	82.6263
1104.61	66.3868
1107.98	107.852
1111.36	81.2916
1114.73	38.6915
1118.11	32.4233
1121.48	5.74402
1124.86	16.4404
1128.23	32.581
1131.61	63.4827
1134.98	96.67
1138.36	108.134
1141.73	82.0742
1145.11	57.8453
1148.48	35.1295
1151.86	3.6347
1155.23	28.2153
1158.61	35.616
1161.98	2.31244
1165.36	42.4361
1168.73	11.4032
1172.1	36.8204
1175.48	35.3019
1178.85	54.4106
1182.23	95.3336
1185.6	70.3843
1188.98	62.0821
1192.35	71.2447
1195.73	54.2667
1199.1	70.2216
1202.48	50.1912
1205.85	34.6696
1209.23	38.0116
1212.6	44.0601
1215.98	18.5058
1219.35	3.8728
1222.73	7.24219
1226.1	28.728
1229.48	30.7945
1232.85	15.6673
1236.23	32.4471
1239.6	15.7515
1242.97	11.0831
1246.35	29.7327
1249.72	22.1847
1253.1	18.8306
1256.47	3.21521
1259.85	67.1854
1263.22	60.9016
1266.6	36.8372
1269.97	19.3737
1273.35	5.66077
1276.72	17.9293
1280.1	1.00385
1283.47	11.4769
