Measurement: Raman, 532 nm, unoriented, Raman Data Processed
Mineral: Paratooite-(La)
Rruff sample: R110066
Ideal chemistry: La_6_Cu(CO_3_)_8_
Locality: Paratoo mine, Yunta, South Australia
Source: Renato & Adriana Pagano
Description: Aggregates of platy pale blue crystals
Measured chemistry: (La_1.93_Nd_0.48_Pr_0.15_Y_0.10_Gd_0.05_Sm_0.04_Na_1.65_Ca_1.53_Sr_0.33_)_Î£=6.26_Cu_0.81_C_7.98_O_23.75_F_0.23_S_0.02_
Raman shift (cm-1)	intensity
157.506	0
160.399	2.83734
163.292	2.18048
166.185	27.401
169.077	88.3887
171.97	205.17
174.863	339.217
177.755	462.97
180.648	484.624
183.541	491.6
186.433	511.114
189.326	518.133
192.219	532.518
195.112	560.893
198.004	573.777
200.897	591.926
203.79	625.495
206.682	671.493
209.575	749.173
212.468	843.692
215.36	947.956
218.253	1038.24
221.146	1118.72
224.038	1187.8
226.931	1231.67
229.824	1267.29
232.717	1274.9
235.609	1283.31
238.502	1258.37
241.395	1234.98
244.287	1199.18
247.18	1157.15
250.073	1114.92
252.965	1046.23
255.858	966.803
258.751	849.68
261.644	714.49
264.536	586.421
267.429	466.338
270.322	371.968
273.214	286.969
276.107	228.718
279	174.389
281.892	133.191
284.785	90.9739
287.678	59.1377
290.571	41.7398
293.463	31.2654
296.356	14.0748
299.249	7.80151
302.141	3.27808
305.034	2.57971
307.927	3.54443
310.82	4.63769
313.712	5.05713
316.605	2.07654
319.498	3.70557
322.39	4.21814
325.283	14.2837
328.176	17.1871
331.068	9.02673
333.961	5.60376
336.854	14.0112
339.747	38.3497
342.639	56.6979
345.532	86.3839
348.425	124.152
351.317	178.171
354.21	226.375
357.103	282.73
359.995	323.372
362.888	357.963
365.781	365.737
368.673	350.017
371.566	317.502
374.459	270.487
377.352	221.507
380.244	179.489
383.137	147.348
386.03	121.184
388.922	97.8903
391.815	71.8585
394.708	61.3479
397.601	54.2105
400.493	42.684
403.386	36.5341
406.279	27.6787
409.171	27.7045
412.064	19.7241
414.957	10.9506
417.849	12.2216
420.742	5.69714
423.635	8.41284
426.527	9.43469
429.42	13.3154
432.313	9.15161
435.206	6.64734
438.098	4.9884
440.991	4.93628
443.884	10.77
446.776	10.8654
449.669	13.6416
452.562	16.2602
455.454	9.81421
458.347	15.2837
461.24	18.6242
464.133	21.1339
467.025	16.0317
469.918	15.2731
472.811	16.6411
475.703	18.5974
478.596	20.3785
481.489	18.4875
484.382	20.8331
487.274	11.6663
490.167	14.7378
493.06	12.3883
495.952	14.0913
498.845	6.70032
501.738	10.6258
504.63	1.75171
507.523	7.22266
510.416	5.68994
513.308	4.48315
516.201	2.3186
519.094	1.89697
521.987	0.23584
524.879	1.08533
527.772	5.81299
530.665	8.91321
533.557	10.5479
536.45	14.9263
539.343	19.4375
542.236	25.4615
545.128	29.1899
548.021	27.5081
550.914	22.9346
553.806	24.9177
556.699	19.1863
559.592	18.5153
562.484	24.4109
565.377	24.3074
568.27	5.17383
571.163	3.71069
574.055	6.69653
576.948	2.05969
579.841	13.1175
582.733	6.43945
585.626	13.1566
588.519	14.0136
591.411	17.0022
594.304	22.4108
597.197	13.1977
600.09	18.3373
602.982	13.7247
605.875	15.3046
608.768	8.13818
611.66	11.1606
614.553	8.547
617.446	9.88232
620.338	7.0846
623.231	0.582031
626.124	1.20874
629.016	0.30481
631.909	1.09839
634.802	1.01245
637.695	1.3573
640.587	1.90222
643.48	4.54089
646.373	0.775757
649.265	1.93848
652.158	4.46814
655.051	9.54968
657.943	9.45605
660.836	15.8403
663.729	27.3795
666.622	25.8624
669.514	28.1638
672.407	24.6438
675.3	20.6931
678.192	17.6623
681.085	18.197
683.978	28.8098
686.87	36.4656
689.763	56.0153
692.656	79.1775
695.549	90.2338
698.441	101.368
701.334	102.767
704.227	87.9437
707.119	79.7925
710.012	87.9898
712.905	107.653
715.798	142.254
718.69	176.061
721.583	198.868
724.476	203.663
727.368	182.966
730.261	149.213
733.154	114.685
736.046	102.157
738.939	92.9228
741.832	84.1107
744.725	81.4249
747.617	77.9281
750.51	78.3334
753.403	80.4039
756.295	81.03
759.188	72.8031
762.081	57.6459
764.973	44.1793
767.866	31.2824
770.759	20.7325
773.652	19.2748
776.544	11.3662
779.437	5.75244
782.33	5.38245
785.222	1.73157
788.115	0.672241
791.008	0.434326
793.9	9.68506
796.793	2.08374
799.686	4.26135
802.578	0.87146
805.471	0.368286
808.364	3.11255
811.257	1.18469
814.149	1.35486
817.042	7.50732
819.935	3.78577
822.827	5.15051
825.72	2.48144
828.613	3.86597
831.505	4.03601
834.398	1.3446
837.291	6.39148
840.184	8.07873
843.076	14.7676
845.969	26.1083
848.862	34.9587
851.754	50.9763
854.647	47.1599
857.54	52.2734
860.433	46.1997
863.325	26.8059
866.218	21.9227
869.111	23.0394
872.003	21.3209
874.896	27.1846
877.789	17.9739
880.681	16.0196
883.574	24.7716
886.467	21.8431
889.36	17.4921
892.252	4.50134
895.145	0.270142
898.038	0.044922
900.93	1.61169
903.823	1.63965
906.716	5.68835
909.608	6.44971
912.501	3.25464
915.394	4.61414
918.287	2.52869
921.179	4.01868
924.072	3.40894
926.965	8.01819
929.857	6.61536
932.75	0.301392
935.643	0.577271
938.535	3.85596
941.428	5.30908
944.321	7.72314
947.213	5.05151
950.106	4.06775
952.999	3.34375
955.892	5.38061
958.784	2.84546
961.677	4.61072
964.57	5.46704
967.462	5.8645
970.355	6.17395
973.248	2.53406
976.14	0.646118
979.033	10.9108
981.926	2.06592
984.819	1.75513
987.711	10.436
990.604	4.84265
993.497	3.21606
996.389	7.40686
999.282	0.255005
1002.17	3.53479
1005.07	1.74353
1007.96	1.97205
1010.85	5.91956
1013.75	1.34839
1016.64	3.52795
1019.53	1.42444
1022.42	7.17798
1025.32	1.05115
1028.21	3.06226
1031.1	1.6261
1033.99	5.34192
1036.89	9.25574
1039.78	7.5011
1042.67	2.9436
1045.57	6.90369
1048.46	11.6515
1051.35	26.1621
1054.24	36.3849
1057.14	52.3384
1060.03	81.4819
1062.92	143.703
1065.81	253.15
1068.71	423.188
1071.6	660.819
1074.49	947.636
1077.38	1207.49
1080.28	1197.46
1083.17	975.867
1086.06	819.756
1088.96	823.846
1091.85	880.342
1094.74	944.169
1097.63	1016.16
1100.53	886.81
1103.42	539.828
1106.31	256.617
1109.2	127.457
1112.1	81.0281
1114.99	49.8461
1117.88	34.7374
1120.78	29.1168
1123.67	20.5011
1126.56	11.5229
1129.45	8.9198
1132.35	6.75293
1135.24	9.05298
1138.13	4.95557
1141.02	6.77844
1143.92	7.16272
1146.81	0.419678
1149.7	2.75574
1152.6	1.37549
1155.49	1.8418
1158.38	2.62183
1161.27	1.14026
1164.17	3.32361
1167.06	0.126587
1169.95	1.10998
1172.84	5.21729
1175.74	2.66321
1178.63	2.77222
1181.52	0.248535
1184.41	3.19531
1187.31	4.974
1190.2	0.067261
1193.09	3.15637
1195.99	0.054932
1198.88	5.03101
1201.77	7.07458
1204.66	7.94983
1207.56	10.5165
1210.45	16.162
1213.34	11.7483
1216.23	7.8866
1219.13	8.94788
1222.02	6.79346
1224.91	9.76172
1227.81	11.2245
1230.7	6.36548
1233.59	7.38159
1236.48	1.98377
1239.38	2.90857
1242.27	10.2422
1245.16	10.6633
1248.05	5.37476
1250.95	4.73315
1253.84	21.1031
1256.73	20.2632
1259.62	12.0476
1262.52	18.2618
1265.41	10.041
1268.3	5.35376
1271.2	10.1874
1274.09	4.15637
1276.98	8.69067
1279.87	8.05823
1282.77	3.49146
1285.66	3.02722
1288.55	8.9176
1291.44	3.21728
1294.34	4.75037
1297.23	5.23877
1300.12	4.29492
1303.02	0
