Measurement: Raman, 785 nm, unoriented, Raman Data Processed
Mineral: Parascholzite
Rruff sample: R060806
Ideal chemistry: CaZn_2_(PO_4_)_2_2H_2_O
Locality: Tip Top mine, Fourmile, Custer District, Custer County, South Dakota, USA
Source: Michael Scott
Description: Radial spray of colorless elongated flattened prismatic crystals
Raman shift (cm-1)	intensity
166.846	0
169.739	202.878
172.632	92.824
175.525	178.675
178.417	224.802
181.31	240.515
184.203	328.221
187.095	352.33
189.988	277.247
192.881	325.304
195.773	104.264
198.666	66.287
201.559	93.691
204.452	326.603
207.344	357.636
210.237	631.325
213.13	1030.13
216.022	1532.67
218.915	2083.53
221.808	2585.3
224.7	2798.78
227.593	3119.44
230.486	3776.8
233.378	4511.85
236.271	4948.69
239.164	5238.08
242.057	5073.38
244.949	4770.45
247.842	4701.21
250.735	4586.99
253.627	4252.35
256.52	3831.28
259.413	3371.69
262.306	3307.01
265.198	3211.4
268.091	3540.96
270.984	3889.2
273.876	4473.69
276.769	4970.83
279.662	5424.44
282.554	5262.26
285.447	4692.96
288.34	4150.43
291.233	3762.28
294.125	3483.65
297.018	3543.65
299.911	3704.58
302.803	3976.58
305.696	4268.22
308.589	4267.14
311.481	4045.58
314.374	3667.06
317.267	3022.54
320.159	2683.15
323.052	2412.1
325.945	2285.43
328.838	2079.35
331.73	2003.24
334.623	1719.49
337.516	1581.98
340.408	1246.67
343.301	1152.34
346.194	965.469
349.086	853.06
351.979	688.788
354.872	434.511
357.765	431.701
360.657	161.978
363.55	82.566
366.443	2.486
369.335	118.834
372.228	230.729
375.121	191.009
378.013	90.557
380.906	65.04
383.799	102.112
386.692	87.203
389.584	109.519
392.477	372.979
395.37	459.492
398.262	653.411
401.155	939.769
404.048	1355.1
406.94	1735.77
409.833	2046.87
412.726	1993.56
415.619	1574.77
418.511	1149.68
421.404	723.229
424.297	455.424
427.19	284.754
430.082	277.446
432.975	253.895
435.868	201.727
438.76	125.086
441.653	147.565
444.546	115.52
447.438	75.209
450.331	40.905
453.224	22.794
456.116	53.231
459.009	71.586
461.902	4.642
464.795	95.456
467.687	75.093
470.58	44.058
473.473	30.043
476.365	52.452
479.258	107.024
482.151	107.852
485.043	16.102
487.936	21.014
490.829	58.361
493.722	32.823
496.614	6.69
499.507	93.969
502.4	0.158
505.292	120.022
508.185	195.162
511.078	152.79
513.971	112.038
516.863	202.779
519.756	231.303
522.649	165.004
525.541	250.226
528.434	308.521
531.327	258.937
534.219	403.77
537.112	598.12
540.005	1033.95
542.898	1612.63
545.79	2570.84
548.683	3677.35
551.576	4385.66
554.468	4180.84
557.361	2830.73
560.254	1647.82
563.146	951.638
566.039	558.886
568.932	425.994
571.825	419.944
574.717	434.591
577.61	608.361
580.503	693.546
583.395	859.789
586.288	910.485
589.181	966.355
592.073	1008.88
594.966	939.681
597.859	1033.85
600.752	965.659
603.644	863.222
606.537	770.074
609.43	684.477
612.322	557.328
615.215	425.406
618.108	321.981
621	196.62
623.893	226.388
626.786	210.624
629.679	154.836
632.571	231.53
635.464	185.516
638.357	257.586
641.249	210.084
644.142	268.792
647.035	196.098
649.927	343.828
652.82	474.671
655.713	557.555
658.606	693.826
661.498	854.954
664.391	859.214
667.284	746.442
670.176	527.941
673.069	367.309
675.962	220.564
678.854	119.554
681.747	120.621
684.64	32.088
687.532	17.341
690.425	30.578
693.318	100.547
696.211	74.974
699.103	49.21
701.996	114.373
704.889	16.141
707.781	22.466
710.674	40.586
713.567	36.446
716.459	5.193
719.352	3.78
722.245	43.115
725.138	16.291
728.03	60.776
730.923	5.774
733.816	54.924
736.708	86.282
739.601	53.683
742.494	10.89
745.386	32.663
748.279	20.969
751.172	46.155
754.065	0.651
756.957	14.142
759.85	45.35
762.743	50.657
765.635	7.955
768.528	68.214
771.421	9.11
774.313	3.796
777.206	30.023
780.099	32.912
782.992	14.302
785.884	25.354
788.777	10.927
791.67	1.598
794.562	4.731
797.455	18.943
800.348	95.769
803.24	89.006
806.133	6.021
809.026	17.217
811.919	2.903
814.811	2.645
817.704	60.904
820.597	4.83
823.489	24.325
826.382	10.406
829.275	33.228
832.167	16.211
835.06	26.434
837.953	15.382
840.846	19.59
843.738	52.182
846.631	39.334
849.524	46.686
852.416	69.49
855.309	1.092
858.202	6.34
861.094	20.092
863.987	70.61
866.88	24.697
869.773	48.627
872.665	120.231
875.558	64.881
878.451	64.709
881.343	80.322
884.236	107.472
887.129	27.15
890.021	140.195
892.914	26.071
895.807	73.717
898.7	69.579
901.592	121.176
904.485	215.759
907.378	350.098
910.27	611.705
913.163	1160.98
916.056	1679.34
918.948	2281.18
921.841	2733.03
924.734	2765.26
927.627	2520.97
930.519	2053.22
933.412	1548.89
936.305	1328.24
939.197	1058.14
942.09	803.51
944.983	601.937
947.875	496.084
950.768	393.42
953.661	438.433
956.554	459.258
959.446	436.071
962.339	497.568
965.232	613.112
968.125	692.342
971.017	877.11
973.91	1123.18
976.803	1455.61
979.695	1894.24
982.588	2794.35
985.481	4097.58
988.373	6165.21
991.266	9495.92
994.159	14143.6
997.052	20677
999.944	26959.4
1002.84	28385.1
1005.73	21507.2
1008.62	12567.7
1011.51	7030.92
1014.41	4097.52
1017.3	2428.48
1020.19	1716.93
1023.09	1222.89
1025.98	895.02
1028.87	675.592
1031.76	423.861
1034.66	283.819
1037.55	317.431
1040.44	291.91
1043.34	240.187
1046.23	144.492
1049.12	150.26
1052.01	158.953
1054.91	282.703
1057.8	396.858
1060.69	379.234
1063.58	546.406
1066.48	743.147
1069.37	938.549
1072.26	1146.56
1075.15	1372.31
1078.05	1687.08
1080.94	1977.45
1083.83	2187.27
1086.72	2462.1
1089.62	2633.42
1092.51	2502.82
1095.4	2413.04
1098.3	2100.89
1101.19	1829.52
1104.08	1751.43
1106.97	1597.9
1109.87	1637.44
1112.76	1701.04
1115.65	1583.33
1118.55	1131.13
1121.44	799.882
1124.33	529.869
1127.22	363.57
1130.12	249.042
1133.01	180.404
1135.9	55.041
1138.79	81.275
1141.69	33.377
1144.58	162.636
1147.47	88.458
1150.37	201.336
1153.26	161.277
1156.15	242.804
1159.04	271.302
1161.93	432.607
1164.83	518.602
1167.72	731.24
1170.61	905.062
1173.51	763.648
1176.4	519.916
1179.29	232.318
1182.18	62.449
1185.08	8.18
1187.97	39.961
1190.86	49.315
1193.76	26.232
1196.65	27.975
1199.54	66.843
1202.43	106.622
1205.33	120.919
1208.22	65.771
1211.11	66.607
1214	51.885
1216.9	63.183
1219.79	47.127
1222.68	40.442
1225.58	21.482
1228.47	36.885
1231.36	7.064
1234.25	33.573
1237.15	45.806
1240.04	10.384
1242.93	29.519
1245.82	11.245
1248.72	36.785
1251.61	45.924
1254.5	22.568
1257.39	64.042
1260.29	51.385
1263.18	35.882
1266.07	89.22
1268.96	0
