Measurement: Raman, 532 nm, unoriented, Raman Data Processed
Mineral: Parahopeite
Rruff sample: R050463
Ideal chemistry: Zn_3_(PO_4_)_2_4H_2_O
Locality: Broken Hill mine, Kabwe, Zambia
Source: University of Arizona Mineral Museum
Description: Colorless elongated subparallel aggregate of crystals
Measured chemistry: Zn_3.00_(P_1.00_O_4_)_2_Â·4H_2_O
Raman shift (cm-1)	intensity
134.398	0
137.291	0.302452
140.184	3.09051
143.076	9.63573
145.969	34.9057
148.862	63.6871
151.755	93.9484
154.647	134.169
157.54	186.775
160.433	272.792
163.325	395.439
166.218	416.545
169.111	277.745
172.003	213.143
174.896	216.239
177.789	237.87
180.681	204.246
183.574	127.571
186.467	87.7145
189.36	47.7584
192.252	20.0418
195.145	6.79697
198.038	0.744957
200.93	4.78994
203.823	5.21895
206.716	7.13221
209.608	6.90687
212.501	3.61785
215.394	1.49807
218.287	6.16061
221.179	16.775
224.072	29.7633
226.965	40.0672
229.857	47.1204
232.75	56.1066
235.643	73.8209
238.536	91.5548
241.428	113.019
244.321	141.161
247.214	169.216
250.106	202.524
252.999	228.71
255.892	240.442
258.784	232.576
261.677	216.825
264.57	207.625
267.462	190.196
270.355	169.852
273.248	161.862
276.141	165.778
279.033	175.028
281.926	164.97
284.819	126.927
287.711	81.5379
290.604	45.6978
293.497	29.0408
296.389	25.6757
299.282	30.0461
302.175	41.8015
305.068	63.322
307.96	92.4378
310.853	126.886
313.746	165.485
316.638	209.508
319.531	254.642
322.424	281.636
325.317	298.519
328.209	294.519
331.102	257.072
333.995	201.497
336.887	148.826
339.78	108.758
342.673	86.1775
345.565	70.0013
348.458	61.1539
351.351	56.8884
354.243	56.8424
357.136	66.0137
360.029	81.3772
362.922	99.0803
365.814	96.2361
368.707	73.3742
371.6	43.0346
374.492	23.6338
377.385	11.2721
380.278	3.58374
383.171	0.480576
386.063	2.32386
388.956	4.32803
391.849	5.12264
394.741	4.37351
397.634	3.99796
400.527	3.33587
403.419	1.08983
406.312	3.6946
409.205	5.14657
412.098	8.58549
414.99	10.7675
417.883	15.6368
420.776	18.0204
423.668	20.1289
426.561	17.943
429.454	13.1195
432.346	7.69813
435.239	4.85632
438.132	5.55115
441.024	6.3025
443.917	5.63514
446.81	6.44069
449.703	6.02577
452.595	7.59431
455.488	7.86534
458.381	6.83148
461.273	8.83947
464.166	9.69319
467.059	11.2671
469.952	11.9886
472.844	12.9625
475.737	14.9184
478.63	18.1929
481.522	23.11
484.415	30.0891
487.308	40.6393
490.2	54.986
493.093	71.3532
495.986	91.1709
498.878	112.732
501.771	125.41
504.664	127.113
507.557	111.138
510.449	82.5956
513.342	54.0613
516.235	33.8311
519.127	19.2231
522.02	11.3742
524.913	4.06428
527.806	2.286
530.698	0.796173
533.591	0.262566
536.484	0.103584
539.376	3.03428
542.269	8.66839
545.162	18.2614
548.054	35.9147
550.947	53.6679
553.84	78.6301
556.732	111.953
559.625	156.498
562.518	192.868
565.411	174.257
568.303	158.306
571.196	145.981
574.089	118.543
576.981	82.3451
579.874	53.0847
582.767	31.8914
585.659	19.0553
588.552	12.1374
591.445	6.79237
594.338	3.44069
597.23	1.38587
600.123	0.134758
603.016	1.21731
605.908	1.61814
608.801	1.48816
611.694	0.452461
614.587	0.360779
617.479	1.49924
620.372	2.8614
623.265	6.0574
626.157	12.5105
629.05	17.4099
631.943	26.6369
634.835	36.7804
637.728	49.0651
640.621	60.7406
643.514	69.266
646.406	69.5708
649.299	61.6402
652.192	46.4361
655.084	32.3218
657.977	23.7994
660.87	14.5965
663.762	10.4914
666.655	6.51572
669.548	3.19171
672.441	2.59425
675.333	3.6962
678.226	3.19673
681.119	4.24466
684.011	3.92256
686.904	3.18654
689.797	4.1676
692.689	5.38802
695.582	4.37243
698.475	3.06413
701.367	4.10265
704.26	3.64959
707.153	2.69953
710.046	1.55633
712.938	1.28947
715.831	0.270065
718.724	0.379524
721.616	0.711456
724.509	0.060593
727.402	0.543671
730.294	0.303192
733.187	0.061081
736.08	1.25077
738.973	2.24695
741.865	3.02793
744.758	4.17854
747.651	5.59673
750.543	6.58042
753.436	9.3842
756.329	11.4602
759.221	11.3766
762.114	12.5224
765.007	12.2978
767.9	13.5363
770.792	13.8671
773.685	13.4474
776.578	12.075
779.47	11.572
782.363	9.92249
785.256	9.42635
788.149	9.25008
791.041	8.32956
793.934	8.26986
796.827	7.79643
799.719	6.89645
802.612	7.74336
805.505	6.51088
808.397	6.70191
811.29	6.67334
814.183	5.62832
817.076	6.16986
819.968	5.44075
822.861	5.94086
825.754	4.09582
828.646	3.19962
831.539	2.1257
834.432	2.68344
837.324	2.35232
840.217	1.29873
843.11	1.48638
846.003	0.287071
848.895	0.334518
851.788	0.13858
854.681	0.422523
857.573	0.25061
860.466	1.44712
863.359	0.669365
866.251	0.550285
869.144	2.12708
872.037	1.09479
874.929	2.82637
877.822	3.66831
880.715	3.96704
883.608	6.09901
886.5	7.35475
889.393	8.33529
892.286	7.72627
895.178	8.05341
898.071	7.55267
900.964	7.81079
903.856	5.85788
906.749	3.01225
909.642	2.6366
912.535	0.777847
915.427	1.01556
918.32	2.5414
921.213	4.66295
924.105	2.50363
926.998	0.710785
929.891	2.48923
932.784	9.44618
935.676	21.7168
938.569	47.4041
941.462	87.9133
944.354	166.172
947.247	265.977
950.14	396.4
953.032	557.25
955.925	696.654
958.818	570.334
961.711	300.944
964.603	133.557
967.496	60.4153
970.389	28.5977
973.281	15.3969
976.174	13.4404
979.067	19.4815
981.959	35.4122
984.852	68.2504
987.745	133.235
990.638	247.623
993.53	403.06
996.423	599.652
999.316	865.833
1002.21	1047.82
1005.1	803.465
1007.99	425.835
1010.89	211.71
1013.78	110.796
1016.67	60.675
1019.57	42.2954
1022.46	39.661
1025.35	51.8316
1028.24	73.1174
1031.13	102.821
1034.03	112.877
1036.92	72.3539
1039.81	41.2599
1042.71	35.0886
1045.6	42.6947
1048.49	58.2985
1051.38	83.5019
1054.28	96.2707
1057.17	66.9073
1060.06	33.1554
1062.95	10.9779
1065.85	2.20229
1068.74	1.72058
1071.63	2.9807
1074.53	3.18485
1077.42	3.03868
1080.31	2.01448
1083.2	0.042671
1086.1	1.1208
1088.99	2.49944
1091.88	3.38587
1094.78	3.74983
1097.67	6.10447
1100.56	8.0453
1103.45	7.90591
1106.35	8.79365
1109.24	10.3808
1112.13	10.9525
1115.02	11.0935
1117.92	13.3389
1120.81	13.8131
1123.7	13.7522
1126.59	15.0478
1129.49	15.6068
1132.38	13.08
1135.27	11.6392
1138.16	11.1359
1141.06	9.38017
1143.95	7.89761
1146.84	8.07252
1149.74	8.15843
1152.63	7.57946
1155.52	7.01668
1158.41	6.69571
1161.31	7.09869
1164.2	5.37009
1167.09	6.50651
1169.98	5.07634
1172.88	4.12839
1175.77	4.07019
1178.66	3.33115
1181.56	3.27952
1184.45	1.37155
1187.34	2.39356
1190.23	2.37608
1193.13	1.41927
1196.02	1.2209
1198.91	1.46619
1201.81	1.67316
1204.7	1.39156
1207.59	0.01506
1210.48	0.304825
1213.38	1.02156
1216.27	1.21445
1219.16	0.171303
1222.05	0.345528
1224.95	0.075676
1227.84	0.278511
1230.73	1.07103
1233.62	0.532326
1236.52	0.678726
1239.41	0.021523
1242.3	0.019867
1245.19	0.264305
1248.09	0.050003
1250.98	1.12446
1253.87	1.84311
1256.77	1.5998
1259.66	2.04095
1262.55	0.416115
1265.44	0.949425
1268.34	0.096657
1271.23	1.61499
1274.12	1.50337
1277.02	1.38806
1279.91	2.32719
1282.8	1.56781
