Measurement: Raman, 532 nm, unoriented, Raman Data Processed
Mineral: Parascholzite
Rruff sample: R060806
Ideal chemistry: CaZn_2_(PO_4_)_2_2H_2_O
Locality: Tip Top mine, Fourmile, Custer District, Custer County, South Dakota, USA
Source: Michael Scott
Description: Radial spray of colorless elongated flattened prismatic crystals
Raman shift (cm-1)	intensity
135.504	0
138.879	91.7578
142.254	49.4319
145.629	57.6311
149.004	150.55
152.378	231.865
155.753	345.261
159.128	393.837
162.503	429.627
165.878	439.584
169.253	292.981
172.627	129.408
176.002	96.6875
179.377	42.6121
182.752	30.397
186.127	40.9202
189.501	6.5647
192.876	3.99805
196.251	5.82788
199.626	10.0393
203.001	36.5198
206.376	10.7812
209.75	26.3281
213.125	69.8691
216.5	117.339
219.875	223.527
223.25	241.582
226.624	220.745
229.999	187.639
233.374	257.61
236.749	317.919
240.124	286.803
243.498	324.728
246.873	301.96
250.248	276.92
253.623	202.247
256.998	182.211
260.372	173.508
263.747	248.479
267.122	270.812
270.497	385.707
273.872	517.728
277.247	612.747
280.621	611.76
283.996	610.934
287.371	452.123
290.746	432.623
294.121	355.01
297.496	287.545
300.87	369.179
304.245	408.901
307.62	403.281
310.995	349.422
314.37	286.131
317.744	262.297
321.119	247.486
324.494	184.259
327.869	195.765
331.244	211.624
334.618	166.333
337.993	140.938
341.368	125.79
344.743	83.8601
348.118	46.1648
351.492	54.3442
354.867	6.52856
358.242	31.6638
361.617	45.3232
364.992	20.4487
368.366	20.8093
371.741	4.16431
375.116	41.658
378.491	83.6458
381.866	102.543
385.241	115.417
388.615	190.56
391.99	249.043
395.365	319.559
398.74	529.615
402.115	763.444
405.49	1045.1
408.864	1233.63
412.239	1214.82
415.614	909.375
418.989	532.95
422.364	342.5
425.738	237.07
429.113	162.936
432.488	128.565
435.863	114.977
439.238	73.8794
442.612	38.2529
445.987	46.7651
449.362	46.3313
452.737	36.8499
456.112	64.303
459.487	34.8193
462.861	54.6157
466.236	38.6763
469.611	54.4141
472.986	68.7239
476.361	41.2634
479.735	36.9741
483.11	13.8728
486.485	28.6084
489.86	31.9524
493.235	15.0479
496.609	32.1963
499.984	42.0356
503.359	83.7092
506.734	29.3982
510.109	92.5837
513.484	116.874
516.858	85.5537
520.233	86.5735
523.608	101.747
526.983	104.859
530.358	98.0574
533.732	190.349
537.107	309.83
540.482	548.822
543.857	984.001
547.232	1625.1
550.606	2187.46
553.981	2220.48
557.356	1339.83
560.731	581.808
564.106	257.412
567.481	97.0659
570.855	54.1519
574.23	31.8306
577.605	24.0381
580.98	3.3125
584.355	25.9307
587.729	186.962
591.104	161.449
594.479	159.929
597.854	198.618
601.229	157.507
604.604	170.538
607.978	104.508
611.353	103.824
614.728	45.604
618.103	12.3662
621.477	53.898
624.852	25.793
628.227	0.304688
631.602	47.2285
634.977	6.62354
638.352	5.90723
641.726	9.66211
645.101	5.59277
648.476	56.7007
651.851	54.0049
655.226	54.5327
658.601	89.2153
661.975	105.315
665.35	95.2524
668.725	121.796
672.1	86.2734
675.474	26.5317
678.849	30.5557
682.224	37.4805
685.599	31.6675
688.974	47.0596
692.349	36.542
695.723	5.71973
699.098	16.4678
702.473	41.5503
705.848	5.46436
709.223	46.0308
712.597	17.4048
715.972	67.6392
719.347	77.6782
722.722	103.614
726.097	108.814
729.472	53.0195
732.846	35.8164
736.221	22.6504
739.596	21.1279
742.971	92.3291
746.346	48.1123
749.721	98.7095
753.095	109.405
756.47	116.733
759.845	69.043
763.22	11.6773
766.594	74.3408
769.969	84.1685
773.344	53.5181
776.719	27.166
780.094	5.59717
783.469	21.499
786.843	66.7842
790.218	59.7124
793.593	61.1274
796.968	124.614
800.343	108.632
803.718	89.8877
807.092	40.228
810.467	73.501
813.842	99.3589
817.217	23.4927
820.592	10.7646
823.966	27.939
827.341	53.1924
830.716	111.697
834.091	81.7798
837.466	11.5034
840.841	72.8135
844.215	52.457
847.59	29.5786
850.965	23.2881
854.34	15.3935
857.714	49.3823
861.089	29.5898
864.464	17.6074
867.839	34.75
871.214	1.30371
874.589	20.7021
877.963	5.21094
881.338	46.6504
884.713	12.2266
888.088	75.2373
891.463	53.5356
894.838	65.7065
898.212	45.3232
901.587	6.32227
904.962	14.874
908.337	122.594
911.711	214.326
915.086	355.019
918.461	570.679
921.836	741.07
925.211	733.272
928.586	635.935
931.96	456.424
935.335	312.714
938.71	190.664
942.085	149.616
945.46	63.6987
948.834	23.3169
952.209	18.0059
955.584	7.55225
958.959	5.96484
962.334	33.0879
965.709	85.6436
969.083	134.182
972.458	146.312
975.833	300.143
979.208	475.481
982.583	764.101
985.957	1279.16
989.332	2148.75
992.707	3453.93
996.082	5199.94
999.457	6950.42
1002.83	7398.52
1006.21	5161.13
1009.58	2730.69
1012.96	1331.79
1016.33	673.447
1019.71	378.258
1023.08	236.727
1026.45	162.603
1029.83	96.8486
1033.2	24.9526
1036.58	1.89648
1039.95	38.498
1043.33	22.1436
1046.7	45.5405
1050.08	10.5352
1053.45	8.68164
1056.83	110.84
1060.2	67.249
1063.58	138.392
1066.95	164.645
1070.33	279.161
1073.7	341.355
1077.08	370.807
1080.45	456.195
1083.83	591.241
1087.2	661.798
1090.58	613.402
1093.95	639.952
1097.33	552.869
1100.7	545.7
1104.08	450.394
1107.45	395.512
1110.83	444.862
1114.2	390.252
1117.58	332.001
1120.95	172.018
1124.33	109.74
1127.7	88.6519
1131.07	99.019
1134.45	93.4702
1137.82	6.0542
1141.2	41.959
1144.57	28.7593
1147.95	9.56787
1151.32	57.0967
1154.7	86.4014
1158.07	77.23
1161.45	123.037
1164.82	165.634
1168.2	173.169
1171.57	185.21
1174.95	143.833
1178.32	112.587
1181.7	88.5435
1185.07	28.1304
1188.45	68.8394
1191.82	42.0166
1195.2	118.446
1198.57	38.959
1201.94	3.66065
1205.32	23.0015
1208.69	12.0576
1212.07	22.9717
1215.44	40.5859
1218.82	33.7007
1222.19	17.2661
1225.57	29.1357
1228.94	57.708
1232.32	30.543
1235.69	81.874
1239.07	70.6846
1242.44	79.9321
1245.82	79.6274
1249.19	134.391
1252.57	50.3164
1255.94	60.855
1259.32	61.813
1262.69	42.5645
1266.07	23.3545
1269.44	71.897
1272.82	188.675
1276.19	149.433
1279.57	58.4199
1282.94	111.263
1286.32	75.7398
1289.69	39.75
