Measurement: Raman, 532 nm, unoriented, Raman Data Processed
Mineral: Paravauxite
Rruff sample: R050577
Ideal chemistry: Fe^2+^Al_2_(PO_4_)_2_(OH)_2_8H_2_O
Locality: Llallagua, Bolivia
Source: University of Arizona Mineral Museum
Description: Colorless bladed crystal
Measured chemistry: (Fe^2+^_0.93_Mg_0.04_Mn_0.03_)Al_2_(PO_4_)_2_((OH)_0.93_F_0.07_)_2_Î‡8H_2_O
Raman shift (cm-1)	intensity
150.416	0
153.308	24.4578
156.201	34.9351
159.094	8.33435
161.987	2.15881
164.879	9.40015
167.772	17.3071
170.665	6.86523
173.557	18.1023
176.45	33.4375
179.343	19.0536
182.235	0.994019
185.128	0.12439
188.021	2.8169
190.913	27.2976
193.806	80.2017
196.699	130.679
199.592	87.9227
202.484	46.3689
205.377	40.8876
208.27	57.0391
211.162	81.5059
214.055	102.72
216.948	122.923
219.84	157.057
222.733	202.789
225.626	289.565
228.519	412.142
231.411	571.208
234.304	663.861
237.197	588.091
240.089	385.349
242.982	223.195
245.875	124
248.768	65.984
251.66	42.4833
254.553	11.5134
257.446	9.60693
260.338	35.1256
263.231	53.7836
266.124	91.4149
269.017	148.015
271.909	223.721
274.802	325.839
277.695	457.72
280.587	578.053
283.48	565.39
286.373	400.37
289.265	286.804
292.158	217.435
295.051	167.214
297.943	125.543
300.836	88.8751
303.729	61.6113
306.622	32.5566
309.514	16.1494
312.407	6.70703
315.3	4.2345
318.192	4.97168
321.085	10.969
323.978	2.93677
326.871	2.59033
329.763	12.4309
332.656	16.8783
335.549	19.3173
338.441	9.4834
341.334	1.15955
344.227	0.347046
347.12	6.33606
350.012	0.672852
352.905	4.37598
355.798	8.66528
358.69	17.7819
361.583	37.1156
364.476	52.4746
367.368	76.6935
370.261	103.057
373.154	130.744
376.047	151.179
378.939	150.732
381.832	146.661
384.725	125.902
387.617	111.099
390.51	111.966
393.403	135.519
396.296	162.997
399.188	224.082
402.081	304.455
404.974	350.534
407.866	325.283
410.759	290.522
413.652	286.154
416.544	329.888
419.437	393.013
422.33	499.151
425.223	650.727
428.115	816.214
431.008	918.654
433.901	831.456
436.793	609.999
439.686	401.047
442.579	265.835
445.471	185.167
448.364	127.183
451.257	97.4751
454.15	78.3174
457.042	65.6431
459.935	58.9775
462.828	50.3286
465.72	55.855
468.613	59.3705
471.506	55.5398
474.399	56.4606
477.291	39.1187
480.184	34.5018
483.077	25.1543
485.969	16.3406
488.862	0.3396
491.755	9.5033
494.647	6.06738
497.54	8.70276
500.433	12.0951
503.325	5.97522
506.218	2.90735
509.111	6.78638
512.004	10.004
514.896	14.1638
517.789	23.0359
520.682	37.3097
523.574	57.6716
526.467	77.655
529.36	90.1642
532.253	104.884
535.145	115.455
538.038	123.471
540.931	124.346
543.823	127.075
546.716	122.885
549.609	111.149
552.501	97.5427
555.394	97.673
558.287	110.95
561.18	149.923
564.072	188.252
566.965	219.947
569.858	255.952
572.75	307.937
575.643	358.116
578.536	413.823
581.428	451.309
584.321	459.141
587.214	462.889
590.107	441.214
592.999	406.602
595.892	380.463
598.785	348.968
601.677	315.949
604.57	280.924
607.463	243.274
610.356	200.86
613.248	169.928
616.141	141.07
619.034	120.124
621.926	99.3323
624.819	82.3883
627.712	79.8425
630.605	81.6202
633.497	83.2024
636.39	73.5461
639.283	86.2449
642.175	80.9831
645.068	76.4688
647.961	63.3274
650.853	56.9542
653.746	29.3595
656.639	22.7545
659.532	12.4089
662.424	0.678101
665.317	0.830688
668.21	3.73169
671.102	3.67065
673.995	1.65735
676.888	10.877
679.78	2.19214
682.673	7.53638
685.566	3.62524
688.459	0.025513
691.351	2.84949
694.244	4.81921
697.137	2.96533
700.029	6.32104
702.922	9.82861
705.815	18.5369
708.707	16.6434
711.6	21.6614
714.493	22.9883
717.386	34.2528
720.278	32.6549
723.171	26.8247
726.064	31.2295
728.956	42.8231
731.849	34.6915
734.742	33.7463
737.635	28.3124
740.527	33.2135
743.42	29.9464
746.313	32.147
749.205	27.4756
752.098	26.7864
754.991	25.7529
757.884	24.8699
760.776	12.8961
763.669	16.6926
766.562	15.2793
769.454	16.884
772.347	12.952
775.24	8.58765
778.132	10.423
781.025	5.72095
783.918	7.3457
786.811	8.3667
789.703	5.99243
792.596	8.74976
795.489	6.32495
798.381	3.88867
801.274	7.3335
804.167	1.69739
807.059	4.3551
809.952	6.73328
812.845	3.01245
815.737	4.93481
818.63	7.54382
821.523	13.8392
824.416	6.64343
827.308	12.3287
830.201	22.5263
833.094	23.6022
835.986	8.89734
838.879	11.0225
841.772	7.18982
844.665	15.519
847.557	8.81873
850.45	3.75281
853.343	7.49451
856.235	7.22229
859.128	5.81677
862.021	2.87036
864.913	3.35046
867.806	4.02039
870.699	7.28516
873.592	2.40796
876.484	0.4198
879.377	4.3855
882.27	1.50147
885.162	2.3656
888.055	2.66882
890.948	0.198364
893.841	0.300415
896.733	2.11804
899.626	2.89502
902.519	1.2876
905.411	3.64111
908.304	6.80664
911.197	9.57642
914.09	9.90771
916.982	8.68372
919.875	14.0354
922.768	14.5018
925.66	22.3623
928.553	21.5689
931.446	33.7323
934.338	35.2238
937.231	38.1177
940.124	38.7986
943.016	41.2089
945.909	40.0734
948.802	53.0303
951.695	63.6827
954.587	76.9869
957.48	100.831
960.373	119.602
963.265	148.523
966.158	182.612
969.051	245.493
971.943	334.268
974.836	470.596
977.729	685.199
980.622	1004.12
983.514	1427.28
986.407	1978.91
989.3	2430.23
992.192	2361.41
995.085	1829.28
997.978	1292.1
1000.87	889.404
1003.76	562.808
1006.66	351.389
1009.55	215.981
1012.44	142.104
1015.33	95.3494
1018.23	67.6295
1021.12	34.4087
1024.01	15.2367
1026.9	10.3501
1029.8	1.14893
1032.69	1.5
1035.58	1.00427
1038.48	1.69385
1041.37	0.628418
1044.26	15.2781
1047.15	28.5701
1050.05	53.2235
1052.94	84.1252
1055.83	102.075
1058.72	95.4371
1061.62	65.0405
1064.51	52.212
1067.4	12.2003
1070.3	5.07422
1073.19	2.59876
1076.08	1.18054
1078.97	4.90137
1081.87	2.46582
1084.76	0.963867
1087.65	3.19226
1090.54	0.234619
1093.44	12.439
1096.33	26.1046
1099.22	27.6635
1102.12	27.9912
1105.01	23.7533
1107.9	21.7567
1110.79	14.3143
1113.69	15.0822
1116.58	17.0653
1119.47	7.90295
1122.36	11.7364
1125.26	11.4928
1128.15	9.65979
1131.04	11.1659
1133.93	13.0461
1136.83	26.7626
1139.72	20.0322
1142.61	28.0645
1145.51	45.8157
1148.4	47.1991
1151.29	62.7241
1154.18	68.9768
1157.08	85.6992
1159.97	110.507
1162.86	124.808
1165.76	132.097
1168.65	121.007
1171.54	101.747
1174.43	74.4679
1177.33	57.6697
1180.22	42.6464
1183.11	25.0393
1186	26.2898
1188.9	12.6243
1191.79	7.52625
1194.68	7.16589
1197.57	1.33728
1200.47	10.9613
1203.36	4.37378
1206.25	6.24878
1209.14	2.68542
1212.04	0.375977
1214.93	2.04333
1217.82	2.78223
1220.72	0.331543
1223.61	5.15356
1226.5	2.66003
1229.39	3.75708
1232.29	9.19873
1235.18	2.18823
1238.07	3.80237
1240.96	5.94861
1243.86	9.98181
1246.75	2.07227
1249.64	12.0382
1252.54	13.6791
1255.43	11.4304
1258.32	13.7515
1261.21	0.492798
1264.11	7.94263
1267	12.5336
1269.89	9.11145
1272.79	12.0709
1275.68	5.95813
1278.57	8.07764
1281.46	7.6167
1284.36	6.39819
1287.25	9.31641
1290.14	9.33618
1293.03	1.95447
1295.93	4.82873
1298.82	8.50928
1301.71	0.075317
