Measurement: Raman, 532 nm, unoriented, Raman Data Processed
Mineral: Paradamite
Rruff sample: R050582
Ideal chemistry: Zn^2+^_2_As^5+^O_4_(OH)
Locality: Ojuela mine, Mapimi, Durango, Mexico
Source: University of Arizona Mineral Museum
Description: Groups of tabular pale yellow crystals
Measured chemistry: Zn_2.00_(As_1.00_O_4_)(OH)
Raman shift (cm-1)	intensity
110.882	0
114.257	25.3395
117.632	3.61002
121.007	49.681
124.381	35.0276
127.756	8.65848
131.131	15.2238
134.506	138.25
137.881	254.501
141.255	142.755
144.63	160.295
148.005	290.541
151.38	481.513
154.755	716.006
158.13	963.295
161.504	1350.08
164.879	2035.32
168.254	2960.34
171.629	2875.66
175.004	1639.54
178.379	1107.72
181.753	1395.43
185.128	2463.85
188.503	3006.21
191.878	1349.42
195.253	410.88
198.627	83.9092
202.002	36.2369
205.377	44.1798
208.752	63.9265
212.127	330.356
215.501	717.002
218.876	1422.24
222.251	2549.38
225.626	4086.06
229.001	5452.31
232.376	6276.2
235.75	8082.26
239.125	7636.05
242.5	3957.32
245.875	1793.37
249.25	901.968
252.625	474.096
255.999	261.839
259.374	174.399
262.749	182
266.124	276.623
269.499	474.651
272.873	717.399
276.248	1048.38
279.623	1498.02
282.998	1970.69
286.373	1842.61
289.748	1023.64
293.122	477.023
296.497	239.252
299.872	135.13
303.247	102.809
306.622	90.2877
309.997	62.994
313.371	22.3795
316.746	14.0949
320.121	29.1456
323.496	31.2659
326.871	23.6338
330.245	15.4681
333.62	9.06653
336.995	35.9592
340.37	89.33
343.745	179.899
347.12	296.498
350.494	441.705
353.869	665.967
357.244	959.148
360.619	1038.35
363.994	731.65
367.368	495.514
370.743	476.431
374.118	589.842
377.493	758.627
380.868	1065.84
384.243	1561.5
387.617	1941.64
390.992	1374.15
394.367	716.439
397.742	517.439
401.117	544.503
404.491	683.889
407.866	881.412
411.241	1119.33
414.616	1295
417.991	1247.28
421.366	912.655
424.74	547.544
428.115	281.286
431.49	121.204
434.865	23.81
438.24	23.1881
441.615	30.727
444.989	4.80798
448.364	82.5393
451.739	228.838
455.114	441.607
458.489	714.023
461.863	1066.61
465.238	1455.9
468.613	1679.27
471.988	1502.55
475.363	1261.1
478.738	1256.06
482.112	1497.16
485.487	1825.48
488.862	2010.02
492.237	1968.16
495.612	1996.32
498.986	2062.91
502.361	1685.01
505.736	1085.51
509.111	748.665
512.486	507.277
515.861	309.763
519.235	176.001
522.61	106.318
525.985	70.4823
529.36	43.5178
532.735	26.39
536.11	14.649
539.484	2.27771
542.859	6.76929
546.234	0.166626
549.609	13.2715
552.984	16.8672
556.358	11.3366
559.733	4.96576
563.108	5.74411
566.483	2.19971
569.858	10.3139
573.232	21.4862
576.607	23.1425
579.982	26.024
583.357	32.1021
586.732	41.8276
590.107	41.362
593.481	47.6696
596.856	52.4136
600.231	56.8285
603.606	60.6078
606.981	62.9908
610.356	57.7255
613.73	52.8623
617.105	50.5636
620.48	53.4681
623.855	51.1024
627.23	70.8272
630.605	76.8316
633.979	93.1736
637.354	131.192
640.729	139.619
644.104	110.231
647.479	114.763
650.853	119.137
654.228	124.82
657.603	126.73
660.978	138.734
664.353	150.868
667.727	159.437
671.102	167.719
674.477	166.809
677.852	168.117
681.227	170.446
684.602	174.685
687.976	183.133
691.351	193.622
694.726	203.209
698.101	219.842
701.476	241.14
704.851	256.233
708.225	262.286
711.6	261.71
714.975	248.639
718.35	223.013
721.725	202.218
725.1	185.702
728.474	162.99
731.849	139.359
735.224	118.653
738.599	83.932
741.974	48.3017
745.348	23.102
748.723	5.83667
752.098	27.7284
755.473	52.2041
758.848	73.5366
762.222	85.6337
765.597	88.9146
768.972	58.3289
772.347	10.4968
775.722	70.2686
779.097	194.165
782.471	354.469
785.846	483.492
789.221	488.386
792.596	362.098
795.971	258.312
799.346	270.452
802.72	407.571
806.095	652.738
809.47	851.819
812.845	641.416
816.22	409.318
819.595	804.306
822.969	2190.42
826.344	4741.62
829.719	8859.91
833.094	15513
836.469	21020.3
839.843	16778.7
843.218	13408.1
846.593	14922.6
849.968	18687.8
853.343	18135
856.717	10664.9
860.092	5739.09
863.467	4257.91
866.842	4889.04
870.217	7103.48
873.592	10792.6
876.966	15421.3
880.341	16830.5
883.716	11417
887.091	6029.13
890.466	3274.13
893.841	1952.16
897.215	1318.8
900.59	1073.38
903.965	1037.24
907.34	1093.45
910.715	1125.93
914.09	971.939
917.464	680.031
920.839	380.997
924.214	157.335
927.589	36.3248
930.964	28.094
934.338	61.8209
937.713	73.6792
941.088	72.967
944.463	64.7075
947.838	48.1141
951.212	24.9817
954.587	6.58917
957.962	17.6119
961.337	42.2095
964.712	65.4301
968.087	95.1238
971.461	118.17
974.836	149.825
978.211	174.946
981.586	199.503
984.961	222.317
988.336	250.524
991.71	275.11
995.085	279.921
998.46	277.365
1001.84	274.633
1005.21	261.878
1008.58	252.106
1011.96	241.914
1015.33	230.334
1018.71	209.425
1022.08	190.77
1025.46	176.355
1028.83	166.878
1032.21	163.084
1035.58	163.049
1038.96	159.585
1042.33	145.009
1045.71	120.544
1049.08	105.909
1052.46	100.329
1055.83	92.8256
1059.21	87.0139
1062.58	79.2776
1065.96	78.919
1069.33	68.3886
1072.71	67.7304
1076.08	59.6741
1079.46	50.8083
1082.83	48.454
1086.2	48.0251
1089.58	37.0351
1092.95	27.6613
1096.33	28.7991
1099.7	34.5493
1103.08	48.8768
1106.45	67.7933
1109.83	100.053
1113.2	113.83
1116.58	77.2077
1119.95	45.6993
1123.33	22.985
1126.7	8.10202
1130.08	0.833221
1133.45	3.01431
1136.83	1.91476
1140.2	3.35388
1143.58	2.41614
1146.95	0.29715
1150.33	0.778625
1153.7	3.39325
1157.08	4.15299
1160.45	0.508179
1163.83	1.43549
1167.2	1.5784
1170.58	0.705811
1173.95	8.00836
1177.33	17.6945
1180.7	43.9734
1184.08	64.4953
1187.45	58.7774
1190.83	35.7214
1194.2	13.565
1197.57	3.64496
1200.95	3.59393
1204.32	0.215118
1207.7	5.48392
1211.07	14.8628
1214.45	23.5953
1217.82	33.4983
1221.2	40.2081
1224.57	50.0562
1227.95	52.4262
1231.32	49.2838
1234.7	43.2441
1238.07	30.0882
1241.45	30.7015
1244.82	26.9005
1248.2	25.9757
1251.57	24.4119
1254.95	20.5263
1258.32	14.7314
1261.7	5.8118
1265.07	3.55572
1268.45	0.548523
1271.82	3.09473
1275.19	2.35767
1278.57	4.62897
1281.94	4.24265
1285.32	7.63956
1288.69	13.5008
1292.07	16.1882
1295.44	11.7028
1298.82	3.59851
1302.19	0.121887
