Measurement: Raman, 514 nm, unoriented, Raman Data Processed
Mineral: Paralaurionite
Rruff sample: R050271
Ideal chemistry: PbCl(OH)
Locality: Tiger, Pinal County, Arizona, USA
Source: Marcus Origlieri
Description: Greenish-yellow prismatic crystal
Measured chemistry: (Pb_0.96_[box]_0.04_)Cl(OH)
Raman shift (cm-1)	intensity
52.866	0
57.065	165.646
61.262	46.407
65.458	58.684
69.651	201.851
73.842	1565.86
78.031	5072.26
82.218	7449.67
86.404	5824.74
90.587	7240.19
94.768	16037.9
98.947	32509.9
103.124	39121.2
107.3	28511
111.473	26947.6
115.644	23611.1
119.813	20378.1
123.981	27248
128.146	43310.2
132.309	52426.3
136.47	38952.5
140.63	20740.1
144.787	11363
148.942	7164.62
153.096	5148.79
157.247	4075.18
161.396	3525.21
165.544	3195.74
169.689	2885.41
173.833	2691.25
177.974	2362.35
182.114	2126.31
186.251	1794.81
190.387	1511.39
194.52	1313.15
198.652	1247.16
202.782	1142.26
206.909	1236.12
211.035	1315.35
215.159	1418.74
219.281	1463.51
223.4	1340.06
227.518	1154.41
231.634	1003.08
235.748	1004.22
239.86	1080.14
243.97	1155.95
248.079	1386.56
252.185	1824.59
256.289	2696.88
260.391	4346.58
264.492	6984.94
268.59	9917.99
272.687	10875.9
276.781	8934.12
280.874	5653.73
284.964	3047.26
289.053	1821.98
293.14	1379.5
297.225	1481.06
301.308	1866.46
305.389	2586.07
309.468	3838.39
313.545	6030.29
317.62	10373.9
321.693	18946.8
325.765	31373.8
329.834	36695.1
333.902	27646.5
337.967	16923.5
342.031	10321.2
346.093	6693.28
350.153	4761.87
354.21	3492.45
358.267	2647.32
362.321	2058.88
366.373	1723.75
370.423	1372
374.471	1141.86
378.518	987.455
382.563	796.066
386.605	601.157
390.646	380.792
394.685	163.942
398.722	30.468
402.757	38.743
406.79	63.798
410.821	61.808
414.851	96.909
418.878	103.905
422.904	118.808
426.927	149.811
430.949	92.362
434.969	69.352
438.987	70.718
443.003	58.37
447.018	59.845
451.03	68.658
455.041	73.108
459.049	36.268
463.056	30.078
467.061	25.501
471.064	19.564
475.065	25.304
479.064	10.209
483.062	11.004
487.057	9.08
491.051	28.432
495.043	25.062
499.032	74.915
503.02	34.07
507.007	62.45
510.991	98.555
514.973	121.043
518.954	173.389
522.933	182.187
526.91	211.441
530.885	270.173
534.858	308.428
538.829	342.219
542.799	385.547
546.766	424.406
550.732	482.789
554.696	519.684
558.658	597.096
562.618	655.171
566.576	763.501
570.533	874.979
574.488	933.777
578.44	1035.75
582.391	1152.58
586.341	1271.24
590.288	1336.06
594.233	1370.44
598.177	1358.34
602.119	1300.43
606.059	1237.65
609.997	1197.89
613.933	1101.17
617.868	1006.36
621.801	991.351
625.731	950.446
629.66	950.296
633.588	962.147
637.513	996.239
641.437	1012.1
645.358	1070.97
649.278	1054.95
653.196	1121.72
657.113	1186.53
661.027	1250.54
664.94	1212.31
668.851	1302.69
672.76	1415.35
676.667	1461.33
680.572	1517.26
684.476	1634.15
688.378	1686.71
692.278	1820.92
696.176	1948
700.072	2102.99
703.967	2250.07
707.86	2501.85
711.751	2577.32
715.64	2819.58
719.527	2998.6
723.413	3105.35
727.297	3238.76
731.179	3270.98
735.059	3147.56
738.937	3072.92
742.814	2906.66
746.689	2679.67
750.562	2414.15
754.433	2219.98
758.303	2078.48
762.17	1817.14
766.036	1575.95
769.901	1432.85
773.763	1299.35
777.624	1105.03
781.482	968.77
785.339	846.53
789.195	726.309
793.048	619.237
796.9	509.541
800.75	441.989
804.598	412.352
808.445	328.822
812.289	302.265
816.132	251.813
819.973	202.458
823.813	190.227
827.65	145.083
831.486	136.135
835.32	95.051
839.152	91.948
842.983	80.859
846.812	47.811
850.639	35.715
854.464	20.642
858.288	11.554
862.11	14.454
865.93	2.689
869.748	4.877
873.564	16.026
877.379	20.266
881.192	9.554
885.004	2.88
888.813	15.185
892.621	5.563
896.427	16.026
900.232	15.588
904.034	4.22
907.835	4.869
911.634	5.611
915.432	9.345
919.227	33.928
923.021	21.103
926.813	6.324
930.604	7.566
934.393	10.545
938.18	17.679
941.965	24.831
945.749	2.954
949.53	3.602
953.311	12.367
957.089	19.341
960.866	28.272
964.641	46.617
968.414	34.387
972.185	42.248
975.955	41.807
979.723	22.352
983.49	48.754
987.254	39.281
991.017	51.859
994.779	39.784
998.538	52.699
1002.3	50.115
1006.05	43.934
1009.81	40.782
1013.56	43.309
1017.31	50.14
1021.06	47.551
1024.81	51.468
1028.55	37.462
1032.3	47.356
1036.04	39.74
1039.78	29.247
1043.52	36.114
1047.26	34.25
1050.99	37.871
1054.73	40.209
1058.46	32.491
1062.19	23.057
1065.92	23.341
1069.65	25.185
1073.37	17.413
1077.1	1.115
1080.82	27.729
1084.54	19.311
1088.26	5.935
1091.97	2.601
1095.69	7.075
1099.4	16.146
1103.12	5.582
1106.83	8.953
1110.54	5.302
1114.24	13.77
1117.95	1.12
1121.65	42.514
1125.35	30.831
1129.06	8.978
1132.75	13.851
1136.45	4.701
1140.15	5.551
1143.84	0.474
1147.53	6.477
1151.22	3.595
1154.91	5.37
1158.6	8.199
1162.28	13.015
1165.97	6.819
1169.65	9.404
1173.33	5.728
1177.01	1.04
1180.69	7.661
1184.36	13.334
1188.04	1.901
1191.71	3.441
1195.38	3.783
1199.05	0.888
1202.71	21.562
1206.38	35.194
1210.04	12.829
1213.71	10.447
1217.37	22
1221.03	14.574
1224.68	37.985
1228.34	11.557
1231.99	31.09
1235.65	16.59
1239.3	22.971
1242.95	17.381
1246.59	23.433
1250.24	16.816
1253.88	44.198
1257.53	36.538
1261.17	41.457
1264.81	46.751
1268.45	38.149
1272.08	52.643
1275.72	52.357
1279.35	50.584
1282.98	50.509
1286.61	57.698
1290.24	53.832
1293.87	55.268
1297.49	58.634
1301.11	61.541
1304.73	68.759
1308.36	53.093
1311.97	57.607
1315.59	70.664
1319.2	70.637
1322.82	62.907
1326.43	72.262
1330.04	65.693
1333.65	86.126
1337.26	67.361
1340.86	91.484
1344.47	60.949
1348.07	82.491
1351.67	91.049
1355.27	76.629
1358.87	92.198
1362.46	71.81
1366.06	63.46
1369.65	62.12
1373.24	81.862
1376.83	54.906
1380.42	69.751
1384	58.495
1387.59	56.508
1391.17	49.406
1394.75	50.816
1398.33	46.239
1401.91	56.663
1405.49	49.127
1409.06	66.653
1412.64	65.232
1416.21	61.877
1419.78	49.547
1423.35	31.265
1426.91	43.041
1430.48	46.487
1434.05	37.682
1437.61	41.564
1441.17	30.473
1444.73	64.407
1448.29	40.365
1451.84	30.338
1455.4	42.312
1458.95	30.313
1462.5	19.375
1466.05	31.509
1469.6	24.89
1473.15	29.003
1476.69	27.364
1480.24	14.804
1483.78	17.33
1487.32	21.95
1490.86	35.684
1494.39	31.561
1497.93	10.608
1501.46	20.849
1505	4.324
1508.53	8.091
1512.06	0.238
1515.59	3.111
1519.11	3.219
1522.64	32.693
1526.16	0
