Measurement: Raman, 532 nm, unoriented, Raman Data Processed
Mineral: Paracoquimbite
Rruff sample: R050351
Ideal chemistry: Fe^3+^_2_(SO_4_)_3_9H_2_O
Locality: Cyprus
Source: California Institute of Technology
Description: Purple fragment
Measured chemistry: (Fe^3+^_1.97_Al_0.03_)_Σ=2_(S_1.00_O_4_)_3_·9H_2_O
Raman shift (cm-1)	intensity
119.352	0
122.727	1.5014
126.102	17.9846
129.476	10.5677
132.851	10.2144
136.226	52.9495
139.601	146.706
142.976	296.871
146.351	442.726
149.725	194.6
153.1	87.0905
156.475	104.452
159.85	143.17
163.225	194.667
166.6	210.259
169.974	235.095
173.349	143.252
176.724	27.7039
180.099	12.1772
183.474	12.4664
186.848	40.2617
190.223	49.3735
193.598	251.791
196.973	492.761
200.348	652.088
203.722	796.114
207.097	1355.88
210.472	2056.88
213.847	1651.07
217.222	986.104
220.596	763.424
223.971	711.646
227.346	564.991
230.721	352.568
234.096	152.575
237.471	43.8707
240.845	32.4915
244.22	49.0011
247.595	114.744
250.97	204.937
254.345	359.328
257.719	539.325
261.094	778.024
264.469	1094.66
267.844	1523.89
271.219	2064.82
274.594	2632.83
277.968	3179.7
281.343	3517.45
284.718	3724.05
288.093	3676.78
291.468	3155.9
294.842	2421.79
298.217	1747.71
301.592	1236.16
304.967	906.541
308.342	655.202
311.717	474.23
315.091	319.394
318.466	214.878
321.841	124.74
325.216	59.147
328.591	24.4103
331.966	0.502258
335.34	7.28705
338.715	15.3879
342.09	17.6911
345.465	13.2297
348.84	11.6604
352.214	6.30466
355.589	1.33893
358.964	2.97632
362.339	3.24963
365.714	8.42563
369.089	11.806
372.463	11.0048
375.838	15.2995
379.213	24.7729
382.588	27.7186
385.963	39.281
389.337	39.4514
392.712	39.041
396.087	44.1422
399.462	42.3117
402.837	42.4983
406.212	44.074
409.586	49.6624
412.961	55.8989
416.336	65.3311
419.711	71.7642
423.086	69.2376
426.46	63.0285
429.835	59.5371
433.21	59.752
436.585	45.3458
439.96	27.8939
443.334	26.553
446.709	31.414
450.084	45.8437
453.459	37.7847
456.834	54.3445
460.209	81.8752
463.583	122.061
466.958	161.423
470.333	191.911
473.708	215.995
477.083	262.887
480.457	364.502
483.832	495.251
487.207	677.516
490.582	912.256
493.957	1195.36
497.332	1509.03
500.706	1680.14
504.081	1511.18
507.456	1127.7
510.831	829.538
514.206	621.485
517.58	444.345
520.955	298.132
524.33	196.599
527.705	127.802
531.08	85.0489
534.455	58.7975
537.829	35.0016
541.204	16.3834
544.579	6.25485
547.954	1.052
551.329	8.72942
554.703	13.1823
558.078	8.46542
561.453	5.87749
564.828	3.49883
568.203	4.8494
571.577	14.406
574.952	28.3754
578.327	51.8792
581.702	84.2286
585.077	129.149
588.452	182.77
591.826	240.523
595.201	305.058
598.576	334.983
601.951	342.392
605.326	298.512
608.7	239.56
612.075	179.675
615.45	127.15
618.825	99.6813
622.2	75.0005
625.574	59.5976
628.949	49.2892
632.324	36.3299
635.699	28.4088
639.074	19.3152
642.449	10.2707
645.823	7.91979
649.198	0.42244
652.573	5.68436
655.948	2.61922
659.323	7.35648
662.697	11.7724
666.072	21.5339
669.447	32.9969
672.822	37.2387
676.197	34.8519
679.572	30.7039
682.946	20.5312
686.321	18.4554
689.696	10.4652
693.071	4.12697
696.446	2.77512
699.821	2.90927
703.195	3.18246
706.57	2.31567
709.945	2.24261
713.32	0.83416
716.695	1.87096
720.069	2.20554
723.444	5.22905
726.819	2.88491
730.194	3.87307
733.569	3.46807
736.943	4.71675
740.318	6.5984
743.693	8.94052
747.068	8.09116
750.443	13.617
753.818	12.9681
757.192	9.76906
760.567	13.9801
763.942	12.1645
767.317	7.15882
770.692	7.71437
774.067	5.59079
777.441	1.33899
780.816	4.80766
784.191	1.36581
787.566	4.74524
790.941	0.994331
794.315	0.245293
797.69	2.92376
801.065	3.60752
804.44	3.57723
807.815	4.22822
811.189	4.71976
814.564	4.50993
817.939	7.58511
821.314	2.65579
824.689	7.27502
828.063	6.2201
831.438	5.72824
834.813	7.74048
838.188	6.99366
841.563	10.9167
844.938	10.2993
848.312	7.67928
851.687	11.3562
855.062	14.7073
858.437	16.5333
861.812	19.4056
865.187	25.2264
868.561	28.6634
871.936	27.0653
875.311	30.4404
878.686	29.6087
882.061	25.9471
885.435	27.1157
888.81	24.9621
892.185	18.9623
895.56	12.7046
898.935	10.1268
902.309	7.94608
905.684	4.64487
909.059	1.14861
912.434	2.23914
915.809	0.431252
919.184	1.58255
922.558	2.84904
925.933	3.76855
929.308	3.57545
932.683	2.40572
936.058	0.70002
939.433	4.76089
942.807	2.62012
946.182	1.04718
949.557	0.892296
952.932	3.25546
956.307	6.24774
959.681	7.39705
963.056	8.05896
966.431	12.3696
969.806	18.9628
973.181	26.3832
976.556	38.8052
979.93	55.9954
983.305	69.2598
986.68	91.2109
990.055	125.554
993.43	167.567
996.804	260.417
1000.18	420.342
1003.55	676.83
1006.93	1116.35
1010.3	1755.51
1013.68	2258.04
1017.05	2827.61
1020.43	3900.6
1023.8	6186.63
1027.18	7077.2
1030.55	3557.82
1033.93	2138.2
1037.3	1719.07
1040.68	967.593
1044.05	444.926
1047.43	226.12
1050.8	123.12
1054.18	64.8436
1057.55	32.3442
1060.93	5.57723
1064.3	2.73319
1067.68	6.4895
1071.05	5.97762
1074.42	1.63582
1077.8	29.4756
1081.17	54.7951
1084.55	101.759
1087.92	139.797
1091.3	169.801
1094.67	177.674
1098.05	179.313
1101.42	175.114
1104.8	197.033
1108.17	243.449
1111.55	262.899
1114.92	237.248
1118.3	157.28
1121.67	85.07
1125.05	38.1448
1128.42	11.1426
1131.8	4.37245
1135.17	2.35173
1138.55	4.78809
1141.92	3.79404
1145.3	15.2021
1148.67	21.4614
1152.05	48.1038
1155.42	70.5536
1158.8	97.6423
1162.17	126.189
1165.55	152.841
1168.92	160.258
1172.3	164.925
1175.67	165.453
1179.04	174.451
1182.42	190.668
1185.79	248.01
1189.17	338.209
1192.54	498.511
1195.92	708.934
1199.29	885.918
1202.67	811.539
1206.04	555.609
1209.42	332.171
1212.79	202.455
1216.17	134.255
1219.54	93.6933
1222.92	68.0053
1226.29	47.166
1229.67	34.4344
1233.04	21.5634
1236.42	14.1902
1239.79	10.4168
1243.17	3.78708
1246.54	1.8948
1249.92	0.800941
1253.29	0.008896
1256.66	1.65138
1260.04	4.49461
1263.41	3.40798
1266.79	6.60076
1270.16	4.99764
1273.54	4.82937
1276.91	0.055901
