Measurement: Raman, 780 nm, unoriented, Raman Data Processed
Mineral: Parahopeite
Rruff sample: R050463
Ideal chemistry: Zn_3_(PO_4_)_2_4H_2_O
Locality: Broken Hill mine, Kabwe, Zambia
Source: University of Arizona Mineral Museum
Description: Colorless elongated subparallel aggregate of crystals
Measured chemistry: Zn_3.00_(P_1.00_O_4_)_2_Â·4H_2_O
Raman shift (cm-1)	intensity
137.174	0
140.066	0.148605
142.959	3.03391
145.852	13.458
148.744	22.7699
151.637	34.1283
154.53	53.2477
157.423	79.751
160.315	117.477
163.208	167.448
166.101	187.433
168.994	112.326
171.886	66.4236
174.779	56.3531
177.672	59.1268
180.564	55.9174
183.457	38.7854
186.35	26.7643
189.242	15.8801
192.135	4.97714
195.028	1.66171
197.921	1.08332
200.813	1.11967
203.706	0.891518
206.599	2.37004
209.491	0.729637
212.384	0.279358
215.277	0.64151
218.169	3.26754
221.062	7.00535
223.955	10.124
226.847	12.5575
229.74	13.6813
232.633	15.7302
235.526	19.9605
238.418	24.5029
241.311	32.2125
244.204	37.7921
247.096	47.6751
249.989	57.9618
252.882	65.9838
255.774	68.3764
258.667	66.1056
261.56	58.4589
264.453	50.8991
267.345	40.942
270.238	33.587
273.131	28.0439
276.023	25.7687
278.916	27.9182
281.809	25.144
284.702	19.0355
287.594	11.7338
290.487	5.85648
293.38	2.55962
296.272	2.45156
299.165	3.19126
302.058	4.98667
304.95	9.58901
307.843	14.388
310.736	20.6092
313.628	27.0638
316.521	36.4019
319.414	46.1142
322.307	52.3575
325.199	56.9087
328.092	58.167
330.985	51.4037
333.877	40.3493
336.77	30.3802
339.663	23.8373
342.556	19.9232
345.448	18.2965
348.341	16.4062
351.234	15.7743
354.126	16.2941
357.019	18.5298
359.912	24.9813
362.805	29.6437
365.697	28.9423
368.59	22.379
371.483	13.7816
374.375	7.87151
377.268	3.14246
380.161	1.71767
383.053	0.611561
385.946	0.528057
388.839	0.134502
391.731	1.33061
394.624	0.544407
397.517	0.836361
400.41	0.505959
403.302	1.01951
406.195	0.026356
409.088	1.11623
411.98	1.77971
414.873	2.81053
417.766	3.92206
420.659	6.33715
423.551	7.39401
426.444	8.13594
429.337	5.39595
432.229	3.05708
435.122	1.46251
438.015	0.542076
440.907	0.936138
443.8	2.3717
446.693	2.1059
449.586	3.81232
452.478	4.21062
455.371	4.2162
458.264	4.05712
461.156	4.22519
464.049	4.74198
466.942	5.92062
469.834	5.2645
472.727	5.37207
475.62	6.32262
478.513	5.95734
481.405	6.83881
484.298	9.66348
487.191	11.6549
490.083	15.4355
492.976	20.1952
495.869	26.2681
498.762	31.8631
501.654	36.5817
504.547	38.3784
507.44	34.6709
510.332	26.9941
513.225	15.8522
516.118	10.8179
519.01	6.4496
521.903	4.74789
524.796	1.51301
527.688	0.761909
530.581	0.622185
533.474	0.245281
536.367	0.527428
539.259	0.827621
542.152	3.19693
545.045	6.84429
547.937	9.67411
550.83	14.5491
553.723	21.9182
556.615	30.8097
559.508	44.3878
562.401	50.4009
565.294	45.2756
568.186	41.1206
571.079	38.4602
573.972	31.8849
576.864	22.7021
579.757	13.3893
582.65	9.25428
585.543	5.81173
588.435	3.21928
591.328	1.74688
594.221	1.07649
597.113	0.552818
600.006	1.10218
602.899	0.066628
605.791	1.0477
608.684	0.364841
611.577	0.462132
614.47	0.064156
617.362	0.237484
620.255	0.355267
623.148	0.464199
626.04	2.17572
628.933	2.99398
631.826	3.63001
634.718	5.39291
637.611	7.48417
640.504	9.94072
643.397	10.9934
646.289	12.4
649.182	11.166
652.075	7.98133
654.967	6.10978
657.86	3.76247
660.753	2.5709
663.645	2.1278
666.538	2.16416
669.431	1.36342
672.324	0.265915
675.216	1.18016
678.109	1.00837
681.002	0.687904
683.894	1.84922
686.787	1.01311
689.68	2.18055
692.572	2.84005
695.465	2.44181
698.358	3.06363
701.251	3.01786
704.143	2.75686
707.036	2.18426
709.929	0.835007
712.821	1.88584
715.714	0.149109
718.607	1.04442
721.5	0.821606
724.392	0.608868
727.285	0.644161
730.178	0.282116
733.07	0.242607
735.963	0.380367
738.856	0.013687
741.749	1.4357
744.641	0.686703
747.534	1.05273
750.427	1.46203
753.319	2.48185
756.212	1.59593
759.105	2.84781
761.997	2.05303
764.89	3.2351
767.783	3.64132
770.676	2.23889
773.568	3.6016
776.461	2.75104
779.354	3.37134
782.246	2.85104
785.139	2.2321
788.032	2.08078
790.924	1.46715
793.817	1.94866
796.71	1.72648
799.602	1.27944
802.495	1.64888
805.388	0.992004
808.281	1.84171
811.173	1.08459
814.066	0.866989
816.959	0.585426
819.851	0.06847
822.744	1.82441
825.637	1.85966
828.529	0.023911
831.422	0.179817
834.315	0.530113
837.208	0.235126
840.1	0.770683
842.993	0.118984
845.886	0.296459
848.778	0.09938
851.671	0.280277
854.564	0.58828
857.457	0.454319
860.349	0.275513
863.242	0.20686
866.135	1.05512
869.027	0.051128
871.92	0.141716
874.813	0.672184
877.705	1.13044
880.598	0.340694
883.491	1.85797
886.384	1.80205
889.276	2.91365
892.169	1.71453
895.062	3.20488
897.954	2.44199
900.847	1.98232
903.74	1.29982
906.632	1.42503
909.525	0.556961
912.418	0.459778
915.311	0.466167
918.203	0.187214
921.096	0.247196
923.989	0.680099
926.881	0.765167
929.774	0.583344
932.667	2.4518
935.559	5.25347
938.452	10.8853
941.345	20.5674
944.238	34.77
947.13	55.9643
950.023	82.6653
952.916	121.233
955.808	154.05
958.701	134.608
961.594	72.4437
964.486	31.7097
967.379	14.3495
970.272	5.30115
973.165	1.2347
976.057	1.04919
978.95	1.43072
981.843	2.43316
984.735	6.86604
987.628	16.1518
990.521	31.9058
993.413	50.551
996.306	80.3994
999.199	121.227
1002.09	156.083
1004.98	129.149
1007.88	68.6064
1010.77	31.8721
1013.66	15.8246
1016.55	9.1917
1019.45	7.49898
1022.34	9.13924
1025.23	13.7531
1028.13	21.8604
1031.02	29.9259
1033.91	33.0702
1036.8	20.9167
1039.7	11.3047
1042.59	7.95974
1045.48	7.80716
1048.38	10.8915
1051.27	15.3415
1054.16	18.7122
1057.05	15.5856
1059.95	8.49183
1062.84	3.48626
1065.73	1.51287
1068.62	0.426868
1071.52	0.234024
1074.41	0.334486
1077.3	0.450342
1080.19	0.677286
1083.09	0.448965
1085.98	0.668669
1088.87	0.249453
1091.77	1.6028
1094.66	0.260895
1097.55	0.981949
1100.44	1.45871
1103.34	1.82602
1106.23	2.21585
1109.12	2.26722
1112.01	2.10851
1114.91	1.64133
1117.8	1.53667
1120.69	2.88014
1123.59	2.22091
1126.48	2.61576
1129.37	2.88076
1132.26	3.47836
1135.16	2.75162
1138.05	2.82766
1140.94	2.11455
1143.83	1.88544
1146.73	1.79337
1149.62	2.16627
1152.51	1.75264
1155.4	1.80105
1158.3	1.65107
1161.19	1.60677
1164.08	2.14442
1166.98	1.9962
1169.87	1.13744
1172.76	1.79886
1175.65	1.92752
1178.55	1.58142
1181.44	1.11432
1184.33	1.32301
1187.22	0.564413
1190.12	0.753124
1193.01	1.09851
1195.9	0.51062
1198.8	0.749495
1201.69	0.613791
1204.58	0.517323
1207.47	1.05819
1210.37	1.20426
1213.26	0.957169
1216.15	0.811567
1219.04	0.812325
1221.94	0.149057
1224.83	0.299286
1227.72	0.791042
1230.62	0.968632
1233.51	0.256649
1236.4	0.370695
1239.29	1.08635
1242.19	1.04076
1245.08	0.831541
1247.97	0.321659
1250.86	0.716269
1253.76	0.687538
1256.65	0.230366
1259.54	0.08396
1262.43	0.205448
1265.33	0.381292
1268.22	1.29021
1271.11	0.175045
1274.01	1.4442
1276.9	0.073858
1279.79	0.872229
1282.68	1.1959
1285.58	1.57134
