Measurement: Raman, 785 nm, unoriented, Raman Data Processed
Mineral: Paravauxite
Rruff sample: R040179
Ideal chemistry: Fe^2+^Al_2_(PO_4_)_2_(OH)_2_8H_2_O
Locality: Mina Siglo XX, Llallagua, Bolivia
Source: University of Arizona Mineral Museum
Description: Colorless short prismatic crystals in subparallel groups
Measured chemistry: (Fe_0.93_Mg_0.03_Mn_0.02_)Al_1.94_(P_2.05_O_4_)_2_((OH)_0.99_F_0.01_)_2_Â·8H_2_O
Raman shift (cm-1)	intensity
136.929	0
139.822	0.516174
142.715	2.05829
145.607	26.1682
148.5	81.4447
151.393	122.514
154.286	92.5595
157.178	35.0593
160.071	1.50171
162.964	19.2747
165.856	25.0004
168.749	25.7759
171.642	35.6693
174.534	55.4393
177.427	70.459
180.32	40.4961
183.212	22.4373
186.105	28.3517
188.998	64.6238
191.891	108.026
194.783	183.429
197.676	199.277
200.569	139.614
203.461	96.7905
206.354	101.402
209.247	104.158
212.139	108.292
215.032	159.393
217.925	169.455
220.818	233.693
223.71	339.413
226.603	463.077
229.496	646.789
232.388	901.41
235.281	1007.5
238.174	813.234
241.066	525.673
243.959	314.424
246.852	137.224
249.745	60.9742
252.637	31.458
255.53	0.791992
258.423	0.167236
261.315	0.62384
264.208	4.20184
267.101	48.5875
269.993	114.046
272.886	169.105
275.779	246.325
278.672	381.673
281.564	457.357
284.457	428.95
287.35	339.409
290.242	265.724
293.135	238.349
296.028	231.93
298.921	179.508
301.813	130.795
304.706	80.6044
307.599	38.6173
310.491	14.5216
313.384	4.9032
316.277	4.50452
319.169	5.60901
322.062	3.25647
324.955	9.19159
327.847	10.0432
330.74	32.9137
333.633	26.6755
336.526	19.8715
339.418	4.53265
342.311	4.11005
345.204	7.57019
348.096	25.546
350.989	7.39032
353.882	2.534
356.774	27.9315
359.667	48.5653
362.56	77.6003
365.452	104.186
368.345	152.646
371.238	216.894
374.131	292.759
377.023	293.906
379.916	288.907
382.809	238.014
385.701	201.869
388.594	168.179
391.487	165.874
394.38	174.054
397.272	223.54
400.165	275.061
403.058	360.62
405.95	389.967
408.843	324.866
411.736	323.11
414.628	303.277
417.521	373.733
420.414	453.807
423.307	611.506
426.199	798.459
429.092	974.231
431.985	1090.87
434.877	923.11
437.77	631.754
440.663	410.552
443.555	227.1
446.448	135.722
449.341	108.231
452.234	59.2369
455.126	57.1666
458.019	66.444
460.912	73.955
463.804	93.9286
466.697	98.4726
469.59	131.443
472.483	120.16
475.375	145.424
478.268	124.724
481.161	106.787
484.053	81.7459
486.946	61.2512
489.839	31.1271
492.731	29.1239
495.624	10.535
498.517	8.30579
501.409	5.55023
504.302	4.91947
507.195	3.55598
510.088	3.4718
512.98	7.91875
515.873	6.03683
518.766	24.4659
521.658	57.5731
524.551	89.173
527.444	125.858
530.337	156.506
533.229	212.468
536.122	228.667
539.015	263.927
541.907	262.967
544.8	255.573
547.693	248.991
550.585	222.612
553.478	197.211
556.371	204.071
559.263	248.152
562.156	283.99
565.049	368.406
567.942	434.924
570.834	554.932
573.727	705.624
576.62	819.076
579.512	909.143
582.405	922.364
585.298	898.194
588.19	827.582
591.083	770.917
593.976	667.116
596.869	625.177
599.761	530.534
602.654	452.249
605.547	393.062
608.439	286.439
611.332	241.751
614.225	198.926
617.117	139.532
620.01	105.218
622.903	80.4293
625.795	69.467
628.688	90.0774
631.581	81.3612
634.474	77.0313
637.366	103.226
640.259	91.9617
643.152	83.446
646.044	82.9498
648.937	69.585
651.83	53.4413
654.722	33.459
657.615	28.3436
660.508	3.04282
663.401	9.43137
666.293	0.885559
669.186	2.22046
672.079	12.8804
674.971	13.8083
677.864	6.40601
680.757	1.78815
683.649	17.9353
686.542	1.26151
689.435	3.39764
692.328	2.75436
695.22	21.7053
698.113	11.7924
701.006	17.4348
703.898	26.9952
706.791	46.2094
709.684	29.8915
712.577	33.0299
715.469	46.3985
718.362	48.4043
721.255	49.4703
724.147	43.2208
727.04	52.0357
729.933	59.94
732.825	50.1943
735.718	63.6056
738.611	52.6538
741.504	57.8708
744.396	37.391
747.289	52.318
750.182	36.4472
753.074	34.7379
755.967	40.0225
758.86	30.8262
761.752	26.7545
764.645	21.8531
767.538	22.1448
770.431	24.0691
773.323	16.7707
776.216	17.4938
779.109	23.1623
782.001	3.53
784.894	19.174
787.787	16.2712
790.679	6.14969
793.572	19.9501
796.465	13.7319
799.357	1.6575
802.25	16.4406
805.143	16.2198
808.036	2.84027
810.928	6.48767
813.821	0.845703
816.714	6.23944
819.606	13.3054
822.499	15.5825
825.392	9.48306
828.284	20.1794
831.177	22.7751
834.07	18.0484
836.963	25.4749
839.855	14.2705
842.748	8.23303
845.641	16.8227
848.533	21.1972
851.426	6.96182
854.319	14.8225
857.212	14.6499
860.104	11.9069
862.997	21.975
865.89	3.43485
868.782	11.7495
871.675	20.2179
874.568	1.99753
877.46	16.7183
880.353	2.53653
883.246	8.08139
886.139	5.41214
889.031	4.33054
891.924	6.51694
894.817	10.89
897.709	8.08441
900.602	7.95071
903.495	0.792206
906.388	0.48407
909.28	2.87289
912.173	11.2739
915.066	15.3751
917.958	14.275
920.851	11.2386
923.744	24.3715
926.636	43.8766
929.529	23.5663
932.422	41.2921
935.314	49.7536
938.207	52.3428
941.1	58.1909
943.993	71.8867
946.885	66.7273
949.778	93.8616
952.671	87.8822
955.563	99.3002
958.456	134.114
961.349	171.204
964.241	188.522
967.134	247.896
970.027	336.699
972.92	473.416
975.812	664.093
978.705	1031.73
981.598	1458.95
984.49	2166.65
987.383	2943.27
990.276	3477.05
993.168	3150.02
996.061	2371.16
998.954	1706.68
1001.85	1150.5
1004.74	730.346
1007.63	464.966
1010.52	305.847
1013.42	195.382
1016.31	112.366
1019.2	72.4451
1022.1	59.4834
1024.99	30.9982
1027.88	24.713
1030.77	3.34125
1033.67	13.8795
1036.56	6.53217
1039.45	13.6326
1042.34	17.85
1045.24	54.1823
1048.13	78.3639
1051.02	79.7854
1053.91	134.53
1056.81	153.659
1059.7	153.118
1062.59	103.084
1065.49	58.9533
1068.38	33.1437
1071.27	12.2011
1074.16	3.99802
1077.06	3.06564
1079.95	4.26868
1082.84	1.8555
1085.73	6.65424
1088.63	14.4842
1091.52	21.3718
1094.41	16.0975
1097.31	13.0305
1100.2	23.2338
1103.09	27.5423
1105.98	18.0126
1108.88	15.2769
1111.77	12.4055
1114.66	0.122375
1117.56	1.63281
1120.45	10.6683
1123.34	19.0214
1126.23	32.0385
1129.12	6.69238
1132.02	23.5634
1134.91	21.2511
1137.8	28.4546
1140.7	27.9326
1143.59	37.1816
1146.48	60.709
1149.37	69.9718
1152.27	83.8932
1155.16	116.301
1158.05	135.574
1160.94	188.426
1163.84	213.086
1166.73	210.902
1169.62	194.11
1172.52	156.916
1175.41	111.276
1178.3	86.1543
1181.19	53.2015
1184.09	18.7369
1186.98	31.9688
1189.87	15.142
1192.77	17.2734
1195.66	12.0768
1198.55	11.6226
1201.44	5.80408
1204.34	4.72334
1207.23	11.0294
1210.12	15.0256
1213.01	0.253174
1215.91	5.99335
1218.8	12.437
1221.69	14.9143
1224.58	4.26686
1227.48	7.62138
1230.37	0.060486
1233.26	0
