Measurement: Raman, 780 nm, unoriented, Raman Data Processed
Mineral: Pararobertsite
Rruff sample: R120119
Ideal chemistry: Ca_2_Mn^3+^_3_O_2_(PO_4_)_3_3H_2_O
Locality: Tip Top mine, Custer, South Dakota, USA
Source: Thomas A. Loomis. Anthony R. Kampf provided a few crystals (Kampf 2000).
Description: Spherical aggregate of brown platy crystals on colorless bobdownsite
Raman shift (cm-1)	intensity
133.548	0
136.44	6.56824
139.333	11.9948
142.226	10.322
145.119	14.7359
148.011	21.8287
150.904	16.4937
153.797	4.25653
156.689	6.68866
159.582	10.7638
162.475	21.6769
165.367	42.7176
168.26	60.7982
171.153	79.1274
174.046	90.1785
176.938	113.997
179.831	114.372
182.724	118.299
185.616	121.423
188.509	99.9736
191.402	76.7348
194.294	66.4222
197.187	43.1635
200.08	15.7728
202.972	10.5047
205.865	3.0144
208.758	3.69604
211.651	9.41949
214.543	6.66864
217.436	5.81616
220.329	0.915649
223.221	9.81598
226.114	18.5173
229.007	36.2587
231.899	54.1512
234.792	77.582
237.685	99.0609
240.578	126.14
243.47	150.342
246.363	179.225
249.256	203.671
252.148	229.498
255.041	258.529
257.934	278.502
260.827	265.29
263.719	227.146
266.612	203.665
269.505	198.233
272.397	204.599
275.29	211.178
278.183	202.599
281.075	177.084
283.968	158.487
286.861	149.846
289.753	140.915
292.646	126.325
295.539	119.772
298.432	114.126
301.324	114.222
304.217	120.528
307.11	120.75
310.002	122.546
312.895	114.222
315.788	106.556
318.68	91.5096
321.573	77.4087
324.466	71.1992
327.359	65.4332
330.251	63.0074
333.144	60.5026
336.037	56.0004
338.929	46.5018
341.822	33.0638
344.715	17.7228
347.608	11.1589
350.5	3.65729
353.393	4.89526
356.286	8.41534
359.178	12.583
362.071	18.1151
364.964	22.4427
367.856	21.8397
370.749	15.4192
373.642	3.59668
376.534	5.77936
379.427	10.2802
382.32	8.12738
385.213	1.78973
388.105	5.93054
390.998	15.1027
393.891	29.0449
396.783	37.9946
399.676	56.8556
402.569	65.0066
405.462	61.7393
408.354	51.8508
411.247	45.4562
414.14	35.0388
417.032	23.8136
419.925	15.2682
422.818	10.6913
425.71	1.33633
428.603	6.38358
431.496	6.90405
434.389	11.1469
437.281	14.4832
440.174	19.4669
443.067	25.5578
445.959	34.1156
448.852	45.5483
451.745	55.0756
454.637	68.2114
457.53	89.6717
460.423	106.787
463.315	101.72
466.208	76.0753
469.101	47.8695
471.994	27.6528
474.886	23.3915
477.779	13.1559
480.672	16.7154
483.564	14.7572
486.457	8.85779
489.35	8.81457
492.243	10.9142
495.135	17.6281
498.028	22.6159
500.921	16.0705
503.813	12.4986
506.706	4.25458
509.599	1.79086
512.491	0.533325
515.384	1.80624
518.277	4.38049
521.169	0.932861
524.062	2.5921
526.955	1.40411
529.848	8.76993
532.74	8.59
535.633	11.8425
538.526	20.9038
541.418	30.1151
544.311	35.2692
547.204	39.7098
550.096	35.8715
552.989	32.9181
555.882	15.2707
558.775	8.74387
561.667	1.64374
564.56	0.390015
567.453	1.47006
570.345	0.912201
573.238	1.84512
576.131	6.4678
579.024	12.1047
581.916	20.8286
584.809	31.122
587.702	43.5537
590.594	60.7675
593.487	71.5886
596.38	86.3636
599.272	97.3997
602.165	116.795
605.058	132.727
607.951	156.932
610.843	176.342
613.736	185.592
616.629	195.578
619.521	201.183
622.414	208.226
625.307	212.872
628.199	199.528
631.092	176.976
633.985	162.61
636.878	140.186
639.77	123.894
642.663	111.7
645.556	100.336
648.448	88.0143
651.341	77.4454
654.234	64.9747
657.126	59.8157
660.019	58.0037
662.912	55.0282
665.804	48.9181
668.697	43.2452
671.59	36.3461
674.483	26.0292
677.375	21.2883
680.268	15.5953
683.161	10.4184
686.053	6.89291
688.946	4.10446
691.839	1.1872
694.731	1.27304
697.624	1.77542
700.517	2.65649
703.41	2.09567
706.302	1.43707
709.195	3.27472
712.088	0.887421
714.98	1.01596
717.873	0.17926
720.766	1.79251
723.659	3.17069
726.551	0.209412
729.444	2.36664
732.337	5.64139
735.229	4.61859
738.122	5.26096
741.015	4.44397
743.907	6.03922
746.8	8.79581
749.693	7.05633
752.586	5.53482
755.478	4.63138
758.371	4.36847
761.264	5.62051
764.156	6.71585
767.049	6.09549
769.942	6.94919
772.834	5.20239
775.727	5.60861
778.62	3.84802
781.513	6.66965
784.405	3.18436
787.298	2.59924
790.191	5.05627
793.083	8.53372
795.976	8.37039
798.869	4.69763
801.761	2.78027
804.654	7.7117
807.547	7.39877
810.439	8.91138
813.332	6.29611
816.225	7.82843
819.118	7.84253
822.01	8.37781
824.903	9.10037
827.796	7.16248
830.688	8.87836
833.581	8.75632
836.474	5.80783
839.366	7.66959
842.259	3.97723
845.152	7.06811
848.045	2.29657
850.937	3.48224
853.83	2.44907
856.723	1.7081
859.615	0.831146
862.508	4.68649
865.401	0.42868
868.293	0.094574
871.186	0.259644
874.079	0.831299
876.972	1.44308
879.864	2.49652
882.757	4.39755
885.65	10.4244
888.542	16.5333
891.435	18.1385
894.328	26.3539
897.221	21.2399
900.113	20.1597
903.006	14.2687
905.899	12.2212
908.791	10.1252
911.684	6.70035
914.577	8.83026
917.469	6.23795
920.362	6.70572
923.255	6.62247
926.148	9.81692
929.04	12.4176
931.933	15.6862
934.826	17.3179
937.718	22.2099
940.611	32.8884
943.504	42.1148
946.396	55.9817
949.289	66.5655
952.182	67.1019
955.074	67.7466
957.967	67.8469
960.86	84.1753
963.753	97.0436
966.645	101.867
969.538	85.7521
972.431	69.7918
975.323	67.5548
978.216	71.8396
981.109	87.9719
984.001	76.1297
986.894	47.6386
989.787	28.8235
992.68	11.7612
995.572	5.46454
998.465	0.579285
1001.36	1.97199
1004.25	2.44598
1007.14	5.86871
1010.04	14.2017
1012.93	22.9085
1015.82	45.1341
1018.71	71.5921
1021.61	93.8807
1024.5	109.478
1027.39	99.4808
1030.29	86.3146
1033.18	69.2354
1036.07	69.4023
1038.96	72.4695
1041.86	79.982
1044.75	78.9934
1047.64	69.6668
1050.53	52.8463
1053.43	37.0761
1056.32	25.7915
1059.21	23.2238
1062.1	18.5589
1065	14.8682
1067.89	14.4134
1070.78	16.927
1073.67	19.6338
1076.57	17.745
1079.46	14.4322
1082.35	8.45563
1085.25	0.190399
1088.14	1.00134
1091.03	2.6481
1093.92	3.3605
1096.82	1.96933
1099.71	0.324524
1102.6	6.19208
1105.49	11.4646
1108.39	28.9251
1111.28	35.9572
1114.17	32.5671
1117.07	33.1947
1119.96	25.0477
1122.85	17.4375
1125.74	9.11627
1128.64	12.8321
1131.53	10.278
1134.42	2.62054
1137.32	3.69028
1140.21	8.76675
1143.1	1.9165
1145.99	0.131378
1148.88	3.47949
1151.78	10.9486
1154.67	2.77249
1157.56	5.97855
1160.46	3.66687
1163.35	2.84701
1166.24	4.30893
1169.13	2.31567
1172.03	1.58374
1174.92	6.78476
1177.81	10.9438
1180.7	14.7808
1183.6	13.226
1186.49	18.1913
1189.38	28.5713
1192.28	39.3553
1195.17	47.8792
1198.06	38.1812
1200.95	28.268
1203.85	15.2489
1206.74	10.8216
1209.63	7.29336
1212.53	3.83041
1215.42	4.14609
1218.31	4.17017
1221.2	4.36679
1224.1	3.47134
1226.99	6.41876
1229.88	0.339111
1232.77	0.688965
1235.67	4.07468
1238.56	1.3002
1241.45	0.4104
1244.34	3.11997
1247.24	2.5011
1250.13	4.10602
1253.02	5.58124
1255.91	5.88858
1258.81	5.10004
1261.7	6.77322
1264.59	8.39654
1267.49	6.88351
1270.38	6.44986
1273.27	5.59943
1276.16	3.74805
1279.06	0.618286
1281.95	5.37341
1284.84	1.14175
