Measurement: Raman, 780 nm, unoriented, Raman Data Processed
Mineral: Paradamite
Rruff sample: R050582
Ideal chemistry: Zn^2+^_2_As^5+^O_4_(OH)
Locality: Ojuela mine, Mapimi, Durango, Mexico
Source: University of Arizona Mineral Museum
Description: Groups of tabular pale yellow crystals
Measured chemistry: Zn_2.00_(As_1.00_O_4_)(OH)
Raman shift (cm-1)	intensity
92.0654	0
95.4403	187.498
98.8151	453.83
102.19	158.847
105.565	196.606
108.939	374.4
112.314	894.845
115.689	2802.7
119.064	1587.93
122.439	707.907
125.814	118.032
129.188	34.0253
132.563	5.91724
135.938	70.8832
139.313	12.074
142.688	50.2236
146.062	27.1701
149.437	33.4086
152.812	149.169
156.187	259.832
159.562	460.467
162.936	781.219
166.311	1332.59
169.686	1626.17
173.061	1060.4
176.436	577.737
179.811	583.374
183.185	997.298
186.56	1670.07
189.935	1157.78
193.31	454.866
196.685	184.232
200.06	63.6923
203.434	15.2477
206.809	31.5478
210.184	116.34
213.559	249.588
216.934	486.25
220.308	866.973
223.683	1396.46
227.058	2129.78
230.433	2560.87
233.808	3390.24
237.182	4167.69
240.557	2705.92
243.932	1231.22
247.307	601.841
250.682	314.122
254.056	182.623
257.431	100.676
260.806	76.1627
264.181	90.5676
267.556	128.788
270.931	194.059
274.305	279.558
277.68	414.446
281.055	598.14
284.43	701.541
287.805	458.473
291.18	208.536
294.554	89.2142
297.929	48.3406
301.304	24.425
304.679	22.9091
308.054	25.9275
311.428	6.20013
314.803	7.94632
318.178	15.1743
321.553	19.3375
324.928	12.9182
328.302	9.47315
331.677	1.10349
335.052	10.0746
338.427	27.7688
341.802	59.1249
345.176	93.5303
348.551	144.159
351.926	216.901
355.301	331.582
358.676	445.193
362.051	362.811
365.425	217.851
368.8	158.905
372.175	150.014
375.55	167.251
378.925	211.449
382.3	306.413
385.674	454.206
389.049	460.505
392.424	285.663
395.799	217.416
399.174	236.566
402.548	297.387
405.923	389.008
409.298	503.599
412.673	628.344
416.048	690.991
419.422	591.304
422.797	401.099
426.172	237.248
429.547	131.971
432.922	60.9957
436.296	18.2693
439.671	7.35761
443.046	10.3594
446.421	2.34686
449.796	14.6089
453.171	60.9798
456.545	110.294
459.92	190.636
463.295	286.837
466.67	397.682
470.045	437.919
473.42	406.81
476.794	424.913
480.169	526.618
483.544	683.019
486.919	826.596
490.293	857.21
493.668	843.836
497.043	909.998
500.418	877.608
503.793	590.045
507.168	370.84
510.542	251.849
513.917	158.017
517.292	87.7903
520.667	53.9513
524.042	31.0691
527.417	15.7077
530.791	12.1405
534.166	9.32282
537.541	5.11255
540.916	2.27374
544.291	1.1077
547.665	8.84314
551.04	3.50915
554.415	0.492004
557.79	1.29962
561.165	2.62051
564.539	3.03677
567.914	1.92059
571.289	7.97504
574.664	5.6926
578.039	9.96001
581.413	9.60727
584.788	11.3258
588.163	13.1046
591.538	15.5136
594.913	12.0898
598.288	14.9822
601.662	22.7538
605.037	18.6454
608.412	11.4086
611.787	14.0226
615.162	11.8427
618.537	14.1336
621.911	14.0984
625.286	16.5333
628.661	20.9156
632.036	35.3767
635.41	59.5309
638.785	113.463
642.16	78.8174
645.535	51.9153
648.91	45.6131
652.285	49.9328
655.659	46.6649
659.034	46.3938
662.409	54.9742
665.784	58.6106
669.159	67.2873
672.534	61.0878
675.908	63.2227
679.283	56.5114
682.658	51.6968
686.033	56.6656
689.408	55.4107
692.782	61.0519
696.157	58.8767
699.532	67.0195
702.907	67.8238
706.282	66.0752
709.656	69.2569
713.031	74.6174
716.406	66.0485
719.781	70.6689
723.156	62.1971
726.53	58.2019
729.905	52.0153
733.28	55.6346
736.655	51.4905
740.03	33.7826
743.405	18.9005
746.779	13.5071
750.154	4.39212
753.529	2.92719
756.904	8.6626
760.279	16.7206
763.654	21.0139
767.028	27.1367
770.403	23.097
773.778	14.7693
777.153	5.54025
780.528	18.8212
783.902	48.5761
787.277	56.7597
790.652	56.2617
794.027	38.7676
797.402	37.5412
800.776	59.6843
804.151	117.103
807.526	214.938
810.901	259.732
814.276	224.2
817.65	328.233
821.025	673
824.4	1313.82
827.775	2264.98
831.15	4087.45
834.525	7071.3
837.899	7826.7
841.274	5760.32
844.649	5404.33
848.024	6820.24
851.399	8514.74
854.774	6572.05
858.148	3395.33
861.523	1927.71
864.898	1534.33
868.273	1720.87
871.648	2350.34
875.022	3466.53
878.397	4639.76
881.772	4100.86
885.147	2383.1
888.522	1262.76
891.896	728.359
895.271	480.699
898.646	370.585
902.021	358.091
905.396	399.729
908.77	439.883
912.145	424.197
915.52	340.021
918.895	219.612
922.27	113.779
925.645	54.0604
929.019	19.7139
932.394	5.61587
935.769	14.073
939.144	16.1915
942.519	22.2028
945.894	22.9429
949.268	19.8936
952.643	9.95947
956.018	5.65964
959.393	2.95024
962.768	8.47223
966.142	16.5914
969.517	21.1351
972.892	31.3626
976.267	37.7578
979.642	44.8724
983.016	54.0713
986.391	66.3893
989.766	72.7873
993.141	84.1716
996.516	84.3961
999.89	87.084
1003.26	91.4296
1006.64	92.1301
1010.01	87.0093
1013.39	87.2885
1016.76	78.7461
1020.14	69.3097
1023.51	59.9109
1026.89	59.6224
1030.26	53.137
1033.64	62.5397
1037.01	69.6283
1040.39	71.0794
1043.76	60.7937
1047.14	40.9949
1050.51	39.6836
1053.89	33.6466
1057.26	30.8703
1060.64	28.1585
1064.01	29.5223
1067.39	24.8696
1070.76	16.6491
1074.14	18.9496
1077.51	16.4115
1080.89	12.9049
1084.26	16.0263
1087.64	16.5598
1091.01	12.8203
1094.38	15.4842
1097.76	13.7788
1101.13	21.503
1104.51	37.1676
1107.88	62.757
1111.26	94.3413
1114.63	90.8172
1118.01	58.4424
1121.38	30.7118
1124.76	16.5817
1128.13	7.83412
1131.51	4.01465
1134.88	0.937866
1138.26	1.70712
1141.63	0.18309
1145.01	1.5905
1148.38	4.06078
1151.76	1.1221
1155.13	4.21802
1158.51	2.82002
1161.88	1.69217
1165.26	0.547043
1168.63	2.86176
1172.01	1.28311
1175.38	6.31146
1178.76	28.5571
1182.13	46.437
1185.51	58.793
1188.88	49.0356
1192.26	23.0139
1195.63	6.70215
1199.01	0.061264
1202.38	0.7901
1205.75	1.02345
1209.13	5.79771
1212.5	18.1468
1215.88	23.3024
1219.25	32.2224
1222.63	36.3899
1226	45.1191
1229.38	39.9556
1232.75	41.534
1236.13	31.1748
1239.5	28.5015
1242.88	25.8293
1246.25	27.9978
1249.63	21.1844
1253	21.3366
1256.38	15.2642
1259.75	12.6519
1263.13	4.06317
1266.5	0.375717
1269.88	3.43721
1273.25	1.79746
1276.62	3.16209
1280	4.20538
1283.38	5.32799
