Measurement: Raman, 532 nm, unoriented, Raman Data Processed
Mineral: Parasibirskite
Rruff sample: R110009
Ideal chemistry: CaHBO_3_
Locality: Synthetic
Source: Jin-Xiao Mi
Description: Loose aggregate of colorless tabular crystals, mixed with CaLiBO3 crystals (R110010)
Raman shift (cm-1)	intensity
176.852	0
179.745	5.29459
182.637	3.96884
185.53	2.6272
188.423	1.11264
191.315	1.00177
194.208	8.92609
197.101	1.0831
199.994	5.42337
202.886	6.56946
205.779	7.50244
208.672	0.090576
211.565	3.58121
214.457	10.1067
217.35	15.5561
220.243	6.50241
223.135	9.48096
226.028	6.2497
228.921	8.28519
231.813	6.74085
234.706	10.6273
237.599	16.0428
240.492	19.9446
243.384	37.7127
246.277	61.0697
249.17	89.1079
252.062	111.187
254.955	137.169
257.848	196.349
260.74	285.863
263.633	306.587
266.526	196.311
269.418	100.176
272.311	51.3451
275.204	31.4133
278.097	29.2911
280.989	28.0672
283.882	30.7574
286.775	23.4011
289.667	29.2712
292.56	24.6343
295.453	25.132
298.346	24.8851
301.238	20.6323
304.131	10.2868
307.024	5.85623
309.916	5.84082
312.809	5.19287
315.702	3.37802
318.594	5.36038
321.487	0.766296
324.38	0.47583
327.273	3.23755
330.165	0.117889
333.058	3.57046
335.951	2.69321
338.843	1.9686
341.736	3.12878
344.629	12.3741
347.522	6.28082
350.414	6.24945
353.307	16.0264
356.2	16.3029
359.092	14.8066
361.985	15.9059
364.878	16.3795
367.77	19.6811
370.663	12.9816
373.556	17.8254
376.449	12.3534
379.341	13.154
382.234	14.4757
385.127	15.3069
388.019	15.5463
390.912	12.0269
393.805	12.1209
396.697	10.9056
399.59	6.00809
402.483	9.75229
405.376	7.45129
408.268	5.66586
411.161	5.90756
414.054	3.02374
416.946	2.16092
419.839	4.46524
422.732	2.09592
425.625	4.76028
428.517	2.59927
431.41	5.65543
434.303	7.19684
437.195	2.16461
440.088	10.9078
442.981	8.61932
445.873	10.2243
448.766	4.98151
451.659	10.4099
454.551	10.9016
457.444	8.37729
460.337	4.94037
463.23	10.3543
466.122	12.136
469.015	10.1403
471.908	11.1521
474.8	7.5094
477.693	13.1522
480.586	13.9347
483.479	13.1075
486.371	9.89514
489.264	7.62003
492.157	5.59503
495.049	5.99347
497.942	4.09796
500.835	1.74197
503.728	1.85516
506.62	1.46262
509.513	0.483246
512.406	4.17606
515.298	0.640442
518.191	3.95303
521.084	0.828766
523.976	3.55826
526.869	9.00732
529.762	9.72311
532.654	13.1564
535.547	18.7469
538.44	23.9594
541.333	23.533
544.225	35.477
547.118	29.6464
550.011	38.4924
552.903	40.8673
555.796	40.7743
558.689	40.7636
561.582	37.3821
564.474	36.9603
567.367	39.646
570.26	41.8751
573.152	36.6409
576.045	38.7876
578.938	41.2239
581.83	38.2481
584.723	34.2617
587.616	29.3896
590.509	35.7159
593.401	33.3886
596.294	34.9365
599.187	36.1356
602.079	31.1494
604.972	22.2432
607.865	17.6994
610.758	11.8729
613.65	13.1559
616.543	9.74075
619.436	6.8036
622.328	2.85696
625.221	5.7755
628.114	4.89935
631.006	6.009
633.899	5.07118
636.792	10.5083
639.684	15.3986
642.577	13.1484
645.47	6.51024
648.363	5.07163
651.255	6.16064
654.148	7.87067
657.041	6.73348
659.933	12.0371
662.826	8.75964
665.719	5.49098
668.612	6.50819
671.504	5.9485
674.397	3.34329
677.29	4.76613
680.182	2.62273
683.075	3.25394
685.968	0.662537
688.861	0.086029
691.753	0.273193
694.646	0.701096
697.539	0.134781
700.431	2.50844
703.324	0.195572
706.217	3.44858
709.109	0.941635
712.002	0.169342
714.895	0.459213
717.788	1.52101
720.68	0.125671
723.573	1.24377
726.466	6.59369
729.358	3.31921
732.251	7.14076
735.144	11.1514
738.036	6.27264
740.929	10.5321
743.822	6.69222
746.715	8.35561
749.607	6.65204
752.5	10.2885
755.393	12.0019
758.285	14.8967
761.178	15.8108
764.071	15.6101
766.963	14.9292
769.856	17.9264
772.749	12.224
775.642	16.7406
778.534	15.4016
781.427	14.6016
784.32	14.5061
787.212	16.0212
790.105	13.8762
792.998	15.8989
795.89	24.3839
798.783	22.3575
801.676	30.6836
804.569	36.6785
807.461	46.5802
810.354	57.5888
813.247	55.8753
816.139	39.4896
819.032	23.1432
821.925	21.7477
824.818	18.2083
827.71	17.703
830.603	11.6151
833.496	10.8679
836.388	14.2121
839.281	11.3811
842.174	8.44553
845.067	7.22821
847.959	1.90718
850.852	5.76445
853.745	8.64761
856.637	1.59805
859.53	1.31334
862.423	3.96472
865.315	2.25656
868.208	1.42267
871.101	0.226349
873.994	1.71198
876.886	1.41835
879.779	2.30202
882.672	4.34601
885.564	1.87837
888.457	9.83212
891.35	13.3141
894.242	35.5161
897.135	76.8903
900.028	143.593
902.92	272.854
905.813	478.499
908.706	643.698
911.599	316.587
914.491	109.984
917.384	48.9705
920.277	29.3747
923.169	18.4401
926.062	11.1333
928.955	7.70818
931.847	5.6871
934.74	6.21233
937.633	3.15784
940.526	7.18434
943.418	1.21692
946.311	2.22867
949.204	6.51892
952.096	5.79756
954.989	5.45901
957.882	9.03465
960.775	6.48814
963.667	13.465
966.56	16.6644
969.453	10.9678
972.345	8.06602
975.238	11.5476
978.131	9.84668
981.024	12.4694
983.916	12.0631
986.809	13.4238
989.702	14.9858
992.594	15.4984
995.487	7.90385
998.38	6.62851
1001.27	8.44829
1004.16	4.42328
1007.06	3.127
1009.95	1.45569
1012.84	5.17839
1015.74	1.65888
1018.63	2.20821
1021.52	4.80475
1024.41	0.648697
1027.31	0.979828
1030.2	5.47873
1033.09	4.98231
1035.98	8.86548
1038.88	6.54239
1041.77	9.28049
1044.66	6.67946
1047.56	7.96365
1050.45	11.8314
1053.34	12.9548
1056.23	20.8969
1059.13	17.7927
1062.02	21.2588
1064.91	19.7181
1067.81	25.9266
1070.7	30.6444
1073.59	28.7973
1076.48	28.7099
1079.38	31.7593
1082.27	31.0759
1085.16	37.7386
1088.05	38.5118
1090.95	37.2811
1093.84	33.2269
1096.73	37.9044
1099.62	40.3219
1102.52	38.7549
1105.41	36.6446
1108.3	39.9087
1111.19	46.5803
1114.09	47.4119
1116.98	40.3041
1119.87	34.5608
1122.77	31.0084
1125.66	26.2945
1128.55	23.6817
1131.44	18.7723
1134.34	16.3252
1137.23	14.9542
1140.12	9.56564
1143.02	9.10167
1145.91	10.1486
1148.8	14.0463
1151.69	11.9973
1154.59	15.6344
1157.48	10.3658
1160.37	8.80392
1163.26	9.08404
1166.16	3.73022
1169.05	2.13236
1171.94	4.35912
1174.84	0.166733
1177.73	2.0164
1180.62	7.97964
1183.51	10.0439
1186.4	10.4517
1189.3	9.86287
1192.19	3.54361
1195.08	0.386536
1197.98	1.17517
1200.87	0.423615
1203.76	1.00943
1206.65	5.00386
1209.55	0.142105
1212.44	1.80608
1215.33	1.89459
1218.22	0.226181
1221.12	0.120636
1224.01	7.9492
1226.9	10.6747
1229.8	7.95589
1232.69	11.8894
1235.58	16.0832
1238.47	19.3694
1241.37	28.7789
1244.26	35.5184
1247.15	41.189
1250.05	45.2244
1252.94	47.0674
1255.83	40.9855
1258.72	37.4299
1261.62	36.3168
1264.51	43.3062
1267.4	47.647
1270.29	54.806
1273.19	66.6584
1276.08	73.4847
1278.97	74.9973
1281.87	58.2311
1284.76	37.1611
1287.65	21.6685
1290.54	13.8897
1293.43	7.93025
1296.33	0.468857
1299.22	1.66718
1302.11	0.044113
