Measurement: Raman, 780 nm, unoriented, Raman Data Processed
Mineral: Pararealgar
Rruff sample: R150123
Ideal chemistry: AsS
Locality: U.S. Borax mine, Kramer Borate deposit, Boron, California, USA
Source: Michael Scott S106210
Description: Yellowish-orange granular, within a rind of realgar
Raman shift (cm-1)	intensity
107.47	0
110.845	131.259
114.219	1121.48
117.594	2809.5
120.969	1510.58
124.344	154.167
127.719	89.1055
131.094	166.031
134.468	1299.94
137.843	1364.73
141.218	2816.56
144.593	2360.95
147.968	1345.37
151.342	3092.1
154.717	4334.56
158.092	2240.15
161.467	373.778
164.842	1017.96
168.216	2394.22
171.591	5058.81
174.966	5451.23
178.341	3944.17
181.716	3173.97
185.09	4823.38
188.465	5737.74
191.84	6434.61
195.215	6002.64
198.59	6194.09
201.965	5951.31
205.339	5444.47
208.714	2446.28
212.089	4048.16
215.464	6044.24
218.839	8082.66
222.214	10174.3
225.588	11738
228.963	18972.3
232.338	24118.5
235.713	17400.3
239.088	10561
242.462	2090.36
245.837	300.434
249.212	147.338
252.587	284.401
255.962	140.006
259.336	49.165
262.711	225.892
266.086	641.977
269.461	1672.97
272.836	3747.17
276.211	3720.26
279.585	568.577
282.96	53.4482
286.335	23.2178
289.71	162.75
293.085	359.512
296.459	705.591
299.834	1167.47
303.209	1864.09
306.584	2577.18
309.959	3381.41
313.334	4586.91
316.708	5745.23
320.083	6567.49
323.458	7292.67
326.833	8951.09
330.207	12451.7
333.582	15065.2
336.957	14652.9
340.332	14972.6
343.707	15860.2
347.082	15456.8
350.456	11405.2
353.831	7656.13
357.206	6225.47
360.581	6095.08
363.956	6682.58
367.33	5297.57
370.705	4212.12
374.08	3030.35
377.455	2008.81
380.83	1598.6
384.205	1405.64
387.579	1112.85
390.954	599.947
394.329	303.652
397.704	85.8047
401.079	8.78125
404.453	13.2881
407.828	53.9268
411.203	49.9492
414.578	69.2881
417.953	64.3262
421.327	7.68066
424.702	1.83984
428.077	1.95703
431.452	28.5742
434.827	21.4043
438.202	24.9814
441.576	42.0303
444.951	70.416
448.326	85.0801
451.701	124.935
455.076	136.406
458.45	162.262
461.825	167.361
465.2	180.681
468.575	198.452
471.95	173.283
475.325	113.245
478.699	88.4346
482.074	99.2519
485.449	84.0498
488.824	111.91
492.199	69.1182
495.573	78.0371
498.948	73.4795
502.323	47.0078
505.698	29.8906
509.073	42.0752
512.447	66.874
515.822	52.4277
519.197	48.294
522.572	39.8291
525.947	30.6221
529.322	28.1973
532.696	2.18359
536.071	24.917
539.446	23.333
542.821	16.2568
546.196	13.2246
549.57	30.8066
552.945	6.26465
556.32	15.4395
559.695	41.4805
563.07	42.0986
566.444	23.9766
569.819	35.9473
573.194	30.1084
576.569	34.6719
579.944	4.27051
583.319	2.30078
586.693	6.82031
590.068	2.11816
593.443	9.80371
596.818	28.9893
600.193	3.8584
603.567	30.373
606.942	3.97461
610.317	19.2412
613.692	23.0332
617.067	14.6572
620.442	24.6777
623.816	28.001
627.191	14.6904
630.566	30.3301
633.941	5.61133
637.316	32.2891
640.69	34.4639
644.065	36.0498
647.44	8.20801
650.815	12.7856
654.19	1.75684
657.564	0.42041
660.939	29.2168
664.314	9.97705
667.689	21.646
671.064	30.7114
674.439	19.6948
677.813	13.3662
681.188	9.29541
684.563	36.9058
687.938	38.8877
691.313	37.668
694.688	14.6855
698.062	25.9477
701.437	26.5557
704.812	14.1421
708.187	47.2827
711.562	36.9492
714.936	44.9194
718.311	46.2827
721.686	30.5102
725.061	16.082
728.436	22.3066
731.81	44.8706
735.185	45.3394
738.56	46.7866
741.935	39.7461
745.31	28.0972
748.684	36.873
752.059	17.7764
755.434	21.5161
758.809	11.147
762.184	11.1372
765.559	10.9951
768.933	20.0513
772.308	26.8975
775.683	13.1021
779.058	20.9204
782.433	5.29834
785.808	0.964844
789.182	4.81006
792.557	6.10205
795.932	20.3227
799.307	27.2651
802.682	25.6997
806.056	52.5635
809.431	42.1597
812.806	18.5523
816.181	27.4536
819.556	33.3887
822.93	48.4155
826.305	44.7446
829.68	44.1938
833.055	34.1963
836.43	19.2964
839.804	33.0855
843.179	15.3227
846.554	33.7637
849.929	34.3892
853.304	25.897
856.679	39.8599
860.053	30.4766
863.428	11.9815
866.803	15.938
870.178	9.12354
873.553	11.1768
876.927	32.8477
880.302	3.31787
883.677	9.33594
887.052	18.0732
890.427	1.32959
893.802	25.8745
897.176	9.30762
900.551	21.1743
903.926	13.0156
907.301	18.3857
910.676	1.26904
914.05	13.5869
917.425	34.3149
920.8	37.4937
924.175	11.1338
927.55	15.0947
930.924	2.32519
934.299	24.0913
937.674	37.5049
941.049	25.8066
944.424	28.7705
947.799	1.59766
951.173	32.6299
954.548	12.0942
957.923	11.0605
961.298	29.04
964.673	5.81299
968.047	21.0737
971.422	1.43652
974.797	8.92529
978.172	11.5039
981.547	11.3877
984.922	11.0225
988.296	12.457
991.671	5.24121
995.046	31.8667
998.421	36.729
1001.8	19.499
1005.17	13.4946
1008.54	26.0454
1011.92	27.3149
1015.29	34.6065
1018.67	1.92383
1022.04	7.93164
1025.42	30.9717
1028.79	22.1773
1032.17	27.9468
1035.54	42.7803
1038.92	39.0088
1042.29	31.5776
1045.67	14.3276
1049.04	39.5273
1052.42	28.7451
1055.79	25.4204
1059.17	24.9038
1062.54	32.1245
1065.92	32.4228
1069.29	25.1773
1072.67	20.8325
1076.04	32.77
1079.42	26.8081
1082.79	13.5
1086.17	2.61231
1089.54	26.5356
1092.92	17.0151
1096.29	1.60449
1099.66	8.43018
1103.04	19.3975
1106.41	21.0322
1109.79	25.6396
1113.16	14.3442
1116.54	3.71094
1119.91	8.00098
1123.29	3.25928
1126.66	10.0576
1130.04	10.626
1133.41	13.0259
1136.79	18.4004
1140.16	43.9995
1143.54	30.8506
1146.91	34.356
1150.29	21.604
1153.66	40.7363
1157.04	16.0186
1160.41	18.0454
1163.79	16.7564
1167.16	35.7607
1170.54	33.5366
1173.91	40.4307
1177.29	36.8828
1180.66	50.956
1184.04	26.2275
1187.41	34.5352
1190.79	45.9434
1194.16	36.8174
1197.54	25.3227
1200.91	53.5156
1204.28	32.2329
1207.66	24.3599
1211.03	28.9814
1214.41	27.8765
1217.78	21.5142
1221.16	19.9238
1224.53	19.2842
1227.91	24.4053
1231.28	27.5225
1234.66	27.8281
1238.03	7.54004
1241.41	19.0342
1244.78	3.33887
1248.16	5.5415
1251.53	19.9092
1254.91	20.0435
1258.28	22.7539
1261.66	31.9497
1265.03	37.2529
1268.41	27.2061
1271.78	1.88818
1275.16	10.0762
1278.53	5.69727
1281.9	23.9936
