Measurement: Raman, 532 nm, unoriented, Raman Data Processed
Mineral: Paravauxite
Rruff sample: R050314
Ideal chemistry: Fe^2+^Al_2_(PO_4_)_2_(OH)_2_8H_2_O
Locality: Siglo XX mine, Llallagua, Bolivia
Source: Eugene Schlepp
Description: Pale green prismatic crystals
Measured chemistry: (Fe^2+^_0.93_Mg_0.07_)_Σ=1_Al_2.00_(P_1.00_O_4_)_2_(OH)_2_·8H_2_O
Raman shift (cm-1)	intensity
126.584	0
129.476	25.3513
132.369	62.6054
135.262	75.7506
138.155	69.8733
141.047	54.0011
143.94	49.0637
146.833	39.562
149.725	22.9226
152.618	13.8043
155.511	1.25018
158.404	6.51089
161.296	5.41861
164.189	1.76535
167.082	2.98758
169.974	11.6459
172.867	11.0394
175.76	26.3054
178.652	31.9182
181.545	32.2562
184.438	35.5446
187.331	45.0371
190.223	55.3621
193.116	78.2672
196.009	111.2
198.901	86.3567
201.794	56.531
204.687	40.343
207.579	42.2952
210.472	52.463
213.365	62.7917
216.257	75.8715
219.15	93.3849
222.043	119.014
224.936	155.872
227.828	211.178
230.721	288.507
233.614	349.35
236.506	336.93
239.399	246.297
242.292	151.788
245.185	87.0463
248.077	43.5938
250.97	21.6053
253.863	8.90762
256.755	3.84329
259.648	7.87186
262.541	13.1057
265.433	26.2642
268.326	49.9011
271.219	81.4697
274.111	116.225
277.004	161.681
279.897	205.914
282.79	219.134
285.682	181.466
288.575	148.894
291.468	132.918
294.36	126.655
297.253	111.22
300.146	87.9574
303.038	63.3901
305.931	43.0677
308.824	26.039
311.717	14.4912
314.609	8.76727
317.502	9.58231
320.395	5.46652
323.287	2.65634
326.18	3.64032
329.073	7.4949
331.966	5.74618
334.858	1.77035
337.751	0.35379
340.644	2.66065
343.536	8.87631
346.429	8.26157
349.322	5.03305
352.214	1.78897
355.107	1.86191
358	12.9957
360.892	25.9688
363.785	45.7751
366.678	63.6121
369.571	88.6664
372.463	105.47
375.356	125.657
378.249	130.887
381.141	123.955
384.034	107.14
386.927	93.507
389.82	83.8534
392.712	86.7414
395.605	87.7932
398.498	110.616
401.39	134.501
404.283	148.168
407.176	141.649
410.068	124.017
412.961	113.378
415.854	118.736
418.747	143.783
421.639	179.178
424.532	228.624
427.425	285.225
430.317	329.756
433.21	308.677
436.103	223.907
438.995	136.861
441.888	74.5461
444.781	39.1145
447.673	24.162
450.566	24.2781
453.459	31.6438
456.352	39.1886
459.244	60.464
462.137	79.9092
465.03	101.867
467.922	115.495
470.815	130.186
473.708	136.52
476.601	136.052
479.493	122.014
482.386	103.246
485.279	81.4291
488.171	59.7624
491.064	42.9862
493.957	26.0297
496.849	13.2191
499.742	2.78635
502.635	2.0221
505.527	7.99106
508.42	10.4937
511.313	9.36581
514.206	3.78824
517.098	4.01056
519.991	16.1824
522.884	27.8395
525.776	44.4624
528.669	64.4449
531.562	82.8394
534.455	99.5719
537.347	113.53
540.24	119.028
543.133	117.215
546.025	115.056
548.918	104.925
551.811	105.994
554.703	105.585
557.596	119.323
560.489	146.425
563.381	181.755
566.274	235.912
569.167	291.843
572.06	361.904
574.952	428.995
577.845	473.706
580.738	479.919
583.63	460.012
586.523	419.006
589.416	373.591
592.308	321.868
595.201	270.051
598.094	222.28
600.987	180.026
603.879	140.47
606.772	108.178
609.665	78.3968
612.557	56.9258
615.45	39.0194
618.343	26.4726
621.236	19.3377
624.128	16.2446
627.021	17.2193
629.914	18.5881
632.806	26.5177
635.699	27.9917
638.592	34.6678
641.484	34.8614
644.377	30.9639
647.27	35.0529
650.163	25.7627
653.055	17.8666
655.948	9.8158
658.841	6.4061
661.733	4.82568
664.626	0.14801
667.519	3.80405
670.411	3.94467
673.304	5.00818
676.197	3.27615
679.09	3.26151
681.982	1.14429
684.875	1.20373
687.768	2.58597
690.66	1.03043
693.553	6.53113
696.446	4.76343
699.338	7.53201
702.231	5.55347
705.124	11.4844
708.016	12.963
710.909	12.7007
713.802	14.6543
716.695	14.8775
719.587	17.326
722.48	17.3607
725.373	19.2832
728.265	16.9121
731.158	17.6592
734.051	15.1752
736.943	14.0936
739.836	18.2843
742.729	13.0345
745.622	11.4465
748.514	11.5847
751.407	10.34
754.3	11.5699
757.192	7.31808
760.085	7.76089
762.978	7.5759
765.87	4.41858
768.763	6.15799
771.656	3.58148
774.549	4.64584
777.441	2.20166
780.334	1.5238
783.227	1.7771
786.119	1.81692
789.012	3.80038
791.905	1.57285
794.798	1.84357
797.69	2.26196
800.583	1.88605
803.476	3.98822
806.368	4.53516
809.261	4.35822
812.154	2.61758
815.046	4.77445
817.939	1.38431
820.832	3.81049
823.725	4.30475
826.617	2.12381
829.51	4.89862
832.403	6.37863
835.295	5.74832
838.188	6.76013
841.081	6.23529
843.973	6.09384
846.866	6.38825
849.759	4.57156
852.652	5.03485
855.544	4.26923
858.437	5.32339
861.33	4.66736
864.222	4.69067
867.115	2.53836
870.008	3.3057
872.9	3.75177
875.793	2.03317
878.686	0.986328
881.578	5.8515
884.471	1.35733
887.364	0.351044
890.257	0.676605
893.149	1.61713
896.042	0.840454
898.935	0.642914
901.827	1.53122
904.72	3.44013
907.613	2.31586
910.505	1.1376
913.398	2.22775
916.291	2.07233
919.184	5.49362
922.076	9.91635
924.969	10.2961
927.862	13.6994
930.754	18.674
933.647	19.9836
936.54	21.7715
939.433	24.6395
942.325	27.6384
945.218	27.2519
948.111	32.9993
951.003	37.9137
953.896	45.991
956.789	56.5703
959.681	64.1215
962.574	84.525
965.467	107.032
968.36	142.794
971.252	196.555
974.145	280.038
977.038	411.107
979.93	604.899
982.823	868.427
985.716	1204.5
988.608	1557.81
991.501	1668.44
994.394	1422.75
997.287	1088.48
1000.18	784.904
1003.07	522.5
1005.97	326.621
1008.86	205.596
1011.75	132.355
1014.64	85.8599
1017.53	52.4073
1020.43	32.2815
1023.32	15.6559
1026.21	10.1256
1029.11	2.99368
1032	2.46811
1034.89	3.22284
1037.78	6.36151
1040.68	11.3503
1043.57	18.6901
1046.46	31.9934
1049.36	51.5443
1052.25	76.7968
1055.14	100.37
1058.03	106.938
1060.93	90.7635
1063.82	55.9691
1066.71	31.7502
1069.6	16.2671
1072.5	5.56903
1075.39	1.20062
1078.28	0.244812
1081.17	3.89514
1084.07	3.28561
1086.96	1.90158
1089.85	2.48669
1092.75	1.36978
1095.64	3.89554
1098.53	5.02783
1101.42	5.8605
1104.32	5.36444
1107.21	5.4454
1110.1	2.06723
1112.99	3.90369
1115.89	4.72012
1118.78	8.93249
1121.67	8.26389
1124.57	9.41708
1127.46	11.4763
1130.35	16.0667
1133.24	18.5504
1136.14	21.3781
1139.03	28.8913
1141.92	30.2067
1144.81	36.6187
1147.71	46.6446
1150.6	57.2675
1153.49	71.2429
1156.38	84.8654
1159.28	105.345
1162.17	122.012
1165.06	134.79
1167.96	128.487
1170.85	111.226
1173.74	85.5309
1176.63	65.6113
1179.53	45.4699
1182.42	33.318
1185.31	22.1856
1188.2	15.8579
1191.1	12.7404
1193.99	8.47833
1196.88	3.5506
1199.78	3.23569
1202.67	2.99735
1205.56	0.317902
1208.45	3.4025
1211.35	1.76547
1214.24	1.97736
1217.13	1.43332
1220.02	1.90451
1222.92	2.8454
1225.81	1.04086
1228.7	3.00247
1231.6	3.04837
1234.49	2.56165
1237.38	3.35638
1240.27	3.49622
1243.17	1.91852
1246.06	4.26892
1248.95	0.28418
1251.84	3.99933
1254.74	2.5437
1257.63	4.18405
1260.52	0.71994
1263.41	3.59695
1266.31	2.68268
1269.2	2.65131
1272.09	1.07294
1274.99	4.23352
1277.88	0.03949
