Measurement: Raman, 785 nm, unoriented, Raman Data Processed
Mineral: Paragonite
Rruff sample: R050447
Ideal chemistry: NaAl_2_(Si_3_Al)O_10_(OH)_2_
Locality: Switzerland
Source: Marcus Origlieri
Description: White massive
Measured chemistry: (Na_0.81_K_0.17_Ca_0.02_)Al_2.00_(Si_2.98_Al_0.02_)O_10_(OH)_2_
Raman shift (cm-1)	intensity
178.9	0
181.793	19.502
184.685	168.426
187.578	392.486
190.471	815.68
193.363	1403.37
196.256	2032.79
199.149	2259.08
202.042	1643.89
204.934	967.18
207.827	529.083
210.72	692.737
213.612	712.926
216.505	709.747
219.398	613.881
222.291	434.335
225.183	370.907
228.076	127.711
230.969	211.938
233.861	358.654
236.754	463.38
239.647	432.381
242.539	503.122
245.432	607.277
248.325	837.912
251.218	1359.64
254.11	2194.32
257.003	3451.78
259.896	4976.76
262.788	6326
265.681	6647.64
268.574	6088.52
271.466	4985.69
274.359	3741.04
277.252	2783.01
280.144	1963.74
283.037	1447.9
285.93	1066.88
288.823	758.746
291.715	400.515
294.608	337.586
297.501	292.6
300.393	325.431
303.286	372.533
306.179	390.33
309.072	345.421
311.964	131.983
314.857	52.9072
317.75	27.8389
320.642	17.5479
323.535	73.5752
326.428	185.811
329.32	168.648
332.213	92.2656
335.106	18.4258
337.998	52.6504
340.891	101.513
343.784	9.93164
346.677	29.999
349.569	58.7412
352.462	146.236
355.355	167.001
358.247	84.0176
361.14	127.394
364.033	165.256
366.925	341.141
369.818	477.742
372.711	629.346
375.604	924.213
378.496	1068.83
381.389	1137.34
384.282	1044.62
387.174	1198.16
390.067	1275.13
392.96	1521.5
395.853	1518.52
398.745	1730.57
401.638	1736.45
404.531	1737.69
407.423	1649.49
410.316	1546.79
413.209	1382.53
416.101	1146.02
418.994	940.973
421.887	751.77
424.779	622.952
427.672	578.513
430.565	398.832
433.458	371.962
436.35	372.269
439.243	255.766
442.136	245.677
445.028	170.633
447.921	122.897
450.814	31.4961
453.707	27.8828
456.599	29.9863
459.492	24.6445
462.385	20.6074
465.277	59.1318
468.17	12.0332
471.063	25.1992
473.955	43.5312
476.848	0.878906
479.741	9.18652
482.634	60.0723
485.526	162.248
488.419	256.272
491.312	216.777
494.204	200.808
497.097	127.721
499.99	46.2998
502.882	77.04
505.775	50.9502
508.668	100.136
511.56	136.258
514.453	84.1836
517.346	203.532
520.239	35.8799
523.131	142.88
526.024	106.504
528.917	126.235
531.809	135.118
534.702	225.898
537.595	221.659
540.487	263.669
543.38	139.878
546.273	157.441
549.166	161.671
552.058	95.5566
554.951	115.949
557.844	149.783
560.736	3.59277
563.629	99.7012
566.522	97.6426
569.414	10.6611
572.307	13.0029
575.2	46.874
578.093	99.9863
580.985	13.7676
583.878	72.5537
586.771	37.4307
589.663	44.5088
592.556	39.1562
595.449	105.399
598.341	135.408
601.234	111.821
604.127	173.387
607.019	237.876
609.912	262.553
612.805	324.381
615.698	384.819
618.59	449.756
621.483	438.106
624.376	572.308
627.268	698.813
630.161	790.441
633.054	807.523
635.947	816.388
638.839	910.004
641.732	778.128
644.625	506.556
647.517	428.404
650.41	310.429
653.303	212.503
656.195	241.665
659.088	109.698
661.981	20.8115
664.874	46.6484
667.766	4.56836
670.659	86.3906
673.552	88.1055
676.444	120.722
679.337	218.939
682.23	312.281
685.122	486.302
688.015	677.215
690.908	915.776
693.801	1256.24
696.693	1650.65
699.586	1866.2
702.479	1943.62
705.371	1799.18
708.264	1388.85
711.157	1021.61
714.049	712.916
716.942	434.301
719.835	255.871
722.727	134.506
725.62	12.9727
728.513	16.8223
731.406	43.876
734.298	37.9815
737.191	155.694
740.084	324.196
742.976	397.503
745.869	551.856
748.762	697.93
751.654	559.176
754.547	479.515
757.44	313.484
760.333	282.708
763.225	292.207
766.118	227.234
769.011	210.311
771.903	177.548
774.796	66.9228
777.689	121.763
780.582	4.52539
783.474	56.1631
786.367	158.876
789.26	51.084
792.152	53.9619
795.045	90.3867
797.938	173.808
800.83	147.352
803.723	200.219
806.616	261.029
809.509	152.78
812.401	163.23
815.294	228.266
818.187	192.148
821.079	158.127
823.972	124.823
826.865	82.3027
829.757	48.7207
832.65	119.294
835.543	61.6103
838.436	57.3525
841.328	15.8291
844.221	12.0185
847.114	55.5977
850.006	35.5801
852.899	62.3252
855.792	49.7978
858.684	9.0293
861.577	41.9453
864.47	15.8066
867.362	44.1309
870.255	2.27441
873.148	119.736
876.041	55.9346
878.933	66.2481
881.826	30.5605
884.719	38.8994
887.611	53.7588
890.504	61.5527
893.397	37.0615
896.29	52.2637
899.182	49.4473
902.075	58.8232
904.968	115.731
907.86	180.981
910.753	219.243
913.646	284.328
916.538	247.237
919.431	152.731
922.324	148.163
925.216	31.9619
928.109	68.3662
931.002	105.131
933.895	117.862
936.787	35.1904
939.68	0.522461
942.573	67.8242
945.465	54.1728
948.358	42.8535
951.251	78.125
954.144	230.783
957.036	120.988
959.929	232.711
962.822	183.129
965.714	131.855
968.607	139.454
971.5	45.3301
974.392	14.9404
977.285	105.047
980.178	38.3018
983.071	17.8975
985.963	76.2969
988.856	62.7441
991.749	35.1943
994.641	36.542
997.534	94.3057
1000.43	49.7812
1003.32	59.5859
1006.21	64.4971
1009.11	65.583
1012	61.3057
1014.89	26.8242
1017.78	16.4717
1020.68	36.3164
1023.57	101.198
1026.46	19.7412
1029.35	164.984
1032.25	140.663
1035.14	162.079
1038.03	180.231
1040.92	221.644
1043.82	216.805
1046.71	313.852
1049.6	337.67
1052.49	347.679
1055.39	309.69
1058.28	285.294
1061.17	338.069
1064.07	266.054
1066.96	291.28
1069.85	230.19
1072.74	215.075
1075.64	170.364
1078.53	159.359
1081.42	126.665
1084.32	149.753
1087.21	41.3027
1090.1	144.117
1092.99	135.22
1095.89	132.728
1098.78	133.251
1101.67	104.804
1104.56	71.8496
1107.46	73.3203
1110.35	3.84375
1113.24	63.1846
1116.13	55.4502
1119.03	10.6641
1121.92	42.6455
1124.81	33.5176
1127.7	55.6182
1130.6	53.4766
1133.49	6.51172
1136.38	69.1992
1139.28	9.07617
1142.17	5.4834
1145.06	8.69629
1147.95	10.1113
1150.85	9.92676
1153.74	13.7315
1156.63	79.5156
1159.53	62.5986
1162.42	84.1357
1165.31	31.4541
1168.2	135.682
1171.1	76.9297
1173.99	47.2734
1176.88	6.65918
1179.77	13.9834
1182.67	102.029
1185.56	62.9688
1188.45	23.4482
1191.35	82.2842
1194.24	6.3584
1197.13	41.6309
1200.02	109.274
1202.92	68.8438
1205.81	9.64551
1208.7	110.409
1211.59	74.5469
1214.49	23.6143
1217.38	169.648
1220.27	81.4824
1223.16	38.9707
1226.06	57.9932
1228.95	89.9893
1231.84	94.6309
1234.73	120.593
1237.63	44.1963
1240.52	45.5185
1243.41	61.9971
1246.31	54.9863
1249.2	34.5938
1252.09	71.1133
1254.98	37.3047
1257.88	30.5371
1260.77	63.3945
1263.66	70.71
1266.56	11.3916
1269.45	6.41504
