Measurement: Raman, 532 nm, unoriented, Raman Data Processed
Mineral: Paravauxite
Rruff sample: R040179
Ideal chemistry: Fe^2+^Al_2_(PO_4_)_2_(OH)_2_8H_2_O
Locality: Mina Siglo XX, Llallagua, Bolivia
Source: University of Arizona Mineral Museum
Description: Colorless short prismatic crystals in subparallel groups
Measured chemistry: (Fe_0.93_Mg_0.03_Mn_0.02_)Al_1.94_(P_2.05_O_4_)_2_((OH)_0.99_F_0.01_)_2_Â·8H_2_O
Raman shift (cm-1)	intensity
148.698	0
151.59	59.2886
154.483	105.933
157.376	120.446
160.268	53.2852
163.161	26.8374
166.054	59.3433
168.946	88.0767
171.839	279.795
174.732	425.206
177.625	464.092
180.517	484.742
183.41	480.805
186.303	597.269
189.195	727.056
192.088	843.134
194.981	1206.6
197.874	1287.55
200.766	839.954
203.659	689.293
206.552	678.749
209.444	711.229
212.337	850.08
215.23	744.841
218.122	786.656
221.015	767.249
223.908	1035.87
226.8	1539.65
229.693	2117.76
232.586	2746.8
235.479	3058.85
238.371	2342.62
241.264	1472.58
244.157	764.233
247.049	392.842
249.942	194.038
252.835	96.96
255.727	7.59668
258.62	35.6514
261.513	147.564
264.406	307.555
267.298	512.254
270.191	849.554
273.084	1336.63
275.976	2045.69
278.869	2725.89
281.762	3157.09
284.655	2744.33
287.547	2031.96
290.44	1538.03
293.333	1175.34
296.225	994.953
299.118	762.284
302.011	510.394
304.904	303.325
307.796	202.76
310.689	75.1709
313.582	17.2031
316.474	9.62207
319.367	38.4853
322.26	3.79883
325.152	71.3096
328.045	76.6924
330.938	78.0684
333.83	68.8916
336.723	57.8027
339.616	52.1738
342.509	0.379883
345.401	34.8935
348.294	9.17676
351.187	34.6377
354.079	32.5732
356.972	51.6484
359.865	125.601
362.757	219.866
365.65	364.815
368.543	633.039
371.436	724.197
374.328	875.856
377.221	913.987
380.114	980.947
383.006	850.343
385.899	685.227
388.792	621.28
391.685	617.769
394.577	878.498
397.47	1161.79
400.363	1614.84
403.255	2134.59
406.148	2227.33
409.041	1863.92
411.933	1536.93
414.826	1525.6
417.719	1798.32
420.611	2302.39
423.504	3077.03
426.397	4194.7
429.29	5206.16
432.182	5561.86
435.075	4682.6
437.968	3144.92
440.86	2049.37
443.753	1280.82
446.646	752.286
449.538	519.412
452.431	385.179
455.324	301.237
458.217	322.237
461.109	350.427
464.002	330.399
466.895	427.487
469.787	488.55
472.68	470.825
475.573	430.397
478.466	431.247
481.358	338.022
484.251	229.201
487.144	159.096
490.036	3.16309
492.929	14.2842
495.822	14.8164
498.714	125.602
501.607	164.672
504.5	54.2539
507.393	48.2568
510.285	55.0518
513.178	40.4365
516.071	6.01269
518.963	148.787
521.856	244.004
524.749	302.079
527.641	377.185
530.534	514.661
533.427	735.896
536.32	773.699
539.212	809.041
542.105	880.779
544.998	783.254
547.89	758.458
550.783	765.206
553.676	796.622
556.568	874.495
559.461	1074.49
562.354	1500.98
565.247	1634.83
568.139	2026.92
571.032	2402.97
573.925	2781.1
576.817	3141.57
579.71	3396.28
582.603	3520.69
585.495	3426.91
588.388	3182.09
591.281	2842.26
594.174	2615.25
597.066	2417.45
599.959	2183.37
602.852	1732.04
605.744	1536.3
608.637	1291.2
611.53	1043.97
614.423	808.807
617.315	717.171
620.208	530.477
623.101	423.903
625.993	417.491
628.886	379.228
631.779	494.142
634.671	455.944
637.564	479.844
640.457	534.246
643.35	556.018
646.242	459.335
649.135	460.055
652.028	329.646
654.92	300.039
657.813	187.133
660.706	137.712
663.598	105.399
666.491	3.63769
669.384	1.82617
672.277	3.5625
675.169	46.2393
678.062	78.2803
680.955	37.3633
683.847	54.5117
686.74	34.2549
689.633	61.8096
692.525	138.781
695.418	9.49902
698.311	34.7529
701.204	75.5312
704.096	129.464
706.989	31.9912
709.882	164.334
712.774	167.107
715.667	205.17
718.56	153.782
721.452	209.003
724.345	209.713
727.238	232.415
730.131	217.822
733.023	218.703
735.916	219.461
738.809	136.064
741.701	220.417
744.594	282.285
747.487	172.74
750.38	104.457
753.272	127.66
756.165	163.925
759.058	110.263
761.95	42.1387
764.843	111.778
767.736	131.766
770.628	27.1611
773.521	24.8682
776.414	94.4824
779.307	104.24
782.199	76.8379
785.092	40.9932
787.985	89.6885
790.877	58.1182
793.77	33.377
796.663	129.539
799.555	89.9277
802.448	15.0244
805.341	68.8731
808.234	76.6699
811.126	79.5811
814.019	143.07
816.912	127.673
819.804	75.1318
822.697	166.407
825.59	45.9404
828.482	125.622
831.375	184.036
834.268	66.5859
837.16	114.718
840.053	68.5293
842.946	70.2539
845.839	170.99
848.731	40.0859
851.624	18.1904
854.517	7.11621
857.409	79.9922
860.302	44.6953
863.195	60.1309
866.087	163.882
868.98	60.5742
871.873	49.4033
874.766	16.7998
877.658	85.707
880.551	5.55273
883.444	30.1611
886.337	2.39551
889.229	77.2246
892.122	35.3994
895.015	69.5977
897.907	1.32812
900.8	94.6787
903.693	34.9326
906.585	29.4697
909.478	9.31543
912.371	52.8242
915.264	72.3467
918.156	17.6074
921.049	135.571
923.942	192.639
926.834	162.475
929.727	193.375
932.62	268.248
935.512	271.3
938.405	240.065
941.298	361.704
944.191	398.754
947.083	365.295
949.976	429.17
952.869	496.065
955.761	590.365
958.654	635.389
961.547	874.539
964.439	1018.85
967.332	1285.79
970.225	1789.07
973.117	2476.3
976.01	3557.1
978.903	5200.91
981.796	7934.27
984.688	11536.8
987.581	15661.2
990.474	17871.6
993.366	15716.3
996.259	11695.1
999.152	8442.18
1002.04	5663.72
1004.94	3594.48
1007.83	2212.18
1010.72	1396.36
1013.62	936.111
1016.51	505.266
1019.4	331.301
1022.29	270.139
1025.19	146.486
1028.08	114.832
1030.97	87.7148
1033.86	22.0234
1036.76	52.252
1039.65	17.9219
1042.54	18.8418
1045.43	236.338
1048.33	293.092
1051.22	435.262
1054.11	677.998
1057.01	740.619
1059.9	760.422
1062.79	328.394
1065.68	235.07
1068.58	26.625
1071.47	60.7324
1074.36	36.0371
1077.26	57.5195
1080.15	31.748
1083.04	60.7969
1085.93	60.373
1088.83	77.2246
1091.72	150.644
1094.61	101.561
1097.5	136.816
1100.4	209.022
1103.29	284.135
1106.18	148.197
1109.07	163.875
1111.97	95.1152
1114.86	163.685
1117.75	151.096
1120.64	76.8555
1123.54	102.272
1126.43	221.664
1129.32	208.283
1132.22	177.182
1135.11	194.107
1138	204.158
1140.89	291.852
1143.79	278.055
1146.68	329.242
1149.57	401.244
1152.46	534.062
1155.36	626.854
1158.25	1027.99
1161.14	1034.52
1164.04	1169.98
1166.93	1260.57
1169.82	1032.41
1172.71	802.367
1175.61	665.67
1178.5	431.42
1181.39	268.789
1184.29	299.111
1187.18	233.383
1190.07	180.248
1192.96	188.598
1195.86	47.5059
1198.75	31.2285
1201.64	17.3105
1204.53	108.135
1207.43	46.3418
1210.32	83.9981
1213.21	92.5723
1216.1	87.3555
1219	170.943
1221.89	71.5391
1224.78	18.7969
1227.67	28.2266
1230.57	33.3555
1233.46	22.7227
1236.35	49.8477
1239.25	94.6113
1242.14	95.7402
1245.03	72.7305
1247.92	130.775
1250.82	100.686
1253.71	95.6055
1256.6	119.742
1259.49	98.6699
1262.39	49.418
1265.28	98.8613
1268.17	69.793
1271.07	45.3789
1273.96	97.8301
1276.85	94.1777
1279.74	118.559
1282.64	142.893
1285.53	100.272
1288.42	101.102
1291.32	59.6055
1294.21	190.342
1297.1	19.6758
1299.99	53.7051
1302.88	11.9316
