Measurement: Raman, 785 nm, unoriented, Raman Data Processed
Mineral: Parabutlerite
Rruff sample: R070547
Ideal chemistry: Fe^3+^SO_4_(OH)2H_2_O
Locality: Chuquicamata mine, Calama, El Loa Province, Antofogasta, Chile
Source: James Shigley
Description: Granular aggregate of orange microcrystals
Raman shift (cm-1)	intensity
151.291	0
154.184	43.7046
157.077	30.5859
159.969	117.706
162.862	212.74
165.755	333.614
168.647	496.531
171.54	524.79
174.433	598.748
177.326	709.86
180.218	903.846
183.111	1165.12
186.004	1245.1
188.896	1408.78
191.789	1458.2
194.682	1627.58
197.574	1936.94
200.467	2258.55
203.36	2622.59
206.252	2941.34
209.145	3390.26
212.038	3708.27
214.931	3907.85
217.823	4054.33
220.716	4181.66
223.609	4590.22
226.501	5143.29
229.394	5805.82
232.287	6473.03
235.179	6468.9
238.072	5728.76
240.965	4317.07
243.858	3034.49
246.75	2124.04
249.643	1471.67
252.536	1018.97
255.428	834.015
258.321	590.334
261.214	562.345
264.106	531.652
266.999	433.335
269.892	320.166
272.784	206.271
275.677	110.207
278.57	33.1397
281.463	20.7029
284.355	19.6689
287.248	25.7436
290.141	54.447
293.033	53.7084
295.926	8.75977
298.819	2.27319
301.712	11.8651
304.604	26.5903
307.497	22.1909
310.39	39.1713
313.282	9.77075
316.175	1.87512
319.068	29.1769
321.96	4.35083
324.853	29.1747
327.746	26.9194
330.639	67.5646
333.531	67.8036
336.424	170.574
339.317	223.086
342.209	371.477
345.102	460.885
347.995	640.615
350.887	900.603
353.78	1131.31
356.673	1434.93
359.565	1625.42
362.458	1875.57
365.351	1940.86
368.244	1841.69
371.136	1783.26
374.029	1610.12
376.922	1591.72
379.814	1697.1
382.707	1857.03
385.6	2118.76
388.493	2464.27
391.385	2809.68
394.278	3096.74
397.171	3400.96
400.063	3549.85
402.956	3453.86
405.849	3202.82
408.741	2752.11
411.634	2167.88
414.527	1630.61
417.42	1179.94
420.312	808.801
423.205	540.811
426.098	309.609
428.99	191.009
431.883	133.594
434.776	82.386
437.668	146.258
440.561	234.877
443.454	456.307
446.346	711.439
449.239	1035.97
452.132	1377.87
455.025	1785.26
457.917	2191.12
460.81	2561.11
463.703	2850.48
466.595	2910.74
469.488	2603.35
472.381	2129.08
475.273	1617.6
478.166	1170.88
481.059	830.091
483.952	548.995
486.844	314.048
489.737	162.652
492.63	107.156
495.522	20.2096
498.415	33.8125
501.308	43.9762
504.2	66.9498
507.093	72.3328
509.986	32.2941
512.879	2.17957
515.771	19.7485
518.664	85.2214
521.557	136.315
524.449	286.69
527.342	435.275
530.235	597.147
533.127	799.109
536.02	1075.98
538.913	1353.65
541.806	1584.21
544.698	1741.31
547.591	1743.74
550.484	1521.6
553.376	1206.18
556.269	865.16
559.162	591.125
562.054	353.805
564.947	243.478
567.84	119.68
570.732	88.1976
573.625	16.2573
576.518	5.32483
579.411	36.1583
582.303	33.4258
585.196	85.18
588.089	143.087
590.981	223.827
593.874	309.702
596.767	422.342
599.659	493.828
602.552	455.7
605.445	334.839
608.338	260.069
611.23	219.078
614.123	197.24
617.016	151.591
619.908	155.257
622.801	116.731
625.694	103.342
628.587	55.6739
631.479	52.5947
634.372	62.3873
637.264	26.1416
640.157	45.1735
643.05	49.7503
645.943	32.0154
648.835	19.1418
651.728	25.781
654.621	25.7817
657.513	40.3389
660.406	19.4483
663.299	22.6069
666.192	1.81476
669.084	1.26532
671.977	3.1217
674.87	3.37079
677.762	17.467
680.655	11.918
683.548	22.855
686.44	24.3213
689.333	5.0614
692.226	3.14386
695.119	41.2858
698.011	13.0878
700.904	16.5411
703.797	20.823
706.689	34.311
709.582	32.6329
712.475	28.2118
715.367	39.043
718.26	43.5465
721.153	33.5299
724.045	28.9228
726.938	26.8536
729.831	22.7745
732.724	29.499
735.616	40.9069
738.509	29.8889
741.402	2.61908
744.294	32.1043
747.187	16.8488
750.08	46.41
752.972	25.261
755.865	6.79486
758.758	9.64667
761.651	38.8295
764.543	36.4897
767.436	19.7635
770.329	26.7799
773.221	42.8073
776.114	26.8686
779.007	15.4923
781.899	34.6983
784.792	9.41363
787.685	40.6193
790.578	26.6003
793.47	8.22528
796.363	19.3317
799.256	26.7637
802.148	16.9982
805.041	29.5242
807.934	3.6745
810.827	11.434
813.719	8.42279
816.612	6.39807
819.505	1.93713
822.397	4.53705
825.29	19.5829
828.183	7.56049
831.075	15.6127
833.968	17.7146
836.861	9.966
839.753	16.3347
842.646	12.6874
845.539	22.3368
848.432	20.5344
851.324	12.421
854.217	10.4678
857.11	14.3766
860.002	14.4039
862.895	20.3987
865.788	5.07562
868.68	37.2486
871.573	13.2362
874.466	13.912
877.359	42.3625
880.251	3.94238
883.144	27.7532
886.037	11.8574
888.929	22.8614
891.822	16.8598
894.715	16.7578
897.607	37.2571
900.5	53.6425
903.393	28.1417
906.285	38.2484
909.178	65.0424
912.071	44.8116
914.964	55.3928
917.856	46.6807
920.749	36.2961
923.642	39.2036
926.534	19.9449
929.427	27.8841
932.32	41.5285
935.212	38.6131
938.105	19.9399
940.998	32.4484
943.891	11.9993
946.783	1.09595
949.676	4.06372
952.569	10.5604
955.461	19.498
958.354	14.5341
961.247	2.9931
964.139	2.94373
967.032	11.8261
969.925	22.2863
972.818	22.9225
975.71	66.758
978.603	137.315
981.496	168.612
984.388	279.883
987.281	381.673
990.174	514.909
993.067	713.981
995.959	961.546
998.852	1368.19
1001.75	1888.64
1004.64	2522.43
1007.53	3297.59
1010.42	4225.26
1013.32	4661.02
1016.21	4601.18
1019.1	4634.09
1021.99	4926.29
1024.89	5191.46
1027.78	4371.63
1030.67	3066.53
1033.56	1929.1
1036.46	1294.33
1039.35	1022.6
1042.24	821.149
1045.13	677.455
1048.03	438.714
1050.92	263.855
1053.81	155.191
1056.71	61.484
1059.6	17.8518
1062.49	12.3118
1065.38	4.22668
1068.28	11.3685
1071.17	27.2393
1074.06	106.144
1076.95	168.316
1079.85	267.206
1082.74	388.694
1085.63	559.602
1088.53	814.771
1091.42	1054.76
1094.31	1338.63
1097.2	1600.51
1100.1	1829.85
1102.99	1995.36
1105.88	2072.11
1108.77	2040.57
1111.67	1861.33
1114.56	1522.42
1117.45	1226.71
1120.35	916.36
1123.24	639.18
1126.13	420.33
1129.02	265.556
1131.92	129.578
1134.81	28.5112
1137.7	6.63403
1140.59	25.2985
1143.49	38.5162
1146.38	24.2075
1149.27	24.9793
1152.16	57.9158
1155.06	96.5155
1157.95	123.384
1160.84	157.544
1163.74	200.414
1166.63	243.126
1169.52	255.377
1172.41	285.248
1175.31	304.35
1178.2	359.866
1181.09	383.7
1183.98	418.09
1186.88	487.353
1189.77	554.029
1192.66	640.197
1195.56	671.112
1198.45	736.642
1201.34	783.263
1204.23	787.452
1207.13	789.462
1210.02	764.833
1212.91	698.807
1215.8	605.002
1218.7	515.538
1221.59	397.909
1224.48	279.684
1227.38	195.641
1230.27	114.844
1233.16	75.7866
1236.05	19.4868
1238.95	23.7085
1241.84	13.202
1244.73	9.53082
