Measurement: Raman, 780 nm, unoriented, Raman Data Processed
Mineral: Paracoquimbite
Rruff sample: R050351
Ideal chemistry: Fe^3+^_2_(SO_4_)_3_9H_2_O
Locality: Cyprus
Source: California Institute of Technology
Description: Purple fragment
Measured chemistry: (Fe^3+^_1.97_Al_0.03_)_Σ=2_(S_1.00_O_4_)_3_·9H_2_O
Raman shift (cm-1)	intensity
117.111	0
120.486	3.64426
123.861	11.8947
127.236	33.5205
130.611	0.555695
133.986	13.2594
137.36	90.9962
140.735	211.86
144.11	389.873
147.485	320.205
150.859	57.0175
154.234	6.6073
157.609	22.4908
160.984	14.8577
164.359	46.7203
167.734	85.3231
171.108	94.9467
174.483	29.4067
177.858	15.0155
181.233	37.795
184.608	52.8809
187.982	147.223
191.357	361.862
194.732	611.192
198.107	828.105
201.482	907.749
204.857	1207.91
208.231	1853.15
211.606	1990.58
214.981	1180.48
218.356	646.58
221.731	456.138
225.106	355.897
228.48	239.235
231.855	124.762
235.23	56.9847
238.605	42.8907
241.98	67.6797
245.354	122.48
248.729	210.828
252.104	319.117
255.479	455.417
258.854	589.769
262.228	742.689
265.603	959.501
268.978	1198.85
272.353	1432.03
275.728	1598.39
279.103	1689.53
282.477	1725.37
285.852	1740.91
289.227	1590.2
292.602	1254.87
295.977	914.4
299.351	653.624
302.726	472.464
306.101	340.92
309.476	240.112
312.851	157.293
316.226	93.5088
319.6	46.1422
322.975	14.174
326.35	1.66708
329.725	11.36
333.1	15.6443
336.474	16.1109
339.849	11.6386
343.224	7.93549
346.599	4.14378
349.974	0.853073
353.349	3.59743
356.723	8.11617
360.098	13.0864
363.473	15.6714
366.848	18.5652
370.223	20.2178
373.597	23.7341
376.972	29.2058
380.347	30.8227
383.722	33.1494
387.097	34.3554
390.471	32.0247
393.846	29.1272
397.221	24.6787
400.596	21.9716
403.971	21.2084
407.346	22.0526
410.72	26.038
414.095	30.5616
417.47	34.7024
420.845	32.8497
424.22	27.9507
427.594	25.5375
430.969	32.0015
434.344	35.3523
437.719	35.757
441.094	37.5939
444.469	50.518
447.843	60.5951
451.218	55.0925
454.593	45.6905
457.968	43.5143
461.343	50.0537
464.717	67.4196
468.092	79.7083
471.467	94.4882
474.842	117.671
478.217	157.461
481.591	220.734
484.966	302.396
488.341	391.634
491.716	502.236
495.091	628.785
498.466	748.32
501.84	754.776
505.215	614.218
508.59	443.415
511.965	325.598
515.34	238.166
518.715	161.802
522.089	106.103
525.464	65.3712
528.839	40.6446
532.214	22.4109
535.589	10.7234
538.963	3.08685
542.338	3.75687
545.713	0.077652
549.088	7.37038
552.463	7.97714
555.837	7.22099
559.212	2.67647
562.587	1.7552
565.962	3.97406
569.337	13.4969
572.712	27.5828
576.086	45.8836
579.461	68.019
582.836	98.7585
586.211	134.453
589.586	175.376
592.96	217.298
596.335	259.331
599.71	275.18
603.085	267.953
606.46	229.107
609.835	183.6
613.209	138.622
616.584	106.809
619.959	87.0932
623.334	72.6137
626.709	58.9295
630.083	47.2504
633.458	37.3709
636.833	29.3919
640.208	21.653
643.583	16.5045
646.957	14.3159
650.332	8.08958
653.707	9.0499
657.082	12.3962
660.457	20.2907
663.832	32.9663
667.206	42.4689
670.581	53.2149
673.956	54.2666
677.331	48.955
680.706	35.2529
684.081	27.9169
687.455	16.4037
690.83	11.9519
694.205	7.50492
697.58	4.94453
700.955	2.97569
704.329	1.68391
707.704	1.35533
711.079	0.474693
714.454	0.147537
717.829	0.948708
721.203	1.51339
724.578	1.285
727.953	0.597481
731.328	0.746414
734.703	2.31297
738.077	3.68987
741.452	4.66897
744.827	3.98692
748.202	5.39897
751.577	8.37209
754.952	6.13695
758.326	6.1638
761.701	5.9937
765.076	7.16512
768.451	6.33209
771.826	4.72228
775.201	5.42938
778.575	4.32941
781.95	3.83619
785.325	3.5058
788.7	0.413696
792.075	2.43999
795.449	2.47369
798.824	2.3313
802.199	4.77325
805.574	5.32214
808.949	6.20742
812.323	5.22806
815.698	6.46559
819.073	6.76914
822.448	8.62657
825.823	9.42149
829.198	8.38844
832.572	10.7788
835.947	9.77701
839.322	10.9266
842.697	12.3698
846.072	14.6981
849.447	13.2835
852.821	17.9228
856.196	15.9873
859.571	19.2362
862.946	21.3513
866.321	21.9054
869.695	23.9393
873.07	22.8821
876.445	22.6663
879.82	22.1028
883.195	18.1721
886.569	17.9449
889.944	11.7506
893.319	12.5929
896.694	7.17133
900.069	5.02863
903.443	4.64114
906.818	1.79886
910.193	0.024368
913.568	0.140396
916.943	1.29739
920.318	2.661
923.692	1.0141
927.067	1.06313
930.442	2.23193
933.817	1.08508
937.192	0.262459
940.567	0.499008
943.941	1.69197
947.316	1.49859
950.691	2.34346
954.066	3.28867
957.441	3.96737
960.815	6.14327
964.19	7.47916
967.565	11.5925
970.94	13.9659
974.315	20.506
977.689	29.6923
981.064	43.5739
984.439	60.4254
987.814	85.7044
991.189	117.541
994.563	184.04
997.938	297.71
1001.31	466.428
1004.69	722.412
1008.06	1145.44
1011.44	1684.93
1014.81	2129.95
1018.19	2676.03
1021.56	3807.39
1024.94	5538.91
1028.31	4048.79
1031.69	1936.71
1035.06	1402.11
1038.44	963.626
1041.81	463.787
1045.19	230.935
1048.56	120.685
1051.93	67.8844
1055.31	34.3466
1058.68	14.2601
1062.06	2.79671
1065.43	3.5984
1068.81	6.08847
1072.18	1.09047
1075.56	13.0787
1078.93	30.7277
1082.31	51.6291
1085.68	75.651
1089.06	89.8702
1092.43	99.777
1095.81	91.9522
1099.18	86.4488
1102.56	91.9534
1105.93	103.872
1109.31	116.217
1112.68	114.373
1116.06	86.0198
1119.43	46.2756
1122.81	20.8029
1126.18	5.69183
1129.56	4.12096
1132.93	2.67268
1136.31	1.13339
1139.68	4.48273
1143.06	10.0765
1146.43	24.1705
1149.81	37.4168
1153.18	52.5761
1156.56	70.0488
1159.93	92.1631
1163.3	102.05
1166.68	112.371
1170.05	114.515
1173.43	110.479
1176.8	103.714
1180.18	100.626
1183.55	102.55
1186.93	118.358
1190.3	142.775
1193.68	191.186
1197.05	244.726
1200.43	260.555
1203.8	200.986
1207.18	127.757
1210.55	76.3482
1213.93	52.2712
1217.3	33.9581
1220.68	21.4589
1224.05	15.2464
1227.43	11.1432
1230.8	6.25597
1234.18	3.1852
1237.55	0.331497
1240.92	0.080894
1244.3	0.475342
1247.67	0.581009
1251.05	0.404236
1254.42	1.60593
1257.8	0.891876
1261.17	4.13666
1264.55	4.19622
1267.92	3.2919
1271.3	1.93898
1274.67	1.32387
1278.05	0
