Measurement: Raman, 532 nm, unoriented, Raman Data Processed
Mineral: Paralaurionite
Rruff sample: R100178
Ideal chemistry: PbCl(OH)
Locality: Sierra Gorda, Antofagasta Province, Chile
Source: Bob Jenkins
Description: Clear to pale violet melted looking blobs or elongated tabular crystals, associated with clear to white hexagonal prismatic penfieldite, blue tabular pseudoboleite, and colorless tabular gypsum.
Raman shift (cm-1)	intensity
172.995	0
175.888	5.55518
178.78	14.0488
181.673	7.90894
184.566	11.0889
187.459	25.8652
190.351	23.9976
193.244	26.5836
196.137	23.8628
199.029	11.9222
201.922	19.5609
204.815	15.8606
207.708	8.26709
210.6	4.47717
213.493	7.57043
216.386	5.65845
219.278	2.06592
222.171	0.804688
225.064	6.34204
227.956	7.36585
230.849	12.184
233.742	1.4469
236.635	21.1476
239.527	35.2241
242.42	75.4522
245.313	107.402
248.205	167.575
251.098	253.257
253.991	369.774
256.884	521.374
259.776	717.649
262.669	941.198
265.562	1189.03
268.454	1408.93
271.347	1493.81
274.24	1443.92
277.132	1199.1
280.025	866.319
282.918	581.681
285.81	383.339
288.703	244.032
291.596	161.855
294.489	115.809
297.381	87.3043
300.274	85.7422
303.167	107.095
306.059	153.28
308.952	217.446
311.845	332.598
314.738	487.377
317.63	660.518
320.523	870.461
323.416	1132.8
326.308	1415.96
329.201	1533.03
332.094	1334.6
334.986	948.399
337.879	625.955
340.772	404.377
343.665	276.038
346.557	193.739
349.45	135.231
352.343	100.794
355.235	79.8711
358.128	53.2039
361.021	36.5826
363.913	25.7389
366.806	22.0131
369.699	15.0289
372.592	16.3117
375.484	12.4976
378.377	8.44751
381.27	8.63562
384.162	4.46619
387.055	6.39783
389.948	3.92383
392.841	6.96912
395.733	10.0629
398.626	2.86536
401.519	3.33972
404.411	2.06274
407.304	0.325317
410.197	2.32483
413.089	0.680298
415.982	11.7374
418.875	9.32715
421.767	11.8916
424.66	14.2989
427.553	19.6797
430.446	25.934
433.338	26.7809
436.231	26.5447
439.124	34.8983
442.017	34.5881
444.909	31.0482
447.802	32.4367
450.695	31.6291
453.587	25.9739
456.48	18.7816
459.373	20.8296
462.265	16.827
465.158	19.757
468.051	15.1562
470.943	17.0093
473.836	20.035
476.729	12.6782
479.622	17.7321
482.514	9.06714
485.407	9.07654
488.3	10.73
491.192	12.5188
494.085	11.0726
496.978	9.74072
499.87	7.58923
502.763	1.16443
505.656	3.3169
508.549	1.52185
511.441	0.418335
514.334	2.77283
517.227	8.00574
520.119	2.54077
523.012	4.50671
525.905	1.45654
528.798	7.43164
531.69	1.22803
534.583	11.3237
537.476	4.521
540.368	4.22729
543.261	1.93811
546.154	10.238
549.047	8.65686
551.939	12.2485
554.832	16.7551
557.725	19.6372
560.617	24.8302
563.51	24.394
566.403	38.0853
569.295	56.1897
572.188	51.5166
575.081	60.9343
577.973	67.8418
580.866	73.9271
583.759	85.5835
586.652	101.03
589.544	102.321
592.437	105.311
595.33	104.103
598.222	96.2129
601.115	93.057
604.008	80.7472
606.901	65.4811
609.793	57.1686
612.686	55.9847
615.579	40.0942
618.471	27.727
621.364	9.29199
624.257	9.93896
627.149	7.74829
630.042	7.32251
632.935	2.40991
635.828	4.75244
638.72	4.87085
641.613	7.0813
644.506	8.14661
647.398	5.29981
650.291	7.33569
653.184	0.957153
656.077	3.03723
658.969	4.18066
661.862	9.49939
664.755	5.70264
667.647	1.99023
670.54	3.91992
673.433	2.17432
676.325	12.7717
679.218	12.6299
682.111	17.1265
685.004	27.4112
687.896	28.9634
690.789	37.1645
693.682	35.9474
696.574	38.9619
699.467	40.0201
702.36	53.4875
705.253	54.176
708.145	70.2821
711.038	72.0062
713.931	78.3679
716.823	84.6785
719.716	88.4719
722.609	93.6313
725.501	96.7621
728.394	97.3965
731.287	90.8512
734.179	95.5962
737.072	90.0829
739.965	91.2126
742.858	80.7148
745.75	72.93
748.643	66.4032
751.536	62.8167
754.428	52.415
757.321	49.4264
760.214	36.8999
763.107	34.9808
765.999	38.4247
768.892	28.9215
771.785	20.8329
774.677	22.2131
777.57	12.5314
780.463	17.8051
783.356	17.8114
786.248	14.8876
789.141	2.427
792.034	3.23657
794.926	7.73877
797.819	12.1267
800.712	7.15955
803.604	5.77234
806.497	5.09204
809.39	4.63904
812.283	1.77856
815.175	1.48547
818.068	0.073853
820.961	5.69946
823.853	3.88855
826.746	2.3761
829.639	2.94971
832.531	3.23242
835.424	0.007446
838.317	3.27405
841.21	4.61963
844.102	2.50195
846.995	3.8501
849.888	3.4397
852.78	9.72815
855.673	12.3777
858.566	6.2157
861.458	7.84192
864.351	12.4177
867.244	10.9017
870.136	14.672
873.029	12.0475
875.922	15.413
878.815	11.2021
881.707	13.3418
884.6	11.8862
887.493	5.15418
890.385	4.67456
893.278	5.79761
896.171	9.67651
899.064	3.29211
901.956	10.6928
904.849	9.57349
907.742	7.26013
910.634	2.48792
913.527	5.47583
916.42	7.83276
919.312	8.05041
922.205	2.1416
925.098	7.15479
927.991	10.3163
930.883	10.1138
933.776	9.23071
936.669	12.1573
939.562	5.85974
942.454	1.43311
945.347	4.1908
948.24	3.39453
951.132	2.36462
954.025	0.92749
956.918	7.9856
959.81	1.39819
962.703	7.99072
965.596	11.6792
968.489	10.4416
971.381	7.41785
974.274	10.615
977.167	7.47717
980.059	7.77258
982.952	20.4713
985.845	1.77686
988.737	6.05225
991.63	8.81323
994.523	0.292847
997.415	3.80505
1000.31	6.05139
1003.2	0.272095
1006.09	3.31848
1008.99	8.18127
1011.88	9.91516
1014.77	6.60706
1017.66	8.5061
1020.56	4.07483
1023.45	4.95337
1026.34	1.07654
1029.23	7.79517
1032.13	7.9834
1035.02	9.96521
1037.91	4.70093
1040.81	2.48572
1043.7	7.4967
1046.59	12.156
1049.48	7.48853
1052.38	9.1405
1055.27	8.05151
1058.16	11.1145
1061.06	1.98364
1063.95	5.41772
1066.84	2.12292
1069.73	5.35974
1072.63	4.64392
1075.52	4.20996
1078.41	3.94861
1081.3	6.28052
1084.2	7.05078
1087.09	0.811035
1089.98	9.58386
1092.88	4.26514
1095.77	3.72583
1098.66	6.37537
1101.55	9.17896
1104.45	12.5323
1107.34	7.2428
1110.23	10.247
1113.12	12.6532
1116.02	9.37231
1118.91	8.83704
1121.8	3.88928
1124.69	4.45471
1127.59	11.6582
1130.48	8.63269
1133.37	10.7376
1136.27	2.06592
1139.16	3.10779
1142.05	2.22168
1144.94	11.8524
1147.84	6.98498
1150.73	3.48694
1153.62	7.6532
1156.51	0.302979
1159.41	4.2832
1162.3	9.3241
1165.19	5.86206
1168.09	8.54956
1170.98	3.63367
1173.87	3.08691
1176.76	5.08801
1179.66	4.09778
1182.55	1.40686
1185.44	5.99219
1188.33	10.1344
1191.23	6.83081
1194.12	10.3005
1197.01	9.12427
1199.9	7.26575
1202.8	3.20068
1205.69	2.51843
1208.58	3.71472
1211.48	9.84802
1214.37	9.67444
1217.26	11.4034
1220.15	6.35278
1223.05	6.82873
1225.94	7.30859
1228.83	7.55603
1231.72	2.20154
1234.62	7.41833
1237.51	0.09021
1240.4	0.221191
1243.3	5.52039
1246.19	1.28174
1249.08	3.39563
1251.97	7.26502
1254.87	6.83752
1257.76	6.6355
1260.65	11.2026
1263.54	9.91394
1266.44	5.62585
1269.33	14.298
1272.22	13.9287
1275.12	3.83557
1278.01	6.76086
1280.9	11.8419
1283.79	5.36023
1286.69	5.58887
1289.58	5.70093
1292.47	5.13061
1295.36	6.11511
1298.26	6.13428
1301.15	2.63953
