Measurement: Raman, 780 nm, unoriented, Raman Data Processed
Mineral: Pararealgar
Rruff sample: R140447
Ideal chemistry: AsS
Locality: Getchell mine, Adam Peak, Potosi District, Osgood Mts, Humboldt County, Nevada, USA
Source: Rock Currier
Description: Yellow-orange, vitreous-opaque, poorly crystalline to amorphous, secondary alteration coating on realgar, associated with realgar and calcite.
Raman shift (cm-1)	intensity
103.131	0
106.505	81.221
109.88	115.791
113.255	784.926
116.63	2690.48
120.005	2711.96
123.38	507.603
126.754	11.9595
130.129	57.9014
133.504	1148.43
136.879	2397.89
140.254	2650.09
143.629	3420.55
147.003	1619.15
150.378	2670.03
153.753	6819.18
157.128	4235.03
160.503	1256.14
163.877	235.374
167.252	1421.88
170.627	3389.62
174.002	5387.88
177.377	4344.03
180.751	2281.05
184.126	2834.51
187.501	4356.31
190.876	5291.29
194.251	5282.83
197.625	6203.54
201	5631.31
204.375	7315.15
207.75	2590.16
211.125	2697.15
214.5	4611.69
217.874	6407.85
221.249	8428.73
224.624	10317.2
227.999	15673.5
231.374	27252.1
234.749	18405
238.123	14422
241.498	3542.64
244.873	335.148
248.248	186.416
251.623	318.864
254.997	237.51
258.372	68.9941
261.747	30.5919
265.122	220.043
268.497	658.632
271.872	1777.13
275.246	2917.1
278.621	1147.86
281.996	401.545
285.371	649.499
288.745	1208.33
292.12	2331.47
295.495	3130.03
298.87	2055.02
302.245	2453.52
305.62	3626.33
308.994	5583.81
312.369	7719.04
315.744	6901.73
319.119	6213.31
322.494	6676.06
325.868	7553.18
329.243	10531
332.618	14117.3
335.993	14555.2
339.368	14267.1
342.743	15238.7
346.117	16192.2
349.492	14500.5
352.867	12535.7
356.242	12102.9
359.617	9790.67
362.991	8773.88
366.366	6118.52
369.741	4232.09
373.116	3125.93
376.491	1885.37
379.865	1583.84
383.24	1848.28
386.615	1597.17
389.99	711.497
393.365	255.096
396.74	65.5735
400.114	26.7913
403.489	54.5071
406.864	79.3007
410.239	70.7798
413.614	65.3584
416.988	45.7153
420.363	21.9898
423.738	4.95996
427.113	22.1039
430.488	47.9654
433.863	61.0413
437.237	92.9733
440.612	122.696
443.987	145.742
447.362	164.967
450.737	176.214
454.111	196.315
457.486	213.292
460.861	234.034
464.236	232.878
467.611	216.964
470.986	193.664
474.36	171.34
477.735	142.643
481.11	111.076
484.485	101.802
487.86	102.906
491.234	93.9231
494.609	85.7557
497.984	82.6013
501.359	74.1445
504.734	78.6256
508.108	55.7884
511.483	56.8718
514.858	47.6435
518.233	43.4731
521.608	35.7765
524.982	21.0433
528.357	17.8588
531.732	16.0338
535.107	14.1956
538.482	18.6218
541.857	16.9684
545.231	12.1003
548.606	17.6723
551.981	8.90076
555.356	13.626
558.731	14.53
562.106	4.95319
565.48	2.92291
568.855	3.54675
572.23	6.90949
575.605	13.5844
578.98	19.3211
582.354	22.2351
585.729	29.1954
589.104	25.8112
592.479	6.86542
595.854	10.407
599.229	4.75122
602.603	2.35956
605.978	3.97742
609.353	3.15637
612.728	2.24243
616.102	0.78772
619.477	3.72565
622.852	2.31378
626.227	7.56165
629.602	2.48908
632.977	3.99701
636.351	7.26361
639.726	14.1077
643.101	23.9929
646.476	35.3883
649.851	28.7997
653.226	30.2698
656.6	30.1917
659.975	27.5071
663.35	20.8956
666.725	21.9463
670.1	13.225
673.474	23.7914
676.849	30.7344
680.224	21.8588
683.599	20.7221
686.974	26.2843
690.348	22.7951
693.723	22.2916
697.098	23.3571
700.473	27.1329
703.848	31.9956
707.222	28.4117
710.597	30.5591
713.972	27.6185
717.347	23.9697
720.722	19.6652
724.097	20.3102
727.471	19.1378
730.846	22.6565
734.221	20.1297
737.596	17.1118
740.971	15.025
744.346	3.00256
747.72	5.99561
751.095	14.2922
754.47	8.8457
757.845	5.65765
761.22	8.62756
764.594	4.88971
767.969	6.14911
771.344	3.61646
774.719	5.28742
778.094	1.66559
781.468	3.68921
784.843	4.61804
788.218	9.4306
791.593	0.452271
794.968	2.74023
798.342	6.24628
801.717	6.52338
805.092	1.71314
808.467	5.21881
811.842	12.4602
815.217	5.36627
818.591	7.11383
821.966	6.30689
825.341	6.6839
828.716	4.9577
832.091	11.0938
835.466	7.45282
838.84	3.85175
842.215	8.40808
845.59	6.50116
848.965	8.00915
852.34	7.7879
855.714	4.52496
859.089	9.53259
862.464	6.08411
865.839	8.69006
869.214	4.80212
872.588	10.6227
875.963	8.62024
879.338	3.38202
882.713	8.02258
886.088	2.72186
889.462	2.00281
892.837	4.18774
896.212	0.701477
899.587	6.22516
902.962	10.3637
906.337	3.51874
909.711	0.856445
913.086	8.47491
916.461	3.62683
919.836	2.40155
923.211	9.39734
926.585	5.84015
929.96	2.09235
933.335	1.16962
936.71	10.3609
940.085	0.538391
943.46	7.62555
946.834	9.8526
950.209	0.292969
953.584	2.07367
956.959	3.00085
960.334	3.33643
963.708	6.27869
967.083	1.64343
970.458	5.12732
973.833	0.903137
977.208	1.3844
980.582	3.94592
983.957	7.82905
987.332	8.0437
990.707	3.93402
994.082	2.9826
997.457	4.40289
1000.83	8.35272
1004.21	10.515
1007.58	0.06012
1010.96	1.271
1014.33	7.32715
1017.71	3.79688
1021.08	7.62012
1024.45	7.58563
1027.83	5.1402
1031.2	1.599
1034.58	2.15045
1037.95	7.88178
1041.33	4.26086
1044.7	6.98975
1048.08	9.28693
1051.45	5.84943
1054.83	4.45331
1058.2	8.95441
1061.58	2.54633
1064.95	12.1199
1068.33	1.37073
1071.7	7.37415
1075.08	7.31873
1078.45	6.53668
1081.83	0.217407
1085.2	3.63629
1088.58	15.8823
1091.95	8.91083
1095.33	5.04096
1098.7	0.270813
1102.08	0.420715
1105.45	7.83008
1108.83	1.82202
1112.2	6.9696
1115.58	3.0603
1118.95	0.115417
1122.33	2.23431
1125.7	2.93823
1129.07	0.199768
1132.45	6.21777
1135.82	1.71674
1139.2	8.35498
1142.57	0.698242
1145.95	5.81348
1149.32	4.76788
1152.7	3.05121
1156.07	0.86084
1159.45	1.43323
1162.82	4.25281
1166.2	1.70483
1169.57	3.53687
1172.95	10.1886
1176.32	4.11523
1179.7	3.23175
1183.07	2.80566
1186.45	10.5958
1189.82	7.74579
1193.2	4.95996
1196.57	8.18253
1199.94	5.53918
1203.32	6.50439
1206.69	5.55524
1210.07	5.95367
1213.44	7.0108
1216.82	4.3866
1220.19	2.51892
1223.57	11.3702
1226.94	6.35132
1230.32	2.28207
1233.69	5.93704
1237.07	4.77048
1240.44	3.80106
1243.82	1.75754
1247.19	1.66296
1250.57	1.57816
1253.94	2.87921
1257.32	5.59619
1260.69	2.92096
1264.07	7.77914
1267.44	10.7466
1270.82	6.56427
1274.19	4.24286
1277.57	9.1687
1280.94	6.76651
1284.32	0.749146
