Measurement: Raman, 514 nm, unoriented, Raman Data Processed
Mineral: Paravauxite
Rruff sample: R040179
Ideal chemistry: Fe^2+^Al_2_(PO_4_)_2_(OH)_2_8H_2_O
Locality: Mina Siglo XX, Llallagua, Bolivia
Source: University of Arizona Mineral Museum
Description: Colorless short prismatic crystals in subparallel groups
Measured chemistry: (Fe_0.93_Mg_0.03_Mn_0.02_)Al_1.94_(P_2.05_O_4_)_2_((OH)_0.99_F_0.01_)_2_Â·8H_2_O
Raman shift (cm-1)	intensity
121.203	0
125.369	126.188
129.534	322.592
133.696	464.759
137.857	792.802
142.016	965.347
146.172	821.011
150.327	432.2
154.48	215.367
158.63	66.178
162.779	74.592
166.926	252.19
171.07	154.188
175.213	160.43
179.354	40.761
183.493	90.822
187.63	77.475
191.765	363.065
195.898	925.652
200.029	713.668
204.158	415.161
208.285	551.926
212.41	71.109
216.533	2.552
220.654	120.118
224.773	377.706
228.891	1063.63
233.006	1820.55
237.119	1958.16
241.231	1336.39
245.34	467.482
249.448	90.688
253.553	36.473
257.657	65.294
261.758	57.022
265.858	162.688
269.956	369.189
274.052	889.188
278.146	1779.04
282.237	2616.86
286.327	1887.18
290.416	1216.44
294.502	906.63
298.586	713.865
302.668	555.029
306.749	329.97
310.827	240.993
314.903	52.671
318.978	130.858
323.051	45.887
327.121	3.142
331.19	15.468
335.257	27.669
339.322	63.65
343.385	43.418
347.446	63.417
351.505	3.596
355.563	76.273
359.618	12.194
363.672	67.74
367.723	190.499
371.773	373.197
375.821	399.166
379.866	476.467
383.91	367.998
387.952	284.561
391.992	428.974
396.031	529.278
400.067	823.212
404.101	1199.92
408.134	1055.55
412.165	974.468
416.193	893.927
420.22	978.346
424.245	1549.89
428.268	2228.74
432.289	2560.02
436.309	2162.26
440.326	1417.44
444.342	685.562
448.355	512.608
452.367	323.471
456.377	364.407
460.385	363.825
464.391	494.257
468.395	596.521
472.398	599.622
476.398	549.333
480.397	604.819
484.394	476.771
488.389	315.96
492.382	236.062
496.373	80.929
500.362	67.724
504.349	87.57
508.335	81.427
512.319	55.184
516.3	62.165
520.28	105.667
524.259	183.369
528.235	258.425
532.209	453.364
536.182	622.593
540.152	688.235
544.121	745.925
548.088	837.61
552.053	861.726
556.017	731.728
559.978	885.652
563.938	1182.2
567.895	1290.13
571.851	1364.58
575.805	1829.01
579.758	1787.11
583.708	1760.67
587.657	2047.33
591.603	1839.12
595.548	1549.4
599.491	1574.98
603.432	1500.44
607.372	1475.02
611.309	1338.19
615.245	1147.48
619.179	1065
623.111	803.299
627.041	865.965
630.97	572.472
634.896	589.142
638.821	574.438
642.744	541.727
646.665	500.66
650.584	311.7
654.502	285.704
658.418	185.229
662.331	204.325
666.244	266.812
670.154	13.369
674.062	78.775
677.969	25.716
681.874	25.858
685.777	55.314
689.678	95.473
693.577	161.266
697.475	33.479
701.371	129.366
705.265	21.174
709.157	82.837
713.047	14.027
716.936	159.367
720.823	282.899
724.708	202.779
728.591	258.471
732.472	211.925
736.352	123.156
740.23	144.187
744.106	93.031
747.98	104.684
751.853	199.157
755.723	103.45
759.592	308.568
763.459	59.51
767.325	137.725
771.188	115.609
775.05	113.735
778.91	112.709
782.768	164.533
786.625	36.197
790.479	132.314
794.332	69.339
798.183	131.33
802.033	64.99
805.88	113.8
809.726	31.378
813.57	68.72
817.413	73.882
821.253	228.189
825.092	226.111
828.929	86.714
832.764	161.119
836.598	161.651
840.429	108.363
844.259	92.137
848.088	8.895
851.914	104.266
855.739	40.358
859.562	123.087
863.383	194.15
867.203	259.035
871.02	157.699
874.836	210.02
878.65	63.666
882.463	217.611
886.274	296.484
890.083	250.438
893.89	157.105
897.695	153.355
901.499	109.348
905.301	384.002
909.102	461.703
912.9	255.826
916.697	489.107
920.492	473.809
924.285	388.1
928.077	508.523
931.867	577.143
935.655	407.395
939.442	785.182
943.226	675.533
947.009	589.463
950.791	680.775
954.57	878.883
958.348	963.217
962.124	962.322
965.899	1153.89
969.671	1369.84
973.442	1710.68
977.211	2579.01
980.979	3735.56
984.745	6448.58
988.509	10397.7
992.271	12147.3
996.032	10210.5
999.791	6665.36
1003.55	3911.99
1007.3	2226.59
1011.06	1542.51
1014.81	1106.38
1018.56	875.881
1022.31	648.912
1026.06	526.625
1029.8	431.936
1033.55	465.73
1037.29	338.115
1041.03	481.955
1044.77	477.98
1048.5	462.854
1052.24	700.428
1055.97	798.609
1059.7	1011.21
1063.43	907.945
1067.16	589.783
1070.89	246.705
1074.61	290.98
1078.34	220.254
1082.06	150.486
1085.78	212.154
1089.5	273.359
1093.21	285.371
1096.93	449.908
1100.64	377.104
1104.35	530.068
1108.06	174.049
1111.77	423.494
1115.48	275.35
1119.18	163.412
1122.89	452.824
1126.59	173.887
1130.29	89.191
1133.99	217.691
1137.68	226.82
1141.38	3.006
1145.07	79.967
1148.76	204.488
1152.45	135.768
1156.14	104.309
1159.83	334.178
1163.51	359.359
1167.19	619.926
1170.88	426.715
1174.56	346.902
1178.23	373.857
1181.91	161.482
1185.59	253.238
1189.26	194.158
1192.93	213.602
1196.6	97.025
1200.27	46.311
1203.94	148.566
1207.6	125.732
1211.27	6.693
1214.93	104.488
1218.59	75.73
1222.25	38.027
1225.9	113.99
1229.56	44.99
1233.21	28.822
1236.86	141.688
1240.51	113.865
1244.16	80.629
1247.81	213.279
1251.45	309.725
1255.1	231.852
1258.74	40.578
1262.38	147.006
1266.02	176.061
1269.66	140.32
1273.29	210.678
1276.93	25.121
1280.56	187.266
1284.19	224.068
1287.82	186.154
1291.45	28.098
1295.07	155.85
1298.7	168.262
1302.32	259.092
1305.94	206.576
1309.56	277.898
1313.18	148.932
1316.8	168.963
1320.41	63.422
1324.02	77.938
1327.63	398.184
1331.24	184.203
1334.85	99.832
1338.46	37.541
1342.06	644.189
1345.67	194.619
1349.27	379.676
1352.87	463.789
1356.47	475.516
1360.07	420.967
1363.66	149.285
1367.25	154.916
1370.85	266.139
1374.44	186.352
1378.03	113.051
1381.61	100.742
1385.2	0
