Measurement: Raman, 780 nm, unoriented, Raman Data Processed
Mineral: Paravauxite
Rruff sample: R050577
Ideal chemistry: Fe^2+^Al_2_(PO_4_)_2_(OH)_2_8H_2_O
Locality: Llallagua, Bolivia
Source: University of Arizona Mineral Museum
Description: Colorless bladed crystal
Measured chemistry: (Fe^2+^_0.93_Mg_0.04_Mn_0.03_)Al_2_(PO_4_)_2_((OH)_0.93_F_0.07_)_2_Î‡8H_2_O
Raman shift (cm-1)	intensity
150.401	0
153.294	3.69367
156.187	15.4936
159.08	6.23251
161.972	1.06409
164.865	2.74728
167.758	11.8802
170.65	16.7571
173.543	31.7215
176.436	37.0737
179.328	26.5428
182.221	12.5993
185.114	10.9935
188.007	16.7227
190.899	33.6496
193.792	74.907
196.685	100.965
199.577	78.3516
202.47	58.7423
205.363	53.1616
208.256	58.3071
211.148	62.7596
214.041	62.2819
216.934	57.1864
219.826	51.5258
222.719	52.7731
225.612	70.8836
228.504	94.7825
231.397	136.304
234.29	155.127
237.182	136.89
240.075	93.5802
242.968	50.9245
245.861	27.8345
248.753	12.166
251.646	4.80147
254.539	0.814331
257.431	5.892
260.324	8.80566
263.217	28.1909
266.109	46.24
269.002	73.4639
271.895	101.25
274.788	147.65
277.68	197.548
280.573	238.753
283.466	220.292
286.358	154.971
289.251	112.174
292.144	86.0243
295.036	65.448
297.929	51.5358
300.822	39.7978
303.714	28.4162
306.607	16.7836
309.5	11.5195
312.393	9.15183
315.285	2.62164
318.178	0.175629
321.071	3.1925
323.963	1.14446
326.856	4.22007
329.749	2.16578
332.642	1.31363
335.534	0.929131
338.427	2.54165
341.32	4.09845
344.212	0.032417
347.105	0.615273
349.998	0.872307
352.89	7.32373
355.783	4.53014
358.676	10.1753
361.568	10.1516
364.461	14.5478
367.354	21.5862
370.247	27.889
373.139	33.7832
376.032	32.3533
378.925	32.0011
381.817	31.1104
384.71	32.0117
387.603	28.1224
390.495	33.2258
393.388	45.1608
396.281	54.7562
399.174	77.1774
402.066	102.816
404.959	117.822
407.852	117.678
410.744	111.793
413.637	123.818
416.53	154.41
419.422	194.511
422.315	253.078
425.208	338.648
428.101	436.167
430.993	503.027
433.886	463.038
436.779	349.842
439.671	233.855
442.564	153.606
445.457	103.125
448.349	76.42
451.242	52.614
454.135	38.7848
457.027	28.3603
459.92	22.0743
462.813	23.7005
465.706	24.2377
468.598	18.6423
471.491	16.9994
474.384	16.9686
477.276	9.07754
480.169	9.36687
483.062	4.24294
485.954	1.35577
488.847	1.17233
491.74	0.686935
494.633	6.21668
497.525	0.50737
500.418	0.018562
503.311	3.8946
506.203	2.62636
509.096	1.60123
511.989	2.25398
514.881	1.97659
517.774	3.90647
520.667	3.56276
523.56	10.1454
526.452	12.7276
529.345	12.7947
532.238	18.0303
535.13	20.0825
538.023	21.629
540.916	23.4515
543.808	18.3087
546.701	23.1832
549.594	23.0014
552.486	24.6421
555.379	24.3424
558.272	30.5396
561.165	34.6629
564.057	42.7815
566.95	50.7352
569.843	56.823
572.735	61.7364
575.628	69.0944
578.521	79.0106
581.413	92.8549
584.306	104.344
587.199	116.943
590.092	120.773
592.984	127.001
595.877	133.794
598.77	138.233
601.662	136.803
604.555	136.724
607.448	131.276
610.341	122.515
613.233	109.346
616.126	97.8628
619.019	85.1271
621.911	71.0005
624.804	61.3673
627.697	51.0707
630.589	39.4465
633.482	31.7478
636.375	28.9285
639.268	19.6937
642.16	18.0832
645.053	13.002
647.946	10.1476
650.838	6.60546
653.731	1.28483
656.624	0.147182
659.516	2.46264
662.409	2.97372
665.302	0.07439
668.194	0.630806
671.087	1.39448
673.98	2.18737
676.873	0.884224
679.765	0.949886
682.658	2.64276
685.551	1.02934
688.443	0.539581
691.336	2.79866
694.229	1.14889
697.121	4.28299
700.014	4.24015
702.907	2.85493
705.8	5.94912
708.692	8.02327
711.585	9.06368
714.478	11.517
717.37	10.1039
720.263	8.2447
723.156	14.2058
726.048	11.5722
728.941	11.3586
731.834	14.8189
734.726	14.1746
737.619	8.39268
740.512	12.1533
743.405	13.4617
746.297	12.3957
749.19	10.2265
752.083	9.75275
754.975	11.3903
757.868	14.0684
760.761	9.21196
763.654	10.2762
766.546	6.45292
769.439	6.29648
772.332	6.0093
775.224	6.73222
778.117	7.27193
781.01	4.97059
783.902	2.39363
786.795	1.0458
789.688	0.800583
792.58	3.04675
795.473	1.73811
798.366	2.65327
801.259	2.41567
804.151	0.758709
807.044	0.078201
809.937	2.4337
812.829	3.85415
815.722	4.64348
818.615	2.21965
821.507	0.887402
824.4	0.635487
827.293	0.468235
830.186	2.34334
833.078	2.6418
835.971	4.34565
838.864	2.73136
841.756	3.86923
844.649	4.09708
847.542	5.26022
850.434	5.39893
853.327	3.19075
856.22	0.328228
859.112	0.103256
862.005	0.662365
864.898	0.633953
867.791	1.8676
870.683	1.70775
873.576	0.370396
876.469	0.360317
879.361	0.279686
882.254	0.978432
885.147	0.749908
888.039	1.50675
890.932	3.25337
893.825	0.667877
896.718	1.04931
899.61	2.93847
902.503	3.37439
905.396	1.74681
908.288	0.124199
911.181	0.337872
914.074	6.36296
916.966	5.66918
919.859	5.08119
922.752	8.52453
925.645	11.1804
928.537	9.90505
931.43	12.0243
934.323	15.3728
937.215	16.4534
940.108	17.6968
943.001	17.939
945.894	19.2228
948.786	21.2131
951.679	23.8657
954.572	24.1445
957.464	28.5459
960.357	35.9587
963.25	45.1
966.142	56.1112
969.035	73.8414
971.928	97.9031
974.82	141.018
977.713	201.22
980.606	279.549
983.499	399.357
986.391	548.913
989.284	693.008
992.177	672.814
995.069	496.716
997.962	320.228
1000.86	208.026
1003.75	130.968
1006.64	86.3562
1009.53	54.1029
1012.43	35.5868
1015.32	23.8525
1018.21	18.7556
1021.1	9.46035
1024	6.42945
1026.89	4.91849
1029.78	0.275467
1032.67	0.445126
1035.57	0.636932
1038.46	0.468151
1041.35	0.732105
1044.24	0.36319
1047.14	0.578297
1050.03	0.84724
1052.92	7.38838
1055.82	9.08486
1058.71	10.9086
1061.6	9.82557
1064.49	4.53447
1067.39	3.57245
1070.28	1.59482
1073.17	0.285702
1076.07	2.25429
1078.96	0.241703
1081.85	2.60799
1084.74	5.58835
1087.64	7.71308
1090.53	7.96143
1093.42	11.0835
1096.31	11.1988
1099.21	15.2912
1102.1	15.5807
1104.99	12.3687
1107.88	10.236
1110.78	12.121
1113.67	8.27281
1116.56	2.84432
1119.45	4.81735
1122.35	1.45975
1125.24	4.39789
1128.13	3.71553
1131.03	3.04783
1133.92	4.21519
1136.81	2.83691
1139.7	4.7269
1142.6	6.3694
1145.49	8.41689
1148.38	9.49957
1151.28	14.8775
1154.17	19.2994
1157.06	21.1355
1159.95	25.9744
1162.85	32.2309
1165.74	35.3285
1168.63	34.2334
1171.52	25.7229
1174.42	21.9498
1177.31	15.4891
1180.2	10.3688
1183.1	8.63068
1185.99	5.23738
1188.88	3.61729
1191.77	2.18311
1194.67	1.81265
1197.56	1.11528
1200.45	0.873627
1203.34	0.30069
1206.24	0.352518
1209.13	0.057627
1212.02	2.09871
1214.91	0.619755
1217.81	2.00391
1220.7	0.760113
1223.59	0.663286
1226.48	0.643944
1229.38	4.30028
1232.27	5.35735
1235.16	4.26239
1238.06	2.78949
1240.95	4.44199
1243.84	6.48133
1246.73	0.712732
1249.63	4.46386
1252.52	5.85986
1255.41	3.64631
1258.31	0.218998
1261.2	2.94344
1264.09	5.12165
1266.98	4.61462
1269.88	5.02883
1272.77	2.78315
1275.66	5.8669
1278.55	3.81872
1281.45	3.54104
1284.34	1.31752
