Measurement: Raman, 532 nm, unoriented, Raman Data Processed
Mineral: Parabutlerite
Rruff sample: R060754
Ideal chemistry: Fe^3+^SO_4_(OH)2H_2_O
Locality: Chuquicamata, Chile
Source: Michael Scott
Description: Aggregate of pale orange grains
Raman shift (cm-1)	intensity
90.19	0
93.565	29.031
96.94	2.181
100.315	28.022
103.69	6.385
107.064	22.538
110.439	6.63
113.814	33.848
117.189	47.55
120.564	3.251
123.939	94.645
127.313	236.813
130.688	379.247
134.063	387.09
137.438	430.122
140.813	496.289
144.188	687.568
147.562	844.496
150.937	980.322
154.312	1018.51
157.687	966.459
161.062	1046.14
164.436	1124.15
167.811	1207.46
171.186	1163.85
174.561	1202.26
177.936	1225
181.311	1274.57
184.685	1306.57
188.06	1356.28
191.435	1334.84
194.81	1381.57
198.185	1417.12
201.559	1492.15
204.934	1611.19
208.309	1833.18
211.684	1953.6
215.059	2090.14
218.434	2034.67
221.808	2033.58
225.183	1991.34
228.558	2217.5
231.933	2500.68
235.307	2613.57
238.682	2362.44
242.057	1791.38
245.432	1314.95
248.807	946.427
252.182	793.42
255.556	690.33
258.931	553.918
262.306	545.951
265.681	525.901
269.056	473.776
272.431	382.072
275.805	336.829
279.18	271.497
282.555	246.956
285.93	175.839
289.305	127.158
292.679	140.112
296.054	170.482
299.429	216.881
302.804	258.778
306.179	239.004
309.553	189.763
312.928	135.818
316.303	81.174
319.678	30.161
323.053	20.01
326.428	30.045
329.802	0.45
333.177	32.797
336.552	44.553
339.927	116.433
343.302	125.394
346.677	190.912
350.051	201.17
353.426	275.045
356.801	390.763
360.176	534.455
363.551	624.635
366.925	599.248
370.3	616.081
373.675	556.996
377.05	550.385
380.425	567.983
383.799	553.924
387.174	692.002
390.549	822.061
393.924	973.233
397.299	1137.89
400.674	1234.46
404.048	1241.19
407.423	1224.67
410.798	1035.51
414.173	873.761
417.548	756.469
420.922	649.661
424.297	608.619
427.672	472.289
431.047	363.409
434.422	336.962
437.797	302.805
441.171	394.294
444.546	516.184
447.921	657.528
451.296	795.71
454.671	902.963
458.045	998.568
461.42	1130.46
464.795	1245.72
468.17	1120.03
471.545	1009.5
474.919	837.546
478.294	597.146
481.669	430.451
485.044	305.859
488.419	153.781
491.794	132.92
495.168	61.328
498.543	31.35
501.918	3.158
505.293	0.467
508.668	0.109
512.042	13.363
515.417	27.55
518.792	47.689
522.167	74.574
525.542	118.167
528.917	163.09
532.291	260.862
535.666	358.727
539.041	537.531
542.416	730.467
545.791	897.312
549.166	850.952
552.54	702.761
555.915	518.429
559.29	364.036
562.665	221.024
566.04	172.549
569.414	125.791
572.789	103.609
576.164	58.931
579.539	48.346
582.914	56.981
586.289	67.342
589.663	81.051
593.038	97.519
596.413	158.803
599.788	236.947
603.162	200.1
606.537	123.664
609.912	90.027
613.287	161.48
616.662	138.758
620.037	203.79
623.411	176.649
626.786	110.446
630.161	67.591
633.536	40.306
636.911	49.249
640.286	9.264
643.66	42.074
647.035	38.981
650.41	6.153
653.785	40.688
657.16	26.168
660.534	17.326
663.909	4.426
667.284	6.029
670.659	7.35
674.034	5.002
677.409	6.193
680.783	13.944
684.158	6.444
687.533	11.007
690.908	8.021
694.283	14.454
697.657	10.948
701.032	29.123
704.407	36.87
707.782	15.091
711.157	3.643
714.531	20.211
717.906	1.491
721.281	11.001
724.656	9.853
728.031	11.443
731.406	7.596
734.78	4.604
738.155	7.468
741.53	23.388
744.905	38.219
748.28	14.248
751.654	28.028
755.029	7.255
758.404	1.995
761.779	1.413
765.154	13.495
768.529	13.844
771.903	18.758
775.278	10.629
778.653	3.122
782.028	7.978
785.403	39.919
788.778	22.41
792.152	26.266
795.527	30.761
798.902	12.947
802.277	5.604
805.652	0.648
809.026	3.883
812.401	0.957
815.776	20.439
819.151	3.314
822.526	7.999
825.901	31.761
829.275	20.425
832.65	28.413
836.025	41.661
839.4	1.262
842.774	1.626
846.149	4.442
849.524	8.26
852.899	17.661
856.274	2.244
859.649	17.068
863.023	14.788
866.398	7.223
869.773	0.147
873.148	2.115
876.523	14.375
879.898	9.102
883.272	17.706
886.647	4.769
890.022	5.406
893.397	37.239
896.771	2.319
900.146	23.833
903.521	59.781
906.896	1.216
910.271	16.369
913.646	28.689
917.02	6.764
920.395	33.483
923.77	23.24
927.145	11.998
930.52	10.785
933.894	16.886
937.269	44.532
940.644	32.306
944.019	16.651
947.394	6.301
950.769	22.231
954.143	0.978
957.518	11.748
960.893	12.133
964.268	44.562
967.643	63.328
971.018	40.667
974.392	66.86
977.767	136.646
981.142	201.306
984.517	269.635
987.892	214.202
991.266	262.198
994.641	302.711
998.016	477.776
1001.39	740.826
1004.77	1043.44
1008.14	1328.05
1011.51	1591.67
1014.89	1672.33
1018.26	1557.38
1021.64	1537.15
1025.02	1713.86
1028.39	1478.78
1031.76	974.85
1035.14	620.967
1038.51	563.112
1041.89	523.378
1045.26	415.138
1048.64	375.232
1052.01	285.023
1055.39	217.865
1058.76	173.199
1062.14	153.347
1065.51	159.783
1068.89	143.699
1072.26	173.275
1075.64	225.68
1079.01	305.909
1082.39	361.6
1085.76	488.127
1089.14	654.295
1092.51	772.256
1095.89	915.321
1099.26	1011.54
1102.63	1018.45
1106.01	1104.73
1109.38	1154.36
1112.76	996.123
1116.13	860.947
1119.51	709.056
1122.88	518.203
1126.26	427.343
1129.63	327.21
1133.01	227.533
1136.38	163.763
1139.76	135.857
1143.13	117.113
1146.51	122.78
1149.88	134.813
1153.26	139.373
1156.63	144.675
1160.01	185.964
1163.38	176.664
1166.76	177.083
1170.13	160.635
1173.51	155.051
1176.88	159.075
1180.26	163.879
1183.63	171.247
1187.01	143.323
1190.38	205.004
1193.76	179.384
1197.13	226.162
1200.51	275.944
1203.88	231.375
1207.26	205.845
1210.63	189.636
1214	205.383
1217.38	182.045
1220.75	101.965
1224.13	139.68
1227.5	108.7
1230.88	74.19
1234.25	83.139
1237.63	10.012
1241	4.628
1244.38	24.859
1247.75	15.284
1251.13	10.212
1254.5	3.56
1257.88	25.468
1261.25	28.707
1264.63	27.111
1268	23.059
1271.38	15.504
