Measurement: Raman, 532 nm, unoriented, Raman Data Processed
Mineral: Paravauxite
Rruff sample: R050468
Ideal chemistry: Fe^2+^Al_2_(PO_4_)_2_(OH)_2_8H_2_O
Locality: Llallagua, Bustillos Province, Potosi, Bolivia
Source: University of Arizona Mineral Museum
Description: Colorless aggregate of tabular crystals
Measured chemistry: (Fe^2+^_0.94_Mg_0.05_Mn_0.01_)_Σ=1_Al_2.00_(P_1.00_O_4_)_2_((OH)_0.86_F_0.14_)_Σ=2_·8H_2_O
Raman shift (cm-1)	intensity
159.468	0
162.361	1.37357
165.254	1.23907
168.147	0.316788
171.039	0.631638
173.932	1.7674
176.825	5.92833
179.717	4.05531
182.61	5.58804
185.503	8.88625
188.395	12.1484
191.288	15.3096
194.181	18.7643
197.073	21.5159
199.966	15.2607
202.859	1.94663
205.752	2.73682
208.644	6.20206
211.537	9.50223
214.43	21.7768
217.322	33.3988
220.215	44.8198
223.108	60.3422
226	75.1032
228.893	101.033
231.786	125.66
234.679	134.621
237.571	115.956
240.464	81.1499
243.357	45.4422
246.249	24.3698
249.142	12.8516
252.035	5.40848
254.928	4.04373
257.82	1.6478
260.713	2.40897
263.606	9.16803
266.498	16.8115
269.391	24.2981
272.284	31.0372
275.176	44.5055
278.069	56.8614
280.962	67.595
283.854	64.3827
286.747	51.543
289.64	44.3518
292.533	37.6015
295.425	33.3135
298.318	28.8912
301.211	21.4317
304.103	14.1742
306.996	7.67694
309.889	5.22769
312.781	3.74414
315.674	2.69458
318.567	1.49023
321.46	2.26157
324.352	1.72961
327.245	2.90421
330.138	2.7496
333.03	4.58066
335.923	4.11655
338.816	1.80725
341.709	1.94974
344.601	0.878204
347.494	2.54791
350.387	1.89835
353.279	1.82767
356.172	3.67236
359.065	7.01428
361.957	11.8618
364.85	20.0857
367.743	27.3454
370.635	34.2149
373.528	40.5587
376.421	43.615
379.314	46.8621
382.206	42.8605
385.099	38.8453
387.992	35.4151
390.884	33.6936
393.777	32.6987
396.67	40.1668
399.562	45.7691
402.455	52.1609
405.348	56.1824
408.241	49.3674
411.133	42.8205
414.026	43.9277
416.919	45.9271
419.811	55.034
422.704	61.4867
425.597	73.0157
428.49	86.2954
431.382	89.8413
434.275	77.3191
437.168	54.6096
440.06	32.7726
442.953	17.1431
445.846	11.8258
448.738	6.83746
451.631	9.11972
454.524	10.0008
457.416	13.7781
460.309	17.457
463.202	21.1012
466.095	26.5736
468.987	32.3468
471.88	35.3554
474.773	37.5898
477.665	36.0804
480.558	30.1354
483.451	24.1862
486.344	18.7459
489.236	10.4062
492.129	6.66159
495.022	2.80591
497.914	0.864014
500.807	1.47022
503.7	2.78836
506.592	5.84366
509.485	1.33392
512.378	1.49554
515.27	2.80222
518.163	7.68671
521.056	10.3457
523.949	17.2525
526.841	24.4361
529.734	32.0821
532.627	38.0426
535.519	42.1333
538.412	45.1248
541.305	44.9753
544.197	46.5531
547.09	41.7348
549.983	40.9223
552.876	37.8369
555.768	40.5528
558.661	42.3782
561.554	52.4905
564.446	67.4918
567.339	82.6899
570.232	105.238
573.125	125.119
576.017	146.407
578.91	155.825
581.803	154.998
584.695	148.461
587.588	135.25
590.481	117.196
593.373	102.057
596.266	87.9603
599.159	70.7913
602.052	55.3128
604.944	45.4953
607.837	34.3464
610.73	24.5307
613.622	19.7121
616.515	11.9309
619.408	9.79456
622.3	7.28525
625.193	7.08221
628.086	7.12949
630.979	9.39377
633.871	10.1122
636.764	14.1698
639.657	14.2345
642.549	15.3866
645.442	10.7566
648.335	9.4697
651.227	6.72919
654.12	6.38318
657.013	2.82254
659.905	2.86826
662.798	3.93292
665.691	1.45154
668.584	0.056549
671.476	1.76239
674.369	2.35205
677.262	0.891815
680.154	0.290955
683.047	0.52182
685.94	2.44891
688.832	0.719238
691.725	3.38968
694.618	0.979218
697.511	3.11862
700.403	2.24676
703.296	2.20608
706.189	4.13342
709.081	5.51822
711.974	5.25699
714.867	9.47147
717.76	6.76569
720.652	6.98828
723.545	4.48968
726.438	5.04175
729.33	5.24731
732.223	4.95703
735.116	4.19443
738.008	4.57907
740.901	3.7182
743.794	4.87253
746.687	6.7016
749.579	2.52832
752.472	2.45465
755.365	2.89609
758.257	2.29279
761.15	2.03308
764.043	2.56113
766.935	2.60019
769.828	1.32773
772.721	1.47555
775.614	1.5629
778.506	1.03461
781.399	1.34738
784.292	2.80563
787.184	0.730286
790.077	1.87173
792.97	0.142181
795.862	1.87805
798.755	1.5174
801.648	1.82507
804.54	0.786835
807.433	3.44543
810.326	2.4993
813.219	1.31042
816.111	3.95493
819.004	3.03241
821.897	1.52032
824.789	0.822815
827.682	3.16678
830.575	1.8215
833.467	1.25113
836.36	2.40704
839.253	3.40332
842.146	4.96225
845.038	5.26386
847.931	4.23178
850.824	2.95856
853.716	4.49005
856.609	3.56989
859.502	2.05045
862.394	3.92023
865.287	0.940125
868.18	4.49469
871.073	2.12949
873.965	0.777893
876.858	0.979919
879.751	0.76416
882.643	1.4975
885.536	0.767456
888.429	1.35403
891.322	0.163177
894.214	0.292053
897.107	2.7879
900	0.470703
902.892	0.932251
905.785	0.343475
908.678	1.3147
911.57	2.15805
914.463	1.88025
917.356	2.30783
920.249	1.7103
923.141	3.74387
926.034	2.26343
928.927	5.86688
931.819	4.18246
934.712	4.15903
937.605	5.09952
940.497	6.88641
943.39	6.53131
946.283	9.44281
949.176	11.349
952.068	12.651
954.961	15.8661
957.854	18.9292
960.746	23.8076
963.639	32.4382
966.532	39.8809
969.424	55.9385
972.317	76.5916
975.21	112.708
978.102	170.753
980.995	242.732
983.888	336.179
986.781	441.246
989.673	527.446
992.566	522.508
995.459	423.542
998.351	318.097
1001.24	223.44
1004.14	143.654
1007.03	91.1291
1009.92	59.8453
1012.82	37.1837
1015.71	25.2087
1018.6	15.0318
1021.49	9.38187
1024.39	8.51245
1027.28	2.39841
1030.17	1.42783
1033.06	0.547333
1035.96	0.566956
1038.85	2.86362
1041.74	4.33829
1044.63	10.2876
1047.53	16.119
1050.42	24.9949
1053.31	31.7614
1056.2	37.4992
1059.1	35.3252
1061.99	28.0317
1064.88	17.4669
1067.78	9.27332
1070.67	6.37561
1073.56	0.204681
1076.45	0.309082
1079.35	0.070526
1082.24	0.112976
1085.13	1.45996
1088.03	0.652618
1090.92	1.82916
1093.81	0.385773
1096.7	0.18045
1099.6	4.2114
1102.49	3.40698
1105.38	2.44818
1108.27	3.67899
1111.17	1.11429
1114.06	3.08456
1116.95	1.33807
1119.85	3.0368
1122.74	4.13409
1125.63	2.28909
1128.52	4.18628
1131.42	6.71878
1134.31	7.84582
1137.2	8.94443
1140.09	10.6776
1142.99	10.7422
1145.88	15.4705
1148.77	17.4128
1151.66	20.5736
1154.56	27.2893
1157.45	30.4999
1160.34	36.4381
1163.23	40.5731
1166.13	41.344
1169.02	40.6788
1171.91	31.9653
1174.81	25.1154
1177.7	20.5218
1180.59	14.859
1183.48	11.7713
1186.38	5.93121
1189.27	4.19797
1192.16	3.54123
1195.06	2.15124
1197.95	1.31287
1200.84	1.48886
1203.73	1.50003
1206.63	0.99295
1209.52	1.91467
1212.41	2.3847
1215.3	1.58356
1218.2	0.106445
1221.09	1.70926
1223.98	0.784698
1226.88	1.12006
1229.77	1.33942
1232.66	1.74487
1235.55	0.499878
1238.45	3.44226
1241.34	1.28964
1244.23	0.455566
1247.12	3.09638
1250.02	1.93027
1252.91	1.62979
1255.8	2.67868
1258.69	1.1402
1261.59	1.75742
1264.48	1.99011
1267.37	0.475983
1270.27	1.07782
1273.16	0.284424
1276.05	0.972931
1278.94	1.7243
1281.84	1.72138
1284.73	1.22269
1287.62	0
