Measurement: Raman, 780 nm, unoriented, Raman Data Processed
Mineral: Paravauxite
Rruff sample: R050314
Ideal chemistry: Fe^2+^Al_2_(PO_4_)_2_(OH)_2_8H_2_O
Locality: Siglo XX mine, Llallagua, Bolivia
Source: Eugene Schlepp
Description: Pale green prismatic crystals
Measured chemistry: (Fe^2+^_0.93_Mg_0.07_)_Σ=1_Al_2.00_(P_1.00_O_4_)_2_(OH)_2_·8H_2_O
Raman shift (cm-1)	intensity
125.79	0
128.682	22.9719
131.575	48.0874
134.468	55.7375
137.36	46.2832
140.253	38.0249
143.146	37.4513
146.038	24.5374
148.931	12.0204
151.824	3.63158
154.716	1.81572
157.609	4.50473
160.502	3.05676
163.395	0.865891
166.287	7.76205
169.18	17.5867
172.073	25.1398
174.965	31.8933
177.858	32.1076
180.751	16.443
183.643	8.86055
186.536	12.6857
189.429	22.3789
192.322	36.4336
195.214	55.0891
198.107	71.0985
201	75.2539
203.892	85.4137
206.785	92.5294
209.678	96.6318
212.571	94.4022
215.463	85.6156
218.356	69.7642
221.249	63.1821
224.141	64.0262
227.034	75.327
229.927	99.5988
232.819	124.772
235.712	128.807
238.605	107.043
241.498	72.5803
244.39	45.6783
247.283	30.1119
250.176	23.8594
253.068	19.98
255.961	21.2934
258.854	28.5877
261.746	40.8385
264.639	55.6486
267.532	74.0545
270.425	95.4737
273.317	122.372
276.21	149.03
279.103	177.896
281.995	185.514
284.888	150.025
287.781	104.558
290.673	75.515
293.566	58.4895
296.459	47.7228
299.351	35.9434
302.244	25.4583
305.137	18.3606
308.029	13.0732
310.922	8.6064
313.815	5.87822
316.708	4.34709
319.6	1.90898
322.493	0.470642
325.386	4.99469
328.278	3.00284
331.171	3.43646
334.064	2.86412
336.957	2.10201
339.849	0.640823
342.742	0.1147
345.635	0.978867
348.527	1.55309
351.42	1.79196
354.313	6.86688
357.205	8.14079
360.098	11.4952
362.991	13.7477
365.884	18.1529
368.776	24.0577
371.669	27.1233
374.562	30.9359
377.454	34.2998
380.347	34.7864
383.24	33.8171
386.132	36.0639
389.025	36.1058
391.918	42.4138
394.81	49.9571
397.703	62.7673
400.596	79.9291
403.489	97.5957
406.381	111.623
409.274	121.178
412.167	143.209
415.059	180.099
417.952	229.334
420.845	289.668
423.738	363.307
426.63	451.511
429.523	520.993
432.416	531.159
435.308	437.326
438.201	310.435
441.094	204.98
443.986	136.668
446.879	93.2621
449.772	67.5305
452.664	51.4942
455.557	40.3486
458.45	32.3786
461.343	28.0778
464.235	25.1691
467.128	20.726
470.021	17.6407
472.913	14.2377
475.806	11.0352
478.699	8.62629
481.591	7.37152
484.484	4.03317
487.377	1.97842
490.27	0.679115
493.162	1.32666
496.055	1.79232
498.948	1.46085
501.84	1.57588
504.733	2.14705
507.626	1.37657
510.519	0.833496
513.411	0.428833
516.304	0.204971
519.197	1.10907
522.089	3.86026
524.982	5.00438
527.875	8.27422
530.767	9.61927
533.66	10.2649
536.553	11.7864
539.446	12.5146
542.338	14.583
545.231	17.2382
548.124	19.7877
551.016	19.7346
553.909	24.2224
556.802	28.3423
559.694	37.0026
562.587	46.3537
565.48	55.8284
568.372	66.9141
571.265	75.286
574.158	85.281
577.051	96.1228
579.943	109.875
582.836	119.624
585.729	123.708
588.621	129.325
591.514	131.232
594.407	131.844
597.299	130.177
600.192	126.115
603.085	120.749
605.978	111.417
608.87	102.434
611.763	90.1884
614.656	77.3103
617.548	64.9279
620.441	52.148
623.334	42.3409
626.226	33.3436
629.119	25.9292
632.012	21.0229
634.905	17.7239
637.797	14.5736
640.69	9.78842
643.583	9.27584
646.475	8.67709
649.368	5.96386
652.261	3.05969
655.154	1.75768
658.046	1.85175
660.939	0.193817
663.832	1.18893
666.724	0.705902
669.617	0.937744
672.51	0.061737
675.402	1.05017
678.295	0.500931
681.188	0.054504
684.081	0.47612
686.973	0.59317
689.866	0.611061
692.759	0.430367
695.651	1.75781
698.544	2.46828
701.437	3.51255
704.329	3.4748
707.222	5.7198
710.115	4.4455
713.007	5.75216
715.9	7.31799
718.793	8.38047
721.686	9.36465
724.578	9.64719
727.471	8.7394
730.364	9.471
733.256	10.2623
736.149	10.266
739.042	10.3861
741.934	10.082
744.827	10.2042
747.72	9.27418
750.612	8.56097
753.505	7.94978
756.398	7.66452
759.291	7.12648
762.183	6.43081
765.076	5.52653
767.969	4.17627
770.861	3.80397
773.754	2.13286
776.647	3.08085
779.54	2.18476
782.432	2.5835
785.325	1.61906
788.218	1.38738
791.11	0.787918
794.003	0.925903
796.896	1.49412
799.788	0.587044
802.681	0.231667
805.574	0.210548
808.467	1.1962
811.359	0.28936
814.252	0.390305
817.145	1.18811
820.037	0.143837
822.93	0.286888
825.823	1.4548
828.716	0.910492
831.608	1.19729
834.501	1.41562
837.394	1.62419
840.286	1.52058
843.179	1.55163
846.072	1.32555
848.964	0.720161
851.857	2.07397
854.75	0.539276
857.643	1.43459
860.535	1.23596
863.428	0.853371
866.321	0.796944
869.213	0.947166
872.106	1.26989
874.999	0.026161
877.891	0.237297
880.784	0.312813
883.677	0.112228
886.569	0.418594
889.462	0.45565
892.355	0.788704
895.248	0.203308
898.14	0.903069
901.033	1.10785
903.926	0.291359
906.818	0.308525
909.711	0.596649
912.604	2.22112
915.496	0.643242
918.389	3.39472
921.282	2.70592
924.175	4.45879
927.067	4.85055
929.96	5.87084
932.853	6.71254
935.745	8.86585
938.638	9.8115
941.531	12.1284
944.423	13.6036
947.316	14.0321
950.209	17.8721
953.102	18.662
955.994	24.2284
958.887	29.4827
961.78	37.5076
964.672	47.6405
967.565	62.4631
970.458	85.6297
973.35	120.606
976.243	173.504
979.136	245.808
982.029	336.797
984.921	449.326
987.814	567.246
990.707	612.46
993.599	521.587
996.492	368.244
999.385	249.154
1002.28	162.274
1005.17	102.919
1008.06	65.688
1010.96	44.5728
1013.85	29.0787
1016.74	19.7251
1019.63	13.6191
1022.53	8.83662
1025.42	5.22018
1028.31	2.75433
1031.2	1.8045
1034.1	0.438065
1036.99	0.112274
1039.88	0.129608
1042.78	0.306107
1045.67	0.981735
1048.56	2.61114
1051.45	4.19124
1054.35	6.12878
1057.24	7.99852
1060.13	7.40938
1063.02	4.07071
1065.92	2.02035
1068.81	0.101746
1071.7	0.119305
1074.6	1.10721
1077.49	1.18167
1080.38	0.083313
1083.27	0.071766
1086.17	1.23601
1089.06	1.42662
1091.95	2.80836
1094.84	4.65599
1097.74	5.47611
1100.63	4.94873
1103.52	4.55274
1106.41	5.07349
1109.31	3.95452
1112.2	3.18688
1115.09	2.88511
1117.98	1.78113
1120.88	2.02229
1123.77	2.20186
1126.66	2.74209
1129.56	2.38751
1132.45	2.98652
1135.34	3.40942
1138.23	4.2879
1141.13	4.97822
1144.02	6.82711
1146.91	9.5262
1149.81	11.7097
1152.7	15.5866
1155.59	20.6166
1158.48	25.5518
1161.38	29.4919
1164.27	30.8138
1167.16	31.4607
1170.05	26.9923
1172.95	21.4224
1175.84	16.8695
1178.73	10.9024
1181.62	7.92004
1184.52	5.61091
1187.41	4.07696
1190.3	2.73415
1193.2	1.72755
1196.09	0.783375
1198.98	0.923016
1201.87	0.147682
1204.77	0.18898
1207.66	0.213512
1210.55	0.376682
1213.44	0.494724
1216.34	0.11121
1219.23	0.354752
1222.12	0.065937
1225.02	0.069382
1227.91	0.183128
1230.8	0.573776
1233.69	1.19047
1236.59	0.635273
1239.48	0.90329
1242.37	0.15937
1245.26	0.920567
1248.16	0.902264
1251.05	0.745049
1253.94	1.2767
1256.84	0.538006
1259.73	0.403786
1262.62	0.69521
1265.51	0.392696
1268.41	0.300014
1271.3	0.120358
1274.19	0.311184
