Measurement: Raman, 780 nm, unoriented, Raman Data Processed
Mineral: Paravauxite
Rruff sample: R050468
Ideal chemistry: Fe^2+^Al_2_(PO_4_)_2_(OH)_2_8H_2_O
Locality: Llallagua, Bustillos Province, Potosi, Bolivia
Source: University of Arizona Mineral Museum
Description: Colorless aggregate of tabular crystals
Measured chemistry: (Fe^2+^_0.94_Mg_0.05_Mn_0.01_)_Σ=1_Al_2.00_(P_1.00_O_4_)_2_((OH)_0.86_F_0.14_)_Σ=2_·8H_2_O
Raman shift (cm-1)	intensity
159.833	0
162.726	0.003485
165.619	0.510674
168.511	0.042961
171.404	0.981634
174.297	0.502848
177.189	0.603657
180.082	0.804535
182.975	1.04271
185.868	1.25104
188.76	2.01444
191.653	2.80725
194.546	3.84224
197.438	4.03
200.331	2.04691
203.224	1.60594
206.117	1.26922
209.009	1.94711
211.902	2.83742
214.795	3.34625
217.687	3.61709
220.58	4.29543
223.473	4.83227
226.365	6.1763
229.258	9.16166
232.151	10.8362
235.043	11.2693
237.936	9.49095
240.829	6.11129
243.722	3.59932
246.614	2.106
249.507	0.777365
252.4	0.260139
255.292	0.182085
258.185	0.052345
261.078	1.50154
263.971	1.823
266.863	2.91126
269.756	4.33934
272.649	5.89492
275.541	7.8215
278.434	10.4492
281.327	10.9268
284.219	10.2642
287.112	7.96209
290.005	6.00561
292.897	4.60221
295.79	3.38252
298.683	3.05041
301.576	2.0115
304.468	1.26905
307.361	0.492411
310.254	0.492767
313.146	0.109446
316.039	0.246714
318.932	0.158367
321.825	0.065964
324.717	0.205418
327.61	0.028257
330.503	0.628895
333.395	0.254301
336.288	0.31839
339.181	0.068314
342.074	0.12307
344.966	0.380714
347.859	0.071089
350.752	0.102657
353.644	0.152246
356.537	0.195328
359.43	0.445618
362.322	1.26736
365.215	1.84174
368.108	2.41549
371	2.81014
373.893	3.10114
376.786	3.71992
379.679	3.78222
382.571	3.86045
385.464	3.11348
388.357	2.97637
391.249	3.57851
394.142	4.33983
397.035	4.85917
399.928	6.42661
402.82	7.42713
405.713	7.7004
408.606	6.78902
411.498	5.83184
414.391	6.6042
417.284	6.90892
420.176	8.80705
423.069	10.8951
425.962	12.4961
428.854	15.6437
431.747	15.8311
434.64	13.429
437.533	8.79482
440.425	5.36142
443.318	3.45712
446.211	2.17838
449.103	1.4309
451.996	1.59626
454.889	1.04991
457.781	1.54056
460.674	1.51804
463.567	2.09016
466.46	2.30418
469.352	2.8362
472.245	2.88748
475.138	2.85735
478.031	2.75602
480.923	2.64419
483.816	1.90221
486.709	1.60682
489.601	0.484295
492.494	0.418076
495.387	0.172607
498.279	0.175951
501.172	0.470728
504.065	0.367592
506.957	0.070076
509.85	0.448248
512.743	0.093943
515.636	0.209652
518.528	0.447514
521.421	1.03298
524.314	1.56695
527.206	1.69503
530.099	2.55438
532.992	3.07689
535.885	3.01544
538.777	3.41958
541.67	3.2589
544.563	3.37621
547.455	3.38425
550.348	3.16499
553.241	3.70134
556.133	4.2234
559.026	4.53787
561.919	5.58992
564.812	6.84933
567.704	8.6254
570.597	8.96206
573.49	10.6891
576.382	11.786
579.275	13.1745
582.168	13.6739
585.06	13.0555
587.953	11.9742
590.846	10.7787
593.739	10.2384
596.631	8.07409
599.524	7.49855
602.417	6.15105
605.309	5.10583
608.202	4.18716
611.095	3.08467
613.987	2.33003
616.88	1.7362
619.773	1.4681
622.665	0.940718
625.558	1.21536
628.451	1.55825
631.344	1.54077
634.236	1.77629
637.129	1.75601
640.022	1.64488
642.914	1.88395
645.807	1.71107
648.7	1.38207
651.593	1.12214
654.485	0.986029
657.378	0.045101
660.271	0.01285
663.163	0.115536
666.056	0.008566
668.949	0.140551
671.841	0.293404
674.734	0.02284
677.627	0.011762
680.52	0.316158
683.412	0.393294
686.305	0.236547
689.198	0.128223
692.09	0.095864
694.983	0.26181
697.876	0.072168
700.769	0.264995
703.661	0.367322
706.554	0.167337
709.447	0.599638
712.339	0.499643
715.232	0.703574
718.125	0.512677
721.017	0.773735
723.91	0.508446
726.803	1.11887
729.696	0.522753
732.588	0.836169
735.481	0.819917
738.374	0.590839
741.266	0.502246
744.159	0.596236
747.052	0.442965
749.944	0.58403
752.837	0.524525
755.73	0.293766
758.623	0.101295
761.515	0.791049
764.408	0.153102
767.301	0.267512
770.193	0.006618
773.086	0.089365
775.979	0.473049
778.871	0.340708
781.764	0.233603
784.657	0.326566
787.55	0.393775
790.442	0.06367
793.335	0.627989
796.228	0.419658
799.12	0.308336
802.013	0.225553
804.906	0.216208
807.798	0.457254
810.691	0.541485
813.584	0.739624
816.477	0.749577
819.369	0.941585
822.262	0.175735
825.155	0.547506
828.047	0.544595
830.94	0.313625
833.833	0.773744
836.726	0.625355
839.618	0.516552
842.511	0.764124
845.404	0.930996
848.296	0.875566
851.189	0.766839
854.082	0.921149
856.974	0.640189
859.867	0.756818
862.76	0.87042
865.653	0.714472
868.545	0.534849
871.438	0.768895
874.331	0.479021
877.223	0.447228
880.116	0.128922
883.009	0.599529
885.901	0.607158
888.794	0.178822
891.687	0.306014
894.58	0.199108
897.472	0.035616
900.365	0.055337
903.258	0.225074
906.15	0.206972
909.043	0.109335
911.936	0.067916
914.828	0.080914
917.721	0.129692
920.614	0.581013
923.506	0.249485
926.399	0.493022
929.292	0.595761
932.185	0.6394
935.077	0.711992
937.97	0.465566
940.863	0.419327
943.755	1.08993
946.648	0.728856
949.541	1.32494
952.434	1.45243
955.326	1.5688
958.219	1.73184
961.112	2.00929
964.004	2.67436
966.897	3.70359
969.79	5.44387
972.683	7.57682
975.575	11.0315
978.468	16.5714
981.361	22.9203
984.253	31.898
987.146	41.0484
990.039	46.3641
992.931	44.8228
995.824	35.2535
998.717	25.9815
1001.61	17.7994
1004.5	11.7745
1007.39	7.30355
1010.29	4.28596
1013.18	2.98949
1016.07	2.18773
1018.97	1.78442
1021.86	1.0543
1024.75	0.905174
1027.64	0.583378
1030.54	0.304534
1033.43	0.053023
1036.32	0.314589
1039.21	0.477296
1042.11	0.569548
1045	0.613847
1047.89	1.47025
1050.79	2.07935
1053.68	2.92079
1056.57	3.04718
1059.46	3.38583
1062.36	2.25988
1065.25	1.5285
1068.14	0.802815
1071.03	0.199072
1073.93	0.639929
1076.82	0.070463
1079.71	0.037192
1082.61	0.420229
1085.5	0.136005
1088.39	0.177058
1091.28	0.089391
1094.18	0.008594
1097.07	0.148041
1099.96	0.875334
1102.85	0.698204
1105.75	0.27509
1108.64	0.604778
1111.53	0.218364
1114.42	0.456494
1117.32	0.124893
1120.21	0.391606
1123.1	0.262884
1126	0.301947
1128.89	0.602299
1131.78	0.581882
1134.67	0.586428
1137.57	0.870008
1140.46	0.730597
1143.35	0.920884
1146.24	1.1762
1149.14	1.68279
1152.03	1.65392
1154.92	2.18141
1157.82	2.52016
1160.71	3.31794
1163.6	3.49754
1166.49	3.16674
1169.39	3.01433
1172.28	2.39629
1175.17	1.8857
1178.06	1.225
1180.96	0.612481
1183.85	0.801409
1186.74	0.271169
1189.63	0.033876
1192.53	0.268452
1195.42	0.292932
1198.31	0.275747
1201.21	0.158786
1204.1	0.337552
1206.99	0.269807
1209.88	0.161644
1212.78	0.370088
1215.67	0.005485
1218.56	0.072894
1221.45	0.284281
1224.35	0.419659
1227.24	0.10365
1230.13	0.11724
1233.03	0.130199
1235.92	0.051377
1238.81	0.214095
1241.7	0.296517
1244.6	0.427926
1247.49	0.16714
1250.38	0.390238
1253.28	0.450303
1256.17	0.304148
1259.06	0.334493
1261.95	0.124154
1264.85	0.486496
1267.74	0.550086
1270.63	0.492755
1273.52	0.330988
1276.42	0.316235
1279.31	0.393287
1282.2	0.555857
1285.09	0.148486
