Measurement: Raman, 785 nm, unoriented, Raman Data Processed
Mineral: Parabutlerite
Rruff sample: R060754
Ideal chemistry: Fe^3+^SO_4_(OH)2H_2_O
Locality: Chuquicamata, Chile
Source: Michael Scott
Description: Aggregate of pale orange grains
Raman shift (cm-1)	intensity
83.436	0
86.81	18.635
90.185	42.7015
93.56	73.6871
96.935	81.1376
100.31	21.129
103.684	11.5312
107.059	22.579
110.434	5.55302
113.809	83.2085
117.184	120.255
120.559	158.451
123.933	215.451
127.308	223.216
130.683	232.739
134.058	270.161
137.433	290.195
140.807	266.099
144.182	225.479
147.557	269.548
150.932	277.478
154.307	324.652
157.682	317.607
161.056	339.329
164.431	290.718
167.806	290.464
171.181	266.659
174.555	251.811
177.93	325.81
181.305	337.719
184.68	302.891
188.055	352.523
191.43	354.905
194.804	329.493
198.179	395.398
201.554	471.642
204.929	562.411
208.304	683.656
211.678	831.148
215.053	847.129
218.428	854.647
221.803	825.982
225.178	819.642
228.553	908.388
231.927	1037.05
235.302	1058.46
238.677	922.427
242.052	599.494
245.427	380.898
248.801	231.319
252.176	101.439
255.551	47.5185
258.926	20.1559
262.301	18.2798
265.676	81.7465
269.05	61.4808
272.425	46.0281
275.8	40.0833
279.175	0.930847
282.55	18.784
285.924	18.9725
289.299	9.8169
292.674	11.2851
296.049	33.4355
299.424	52.484
302.798	103.975
306.173	92.9394
309.548	67.906
312.923	31.495
316.298	17.4761
319.672	14.5692
323.047	32.9583
326.422	24.2656
329.797	9.83667
333.172	3.19251
336.547	21.4075
339.921	51.6917
343.296	29.9567
346.671	61.8832
350.046	113.87
353.421	139.321
356.796	223.199
360.17	289.597
363.545	277.236
366.92	369.447
370.295	313.815
373.67	281.041
377.044	309.753
380.419	291.868
383.794	311.558
387.169	381.307
390.544	465.836
393.918	555.379
397.293	680.548
400.668	720.026
404.043	743.268
407.418	728.471
410.793	624.579
414.167	505.44
417.542	468.09
420.917	440.03
424.292	409.188
427.667	282.442
431.041	159.854
434.416	116.51
437.791	114.003
441.166	141.071
444.541	264.012
447.915	358.716
451.29	487.726
454.665	562.64
458.04	651.527
461.415	743.142
464.79	797.321
468.164	784.04
471.539	681.39
474.914	535.809
478.289	364.157
481.664	277.456
485.039	190.582
488.413	109.222
491.788	71.9475
495.163	2.55627
498.538	22.4903
501.913	8.09229
505.287	30.5195
508.662	7.84875
512.037	6.66406
515.412	1.16833
518.787	32.7657
522.161	95.178
525.536	126.816
528.911	171.956
532.286	300.36
535.661	406.318
539.036	571.649
542.41	712.139
545.785	839.212
549.16	799.6
552.535	704.153
555.909	512.638
559.284	347.518
562.659	238.763
566.034	169.809
569.409	140.77
572.784	68.0029
576.158	44.6823
579.533	59.6465
582.908	50.3148
586.283	25.2353
589.658	19.0065
593.032	67.8937
596.407	77.0811
599.782	105.978
603.157	112.193
606.532	100.273
609.907	106.736
613.281	113.795
616.656	109.612
620.031	151.273
623.406	188.443
626.781	121.83
630.156	43.6477
633.53	38.8763
636.905	16.3837
640.28	12.7636
643.655	1.04944
647.029	0.451599
650.404	10.8649
653.779	13.5345
657.154	1.26996
660.529	0.109619
663.904	0.27063
667.278	10.7248
670.653	15.702
674.028	31.1654
677.403	32.1472
680.778	37.8291
684.153	32.6179
687.527	14.9665
690.902	32.5613
694.277	49.4388
697.652	33.0531
701.027	23.6588
704.401	24.8384
707.776	21.9368
711.151	34.8628
714.526	49.4688
717.901	14.5472
721.276	49.8347
724.65	23.8145
728.025	40.5172
731.4	45.2841
734.775	27.8011
738.149	7.40137
741.524	32.2129
744.899	24.7126
748.274	46.0971
751.649	18.6813
755.024	12.9454
758.398	55.1917
761.773	1.32501
765.148	13.2924
768.523	36.608
771.898	24.7121
775.273	24.3798
778.647	14.0762
782.022	7.27057
785.397	11.1684
788.772	20.8492
792.146	27.0067
795.521	39.7635
798.896	20.8138
802.271	4.737
805.646	4.83417
809.021	22.3752
812.395	43.1011
815.77	4.97436
819.145	20.9551
822.52	39.9942
825.895	46.1785
829.269	19.8771
832.644	0.639343
836.019	54.0878
839.394	41.8065
842.769	40.7472
846.144	2.59772
849.518	38.0123
852.893	16.0026
856.268	8.25891
859.643	45.6748
863.018	39.9181
866.393	36.614
869.767	43.192
873.142	13.6443
876.517	36.4151
879.892	45.0399
883.266	9.80237
886.641	19.4092
890.016	53.9487
893.391	17.6313
896.766	28.5078
900.141	51.4352
903.515	68.9343
906.89	45.2591
910.265	56.3712
913.64	35.6527
917.015	55.7509
920.39	67.3285
923.764	37.8351
927.139	55.8507
930.514	33.6551
933.889	22.2649
937.264	32.0034
940.638	6.91309
944.013	29.8367
947.388	1.81726
950.763	3.69604
954.138	7.93115
957.513	22.8027
960.887	8.79541
964.262	7.11163
967.637	57.1256
971.012	49.6213
974.386	62.0663
977.761	136.536
981.136	174.077
984.511	214.963
987.886	222.749
991.261	229.847
994.635	258.798
998.01	364.407
1001.38	543.354
1004.76	724.978
1008.13	860.24
1011.51	1026.18
1014.88	1260.2
1018.26	1047.29
1021.63	1032.02
1025.01	1097.35
1028.38	878.772
1031.76	561.102
1035.13	346.824
1038.51	287.702
1041.88	251.208
1045.26	302.525
1048.63	187.033
1052.01	87.0883
1055.38	49.8313
1058.76	16.0671
1062.13	9.33948
1065.51	18.1956
1068.88	31.1724
1072.26	85.8442
1075.63	133.673
1079.01	227.144
1082.38	318.106
1085.76	481.165
1089.13	649.654
1092.51	812.69
1095.88	961.45
1099.26	1051.93
1102.63	1119.34
1106	1178.96
1109.38	1138.12
1112.75	1079.16
1116.13	876.833
1119.5	673.439
1122.88	456.62
1126.25	341.666
1129.63	243.639
1133	106.548
1136.38	41.3525
1139.75	24.9221
1143.13	16.5559
1146.5	21.5245
1149.88	4.88611
1153.25	15.6421
1156.63	49.6427
1160	70.4571
1163.38	75.8519
1166.75	80.4296
1170.13	115.395
1173.5	40.9685
1176.88	78.292
1180.25	60.1464
1183.62	91.9698
1187	68.3782
1190.38	144.034
1193.75	135.611
1197.12	161.606
1200.5	163.841
1203.87	178.172
1207.25	201.099
1210.62	201.911
1214	167.169
1217.37	147.21
1220.75	106.002
1224.12	115.882
1227.5	71.2487
1230.87	28.8273
1234.25	4.37341
1237.62	40.4064
1241	34.3849
1244.37	3.25464
1247.75	2.39136
1251.12	10.9464
1254.5	5.47192
1257.87	7.93701
1261.25	23.2036
1264.62	42.2251
1267.99	39.7668
1271.37	40.0136
1274.74	54.033
1278.12	22.5289
1281.49	33.9233
1284.87	15.5272
1288.24	53.9874
1291.62	38.1366
1294.99	24.5217
1298.37	5.4679
