Measurement: Raman, 780 nm, unoriented, Raman Data Processed
Mineral: Parakeldyshite
Rruff sample: R120048
Ideal chemistry: Na_2_ZrSi_2_O_7_
Locality: Alluaiv Mt., Lovozero Massif, Kola Peninsula, Murmanskaja Oblast', Northern Region, Russia
Source: Donald Doell
Description: White massive
Raman shift (cm-1)	intensity
108.478	0
111.852	2.254
115.227	4.75369
118.602	11.3713
121.977	18.7757
125.352	21.138
128.726	18.0774
132.101	14.2796
135.476	4.43216
138.851	0.409393
142.226	0.891022
145.601	8.54861
148.975	18.3757
152.35	27.0702
155.725	48.3644
159.1	61.1882
162.475	92.103
165.85	90.3815
169.224	51.3858
172.599	50.2281
175.974	65.3381
179.349	81.7884
182.724	76.8333
186.098	50.3598
189.473	37.0488
192.848	38.2358
196.223	40.2112
199.598	17.7353
202.972	2.82767
206.347	1.30914
209.722	0.491486
213.097	1.59497
216.472	0.586853
219.847	8.6452
223.221	14.1557
226.596	14.3926
229.971	22.4516
233.346	41.4146
236.721	61.3946
240.095	65.1254
243.47	69.3309
246.845	77.0074
250.22	66.3119
253.595	40.9042
256.969	24.544
260.344	18.616
263.719	23.2904
267.094	36.5675
270.469	52.5337
273.844	49.8242
277.218	27.0149
280.593	8.63895
283.968	1.1391
287.343	5.37924
290.718	5.06796
294.092	2.09949
297.467	3.95258
300.842	10.5084
304.217	14.1641
307.592	19.6913
310.967	28.5756
314.341	56.3854
317.716	85.4254
321.091	120.13
324.466	169.88
327.841	234.724
331.216	293.94
334.59	269.804
337.965	184.138
341.34	111.777
344.715	86.3709
348.09	74.7493
351.464	53.6986
354.839	40.3956
358.214	36.1376
361.589	38.6703
364.964	50.2648
368.339	71.2401
371.713	91.9675
375.088	110.013
378.463	148.04
381.838	216.808
385.213	227.502
388.587	151.043
391.962	104.3
395.337	98.4295
398.712	113.561
402.087	157.48
405.462	203.002
408.836	170.07
412.211	95.8787
415.586	54.6664
418.961	40.6444
422.336	36.863
425.71	25.54
429.085	7.03284
432.46	5.69031
435.835	0.384277
439.21	4.4187
442.584	1.15137
445.959	2.84003
449.334	1.21442
452.709	1.15613
456.084	1.58429
459.459	4.73151
462.833	7.25177
466.208	9.40131
469.583	10.7142
472.958	21.7161
476.333	20.3794
479.707	16.3084
483.082	13.233
486.457	12.0254
489.832	13.9698
493.207	18.6013
496.582	26.4723
499.956	26.7041
503.331	41.183
506.706	62.3677
510.081	78.64
513.456	44.7913
516.83	21.5311
520.205	11.7936
523.58	10.2094
526.955	9.48596
530.33	13.0944
533.705	15.277
537.079	25.7592
540.454	31.3951
543.829	25.1653
547.204	15.7554
550.579	5.62732
553.953	1.28607
557.328	3.47699
560.703	1.52441
564.078	0.707092
567.453	2.42426
570.827	5.5813
574.202	3.0116
577.577	0.362732
580.952	0.633362
584.327	0.088806
587.702	1.80865
591.076	0.009338
594.451	5.10883
597.826	11.0593
601.201	13.9507
604.576	12.4286
607.951	8.61853
611.325	5.18378
614.7	7.06409
618.075	1.40448
621.45	0.166565
624.825	1.94385
628.199	0.382813
631.574	0.50708
634.949	4.01416
638.324	2.01526
641.699	0.540466
645.073	0.856445
648.448	3.63898
651.823	2.45825
655.198	1.89813
658.573	0.528076
661.948	1.60101
665.322	0.573853
668.697	1.8786
672.072	4.68085
675.447	2.0553
678.822	5.94977
682.197	3.39185
685.571	4.58374
688.946	6.13593
692.321	6.83972
695.696	6.13855
699.071	11.3657
702.445	14.4696
705.82	24.4967
709.195	33.1574
712.57	44.2773
715.945	65.8791
719.319	79.6346
722.694	64.7008
726.069	33.9089
729.444	20.9547
732.819	18.9165
736.193	10.0323
739.568	11.5118
742.943	8.26886
746.318	7.81061
749.693	9.67133
753.068	6.16156
756.442	5.57703
759.817	3.61621
763.192	3.35297
766.567	8.77405
769.942	4.7038
773.317	5.909
776.691	4.82263
780.066	4.77484
783.441	3.48535
786.816	0.335449
790.191	5.263
793.565	5.2171
796.94	2.26343
800.315	0.142029
803.69	1.93634
807.065	0.342285
810.439	1.43012
813.814	0.992981
817.189	1.45013
820.564	3.56244
823.939	1.82123
827.314	1.27606
830.688	1.00775
834.063	4.96246
837.438	11.3367
840.813	12.5745
844.188	18.9183
847.562	19.6517
850.937	25.442
854.312	22.9769
857.687	9.55341
861.062	3.27685
864.437	2.9419
867.811	1.81335
871.186	1.81927
874.561	1.2973
877.936	7.50854
881.311	12.61
884.686	28.2771
888.06	52.2344
891.435	83.7318
894.81	129.531
898.185	178.549
901.56	265.226
904.934	348.925
908.309	322.856
911.684	186.396
915.059	96.1982
918.434	63.1644
921.808	42.9025
925.183	46.3752
928.558	52.2478
931.933	64.7334
935.308	89.7388
938.683	129.263
942.057	146.36
945.432	90.6303
948.807	42.9528
952.182	20.5306
955.557	20.2123
958.932	28.8931
962.306	54.1938
965.681	94.1429
969.056	152.739
972.431	182.077
975.806	131.237
979.18	81.9117
982.555	66.3942
985.93	28.6673
989.305	16.118
992.68	1.46905
996.054	1.05554
999.429	5.10095
1002.8	0.248474
1006.18	4.80017
1009.55	17.8894
1012.93	34.1125
1016.3	60.967
1019.68	80.7954
1023.05	62.5138
1026.43	31.3574
1029.8	15.7162
1033.18	4.65186
1036.55	8.36987
1039.93	1.84766
1043.3	1.16956
1046.68	2.92426
1050.05	1.2168
1053.43	1.62982
1056.8	5.89453
1060.18	8.72968
1063.55	0.114563
1066.93	1.73767
1070.3	2.9397
1073.67	4.42688
1077.05	3.75885
1080.42	5.14996
1083.8	4.76502
1087.17	6.68487
1090.55	9.47858
1093.92	14.9678
1097.3	8.19843
1100.67	8.26239
1104.05	6.36151
1107.42	7.13525
1110.8	5.71893
1114.17	1.93054
1117.55	4.43799
1120.92	3.18915
1124.3	0.245361
1127.67	3.9895
1131.05	1.01556
1134.42	3.06854
1137.8	2.32416
1141.17	4.12866
1144.55	2.625
1147.92	4.66449
1151.3	2.19812
1154.67	4.57544
1158.05	1.87274
1161.42	0.352234
1164.8	3.55255
1168.17	6.10468
1171.55	4.53528
1174.92	7.91412
1178.3	5.51361
1181.67	1.65326
1185.04	9.3501
1188.42	6.70386
1191.79	5.80621
1195.17	4.41748
1198.54	4.56036
1201.92	2.86267
1205.29	9.68066
1208.67	3.20019
1212.04	3.85205
1215.42	4.45435
1218.79	2.875
1222.17	0.449341
1225.54	4.50146
1228.92	0.24292
1232.29	0.268127
1235.67	0.556885
1239.04	2.37128
1242.42	1.00665
1245.79	3.13574
1249.17	0.33197
1252.54	5.06244
1255.91	2.94647
1259.29	0.226929
1262.66	0.917419
1266.04	7.87671
1269.41	5.69476
1272.79	3.83649
1276.16	1.32129
1279.54	2.86993
1282.91	3.48297
