Measurement: Raman, 785 nm, unoriented, Raman Data Processed
Mineral: Paravinogradovite
Rruff sample: R060834
Ideal chemistry: (Na,[box])_2_(Ti^4+^,Fe^3+^)_4_(Si_2_O_6_)_2_(Si_3_AlO_10_)(OH)_4_H_2_O
Locality: Kukisvumchorr Mountain, Khibiny Massif, Kola Peninsula, Russia
Source: Michael Scott
Description: Aggregates of parallel tan colored acicular crystals associated with zircon
Measured chemistry: (Na_2.13_K_0.14_)_2.27_(Ti^4+^_3.47_Fe^2+^_0.46_Nb^5+^_0.04_Mg_0.03_)_Σ=4_(Si_2.00_O_6_)_2_((Si_2.67_Al_1.17_B_0.16_)_Σ=4_O_10_)(OH)_4_·H_2_O; B and OH by difference and charge balance; Fe^2+^ by charge balance;
Raman shift (cm-1)	intensity
159.132	0
162.025	188.943
164.918	489.771
167.811	760.455
170.703	939.444
173.596	913.133
176.489	766.619
179.381	668.905
182.274	672.237
185.167	914.984
188.06	753.047
190.952	510.931
193.845	395.174
196.738	264.65
199.63	87.7602
202.523	27.3306
205.416	117.163
208.308	183.298
211.201	163.893
214.094	113.564
216.987	22.1538
219.879	257.581
222.772	445.497
225.665	620.147
228.557	764.636
231.45	871.892
234.343	1064.4
237.235	1200.74
240.128	1433.76
243.021	1730.37
245.913	2083.94
248.806	2625.04
251.699	3215.96
254.592	3865.17
257.484	4685.29
260.377	5296.12
263.27	6093.65
266.162	6700.94
269.055	7276.88
271.948	7904.2
274.841	8342.81
277.733	8887.56
280.626	9412.9
283.519	9879.95
286.411	10302.9
289.304	10466.7
292.197	10280.9
295.089	9781.44
297.982	8816.12
300.875	7776.86
303.767	6546.15
306.66	5138.18
309.553	3956.76
312.446	2873.09
315.338	1885.93
318.231	1198.34
321.124	556.935
324.016	282.578
326.909	212.506
329.802	266.315
332.695	351.719
335.587	525.225
338.48	709.308
341.373	903.224
344.265	1061.81
347.158	1283.26
350.051	1535.45
352.943	1837.35
355.836	2164.19
358.729	2600.37
361.622	3150.51
364.514	3832.81
367.407	4565.41
370.3	4993.07
373.192	5156.02
376.085	4786.99
378.978	3756.82
381.87	2625.19
384.763	1626.02
387.656	865.817
390.549	501.221
393.441	270.859
396.334	143.884
399.227	12.333
402.119	120.226
405.012	185.172
407.905	289.559
410.798	154.156
413.69	27.5723
416.583	287.155
419.476	551.07
422.368	817.525
425.261	978.047
428.154	1162.67
431.046	1329.76
433.939	1511.78
436.832	1656.77
439.724	1882.53
442.617	1873.12
445.51	1809.25
448.403	1711.33
451.295	1493.23
454.188	1258.07
457.081	947.396
459.973	730.83
462.866	494.377
465.759	266.856
468.651	96.6616
471.544	16.0991
474.437	178.514
477.33	371.157
480.222	855.144
483.115	1615.51
486.008	2694.52
488.9	3969.19
491.793	5095.49
494.686	5409.23
497.579	4676.39
500.471	3505.94
503.364	2317.9
506.257	1509.68
509.149	953.067
512.042	517.271
514.935	212.823
517.827	75.0449
520.72	12.9658
523.613	11.1479
526.505	203.634
529.398	418.279
532.291	768.551
535.184	1131.61
538.076	1587.19
540.969	1890.8
543.862	2132.66
546.754	2128.37
549.647	2124.07
552.54	2064.07
555.433	1891.21
558.325	1665.15
561.218	1476.2
564.111	1181.75
567.003	867.794
569.896	605.553
572.789	407.125
575.681	300.296
578.574	143.417
581.467	59.8237
584.36	88.1665
587.252	94.8696
590.145	28.0542
593.038	132.829
595.93	344.431
598.823	525.125
601.716	744.201
604.609	1011.28
607.501	1244.46
610.394	1430.49
613.287	1590.35
616.179	1587.59
619.072	1442.94
621.965	1313.52
624.857	1186.01
627.75	926.543
630.643	745.1
633.535	596.543
636.428	366.468
639.321	247.742
642.214	110.166
645.106	6.23047
647.999	10.106
650.892	43.9287
653.784	18.5835
656.677	18.6489
659.57	144.785
662.462	157.408
665.355	299.75
668.248	340.428
671.141	415.87
674.033	507.609
676.926	565.198
679.819	542.503
682.711	661.301
685.604	660.3
688.497	679.28
691.389	705.623
694.282	732.872
697.175	755.499
700.068	786.333
702.96	876.78
705.853	917.405
708.746	1040.29
711.638	1194.72
714.531	1306.82
717.424	1517.37
720.317	1570.09
723.209	1646.07
726.102	1663.01
728.995	1700.39
731.887	1575.55
734.78	1534.88
737.673	1429.75
740.565	1249.94
743.458	1204.52
746.351	1002.94
749.244	968.207
752.136	874.535
755.029	760.344
757.922	626.073
760.814	526.679
763.707	418.427
766.6	332.653
769.492	245.011
772.385	184.373
775.278	101.573
778.17	25.8906
781.063	8.11523
783.956	18.3237
786.849	34.3052
789.741	12.5537
792.634	17.2876
795.527	32.3325
798.419	24.7324
801.312	46.5986
804.205	20.1782
807.097	64.3574
809.99	3.48633
812.883	53.7329
815.776	25.8794
818.668	16.0059
821.561	112.652
824.454	123.374
827.346	252.86
830.239	352.547
833.132	536.316
836.024	727.092
838.917	915.123
841.81	1139.6
844.703	1488.11
847.595	1747.78
850.488	2034.22
853.381	2279.01
856.273	2494.29
859.166	2625.43
862.059	2657.08
864.952	2718.33
867.844	2656.31
870.737	2561.88
873.63	2511.14
876.522	2383.59
879.415	2317.31
882.308	2228.76
885.2	2068.45
888.093	1860.92
890.986	1779.18
893.879	1680.92
896.771	1474.95
899.664	1452.51
902.557	1325.56
905.449	1180.79
908.342	1108.78
911.235	1108.01
914.127	959.16
917.02	890.352
919.913	789.449
922.806	770.964
925.698	680.706
928.591	633.132
931.484	540.816
934.376	553.143
937.269	351.315
940.162	267.595
943.054	169.971
945.947	88.7056
948.84	19.0649
951.732	9.40332
954.625	55.3975
957.518	98.6504
960.411	22.8994
963.303	20.3877
966.196	68.0229
969.089	59.6094
971.981	62.6728
974.874	112.311
977.767	149.828
980.659	147.501
983.552	224.338
986.445	150.057
989.338	148.695
992.23	112.545
995.123	101.028
998.016	159.688
1000.91	71.1021
1003.8	166.443
1006.69	113.647
1009.59	167.853
1012.48	206.141
1015.37	316.062
1018.26	310.408
1021.16	402.267
1024.05	555.007
1026.94	697.02
1029.84	905.262
1032.73	1155.3
1035.62	1438.25
1038.51	1682.08
1041.41	1973.97
1044.3	2159.54
1047.19	2237.78
1050.08	2266.71
1052.98	2169.57
1055.87	1962.66
1058.76	1776.03
1061.65	1560.15
1064.55	1287.48
1067.44	1150.52
1070.33	928.119
1073.23	847.661
1076.12	661.182
1079.01	590.861
1081.9	412.358
1084.8	348.044
1087.69	257.538
1090.58	206.554
1093.47	124.592
1096.37	106.96
1099.26	93.4394
1102.15	96.9243
1105.05	66.4473
1107.94	28.4697
1110.83	112.159
1113.72	150.486
1116.62	103.695
1119.51	90.6187
1122.4	55.5308
1125.3	2.51123
1128.19	75.4038
1131.08	60.5215
1133.97	24.7324
1136.87	51.6519
1139.76	21.894
1142.65	20.459
1145.54	10.8604
1148.44	23.8057
1151.33	29.3271
1154.22	22.7876
1157.11	37.8794
1160.01	22.9238
1162.9	80.2036
1165.79	97.6069
1168.68	142.402
1171.58	140.932
1174.47	119.212
1177.36	219.766
1180.26	205.818
1183.15	179.007
1186.04	223.095
1188.93	214.3
1191.83	238.06
1194.72	208.913
1197.61	212.581
1200.51	236.712
1203.4	151.193
1206.29	218.862
1209.18	175.686
1212.08	186.721
1214.97	171.243
1217.86	102.824
1220.75	178.101
1223.65	226.948
1226.54	104.647
1229.43	96.3574
1232.32	95.8291
1235.22	51.04
1238.11	62.4224
1241	2.28272
1243.89	36.2935
1246.79	76.5776
1249.68	78.9756
1252.57	61.5112
1255.47	68.2251
1258.36	12.0771
1261.25	34.4053
1264.14	69.1392
1267.04	8.01074
