Measurement: Raman, 532 nm, unoriented, Raman Data Processed
Mineral: Pararealgar
Rruff sample: R140447
Ideal chemistry: AsS
Locality: Getchell mine, Adam Peak, Potosi District, Osgood Mts, Humboldt County, Nevada, USA
Source: Rock Currier
Description: Yellow-orange, vitreous-opaque, poorly crystalline to amorphous, secondary alteration coating on realgar, associated with realgar and calcite.
Raman shift (cm-1)	intensity
90.7474	0
94.1222	5.98749
97.4971	2.98657
100.872	0.984009
104.247	40.4461
107.621	36.9356
110.996	2.07986
114.371	34.1627
117.746	70.0004
121.121	54.318
124.496	57.616
127.87	79.5355
131.245	130.283
134.62	273.431
137.995	306.852
141.37	212.906
144.744	185.986
148.119	206.795
151.494	436.184
154.869	662.335
158.244	190.8
161.619	0.243591
164.993	1.38324
168.368	30.8336
171.743	80.46
175.118	98.9028
178.493	138.566
181.868	149.278
185.242	211.801
188.617	225.447
191.992	216.893
195.367	254.145
198.742	393.639
202.116	642.706
205.491	315.753
208.866	139.966
212.241	184.081
215.616	259
218.99	357.246
222.365	436.029
225.74	533.58
229.115	819.886
232.49	706.332
235.865	618.832
239.239	274.299
242.614	102.471
245.989	39.1392
249.364	3.5083
252.739	28.2264
256.113	24.0047
259.488	24.2067
262.863	17.8773
266.238	20.9605
269.613	109.925
272.988	198.854
276.362	193.346
279.737	215.817
283.112	307.105
286.487	503.602
289.862	899.944
293.236	1147.84
296.611	692.116
299.986	582.553
303.361	814.771
306.736	1332.67
310.111	1576.78
313.485	914.733
316.86	405.339
320.235	357.047
323.61	407.796
326.985	520.505
330.359	668.861
333.734	844.867
337.109	1169.6
340.484	1544.29
343.859	1983.92
347.233	2713.47
350.608	1848.69
353.983	1724.31
357.358	2824.22
360.733	2048.67
364.108	995.176
367.482	652.854
370.857	505.532
374.232	451.128
377.607	535.069
380.982	646.468
384.356	538.065
387.731	215.72
391.106	86.0206
394.481	45.2354
397.856	30.1306
401.231	17.1668
404.605	6.49579
407.98	11.7101
411.355	17.9685
414.73	9.03195
418.105	10.0585
421.479	3.37152
424.854	0.108917
428.229	1.54114
431.604	5.20178
434.979	6.75549
438.354	11.4049
441.728	19.7716
445.103	22.3048
448.478	29.4931
451.853	29.1846
455.228	33.35
458.603	37.8201
461.977	42.6962
465.352	43.8352
468.727	41.9329
472.102	38.425
475.477	37.9924
478.851	34.2481
482.226	33.418
485.601	32.6737
488.976	29.1531
492.351	22.9588
495.726	22.8485
499.1	18.5858
502.475	17.4698
505.85	18.5346
509.225	12.2507
512.6	11.563
515.974	10.6319
519.349	10.7562
522.724	9.03586
526.099	4.25574
529.474	0.325592
532.848	2.58588
536.223	5.00314
539.598	3.53455
542.973	0.889496
546.348	2.37155
549.722	2.8132
553.097	0.667236
556.472	0.690399
559.847	1.77017
563.222	1.65002
566.597	4.37289
569.971	6.14337
573.346	12.9405
576.721	25.7832
580.096	35.6468
583.471	40.0406
586.846	36.2477
590.22	26.8084
593.595	16.4528
596.97	11.0323
600.345	1.70096
603.72	1.5907
607.094	3.08505
610.469	0.344818
613.844	0.417318
617.219	4.51248
620.594	3.52167
623.968	0.228638
627.343	1.47858
630.718	6.10388
634.093	8.54996
637.468	19.3557
640.843	27.4308
644.217	29.9634
647.592	35.4444
650.967	35.0626
654.342	25.9504
657.717	22.6177
661.091	18.4675
664.466	5.91733
667.841	14.3741
671.216	12.083
674.591	17.3969
677.966	16.2557
681.34	21.3085
684.715	23.8758
688.09	28.0781
691.465	26.657
694.84	29.209
698.215	27.4104
701.589	28.8417
704.964	33.3992
708.339	30.392
711.714	28.1547
715.089	20.8093
718.463	28.0492
721.838	21.6683
725.213	20.3393
728.588	23.4087
731.963	20.0885
735.337	12.9638
738.712	9.27301
742.087	6.14798
745.462	3.92654
748.837	3.11935
752.212	5.93683
755.586	6.5531
758.961	0.734283
762.336	1.54495
765.711	0.311066
769.086	3.68185
772.46	0.187897
775.835	2.82559
779.21	0.293793
782.585	1.27991
785.96	5.33264
789.335	1.52289
792.709	1.3606
796.084	0.394318
799.459	0.9104
802.834	1.1373
806.209	0.288727
809.583	0.385742
812.958	2.53394
816.333	3.68372
819.708	0.07074
823.083	2.94162
826.457	3.43997
829.832	8.74637
833.207	3.62558
836.582	9.43726
839.957	5.99652
843.332	8.24036
846.706	12.1659
850.081	7.32806
853.456	6.82111
856.831	6.42026
860.206	8.84955
863.581	10.7246
866.955	6.07199
870.33	5.39142
873.705	7.66168
877.08	7.39123
880.455	2.0657
883.829	0.194122
887.204	5.04861
890.579	3.10657
893.954	3.90564
897.329	5.75314
900.703	4.68378
904.078	4.30807
907.453	5.60822
910.828	5.35257
914.203	5.69107
917.578	0.482086
920.952	0.337341
924.327	3.77783
927.702	4.30972
931.077	-0.277755
934.452	2.11142
937.827	2.22229
941.201	0.747436
944.576	3.96976
947.951	3.89758
951.326	0.54895
954.701	4.8739
958.075	3.57248
961.45	0.067993
964.825	1.34738
968.2	7.19287
971.575	0.444153
974.949	2.55457
978.324	0.999023
981.699	3.29596
985.074	5.05682
988.449	3.75354
991.823	3.51794
995.198	2.75684
998.573	0.096985
1001.95	4.62787
1005.32	3.35388
1008.7	2.35394
1012.07	6.68426
1015.45	4.58081
1018.82	0.757324
1022.2	0.124451
1025.57	0.328369
1028.95	3.58148
1032.32	2.772
1035.7	0.86908
1039.07	3.23138
1042.45	6.07288
1045.82	5.82233
1049.19	2.55408
1052.57	4.91461
1055.94	3.08368
1059.32	3.22668
1062.69	2.91144
1066.07	3.84467
1069.44	5.05023
1072.82	2.66791
1076.19	2.95087
1079.57	5.25873
1082.94	4.70831
1086.32	1.43426
1089.69	0.853271
1093.07	1.96558
1096.44	8.26904
1099.82	3.7207
1103.19	1.31757
1106.57	2.83283
1109.94	1.81012
1113.32	6.1239
1116.69	6.79242
1120.07	5.28912
1123.44	3.05365
1126.82	0.868896
1130.19	0.238647
1133.57	2.92432
1136.94	3.14117
1140.32	5.46875
1143.69	2.40497
1147.07	2.00275
1150.44	1.31799
1153.82	1.14044
1157.19	5.45667
1160.56	3.46912
1163.94	3.11408
1167.31	6.95935
1170.69	1.27405
1174.06	6.37329
1177.44	5.77063
1180.81	6.19415
1184.19	2.65143
1187.56	6.96393
1190.94	6.07178
1194.31	0.846985
1197.69	8.27118
1201.06	2.34497
1204.44	5.70544
1207.81	7.17401
1211.19	7.61786
1214.56	4.97492
1217.94	4.59216
1221.31	1.36804
1224.69	1.84967
1228.06	2.19171
1231.44	0.657043
1234.81	2.44348
1238.18	3.75159
1241.56	4.31488
1244.93	1.91254
1248.31	4.48853
1251.68	7.03796
1255.06	5.62836
1258.43	5.37622
1261.81	3.93249
1265.18	2.33673
1268.56	0.865723
1271.93	3.76123
1275.31	7.56317
1278.68	1.82904
1282.06	2.36743
1285.43	2.97437
1288.81	6.28162
1292.18	0.348999
1295.56	1.35504
1298.93	2.008
