Measurement: Raman, 532 nm, unoriented, Raman Data Processed
Mineral: Paravinogradovite
Rruff sample: R060834
Ideal chemistry: (Na,[box])_2_(Ti^4+^,Fe^3+^)_4_(Si_2_O_6_)_2_(Si_3_AlO_10_)(OH)_4_H_2_O
Locality: Kukisvumchorr Mountain, Khibiny Massif, Kola Peninsula, Russia
Source: Michael Scott
Description: Aggregates of parallel tan colored acicular crystals associated with zircon
Measured chemistry: (Na_2.13_K_0.14_)_2.27_(Ti^4+^_3.47_Fe^2+^_0.46_Nb^5+^_0.04_Mg_0.03_)_Σ=4_(Si_2.00_O_6_)_2_((Si_2.67_Al_1.17_B_0.16_)_Σ=4_O_10_)(OH)_4_·H_2_O; B and OH by difference and charge balance; Fe^2+^ by charge balance;
Raman shift (cm-1)	intensity
154.307	0
157.2	80.0293
160.092	474.988
162.985	1021.48
165.878	1498.45
168.77	2103.47
171.663	2591.76
174.556	2914.72
177.448	2840.13
180.341	2644.94
183.234	2241.36
186.127	1644.46
189.019	1181.69
191.912	716.19
194.805	423.538
197.697	149.031
200.59	28.166
203.483	60.6152
206.375	121.357
209.268	133.4
212.161	82.8369
215.054	31.2012
217.946	194.54
220.839	373.57
223.732	483.399
226.624	450.009
229.517	436.135
232.41	301.669
235.303	184.34
238.195	157.148
241.088	154.636
243.981	340.504
246.873	704.073
249.766	1149.4
252.659	1430.29
255.551	1725.17
258.444	2187.69
261.337	2518.48
264.229	3043.99
267.122	3434.48
270.015	3926.93
272.908	4190.45
275.8	4850.56
278.693	5315.11
281.586	5878.7
284.478	6360.31
287.371	6709.58
290.264	6977
293.156	6872.16
296.049	6485.73
298.942	5787.38
301.834	4950.75
304.727	4093.11
307.62	3193.14
310.513	2356.69
313.405	1555.13
316.298	1059.41
319.191	522.611
322.083	197.938
324.976	310.285
327.869	577.338
330.762	1026.92
333.654	1318.99
336.547	1750.39
339.44	1957.61
342.332	1897.58
345.225	1686.99
348.118	1502.45
351.01	1617.84
353.903	1673.79
356.796	1953.07
359.688	2374.4
362.581	3094.93
365.474	3697.91
368.366	4095.08
371.259	4318.14
374.152	4037.36
377.045	3308.19
379.937	2463.19
382.83	1415.12
385.723	909.604
388.615	437.379
391.508	475.62
394.401	468.878
397.293	382.857
400.186	336.539
403.079	169.721
405.972	48.2871
408.864	138.328
411.757	228.76
414.65	210.957
417.542	48.4209
420.435	49.3174
423.328	136.152
426.221	185.064
429.113	449.534
432.006	637.019
434.899	824.132
437.791	850.781
440.684	953.199
443.577	1014.66
446.469	977.669
449.362	943.342
452.255	746.111
455.147	638.952
458.04	506.013
460.933	388.362
463.826	241.314
466.718	106.424
469.611	82.3447
472.504	238.82
475.396	543.422
478.289	1085.6
481.182	1987.05
484.074	3370.49
486.967	5003.12
489.86	6416.09
492.752	7318.62
495.645	6993.34
498.538	5687.97
501.431	3978.98
504.323	2591.18
507.216	1596.58
510.109	969.381
513.001	460.05
515.894	306.012
518.787	74.9541
521.679	173.836
524.572	249.748
527.465	589.452
530.358	941.537
533.25	1488.19
536.143	1815.95
539.036	2125.25
541.928	2539.03
544.821	2595.1
547.714	2768.46
550.606	2568.95
553.499	2333.44
556.392	2143.5
559.284	1704.84
562.177	1352.64
565.07	1095.04
567.963	738.16
570.855	539.341
573.748	258.354
576.641	86.0088
579.533	86.6816
582.426	72.3301
585.319	210.502
588.212	94.6494
591.104	52.5449
593.997	7.5166
596.89	302.15
599.782	471.115
602.675	755.365
605.568	1084.99
608.46	1342.17
611.353	1597.35
614.246	1619.22
617.139	1623.71
620.031	1544.36
622.924	1404.85
625.817	1290.37
628.709	1007.86
631.602	726.889
634.495	587.481
637.387	449.232
640.28	263.66
643.173	111.092
646.066	6.03516
648.958	103.627
651.851	341.631
654.744	465.943
657.636	760.9
660.529	852.965
663.422	1053.42
666.314	1357.68
669.207	1523.09
672.1	1662.75
674.992	1627.11
677.885	1548.75
680.778	1620.18
683.67	1748.13
686.563	1661.41
689.456	1581.46
692.349	1637.76
695.241	1700.2
698.134	1825.68
701.027	1680.44
703.919	1877.47
706.812	1971.29
709.705	2249.58
712.597	2528.57
715.49	2794.41
718.383	3017.65
721.276	3197.76
724.168	3337.73
727.061	3229.13
729.954	3245.96
732.846	3116.74
735.739	2928.91
738.632	2560.42
741.524	2414.58
744.417	2206.6
747.31	1974.2
750.203	1709.06
753.095	1449.94
755.988	1400.27
758.881	1111.99
761.773	901.246
764.666	833.913
767.559	635.893
770.452	560.671
773.344	406.103
776.237	249.549
779.13	110.627
782.022	70.9863
784.915	90.6045
787.808	107.742
790.7	30.2021
793.593	13.6455
796.486	26.7734
799.378	1.1875
802.271	104.767
805.164	20.2119
808.057	141.435
810.949	95.4082
813.842	59.332
816.735	5.99121
819.627	108.415
822.52	151.394
825.413	321.198
828.305	515.134
831.198	685.604
834.091	981.313
836.984	1268.69
839.876	1684.48
842.769	2085.84
845.662	2465.72
848.554	2943.97
851.447	3294.77
854.34	3696.83
857.232	4081.68
860.125	4383.09
863.018	4542.07
865.91	4551.4
868.803	4605.58
871.696	4604.04
874.589	4499.41
877.481	4548.62
880.374	4580.16
883.267	4587.66
886.159	4596.68
889.052	4572.17
891.945	4522.49
894.837	4435.07
897.73	4299.31
900.623	3967.08
903.516	3745.93
906.408	3622.33
909.301	3278.09
912.194	3162.74
915.086	3060.38
917.979	2862.58
920.872	2685.93
923.764	2584.35
926.657	2447.36
929.55	2179.93
932.442	1909.07
935.335	1632.76
938.228	1344.2
941.121	1033.65
944.013	749.156
946.906	535.758
949.799	283.072
952.691	129.191
955.584	63.9766
958.477	2.62109
961.37	25.9219
964.262	14.8008
967.155	8.89258
970.048	14.5996
972.94	3.16992
975.833	35.7617
978.726	80.3574
981.618	2.13477
984.511	61.7559
987.404	26.8496
990.296	65.5352
993.189	30.2031
996.082	113.199
998.975	172.643
1001.87	270.502
1004.76	399.59
1007.65	522.4
1010.54	658.84
1013.44	828.527
1016.33	939.975
1019.22	1145.95
1022.12	1351.88
1025.01	1786.2
1027.9	2213.63
1030.79	2652.87
1033.69	3288.95
1036.58	3784.22
1039.47	4319.61
1042.37	4773.39
1045.26	5015.42
1048.15	5065.73
1051.04	5033
1053.94	4700.64
1056.83	4450.59
1059.72	3829.64
1062.61	3308.36
1065.51	2905.11
1068.4	2437.64
1071.29	2192.58
1074.18	1939.48
1077.08	1469.24
1079.97	1318.08
1082.86	1052.26
1085.76	826.209
1088.65	612.102
1091.54	465.42
1094.43	342.602
1097.33	283.14
1100.22	176.445
1103.11	95.1592
1106	52.7978
1108.9	121.987
1111.79	97.668
1114.68	70.585
1117.58	159.584
1120.47	8.80566
1123.36	46.8603
1126.25	28.0273
1129.15	4.54297
1132.04	42.4307
1134.93	80.7519
1137.82	88.5615
1140.72	150.204
1143.61	211.211
1146.5	321.93
1149.39	489.152
1152.29	600.354
1155.18	737.935
1158.07	596.279
1160.97	409.322
1163.86	200.439
1166.75	88.5537
1169.64	32.5508
1172.54	27.9883
1175.43	48.2158
1178.32	9.29297
1181.21	99.9336
1184.11	87.1436
1187	109.61
1189.89	104.307
1192.79	67.7627
1195.68	145.106
1198.57	175.507
1201.46	172.675
1204.36	94.0273
1207.25	168.757
1210.14	261.78
1213.03	223.096
1215.93	254.556
1218.82	199.251
1221.71	176.69
1224.61	198.671
1227.5	282.773
1230.39	199.32
1233.28	166.648
1236.18	216.899
1239.07	137.977
1241.96	224.615
1244.85	193.1
1247.75	121.31
1250.64	159.796
1253.53	222.834
1256.42	130.642
1259.32	119.192
1262.21	67.4033
1265.1	67.3662
1267.99	1.60059
1270.89	105.282
1273.78	197.036
1276.67	180.016
1279.57	150.69
1282.46	138.656
1285.35	106.473
1288.24	146.02
1291.14	108.775
1294.03	32.4375
1296.92	6.75
