Measurement: Raman, 780 nm, unoriented, Raman Data Processed
Mineral: Parapierrotite
Rruff sample: R060397
Ideal chemistry: TlSb_5_S_8_
Locality: Lookout Pass Area, southeast Tooele County, Utah, USA
Source: Michael Scott
Description: Black semimetallic fragment
Raman shift (cm-1)	intensity
129.657	0
132.55	100.181
135.442	128.532
138.335	161.066
141.228	562.905
144.12	1163.95
147.013	1565.85
149.906	1898.63
152.798	2704.32
155.691	3082.78
158.584	2483.82
161.477	1783.38
164.369	1204.52
167.262	698.754
170.155	210.935
173.047	254.471
175.94	515.75
178.833	485.822
181.726	244.667
184.618	182.552
187.511	807.723
190.404	1710.83
193.296	2782.87
196.189	4031.59
199.082	5472.04
201.974	7121.23
204.867	8900.01
207.76	10737.6
210.652	12518.8
213.545	14189.3
216.438	15694.3
219.331	16930.7
222.223	17902.8
225.116	18428.4
228.009	18223.2
230.901	17276.8
233.794	15866.3
236.687	14479.4
239.579	13308.9
242.472	12223.8
245.365	10919.8
248.257	9469.09
251.15	7911.44
254.043	6424.76
256.936	4959.17
259.828	3655.19
262.721	2763.29
265.614	2452.87
268.506	2694.58
271.399	3342.2
274.292	4253.9
277.185	4947.94
280.077	5558.76
282.97	6485.3
285.863	7853.61
288.755	9610.32
291.648	11309.7
294.541	11615.5
297.433	10364.8
300.326	10399.8
303.219	12293.7
306.111	15064
309.004	17535
311.897	18127.4
314.79	13986.5
317.682	11446.3
320.575	12165.4
323.468	12534.1
326.36	10919.2
329.253	9309.92
332.146	8271.9
335.038	7028.74
337.931	4859.1
340.824	2323.3
343.717	1081.22
346.609	560.898
349.502	192.319
352.395	144.58
355.287	376.165
358.18	417.37
361.073	363.118
363.965	271.224
366.858	159.185
369.751	46.4415
372.644	49.691
375.536	153.435
378.429	258.514
381.322	347.033
384.214	439.143
387.107	535.302
390	633.802
392.892	719.174
395.785	800.71
398.678	877.402
401.57	948.426
404.463	1019.06
407.356	1079.56
410.249	1125.96
413.141	1102.6
416.034	1014.54
418.927	908.276
421.819	804.778
424.712	713.72
427.605	648.408
430.498	600.02
433.39	567.213
436.283	542.209
439.176	521.454
442.068	503.224
444.961	484.95
447.854	469.875
450.746	451.416
453.639	431.086
456.532	410.4
459.425	385.223
462.317	359.755
465.21	324.659
468.103	292.13
470.995	265.118
473.888	235.036
476.781	206.12
479.673	179.868
482.566	161.393
485.459	146.879
488.351	129.953
491.244	117.161
494.137	104.159
497.029	91.54
499.922	76.7365
502.815	64.1726
505.708	55.7548
508.6	48.0474
511.493	35.6564
514.386	25.6069
517.278	17.4483
520.171	11.8985
523.064	5.48956
525.957	1.63049
528.849	3.57211
531.742	3.02582
534.635	7.14239
537.527	6.94046
540.42	8.28177
543.313	6.56213
546.205	8.38629
549.098	6.34842
551.991	2.08475
554.884	0.014893
557.776	3.70459
560.669	2.06998
563.562	2.96103
566.454	0.13028
569.347	7.3089
572.24	1.84839
575.132	1.77972
578.025	2.28897
580.918	2.45737
583.811	1.46057
586.703	5.00952
589.596	0.940521
592.489	8.48584
595.381	0.8349
598.274	3.77454
601.167	5.84778
604.059	8.09174
606.952	8.40762
609.845	12.2173
612.737	14.7487
615.63	18.2121
618.523	15.0695
621.416	16.4004
624.308	15.5727
627.201	17.6143
630.094	16.8922
632.986	19.1677
635.879	16.0998
638.772	19.4818
641.664	15.4358
644.557	7.02115
647.45	9.80966
650.342	6.45184
653.235	14.3581
656.128	4.8381
659.021	8.08206
661.913	10.2782
664.806	14.9236
667.699	14.2077
670.591	22.9167
673.484	13.3161
676.377	7.6925
679.269	11.1323
682.162	12.0815
685.055	11.43
687.948	14.5599
690.84	14.1288
693.733	12.4237
696.626	14.7426
699.518	12.5416
702.411	9.51559
705.304	3.40422
708.197	0.945251
711.089	0.978882
713.982	1.10046
716.875	0.127159
719.767	2.4181
722.66	0.972198
725.553	5.3212
728.445	7.033
731.338	8.618
734.231	11.8083
737.124	10.3886
740.016	11.3857
742.909	12.4128
745.802	13.0757
748.694	17.4255
751.587	15.9448
754.48	17.4598
757.372	30.223
760.265	17.1696
763.158	19.9206
766.051	19.8346
768.943	20.331
771.836	16.9739
774.729	17.5633
777.621	13.9557
780.514	15.7205
783.407	11.3068
786.299	11.3985
789.192	9.13326
792.085	9.81711
794.977	7.57647
797.87	8.30978
800.763	8.9047
803.655	7.90879
806.548	7.78236
809.441	8.52088
812.334	6.78258
815.226	6.19475
818.119	5.97887
821.012	6.66682
823.904	8.41064
826.797	4.76356
829.69	4.23
832.582	1.06962
835.475	2.86272
838.368	2.55534
841.261	1.68135
844.153	4.01315
847.046	2.60726
849.939	3.40905
852.831	0.079506
855.724	0.716194
858.617	0.498009
861.51	1.51741
864.402	0.282028
867.295	2.44083
870.188	3.0597
873.08	1.08969
875.973	1.73595
878.866	1.89922
881.758	1.31702
884.651	2.19135
887.544	1.54029
890.437	1.82011
893.329	1.11834
896.222	2.70808
899.115	0.69561
902.007	0.087189
904.9	0.028732
907.793	1.0321
910.685	1.98814
913.578	2.23482
916.471	0.989632
919.364	0.255447
922.256	1.61976
925.149	1.94195
928.042	0.90802
930.934	1.07257
933.827	2.44827
936.72	4.30441
939.612	2.95628
942.505	1.76911
945.398	2.20205
948.29	0.192146
951.183	3.70745
954.076	2.69166
956.968	1.99615
959.861	4.0635
962.754	2.01906
965.647	2.88474
968.539	3.63019
971.432	3.25494
974.325	2.31482
977.217	0.452881
980.11	3.18727
983.003	1.18847
985.895	2.48293
988.788	3.76457
991.681	2.76615
994.574	3.14363
997.466	4.12118
1000.36	2.08891
1003.25	2.2993
1006.14	2.53248
1009.04	1.62206
1011.93	3.16533
1014.82	14.1632
1017.72	0.276794
1020.61	1.56565
1023.5	3.78375
1026.39	1.62392
1029.29	1.41173
1032.18	1.15616
1035.07	3.05775
1037.96	0.718437
1040.86	1.561
1043.75	2.72583
1046.64	2.84864
1049.54	4.79199
1052.43	2.37081
1055.32	3.47182
1058.21	2.87895
1061.11	2.50042
1064	1.93806
1066.89	1.82654
1069.78	1.75137
1072.68	4.69452
1075.57	1.98733
1078.46	0.570015
1081.35	3.57844
1084.25	0.556389
1087.14	1.98171
1090.03	2.28406
1092.92	3.16093
1095.82	4.13458
1098.71	0.351265
1101.6	2.43807
1104.5	1.0936
1107.39	1.57997
1110.28	2.2438
1113.17	0.005203
1116.07	1.23111
1118.96	1.9927
1121.85	1.02843
1124.74	1.45101
1127.64	4.95021
1130.53	1.31992
1133.42	1.4835
1136.32	2.25102
1139.21	0.142143
1142.1	3.06346
1144.99	8.40191
1147.89	1.08095
1150.78	0.591743
1153.67	1.49975
1156.57	3.92539
1159.46	1.53168
1162.35	4.81974
1165.24	3.29857
1168.13	0.093674
1171.03	4.03528
1173.92	2.38016
1176.81	4.24353
1179.71	1.57604
1182.6	4.98811
1185.49	4.19778
1188.38	0.338684
1191.28	51.3716
1194.17	38.4586
1197.06	42.4883
1199.95	43.2678
1202.85	50.6109
1205.74	13.5487
1208.63	6.37054
1211.53	5.75556
1214.42	4.05663
1217.31	4.7283
1220.2	2.93737
1223.1	5.92964
1225.99	4.8662
1228.88	4.44452
1231.78	5.75957
1234.67	3.12322
1237.56	5.99771
1240.45	1.19925
1243.35	6.5012
1246.24	5.43733
1249.13	2.44787
1252.02	5.64743
1254.92	4.49245
1257.81	13.3636
1260.7	6.55141
1263.59	7.22443
1266.49	5.75527
1269.38	4.5553
1272.27	4.72361
1275.16	3.40594
1278.06	2.34067
1280.95	2.20171
1283.84	0.906609
