Measurement: Raman, 780 nm, unoriented, Raman Data Processed
Mineral: Parabutlerite
Rruff sample: R110161
Ideal chemistry: Fe^3+^SO_4_(OH)2H_2_O
Locality: Saghand, near Yazd, Iran
Source: George Rossman, California Institute of Technology
Description: Fragment of euhedral orange crystals
Raman shift (cm-1)	intensity
160.546	0
163.439	0.100266
166.332	3.31953
169.224	9.19087
172.117	24.9406
175.01	36.2714
177.902	53.0558
180.795	68.9966
183.688	85.8028
186.581	105.112
189.473	126.24
192.366	153.213
195.259	189.431
198.151	226.668
201.044	276.582
203.937	326.904
206.829	380.213
209.722	406.621
212.615	419.022
215.507	414.005
218.4	415.534
221.293	436.61
224.186	486.205
227.078	567.963
229.971	643.964
232.864	672.254
235.756	605.568
238.649	478.72
241.542	331.632
244.435	220.017
247.327	147.926
250.22	92.2113
253.113	59.8051
256.005	36.3375
258.898	23.8671
261.791	18.458
264.683	10.2192
267.576	5.31305
270.469	1.7189
273.361	7.07564
276.254	11.045
279.147	4.84575
282.04	1.74473
284.932	4.57932
287.825	3.04093
290.718	2.84203
293.61	3.8647
296.503	2.89879
299.396	2.99363
302.288	2.60718
305.181	4.66395
308.074	3.69052
310.967	4.42606
313.859	4.76656
316.752	5.72045
319.645	10.7282
322.537	12.7142
325.43	11.7778
328.323	16.172
331.216	16.9393
334.108	16.8188
337.001	23.6597
339.894	30.7939
342.786	38.1426
345.679	45.7631
348.572	66.9547
351.464	87.8512
354.357	112.149
357.25	137.142
360.142	161.397
363.035	177.714
365.928	177.172
368.821	179.438
371.713	179.506
374.606	179.236
377.499	189.637
380.391	205.623
383.284	227.13
386.177	258.751
389.07	291.212
391.962	318.131
394.855	346.923
397.748	352.546
400.64	343.17
403.533	314.932
406.426	270.591
409.318	213.408
412.211	158.4
415.104	112.649
417.997	75.1886
420.889	44.1822
423.782	17.5504
426.675	4.93339
429.567	5.27434
432.46	7.58672
435.353	2.71907
438.245	12.8345
441.138	32.0529
444.031	62.0298
446.923	97.6795
449.816	137.039
452.709	177.25
455.602	217.415
458.494	267.497
461.387	312.926
464.28	341.842
467.172	331.199
470.065	288.456
472.958	231.54
475.851	173.023
478.743	114.902
481.636	78.1997
484.529	45.9105
487.421	23.9528
490.314	7.50271
493.207	3.1889
496.099	1.83242
498.992	3.92467
501.885	3.21696
504.777	0.485727
507.67	0.135804
510.563	7.27476
513.456	18.0189
516.348	39.7968
519.241	59.279
522.134	89.1973
525.026	122.474
527.919	171.421
530.812	221.751
533.705	281.911
536.597	340.812
539.49	392.964
542.383	414.475
545.275	402.814
548.168	345.512
551.061	267.846
553.953	193.82
556.846	132.813
559.739	87.2229
562.631	52.8202
565.524	26.0602
568.417	15.2216
571.31	5.93179
574.202	0.283611
577.095	1.49717
579.988	1.65619
582.88	0.097606
585.773	1.07819
588.666	7.0819
591.558	16.9558
594.451	25.0442
597.344	39.4689
600.237	44.5694
603.129	40.5864
606.022	29.2505
608.915	21.8438
611.807	16.9818
614.7	9.10975
617.593	8.85447
620.486	6.84128
623.378	4.47578
626.271	4.50071
629.164	1.69146
632.056	4.66514
634.949	2.90902
637.842	2.19817
640.734	1.35616
643.627	0.22748
646.52	1.00994
649.413	3.08423
652.305	2.29799
655.198	2.62891
658.091	1.89597
660.983	2.77779
663.876	1.34074
666.769	0.105904
669.661	2.41688
672.554	1.46521
675.447	0.165444
678.34	1.20406
681.232	2.57034
684.125	1.03529
687.018	0.336645
689.91	0.081501
692.803	0.227955
695.696	0.027575
698.588	0.19122
701.481	0.133257
704.374	0.283805
707.266	0.498706
710.159	1.77495
713.052	0.175486
715.945	0.970383
718.837	0.162135
721.73	0.259505
724.623	1.16677
727.515	0.931598
730.408	1.30366
733.301	0.182581
736.193	1.28916
739.086	1.74711
741.979	1.72907
744.872	1.56049
747.764	0.65789
750.657	0.647918
753.55	0.691496
756.442	0.169232
759.335	0.068211
762.228	1.68261
765.12	1.01062
768.013	1.49725
770.906	1.1837
773.799	0.59366
776.691	0.120535
779.584	0.710023
782.477	0.275965
785.369	0.966028
788.262	0.286007
791.155	0.858778
794.048	0.245457
796.94	1.03642
799.833	0.66938
802.726	0.819328
805.618	1.41151
808.511	1.61545
811.404	1.74518
814.296	2.26287
817.189	2.97389
820.082	0.067792
822.975	3.1506
825.867	0.581093
828.76	1.00893
831.653	0.374045
834.545	0.314805
837.438	1.29136
840.331	1.69264
843.223	2.38391
846.116	3.61511
849.009	5.01121
851.902	6.06656
854.794	7.82361
857.687	8.9413
860.58	7.48586
863.472	6.0462
866.365	4.10316
869.258	4.35834
872.15	4.66667
875.043	4.08216
877.936	1.45876
880.829	0.013817
883.721	1.32743
886.614	1.68158
889.507	0.860737
892.399	7.76855
895.292	3.208
898.185	3.37216
901.077	2.03036
903.97	3.11769
906.863	3.04971
909.756	4.54518
912.648	2.51342
915.541	2.83046
918.434	3.0588
921.326	4.81201
924.219	1.74088
927.112	4.79313
930.005	2.35605
932.897	3.64099
935.79	0.27282
938.683	0.197085
941.575	0.784364
944.468	0.056534
947.361	0.044938
950.253	0.093869
953.146	1.83884
956.039	0.753484
958.932	0.53771
961.824	0.882916
964.717	0.128973
967.61	1.09217
970.502	6.71826
973.395	9.68308
976.288	15.7537
979.18	23.363
982.073	32.973
984.966	42.7304
987.859	55.7915
990.751	68.9282
993.644	85.7724
996.537	118.105
999.429	165.096
1002.32	220.672
1005.22	291.997
1008.11	379.815
1011	467.926
1013.89	488.266
1016.78	468.061
1019.68	456.863
1022.57	488.704
1025.46	484.857
1028.36	395.058
1031.25	281.15
1034.14	198.876
1037.03	161.687
1039.93	141.502
1042.82	117.516
1045.71	91.1663
1048.61	67.7694
1051.5	44.8644
1054.39	30.8457
1057.28	18.4547
1060.18	7.55084
1063.07	0.867559
1065.96	2.01593
1068.85	0.022855
1071.75	0.351035
1074.64	0.371007
1077.53	7.96729
1080.42	17.5543
1083.32	36.7648
1086.21	60.1023
1089.1	90.2098
1092	132.868
1094.89	180.269
1097.78	237.164
1100.67	298.232
1103.57	350.097
1106.46	367.495
1109.35	342.062
1112.24	276.681
1115.14	211.358
1118.03	162.543
1120.92	117.482
1123.82	83.9918
1126.71	56.8381
1129.6	37.3472
1132.49	20.6174
1135.39	8.75778
1138.28	2.68478
1141.17	0.753505
1144.06	1.40653
1146.96	1.22965
1149.85	0.196188
1152.74	0.93792
1155.63	1.0807
1158.53	2.12212
1161.42	4.89596
1164.31	8.58584
1167.21	10.7674
1170.1	13.2499
1172.99	17.3798
1175.88	18.0067
1178.78	19.3465
1181.67	24.5554
1184.56	27.3634
1187.45	31.2069
1190.35	38.611
1193.24	42.4355
1196.13	48.8497
1199.03	54.5746
1201.92	55.6942
1204.81	55.1311
1207.7	52.4527
1210.6	54.7343
1213.49	49.8116
1216.38	44.2088
1219.27	39.9143
1222.17	30.25
1225.06	25.6493
1227.95	18.054
1230.85	11.4143
1233.74	6.56481
1236.63	5.36159
1239.52	2.84622
1242.42	1.44362
1245.31	0.185997
1248.2	0.014789
1251.09	0.785231
1253.99	0.270703
1256.88	0.044592
1259.77	1.15709
1262.66	3.5398
1265.56	2.81354
1268.45	3.67083
1271.34	0.094862
1274.24	1.68636
1277.13	2.36222
1280.02	0.734348
1282.91	0.264926
