Measurement: Raman, 780 nm, unoriented, Raman Data Processed
Mineral: Paralaurionite
Rruff sample: R050271
Ideal chemistry: PbCl(OH)
Locality: Tiger, Pinal County, Arizona, USA
Source: Marcus Origlieri
Description: Greenish-yellow prismatic crystal
Measured chemistry: (Pb_0.96_[box]_0.04_)Cl(OH)
Raman shift (cm-1)	intensity
176.079	0
178.972	2.32419
181.864	12.0507
184.757	15.0204
187.65	23.1704
190.542	22.7992
193.435	34.8052
196.328	35.0626
199.221	23.1953
202.113	17.177
205.006	1.65933
207.899	2.29578
210.791	2.77017
213.684	4.6976
216.577	4.53177
219.47	3.39011
222.362	0.930115
225.255	4.1116
228.148	14.1755
231.04	27.3256
233.933	40.3154
236.826	77.0952
239.718	120.999
242.611	177.32
245.504	269.494
248.397	388.904
251.289	556.894
254.182	748.237
257.075	961.088
259.967	1195.8
262.86	1443.33
265.753	1681.12
268.645	1859.66
271.538	1894.78
274.431	1736.77
277.324	1393.15
280.216	1030.27
283.109	719.787
286.002	499.785
288.894	347.238
291.787	266.991
294.68	200.301
297.572	169.648
300.465	155.74
303.358	159.853
306.25	187.964
309.143	245.51
312.036	311.282
314.929	379.603
317.821	463.871
320.714	536.672
323.607	633.393
326.499	709.325
329.392	698.645
332.285	566.587
335.178	400.132
338.07	270.633
340.963	177.641
343.856	121.578
346.748	84.9536
349.641	55.028
352.534	35.6274
355.426	26.1591
358.319	14.2383
361.212	5.86766
364.104	1.95398
366.997	0.825516
369.89	2.3755
372.783	1.92064
375.675	2.34071
378.568	2.25989
381.461	3.05662
384.353	6.46889
387.246	4.41745
390.139	2.35594
393.031	3.3167
395.924	0.687805
398.817	2.18042
401.71	3.32478
404.602	6.93944
407.495	8.87253
410.388	9.52672
413.28	14.4506
416.173	16.095
419.066	15.7932
421.959	21.183
424.851	22.5763
427.744	27.1324
430.637	26.2039
433.529	28.688
436.422	27.7441
439.315	29.9999
442.207	26.9639
445.1	24.4127
447.993	21.0838
450.885	18.0301
453.778	17.2722
456.671	14.6488
459.564	13.8857
462.456	14.9452
465.349	12.9875
468.242	14.0133
471.134	12.7886
474.027	12.6648
476.92	8.72238
479.812	8.68463
482.705	7.81525
485.598	10.5567
488.491	6.55087
491.383	6.78087
494.276	5.47942
497.169	5.96991
500.061	3.65266
502.954	2.94508
505.847	5.26329
508.74	3.83325
511.632	2.29034
514.525	1.08063
517.418	1.3652
520.31	0.947708
523.203	0.015991
526.096	1.05101
528.988	0.34967
531.881	0.279709
534.774	3.21986
537.667	2.19139
540.559	2.68335
543.452	4.24589
546.345	7.48245
549.237	8.4062
552.13	10.591
555.023	12.6221
557.915	18.2782
560.808	19.1611
563.701	25.6935
566.593	32.0072
569.486	34.7429
572.379	43.8753
575.272	47.7163
578.164	53.1148
581.057	62.8901
583.95	69.1996
586.842	73.1099
589.735	74.8107
592.628	75.4843
595.52	73.1055
598.413	69.8971
601.306	64.1719
604.198	54.1511
607.091	51.0196
609.984	41.8819
612.877	30.8444
615.769	27.2724
618.662	21.7729
621.555	17.679
624.447	9.56334
627.34	8.6841
630.233	6.15801
633.125	3.99835
636.018	2.55112
638.911	0.654282
641.804	0.957458
644.696	3.23978
647.589	1.06653
650.482	0.294189
653.375	1.51932
656.267	1.30226
659.16	3.92842
662.053	0.714233
664.945	0.763245
667.838	2.31917
670.731	2.11748
673.623	5.78365
676.516	4.86601
679.409	13.4358
682.302	10.1564
685.194	13.6489
688.087	16.8356
690.98	21.0091
693.872	21.0156
696.765	29.0542
699.658	33.9069
702.55	36.7381
705.443	40.5173
708.336	43.2524
711.229	49.9674
714.121	53.3215
717.014	58.8904
719.907	62.0973
722.799	66.5735
725.692	67.0474
728.585	66.2796
731.477	67.6865
734.37	66.6802
737.263	61.2236
740.155	56.9999
743.048	54.0872
745.941	52.3682
748.834	44.313
751.726	43.1052
754.619	38.0568
757.512	32.9552
760.404	29.6153
763.297	26.2158
766.19	22.7623
769.082	18.3256
771.975	18.1415
774.868	14.2324
777.761	10.6988
780.653	11.3928
783.546	10.8123
786.439	5.72311
789.331	7.1573
792.224	5.20535
795.117	0.129272
798.01	1.90761
800.902	1.65903
803.795	1.25378
806.688	0.64473
809.58	0.762558
812.473	0.140015
815.366	0.086029
818.258	1.32912
821.151	2.66142
824.044	1.10255
826.937	1.36966
829.829	1.33254
832.722	1.05788
835.615	0.768646
838.507	1.48865
841.4	1.66556
844.293	5.0983
847.185	5.69658
850.078	4.67025
852.971	3.66507
855.864	0.821129
858.756	4.29171
861.649	2.71706
864.542	2.74322
867.434	2.49549
870.327	4.65885
873.22	4.54747
876.112	3.98635
879.005	5.80293
881.898	3.41487
884.79	3.7345
887.683	5.61962
890.576	3.5469
893.469	2.27685
896.361	4.94743
899.254	2.06454
902.147	3.13016
905.039	3.10703
907.932	2.29263
910.825	2.70496
913.717	0.781288
916.61	3.00987
919.503	4.20924
922.395	0.246849
925.288	2.26736
928.181	3.69914
931.074	3.05003
933.966	2.2206
936.859	2.45837
939.752	2.20044
942.644	4.55824
945.537	1.10603
948.43	2.76511
951.322	2.12159
954.215	3.75179
957.108	0.964951
960.001	2.93045
962.893	1.12237
965.786	6.05122
968.679	3.46591
971.571	1.79218
974.464	0.919708
977.357	1.64279
980.25	0.676598
983.142	1.39281
986.035	3.33701
988.928	2.2842
991.82	1.14811
994.713	1.18343
997.606	3.34621
1000.5	2.0647
1003.39	2.38728
1006.28	1.95785
1009.18	1.54008
1012.07	2.66849
1014.96	0.474396
1017.86	1.4584
1020.75	1.39635
1023.64	1.69576
1026.53	1.20944
1029.42	3.00712
1032.32	1.11645
1035.21	2.224
1038.1	0.541687
1041	1.0109
1043.89	0.104927
1046.78	2.90849
1049.67	2.32651
1052.57	2.92082
1055.46	1.59078
1058.35	4.00263
1061.24	2.78733
1064.14	2.9935
1067.03	1.51069
1069.92	2.45793
1072.82	2.22691
1075.71	2.21764
1078.6	1.37363
1081.49	0.317123
1084.39	0.22789
1087.28	0.842422
1090.17	1.20807
1093.07	3.52123
1095.96	0.732437
1098.85	3.83195
1101.74	0.173363
1104.64	0.213005
1107.53	2.7319
1110.42	0.551239
1113.31	1.08836
1116.21	3.20709
1119.1	3.49702
1121.99	2.8978
1124.88	2.46656
1127.78	1.57624
1130.67	0.776352
1133.56	3.02744
1136.45	1.87368
1139.35	1.47189
1142.24	2.79588
1145.13	1.30743
1148.03	1.41097
1150.92	2.76076
1153.81	2.30012
1156.7	2.83202
1159.6	1.27109
1162.49	0.329437
1165.38	0.336609
1168.28	1.74017
1171.17	2.96951
1174.06	4.11145
1176.95	2.84252
1179.85	2.93494
1182.74	4.569
1185.63	1.75374
1188.52	2.94704
1191.42	1.18316
1194.31	1.34216
1197.2	1.35074
1200.1	0.258507
1202.99	1.09654
1205.88	1.55592
1208.77	0.311455
1211.67	1.41277
1214.56	0.945793
1217.45	3.70133
1220.34	2.54302
1223.24	3.39183
1226.13	1.37151
1229.02	3.78171
1231.91	2.00486
1234.81	4.61247
1237.7	1.82348
1240.59	1.53984
1243.48	2.37872
1246.38	2.09486
1249.27	3.24226
1252.16	3.38997
1255.06	0.375191
1257.95	2.47221
1260.84	1.85382
1263.73	1.99588
1266.63	1.27791
1269.52	1.82849
1272.41	2.13036
1275.31	3.03288
1278.2	1.10258
1281.09	1.94633
1283.98	2.09871
