Measurement: Raman, 514 nm, unoriented, Raman Data Processed
Mineral: Paravauxite
Rruff sample: R050314
Ideal chemistry: Fe^2+^Al_2_(PO_4_)_2_(OH)_2_8H_2_O
Locality: Siglo XX mine, Llallagua, Bolivia
Source: Eugene Schlepp
Description: Pale green prismatic crystals
Measured chemistry: (Fe^2+^_0.93_Mg_0.07_)_Σ=1_Al_2.00_(P_1.00_O_4_)_2_(OH)_2_·8H_2_O
Raman shift (cm-1)	intensity
103.124	0
107.3	269.763
111.473	644.928
115.644	1186.32
119.813	1178.98
123.981	1079.1
128.146	1070.94
132.309	901.144
136.47	752.726
140.63	672.038
144.787	331.435
148.942	100.049
153.096	4.991
157.247	48.312
161.396	181.715
165.544	119.171
169.689	64.717
173.833	153.095
177.974	55.045
182.114	34.369
186.251	2.952
190.387	78.18
194.52	243.901
198.652	42.364
202.782	68.406
206.909	74.548
211.035	67.32
215.159	260.484
219.281	833.444
223.4	1745.73
227.518	3670.17
231.634	6198.76
235.748	6151.9
239.86	4094.72
243.97	2214.28
248.079	1277.58
252.185	855.608
256.289	740.339
260.391	375.76
264.492	322.854
268.59	322.785
272.687	363.814
276.781	673.098
280.874	901.164
284.964	610.412
289.053	613.465
293.14	837.191
297.225	917.343
301.308	700.054
305.389	382.554
309.468	430.54
313.545	251.173
317.62	168.283
321.693	208.646
325.765	245.924
329.834	299.729
333.902	184.696
337.967	236.774
342.031	20.528
346.093	65.954
350.153	55.31
354.21	7.924
358.267	119.866
362.321	377.106
366.373	747.565
370.423	1021.72
374.471	1585.43
378.518	1839.72
382.563	1607.65
386.605	1236.1
390.646	934.825
394.685	765.816
398.722	726.229
402.757	936.004
406.79	1023.13
410.821	901.553
414.851	773.353
418.878	533.455
422.904	599.102
426.927	634.585
430.949	525.591
434.969	518.988
438.987	386.79
443.003	76.938
447.018	181.459
451.03	28.302
455.041	59.489
459.049	257.076
463.056	637.996
467.061	864.211
471.064	1019.65
475.065	890.31
479.064	955.237
483.062	671.404
487.057	395.812
491.051	137.413
495.043	78.239
499.032	78.38
503.02	2.327
507.007	67.993
510.991	51.152
514.973	355.889
518.954	663.9
522.933	721.564
526.91	1166.78
530.885	1686.69
534.858	2003.85
538.829	2276.08
542.799	2518.57
546.766	2141.8
550.732	1845.07
554.696	1463.1
558.658	1638.22
562.618	1862.63
566.576	2555.73
570.533	3788.74
574.488	5479.99
578.44	6628.13
582.391	6898.01
586.341	6315.08
590.288	5453
594.233	4291.52
598.177	3306.44
602.119	2546.14
606.059	1623.22
609.997	1245.69
613.933	796.826
617.868	655.566
621.801	383.221
625.731	837.014
629.66	666.043
633.588	792.262
637.513	1166.62
641.437	1271.51
645.358	1091.27
649.278	830.773
653.196	814.77
657.113	324.107
661.027	427.879
664.94	339.734
668.851	97.396
672.76	77.641
676.667	41.525
680.572	101.834
684.476	193.762
688.378	52.869
692.278	56.18
696.176	89.396
700.072	37.641
703.967	113.438
707.86	43.9
711.751	5.68
715.64	227.211
719.527	172.707
723.413	81.812
727.297	229.418
731.179	229.564
735.059	4.67
738.937	39.613
742.814	151.447
746.689	123.92
750.562	43.002
754.433	103.555
758.303	256.689
762.17	28.32
766.036	52.486
769.901	158.09
773.763	323.119
777.624	118.613
781.482	229.725
785.339	211.518
789.195	289.951
793.048	234.988
796.9	174.643
800.75	66.951
804.598	349.918
808.445	319.453
812.289	225.672
816.132	110.701
819.973	332.527
823.813	329.062
827.65	341.141
831.486	254.184
835.32	256.061
839.152	345.451
842.983	199.982
846.812	206.807
850.639	480.531
854.464	210.312
858.288	204.443
862.11	373.262
865.93	219.322
869.748	201.318
873.564	370.865
877.379	62.828
881.192	320.227
885.004	457.398
888.813	510.893
892.621	456.004
896.427	182.242
900.232	204.873
904.034	418.451
907.835	596.139
911.634	329.137
915.432	606.406
919.227	632.555
923.021	558.875
926.813	599.867
930.604	600.324
934.393	683.285
938.18	917.477
941.965	929.258
945.749	996.676
949.53	1084.23
953.311	1187.71
957.089	1322.93
960.866	1614.76
964.641	1940.12
968.414	2164.2
972.185	2803.82
975.955	3972.44
979.723	6039.44
983.49	10166.6
987.254	16856.5
991.017	21003.3
994.779	19441.2
998.538	14988.8
1002.3	9505.01
1006.05	5810.34
1009.81	3716.95
1013.56	2524.67
1017.31	1972.58
1021.06	1467.62
1024.81	1314.76
1028.55	1061
1032.3	817.396
1036.04	921.898
1039.78	1102.54
1043.52	1118.59
1047.26	1300.24
1050.99	1564.35
1054.73	2433.49
1058.46	2975.76
1062.19	2083.65
1065.92	1334.55
1069.65	575.699
1073.37	442.447
1077.1	342.656
1080.82	442.047
1084.54	276.623
1088.26	243.91
1091.97	171.088
1095.69	183.793
1099.4	138.768
1103.12	313.135
1106.83	40.254
1110.54	306.105
1114.24	240.346
1117.95	108.461
1121.65	449.35
1125.35	277.723
1129.06	39.828
1132.75	123.576
1136.45	3.162
1140.15	130.016
1143.84	111.902
1147.53	414.197
1151.22	368.904
1154.91	614.178
1158.6	769.309
1162.28	1187.27
1165.97	1576.34
1169.65	1518.83
1173.33	1012.8
1177.01	824.957
1180.69	378.592
1184.36	437.609
1188.04	128.049
1191.71	172.957
1195.38	55.969
1199.05	18.906
1202.71	28.402
1206.38	15.422
1210.04	46.961
1213.71	40.584
1217.37	65.26
1221.03	44.709
1224.68	117.758
1228.34	121.676
1231.99	92.045
1235.65	202.842
1239.3	253.484
1242.95	247.984
1246.59	259.312
1250.24	183.951
1253.88	282.527
1257.53	72.094
1261.17	3.242
1264.81	350.537
1268.45	161.459
1272.08	182.668
1275.72	166.613
1279.35	477.605
1282.98	348.531
1286.61	392.006
1290.24	16.223
1293.87	101.541
1297.49	46.432
1301.11	273.438
1304.73	238.209
1308.36	454.236
1311.97	408.914
1315.59	445.623
1319.2	204.109
1322.82	95.523
1326.43	461.92
1330.04	217.465
1333.65	251.264
1337.26	183.465
1340.86	232.662
1344.47	96.709
1348.07	0
