Measurement: Raman, 532 nm, unoriented, Raman Data Processed
Mineral: Pargasite
Rruff sample: R060072
Ideal chemistry: NaCa_2_(Mg_4_Al)(Si_6_Al_2_)O_22_(OH)_2_
Locality: Pein Pyit, Mogok, Burma
Source: Marcus Origlieri
Description: Pale green prismatic crystal embedded in calcite
Measured chemistry: (Na_0.81_K_0.19_)_Σ=1_(Ca_1.90_Na_0.10_)_Σ=2_(Mg_3.46_Al_0.45_Fe^2+^_0.05_Ti_0.04_)_Σ=4_Al_1.00_(Si_5.57_Al_2.43_)_Σ=8_O_22_(OH)_2_
Raman shift (cm-1)	intensity
149.082	0
151.975	14.5055
154.867	24.1218
157.76	38.2496
160.653	57.9605
163.546	95.3759
166.438	154.07
169.331	163.577
172.224	91.4888
175.116	49.8746
178.009	37.5054
180.902	31.8464
183.794	33.6953
186.687	39.6172
189.58	30.3911
192.472	15.7524
195.365	5.53595
198.258	8.80646
201.151	1.37604
204.043	15.0383
206.936	38.335
209.829	74.9492
212.721	117.903
215.614	169.105
218.507	210.532
221.4	255.905
224.292	291.101
227.185	292.971
230.078	253.883
232.97	200.312
235.863	162.044
238.756	146.415
241.649	139.448
244.541	128.297
247.434	117.046
250.327	112.881
253.219	116.447
256.112	110.483
259.005	103.523
261.897	84.4087
264.79	62.1608
267.683	41.5069
270.575	22.0206
273.468	10.2082
276.361	3.47052
279.254	1.01373
282.146	2.67889
285.039	1.66992
287.932	0.374268
290.825	2.15918
293.717	1.7915
296.61	4.15106
299.503	2.70117
302.395	0.322266
305.288	0.019165
308.181	0.004883
311.073	1.71832
313.966	0.593323
316.859	4.26019
319.752	10.654
322.644	21.1559
325.537	35.675
328.43	46.0963
331.322	62.8073
334.215	74.9205
337.108	83.9324
340	88.2018
342.893	90.0632
345.786	91.6831
348.678	97.3912
351.571	100.413
354.464	100.198
357.357	108.499
360.249	126.036
363.142	151.201
366.035	173.308
368.928	204.467
371.82	226.907
374.713	242.542
377.606	251.49
380.498	246.48
383.391	225.346
386.284	197.469
389.176	172.518
392.069	131.564
394.962	102.582
397.854	86.1487
400.747	77.2353
403.64	79.3809
406.533	86.1537
409.425	94.3564
412.318	103.587
415.211	108.608
418.103	116.025
420.996	117.43
423.889	111.441
426.782	96.8964
429.674	89.7793
432.567	72.8995
435.46	61.606
438.352	49.4369
441.245	36.4429
444.138	23.9492
447.031	15.4677
449.923	6.51093
452.816	5.22894
455.709	1.19025
458.601	1.83429
461.494	0.784058
464.387	1.05663
467.279	1.00029
470.172	1.22454
473.065	1.72058
475.957	1.74634
478.85	2.56677
481.743	3.04838
484.636	2.10328
487.528	0.852091
490.421	0.135317
493.314	1.66144
496.206	4.54602
499.099	8.05963
501.992	14.4023
504.885	23.6779
507.777	33.8198
510.67	46.2977
513.563	57.2386
516.455	60.5718
519.348	58.9887
522.241	47.4035
525.134	35.0842
528.026	29.4392
530.919	27.1831
533.812	26.7161
536.704	27.4972
539.597	28.3209
542.49	30.2531
545.382	30.5812
548.275	31.4276
551.168	30.9074
554.061	30.391
556.953	26.377
559.846	22.5287
562.739	14.5336
565.631	9.06543
568.524	6.76843
571.417	3.89703
574.309	5.21472
577.202	4.63928
580.095	1.91596
582.987	0.294861
585.88	0.067932
588.773	1.64716
591.666	1.66217
594.558	0.926819
597.451	2.28449
600.344	1.05713
603.236	0.264404
606.129	0.724854
609.022	1.42261
611.915	2.33466
614.807	7.64667
617.7	14.0348
620.593	26.1604
623.485	36.2258
626.378	55.6322
629.271	82.2991
632.163	123.002
635.056	167.788
637.949	227.762
640.842	295.055
643.734	370.236
646.627	432.749
649.52	464.474
652.412	459.06
655.305	426.846
658.198	380.068
661.091	330.131
663.983	282.455
666.876	233.418
669.769	194.582
672.661	163.283
675.554	137.98
678.447	120.596
681.34	117.781
684.232	120.738
687.125	127.412
690.018	133.838
692.91	136.186
695.803	127.259
698.696	111.898
701.588	93.3561
704.481	64.826
707.374	52.1907
710.266	38.3209
713.159	31.7623
716.052	23.4766
718.945	18.8888
721.837	14.448
724.73	13.8887
727.623	12.242
730.515	9.55829
733.408	10.6791
736.301	6.01965
739.193	7.26672
742.086	6.34747
744.979	9.12048
747.872	1.68665
750.764	3.63623
753.657	1.63641
756.55	0.880432
759.442	2.54242
762.335	0.034912
765.228	1.40094
768.121	1.16986
771.013	1.89929
773.906	3.604
776.799	1.56542
779.691	4.61312
782.584	7.89485
785.477	8.33596
788.37	8.71532
791.262	11.3714
794.155	11.8785
797.048	12.1646
799.94	12.5538
802.833	14.8301
805.726	15.6631
808.619	14.6511
811.511	15.556
814.404	16.8633
817.297	15.9932
820.189	14.4019
823.082	17.8526
825.975	17.822
828.867	23.235
831.76	20.1829
834.653	14.6664
837.545	16.4453
840.438	13.761
843.331	13.5633
846.224	9.50555
849.116	6.57074
852.009	5.18182
854.902	8.12115
857.794	6.76526
860.687	4.2558
863.58	2.15143
866.472	1.26935
869.365	2.39056
872.258	1.25134
875.151	1.28058
878.043	0.74469
880.936	0.501221
883.829	0.318298
886.721	1.06311
889.614	0.84259
892.507	0.190491
895.399	2.90808
898.292	4.71692
901.185	10.3494
904.078	10.5292
906.97	14.9986
909.863	15.4219
912.756	17.4105
915.649	16.404
918.541	14.6729
921.434	12.2181
924.327	11.4286
927.219	11.0704
930.112	9.88901
933.005	7.55245
935.897	9.11942
938.79	12.2809
941.683	15.5474
944.576	18.9422
947.468	18.3108
950.361	24.5477
953.254	28.5777
956.146	29.1115
959.039	29.4396
961.932	34.7246
964.824	33.376
967.717	34.1356
970.61	34.5274
973.503	38.8313
976.395	38.9092
979.288	42.7398
982.181	43.2499
985.073	47.186
987.966	51.3029
990.859	53.3624
993.751	59.9674
996.644	67.8583
999.537	80.0312
1002.43	88.4595
1005.32	97.3162
1008.22	105.317
1011.11	105.6
1014	102.805
1016.89	96.5878
1019.79	83.9767
1022.68	77.118
1025.57	57.4412
1028.46	48.7662
1031.36	38.9403
1034.25	32.2543
1037.14	25.5843
1040.04	15.721
1042.93	9.14518
1045.82	6.20268
1048.71	5.06076
1051.61	3.3172
1054.5	0.393921
1057.39	1.20538
1060.28	2.8858
1063.18	2.33508
1066.07	0.201599
1068.96	1.95994
1071.85	-1.16632
1074.75	1.79801
1077.64	1.96765
1080.53	2.08054
1083.42	1.33606
1086.32	1.4574
1089.21	0.872314
1092.1	2.0014
1095	4.20117
1097.89	2.9856
1100.78	4.67847
1103.67	3.15833
1106.57	2.92181
1109.46	3.4505
1112.35	1.57068
1115.24	3.04187
1118.14	2.0094
1121.03	0.125916
1123.92	2.48431
1126.82	1.18817
1129.71	2.40637
1132.6	2.146
1135.49	5.14874
1138.39	1.85877
1141.28	5.56293
1144.17	3.53803
1147.07	3.7677
1149.96	5.43292
1152.85	6.52527
1155.74	4.83563
1158.64	5.69391
1161.53	6.95593
1164.42	8.78638
1167.31	7.59509
1170.21	7.5733
1173.1	10.2779
1175.99	7.65021
1178.88	6.93451
1181.78	6.59662
1184.67	2.30151
1187.56	7.39728
1190.45	6.09021
1193.35	6.85687
1196.24	5.37378
1199.13	4.37555
1202.03	5.06177
1204.92	5.34802
1207.81	2.17841
1210.7	6.41821
1213.6	5.90393
1216.49	1.82745
1219.38	4.11792
1222.28	1.66894
1225.17	4.70758
1228.06	1.67487
1230.95	1.58502
1233.85	5.21222
1236.74	2.42383
1239.63	0.002014
1242.52	2.47601
1245.42	2.06574
1248.31	1.27704
1251.2	0.082153
1254.1	4.07898
1256.99	4.05707
1259.88	0.554871
1262.77	3.20203
1265.67	3.89624
1268.56	7.85248
1271.45	5.33014
1274.34	5.40747
1277.24	1.64825
1280.13	0.911316
1283.02	4.51208
1285.91	2.36578
1288.81	4.65405
1291.7	1.534
1294.59	3.93579
1297.48	1.48968
1300.38	0.325134
