Measurement: Raman, 532 nm, unoriented, Raman Data Processed
Mineral: Pargasite
Rruff sample: R050321
Ideal chemistry: NaCa_2_(Mg_4_Al)(Si_6_Al_2_)O_22_(OH)_2_
Locality: Soper River, near Kimmirut, Baffin Island, Nunavut, Canada
Source: Frank Hawthorne
Description: Greenish brown transparent fragment
Measured chemistry: (Na_0.77_K_0.23_)(Ca_1.90_Na_0.10_)_=2_Mg_4.00_(Al_0.58_Fe^3+^_0.07_Ti_0.05_Mg_0.30_)(Si_6.24_Al_1.76_)_=8_O_22_((OH)_0.69_F_0.31_)_2_
Raman shift (cm-1)	intensity
128.03	0
131.405	0.406219
134.78	8.85098
138.155	8.63115
141.529	4.62589
144.904	2.43742
148.279	4.30023
151.654	6.24757
155.029	10.6468
158.404	14.1662
161.778	21.4636
165.153	37.7232
168.528	33.1181
171.903	16.3329
175.278	11.869
178.652	8.45822
182.027	7.14265
185.402	7.95316
188.777	5.14645
192.152	2.11267
195.526	0.006516
198.901	0.573013
202.276	2.48801
205.651	4.93614
209.026	10.3924
212.401	17.4584
215.775	25.6384
219.15	32.8528
222.525	38.9985
225.9	45.4412
229.275	47.2471
232.649	52.0987
236.024	54.7436
239.399	59.4017
242.774	54.9368
246.149	46.9942
249.524	43.396
252.898	37.0904
256.273	27.9339
259.648	18.0612
263.023	8.29265
266.398	5.4628
269.772	0.548096
273.147	0.436783
276.522	0.700424
279.897	1.18162
283.272	1.53561
286.647	1.20006
290.021	0.085114
293.396	1.34549
296.771	0.197662
300.146	1.63416
303.521	3.95935
306.895	1.70148
310.27	3.36774
313.645	5.49669
317.02	8.07253
320.395	8.2242
323.769	10.0405
327.144	8.37422
330.519	7.93574
333.894	8.35552
337.269	6.75092
340.644	4.69708
344.018	2.1479
347.393	4.4646
350.768	6.75307
354.143	5.59718
357.518	10.6476
360.892	14.0449
364.267	17.5087
367.642	23.5494
371.017	25.3472
374.392	30.0746
377.767	30.5973
381.141	31.3899
384.516	34.8013
387.891	36.1208
391.266	32.8848
394.641	29.8065
398.015	21.2145
401.39	17.7967
404.765	15.8371
408.14	17.6952
411.515	18.3634
414.89	17.1238
418.264	22.8608
421.639	21.1287
425.014	20.5359
428.389	19.3799
431.764	14.1829
435.139	9.48959
438.513	5.04227
441.888	1.63547
445.263	2.0419
448.638	1.0997
452.012	1.24344
455.387	1.72827
458.762	0.085159
462.137	0.976318
465.512	0.261139
468.887	1.89496
472.261	1.07834
475.636	0.004059
479.011	0.7659
482.386	0.446793
485.761	0.991714
489.135	1.42174
492.51	0.684128
495.885	1.78597
499.26	3.31049
502.635	5.36241
506.01	5.87343
509.384	10.6656
512.759	15.3895
516.134	13.6676
519.509	13.9083
522.884	11.1573
526.259	8.46968
529.633	9.09589
533.008	9.58798
536.383	8.04138
539.758	9.20544
543.133	7.73929
546.507	8.56796
549.882	8.50259
553.257	9.233
556.632	9.42694
560.007	8.39606
563.381	7.9415
566.756	7.0358
570.131	4.27252
573.506	6.59097
576.881	5.52612
580.256	3.72897
583.63	4.17911
587.005	1.80984
590.38	0.380676
593.755	0.235504
597.13	1.37048
600.505	0.41571
603.879	0.323303
607.254	0.458649
610.629	0.44754
614.004	1.29233
617.379	2.07074
620.753	1.52533
624.128	3.98187
627.503	5.4093
630.878	10.0708
634.253	14.5199
637.627	22.024
641.002	29.0598
644.377	40.3143
647.752	49.7168
651.127	62.2423
654.501	73.0223
657.876	91.2619
661.251	106.892
664.626	118.483
668.001	126.068
671.376	121.64
674.75	103.543
678.125	84.4627
681.5	63.4692
684.875	47.3552
688.25	35.7142
691.625	30.3402
694.999	21.0212
698.374	15.4844
701.749	9.26077
705.124	4.1293
708.499	2.08334
711.873	1.87488
715.248	1.13312
718.623	0.237854
721.998	0.35318
725.373	2.87894
728.747	0.432678
732.122	0.360718
735.497	0.185883
738.872	1.2814
742.247	1.69351
745.622	3.065
748.996	3.52814
752.371	2.90335
755.746	4.1907
759.121	5.89621
762.496	5.88623
765.87	8.4249
769.245	5.46845
772.62	3.34927
775.995	0.577271
779.37	2.22138
782.745	3.38959
786.119	3.17676
789.494	5.49234
792.869	6.00537
796.244	3.55444
799.619	4.04175
802.994	4.62
806.368	3.39621
809.743	4.13141
813.118	5.3895
816.493	4.56961
819.868	4.55893
823.242	3.95081
826.617	3.9133
829.992	3.2464
833.367	4.7901
836.742	6.05417
840.116	2.41681
843.491	1.13727
846.866	2.02118
850.241	1.37326
853.616	0.488495
856.99	1.35941
860.365	2.64179
863.74	1.67154
867.115	0.32196
870.49	0.531525
873.865	1.45169
877.239	1.53232
880.614	1.6167
883.989	3.05014
887.364	6.84665
890.739	6.90668
894.114	6.63422
897.488	7.27936
900.863	8.4729
904.238	10.7256
907.613	11.1789
910.988	14.1978
914.362	12.8383
917.737	15.7953
921.112	14.1011
924.487	11.5397
927.862	11.2985
931.236	6.98831
934.611	1.45029
937.986	3.39566
941.361	0.347321
944.736	0.258057
948.111	0.4664
951.485	0.296417
954.86	0.755035
958.235	3.17709
961.61	0.076874
964.985	0.732513
968.36	0.62085
971.734	0.545868
975.109	0.40918
978.484	3.16788
981.859	4.88739
985.234	2.26379
988.608	6.54025
991.983	4.32797
995.358	6.90637
998.733	8.84744
1002.11	10.2849
1005.48	13.7398
1008.86	18.2052
1012.23	17.3562
1015.61	20.8354
1018.98	20.0012
1022.36	18.728
1025.73	18.9719
1029.11	18.2705
1032.48	16.2906
1035.86	18.0975
1039.23	15.7234
1042.61	10.3665
1045.98	10.0651
1049.36	7.07532
1052.73	9.01288
1056.11	6.45221
1059.48	5.58032
1062.85	5.0495
1066.23	5.75452
1069.6	2.70917
1072.98	2.66486
1076.35	1.72925
1079.73	2.95587
1083.1	5.15655
1086.48	3.34601
1089.85	3.31586
1093.23	1.47247
1096.6	6.03699
1099.98	7.39069
1103.35	7.15277
1106.73	5.51361
1110.1	1.55481
1113.48	6.1709
1116.85	1.53296
1120.23	6.31726
1123.6	3.08758
1126.98	1.85864
1130.35	2.09979
1133.72	0.483948
1137.1	1.69098
1140.47	0.314514
1143.85	1.31201
1147.22	1.78113
1150.6	0.915894
1153.97	1.69843
1157.35	0.90509
1160.72	1.48688
1164.1	2.63062
1167.47	2.53766
1170.85	4.66608
1174.22	0.947632
1177.6	3.30481
1180.97	3.04962
1184.35	0.890137
1187.72	2.42975
1191.1	3.62714
1194.47	3.11469
1197.85	2.901
1201.22	0.41272
1204.6	4.46741
1207.97	5.66638
1211.35	2.4455
1214.72	3.90839
1218.1	3.56293
1221.47	2.97369
1224.85	1.08563
1228.22	3.48303
1231.6	5.84936
1234.97	7.26129
1238.35	1.20233
1241.72	3.02185
1245.09	4.96704
1248.47	6.18451
1251.84	4.65515
1255.22	4.14935
1258.59	3.60901
1261.97	2.24017
1265.34	4.17517
1268.72	2.35278
1272.09	6.48364
1275.47	3.96509
1278.84	1.6048
1282.22	2.69983
1285.59	3.35406
1288.97	5.6203
1292.34	4.89075
1295.72	1.28552
1299.09	4.5827
1302.47	0.333008
