Measurement: Raman, 532 nm, unoriented, Raman Data Processed
Mineral: Pargasite
Rruff sample: R060632
Ideal chemistry: NaCa_2_(Mg_4_Al)(Si_6_Al_2_)O_22_(OH)_2_
Locality: unknown
Source: Gemological Institute of America
Description: Black cleavage fragment
Measured chemistry: (Na_0.61_K_0.34_[box]_0.05_)(Ca_1.82_Na_0.18_)_=2_(Mg_3.12_Fe^2+^_0.88_)_=4_(Al_0.78_Ti_0.22_)(Si_6.00_Al_2.00_)_=8_O_22_((OH)_0.84_F_0.16_)_2_
Raman shift (cm-1)	intensity
106.576	0
109.951	37.049
113.326	367.373
116.701	978.079
120.075	2390.4
123.45	2988.11
126.825	1980.37
130.2	1260.11
133.575	1308.24
136.949	1897.12
140.324	3083.76
143.699	4407.19
147.074	3108.34
150.449	1877.14
153.824	1508.21
157.198	2014.91
160.573	3750.27
163.948	6076.65
167.323	4659.4
170.698	2664.13
174.072	1693.16
177.447	1360.36
180.822	1480.67
184.197	1717.06
187.572	1891.54
190.947	1578.54
194.321	1017.25
197.696	693.364
201.071	569.359
204.446	668.713
207.821	974.653
211.195	1615.42
214.57	2712.24
217.945	4347.06
221.32	6722.35
224.695	9491
228.07	10989.9
231.444	9802.61
234.819	6767.06
238.194	4550.92
241.569	2872.11
244.944	2064.63
248.318	1523.83
251.693	1113.59
255.068	736.742
258.443	364.933
261.818	19.387
265.193	43.231
268.567	119.06
271.942	154.976
275.317	149.187
278.692	155.76
282.067	23.831
285.441	219.501
288.816	352.631
292.191	549.499
295.566	609.625
298.941	707.533
302.316	790.394
305.69	865.921
309.065	967.356
312.44	1117.04
315.815	1340.33
319.19	1509.68
322.565	1772.8
325.939	1760.06
329.314	1680.39
332.689	1427.37
336.064	1100.74
339.439	820.51
342.813	625.207
346.188	364.138
349.563	293.154
352.938	271.812
356.313	277.342
359.688	338.378
363.062	443.466
366.437	632.664
369.812	742.619
373.187	904.208
376.562	963.584
379.936	1004.35
383.311	1029.5
386.686	957.094
390.061	882.636
393.436	724.582
396.81	472.544
400.185	379.962
403.56	281.443
406.935	341.466
410.31	279.29
413.685	392.991
417.06	491.375
420.434	638.915
423.809	717.803
427.184	740.39
430.559	748.026
433.934	729.249
437.308	585.784
440.683	344.35
444.058	261.644
447.433	106.093
450.808	43.03
454.182	39.705
457.557	9.121
460.932	18.312
464.307	3.921
467.682	22.06
471.057	60.345
474.431	64.026
477.806	10.791
481.181	1.006
484.556	98.578
487.931	146.36
491.306	256.182
494.68	367.282
498.055	611.62
501.43	782.191
504.805	981.598
508.18	1199.63
511.554	1439.25
514.929	1577.23
518.304	1581.74
521.679	1550.92
525.054	1548.75
528.429	1569.8
531.803	1584.87
535.178	1618.54
538.553	1676.42
541.928	1751.44
545.303	1820.32
548.677	1829.07
552.052	1772.25
555.427	1637.11
558.802	1534.06
562.177	1418.09
565.552	1283.37
568.926	1154.58
572.301	1021.41
575.676	892.686
579.051	705.237
582.426	525.467
585.8	313.82
589.175	209.785
592.55	69.843
595.925	19.289
599.3	87.076
602.674	87.83
606.049	70.911
609.424	17.638
612.799	213.534
616.174	308.002
619.549	457.603
622.923	715.04
626.298	1136.15
629.673	1627.55
633.048	2269.47
636.423	3074.67
639.797	4017.93
643.172	4970.01
646.547	5941.78
649.922	6813.15
653.297	7490.5
656.672	7764.36
660.046	7992.96
663.421	8134.1
666.796	8090.36
670.171	7279.17
673.546	6018.43
676.92	4881.81
680.295	3997.86
683.67	3663.63
687.045	3502.56
690.42	3261.19
693.795	2816.27
697.169	1711.96
700.544	887.662
703.919	196.932
707.294	129.394
710.669	153.941
714.044	56.625
717.418	304.72
720.793	677.768
724.168	957.523
727.543	1210.28
730.918	1466.86
734.292	1569.52
737.667	1802
741.042	2169.41
744.417	2386.13
747.792	2585.64
751.167	2572.04
754.541	2279.2
757.916	2157.98
761.291	1769.34
764.666	1333.97
768.041	849.452
771.416	591.508
774.79	358.871
778.165	386.051
781.54	388.952
784.915	515.794
788.29	622.471
791.664	663.122
795.039	750.371
798.414	808.713
801.789	798.376
805.164	796.967
808.539	750.429
811.913	647.759
815.288	659.573
818.663	701.315
822.038	537.954
825.413	513.719
828.787	469.333
832.162	309.716
835.537	235.496
838.912	124.677
842.287	99.051
845.661	40.75
849.036	23.858
852.411	59.589
855.786	7.135
859.161	35.26
862.536	68.489
865.91	3.02
869.285	81.083
872.66	106.737
876.035	229.436
879.41	368.228
882.784	522.91
886.159	603.452
889.534	794.396
892.909	976.884
896.284	1164.83
899.659	1248.93
903.033	1356.63
906.408	1552.2
909.783	1513.23
913.158	1505.65
916.533	1432.51
919.907	1322.54
923.282	1243.55
926.657	1097.84
930.032	844.617
933.407	539.422
936.782	336.943
940.156	128.894
943.531	5.341
946.906	43.558
950.281	40.303
953.656	30.049
957.031	10.84
960.405	37.967
963.78	79.836
967.155	108.101
970.53	165.781
973.905	145.583
977.279	140.298
980.654	112.643
984.029	245.762
987.404	341.577
990.779	562.011
994.154	823.052
997.528	1119.62
1000.9	1503.37
1004.28	2048.77
1007.65	2569.52
1011.03	3072.73
1014.4	3347.28
1017.78	3522.73
1021.15	3437.14
1024.53	3276.57
1027.9	3007.36
1031.28	2698.38
1034.65	2394.09
1038.03	2068.26
1041.4	1702.2
1044.78	1432.03
1048.15	1203.71
1051.53	1055.65
1054.9	900.077
1058.28	776.392
1061.65	597.522
1065.03	599.297
1068.4	454.279
1071.77	382.686
1075.15	328.972
1078.52	236.281
1081.9	176.988
1085.27	107.371
1088.65	137.399
1092.02	75.672
1095.4	55.813
1098.77	56.523
1102.15	16.285
1105.52	25.082
1108.9	14.801
1112.27	0.092
1115.65	4.822
1119.02	7.87
1122.4	31.719
1125.77	34.075
1129.15	19.777
1132.52	19.479
1135.9	66.554
1139.27	78.872
1142.65	95.242
1146.02	141.101
1149.39	122.958
1152.77	169.377
1156.14	171.293
1159.52	169.061
1162.89	210.66
1166.27	201.524
1169.64	218.367
1173.02	191.294
1176.39	178.77
1179.77	198.53
1183.14	179.288
1186.52	160.328
1189.89	106.889
1193.27	80.146
1196.64	137.588
1200.02	148.695
1203.39	180.524
1206.77	98.943
1210.14	77.795
1213.52	83.297
1216.89	149.092
1220.27	138.456
1223.64	84.464
1227.02	101.904
1230.39	88.511
1233.77	75.747
1237.14	64.993
1240.52	64.708
1243.89	100.008
1247.27	119.936
1250.64	87.503
1254.02	113.235
1257.39	140.302
1260.76	38.19
1264.14	49.668
1267.51	0.251
1270.89	66.96
1274.26	21.842
1277.64	75.932
1281.01	59.189
1284.39	82.443
1287.76	14.669
