Measurement: Raman, 532 nm, unoriented, Raman Data Processed
Mineral: Pargasite
Rruff sample: R130006
Ideal chemistry: NaCa_2_(Mg_4_Al)(Si_6_Al_2_)O_22_(OH)_2_
Locality: Bear Lake diggings (Gibson Road Western occurrence), Gooderham, Monmouth Township, Haliburton County, Ontario, Canada
Source: Don Doell
Description: Aggregate of black prismatic crystals
Raman shift (cm-1)	intensity
174.696	0
177.589	0.071625
180.482	0.953598
183.374	2.74105
186.267	4.78974
189.16	8.16066
192.053	14.3271
194.945	20.4522
197.838	23.1336
200.731	26.6508
203.623	28.8492
206.516	31.6943
209.409	36.351
212.301	41.1549
215.194	51.3889
218.087	61.9064
220.98	70.1201
223.872	72.5145
226.765	70.3651
229.658	66.1795
232.55	59.4499
235.443	49.1891
238.336	40.7198
241.228	32.6522
244.121	26.668
247.014	21.6089
249.906	17.2768
252.799	13.895
255.692	11.3543
258.585	9.42633
261.477	6.58275
264.37	3.28001
267.263	1.60829
270.155	0.482647
273.048	0.244347
275.941	1.8003
278.834	1.76511
281.726	1.22398
284.619	0.050316
287.512	0.832298
290.404	3.02262
293.297	5.65822
296.19	9.86658
299.082	11.4448
301.975	11.3668
304.868	11.6619
307.76	10.3209
310.653	9.62137
313.546	8.647
316.439	7.47496
319.331	7.02175
322.224	8.26195
325.117	9.89887
328.009	11.149
330.902	9.85524
333.795	8.15215
336.688	5.41746
339.58	4.52007
342.473	3.68968
345.366	4.79094
348.258	5.79091
351.151	7.46687
354.044	11.6849
356.936	14.4579
359.829	20.2037
362.722	24.8812
365.615	27.6382
368.507	27.5166
371.4	27.9555
374.293	27.2537
377.185	25.5554
380.078	23.072
382.971	19.5018
385.863	15.8378
388.756	12.5169
391.649	10.1967
394.541	8.26299
397.434	7.16442
400.327	5.42867
403.22	4.51662
406.112	3.11965
409.005	1.76623
411.898	0.662128
414.79	0.13192
417.683	0.797909
420.576	0.987427
423.469	2.56449
426.361	3.5688
429.254	4.63129
432.147	4.95773
435.039	3.7495
437.932	2.02301
440.825	0.015751
443.717	0.687691
446.61	0.057175
449.503	0.741718
452.396	0.335243
455.288	0.966404
458.181	0.613632
461.074	0.191509
463.966	0.917175
466.859	0.895096
469.752	1.56353
472.644	0.990536
475.537	1.29924
478.43	0.896191
481.322	2.75197
484.215	2.55233
487.108	2.53572
490.001	1.80934
492.893	1.91325
495.786	3.69823
498.679	4.62101
501.571	4.8122
504.464	7.0646
507.357	7.98266
510.25	9.18437
513.142	10.6667
516.035	12.8582
518.928	14.041
521.82	16.4781
524.713	20.04
527.606	24.0415
530.498	28.6908
533.391	33.6627
536.284	37.868
539.177	41.9261
542.069	42.3559
544.962	41.7418
547.855	40.0392
550.747	38.1393
553.64	36.6088
556.533	33.4103
559.425	30.5796
562.318	27.1337
565.211	24.6881
568.104	22.2156
570.996	20.3577
573.889	18.2525
576.782	17.2634
579.674	15.3608
582.567	14.3263
585.46	12.7618
588.352	9.34301
591.245	6.14526
594.138	3.18628
597.03	0.894268
599.923	0.128887
602.816	0.548481
605.709	0.752094
608.601	0.742258
611.494	1.0341
614.387	0.344513
617.279	0.247103
620.172	0.848978
623.065	1.30981
625.957	1.50132
628.85	1.43025
631.743	1.57841
634.636	2.45119
637.528	2.72803
640.421	3.25848
643.314	4.39979
646.206	6.01855
649.099	7.63394
651.992	9.29557
654.885	13.3685
657.777	17.2753
660.67	23.9183
663.563	33.2215
666.455	48.4129
669.348	66.0781
672.241	93.6797
675.133	122.99
678.026	143.104
680.919	136.919
683.812	107.156
686.704	70.1908
689.597	45.7546
692.49	31.2718
695.382	20.5784
698.275	16.0235
701.168	12.7399
704.06	10.9297
706.953	10.3373
709.846	9.10607
712.739	9.20413
715.631	9.10044
718.524	9.85728
721.417	8.75347
724.309	8.25991
727.202	7.55682
730.095	7.06744
732.987	7.23147
735.88	5.54096
738.773	4.98532
741.665	3.37011
744.558	2.63156
747.451	1.43545
750.344	1.15413
753.236	0.468109
756.129	0.040281
759.022	0.503727
761.914	0.167402
764.807	0.195803
767.7	0.081985
770.592	0.294983
773.485	0.737503
776.378	0.830299
779.271	0.355759
782.163	0.602167
785.056	0.570803
787.949	1.26376
790.841	1.02331
793.734	1.40595
796.627	1.20906
799.519	0.457222
802.412	1.2634
805.305	0.34383
808.198	0.249876
811.09	0.31481
813.983	0.256977
816.876	0.025589
819.768	0.191544
822.661	0.061777
825.554	0.077282
828.447	0.370285
831.339	0.707991
834.232	0.365395
837.125	0.278498
840.017	0.680611
842.91	1.47304
845.803	0.681349
848.695	0.13706
851.588	0.30332
854.481	0.664783
857.374	0.718819
860.266	0.786863
863.159	1.69304
866.052	1.64507
868.944	2.37762
871.837	3.17994
874.73	3.01599
877.622	3.75205
880.515	4.29263
883.408	4.04296
886.301	4.37608
889.193	3.08545
892.086	2.69027
894.979	2.94018
897.871	2.97681
900.764	2.80115
903.657	2.73723
906.549	2.78371
909.442	2.92251
912.335	2.65527
915.227	3.40772
918.12	4.27201
921.013	5.16872
923.906	5.83411
926.798	6.06346
929.691	6.61669
932.584	6.56037
935.476	5.6463
938.369	4.66079
941.262	4.14412
944.154	3.87683
947.047	4.26354
949.94	4.11226
952.833	4.65384
955.725	5.80025
958.618	5.97139
961.511	7.25144
964.403	8.10578
967.296	8.48159
970.189	8.99698
973.082	8.78648
975.974	8.31793
978.867	7.20493
981.76	6.26272
984.652	4.5197
987.545	3.06663
990.438	1.90656
993.33	1.54888
996.223	0.512608
999.116	0.034985
1002.01	0.100967
1004.9	0.233185
1007.79	0.174137
1010.69	0.341923
1013.58	0.810146
1016.47	0.273201
1019.37	0.016865
1022.26	0.20787
1025.15	0.024349
1028.04	0.996662
1030.94	0.982494
1033.83	1.60445
1036.72	2.09157
1039.61	3.81473
1042.51	4.4714
1045.4	6.20433
1048.29	7.12359
1051.18	9.56225
1054.08	11.3406
1056.97	12.8794
1059.86	15.3901
1062.76	17.7962
1065.65	19.0358
1068.54	18.2022
1071.43	17.2023
1074.33	15.2194
1077.22	13.7402
1080.11	11.3994
1083	9.88179
1085.9	8.46462
1088.79	7.01076
1091.68	5.3515
1094.58	4.67773
1097.47	3.89446
1100.36	3.43412
1103.25	2.53815
1106.15	2.62863
1109.04	2.90334
1111.93	2.40386
1114.82	2.09953
1117.72	2.26102
1120.61	2.00954
1123.5	2.37335
1126.39	2.11961
1129.29	1.65221
1132.18	2.29195
1135.07	2.10713
1137.96	2.11058
1140.86	1.5095
1143.75	0.721745
1146.64	0.812603
1149.54	0.626917
1152.43	0.671228
1155.32	0.608582
1158.21	0.527845
1161.11	0.051859
1164	0.023836
1166.89	0.220867
1169.79	0.293968
1172.68	0.342457
1175.57	0.506557
1178.46	0.195593
1181.36	0.549763
1184.25	0.304653
1187.14	0.977316
1190.03	0.922077
1192.93	1.19873
1195.82	1.25404
1198.71	1.59175
1201.61	1.34767
1204.5	1.09002
1207.39	1.14426
1210.28	1.66212
1213.18	3.18688
1216.07	1.61566
1218.96	1.32921
1221.85	1.1181
1224.75	1.51274
1227.64	1.02195
1230.53	1.16725
1233.42	1.2339
1236.32	1.0681
1239.21	1.4386
1242.1	1.03235
1244.99	1.21417
1247.89	1.26183
1250.78	1.22998
1253.67	0.690201
1256.57	0.779348
1259.46	0.631189
1262.35	0.65452
1265.24	0.864233
1268.14	0.729807
1271.03	0.758965
1273.92	0.487556
1276.82	0.261061
1279.71	0.225719
1282.6	1.10883
1285.49	0.572512
1288.39	0.983307
1291.28	0.377167
1294.17	0.740152
1297.06	0.668633
1299.96	0.264717
