Measurement: Raman, 780 nm, unoriented, Raman Data Processed
Mineral: Pargasite
Rruff sample: R130006
Ideal chemistry: NaCa_2_(Mg_4_Al)(Si_6_Al_2_)O_22_(OH)_2_
Locality: Bear Lake diggings (Gibson Road Western occurrence), Gooderham, Monmouth Township, Haliburton County, Ontario, Canada
Source: Don Doell
Description: Aggregate of black prismatic crystals
Raman shift (cm-1)	intensity
100.842	0
104.217	2.5554
107.591	6.59238
110.966	7.62595
114.341	6.01864
117.716	5.33716
121.091	4.13917
124.466	1.72355
127.84	2.45441
131.215	0.534103
134.59	0.737625
137.965	0.269859
141.34	1.35855
144.714	6.94183
148.089	20.3938
151.464	42.2342
154.839	45.3224
158.214	30.2647
161.589	24.1333
164.963	24.2667
168.338	28.9482
171.713	32.8029
175.088	30.064
178.463	21.0308
181.838	14.2332
185.212	11.3506
188.587	9.96943
191.962	9.99454
195.337	11.8219
198.712	16.5794
202.086	17.792
205.461	23.051
208.836	27.5739
212.211	33.1168
215.586	39.8621
218.96	45.4858
222.335	46.931
225.71	46.1347
229.085	43.3617
232.46	39.1735
235.834	32.5777
239.209	25.0467
242.584	19.2604
245.959	15.7444
249.334	11.9207
252.709	10.4992
256.083	8.03175
259.458	5.46335
262.833	4.16898
266.208	2.12677
269.583	1.51633
272.957	0.121571
276.332	0.900505
279.707	1.23975
283.082	0.834892
286.457	0.35014
289.832	3.70654
293.206	6.96912
296.581	11.269
299.956	12.7889
303.331	13.563
306.706	13.1179
310.08	10.8848
313.455	9.18142
316.83	8.65051
320.205	8.78357
323.58	8.87798
326.954	8.0531
330.329	6.82291
333.704	4.41223
337.079	2.38435
340.454	0.601334
343.829	0.056225
347.203	0.763531
350.578	2.66789
353.953	4.11887
357.328	6.80798
360.703	9.15184
364.077	11.5249
367.452	13.4875
370.827	13.2355
374.202	13.6279
377.577	12.7276
380.952	11.1455
384.326	8.66673
387.701	7.18192
391.076	5.06466
394.451	4.51427
397.826	3.78115
401.2	2.94698
404.575	2.00658
407.95	0.202648
411.325	0.14106
414.7	0.189754
418.075	0.10606
421.449	0.243883
424.824	1.67021
428.199	2.86796
431.574	3.14261
434.949	1.72874
438.323	1.25641
441.698	1.22293
445.073	0.776039
448.448	0.316263
451.823	1.07323
455.197	0.053371
458.572	0.209112
461.947	0.777174
465.322	0.639088
468.697	0.742289
472.072	0.497545
475.446	0.4853
478.821	0.146061
482.196	0.033941
485.571	0.002003
488.946	0.779192
492.32	1.27879
495.695	1.59976
499.07	2.19937
502.445	3.46335
505.82	4.30416
509.195	5.63626
512.569	7.13884
515.944	8.09403
519.319	9.70525
522.694	11.2129
526.068	13.2145
529.443	16.6696
532.818	18.9354
536.193	21.1188
539.568	22.2544
542.943	22.1701
546.317	21.3757
549.692	20.2743
553.067	18.8472
556.442	16.8488
559.817	14.5286
563.192	12.3908
566.566	10.5209
569.941	9.78991
573.316	8.17205
576.691	7.53063
580.066	7.2051
583.44	6.20941
586.815	5.28628
590.19	2.74378
593.565	0.807159
596.94	0.153343
600.314	0.479151
603.689	0.403074
607.064	0.38982
610.439	0.011478
613.814	0.08143
617.188	1.3752
620.563	1.37378
623.938	1.81152
627.313	1.86302
630.688	2.57101
634.063	2.22595
637.437	3.59234
640.812	4.56943
644.187	5.88004
647.562	7.49862
650.937	10.4551
654.312	13.4879
657.686	18.855
661.061	25.4386
664.436	38.0219
667.811	56.6454
671.186	82.9728
674.56	109.603
677.935	117.883
681.31	96.3334
684.685	62.9264
688.06	37.1629
691.434	22.5588
694.809	14.564
698.184	9.9831
701.559	7.10289
704.934	5.15191
708.308	4.3114
711.683	3.65692
715.058	3.25013
718.433	2.97684
721.808	2.66924
725.183	1.90867
728.557	2.18674
731.932	1.40446
735.307	1.65513
738.682	1.37666
742.057	0.717505
745.432	0.284805
748.806	0.297581
752.181	0.033848
755.556	0.227123
758.931	0.596724
762.306	0.204723
765.68	0.062029
769.055	0.063114
772.43	0.205948
775.805	0.507462
779.18	0.211544
782.554	0.843994
785.929	0.520475
789.304	0.272179
792.679	0.432272
796.054	0.796099
799.428	0.359987
802.803	0.558542
806.178	0.799732
809.553	0.934885
812.928	0.639626
816.303	0.495487
819.677	0.087894
823.052	0.180132
826.427	0.417816
829.802	0.850517
833.177	0.484631
836.552	0.672773
839.926	0.454605
843.301	0.415737
846.676	0.318914
850.051	0.467283
853.426	0.11272
856.8	0.451181
860.175	0.06629
863.55	0.023327
866.925	0.307041
870.3	0.459309
873.674	0.497456
877.049	0.549713
880.424	0.144157
883.799	0.689322
887.174	0.401508
890.548	1.02755
893.923	0.80905
897.298	1.22924
900.673	0.983347
904.048	1.39383
907.423	1.69728
910.797	2.22628
914.172	2.68884
917.547	3.59309
920.922	4.00138
924.297	5.13703
927.671	5.40424
931.046	4.83014
934.421	4.41346
937.796	3.43362
941.171	3.16567
944.545	2.62642
947.92	2.14478
951.295	2.41233
954.67	2.90747
958.045	2.75009
961.42	2.78497
964.794	3.00617
968.169	2.91258
971.544	2.74082
974.919	2.51059
978.294	1.96241
981.668	2.45309
985.043	0.872772
988.418	0.394398
991.793	0.13983
995.168	0.134962
998.543	0.337839
1001.92	0.023567
1005.29	0.235662
1008.67	0.319887
1012.04	0.296232
1015.42	0.061085
1018.79	0.420439
1022.17	0.627821
1025.54	0.517439
1028.92	1.36966
1032.29	1.7849
1035.67	2.6517
1039.04	4.34133
1042.41	5.32453
1045.79	6.74265
1049.16	7.9607
1052.54	9.7047
1055.91	12.4568
1059.29	14.5158
1062.66	15.5082
1066.04	15.3735
1069.41	13.6392
1072.79	11.4864
1076.16	9.59723
1079.54	7.37939
1082.91	5.70216
1086.29	4.05242
1089.66	3.67961
1093.04	2.63165
1096.41	2.2983
1099.79	1.18514
1103.16	1.48359
1106.54	1.43715
1109.91	1.31723
1113.29	1.25896
1116.66	1.31836
1120.04	1.35127
1123.41	1.24858
1126.79	0.591591
1130.16	0.49267
1133.54	1.15282
1136.91	0.699335
1140.29	0.565605
1143.66	0.380461
1147.03	0.08642
1150.41	0.099087
1153.78	0.01375
1157.16	0.157215
1160.53	0.250428
1163.91	0.156018
1167.28	0.131006
1170.66	0.018777
1174.03	0.195339
1177.41	0.308685
1180.78	0.375417
1184.16	0.423203
1187.53	0.450634
1190.91	0.723314
1194.28	1.18416
1197.66	0.78828
1201.03	1.45342
1204.41	1.15305
1207.78	1.23716
1211.16	0.918327
1214.53	0.94317
1217.91	1.19991
1221.28	0.967969
1224.65	0.700558
1228.03	0.898209
1231.4	0.689213
1234.78	0.649511
1238.15	0.969159
1241.53	1.02323
1244.9	0.440997
1248.28	0.524702
1251.65	0.286542
1255.03	0.460488
1258.4	0.290966
1261.78	0.331786
1265.15	0.425981
1268.53	0.100249
1271.9	0.323232
1275.28	0.020656
1278.65	0.490003
1282.03	0.302051
