Measurement: Raman, 514 nm, unoriented, Raman Data Processed
Mineral: Pargasite
Rruff sample: R050321
Ideal chemistry: NaCa_2_(Mg_4_Al)(Si_6_Al_2_)O_22_(OH)_2_
Locality: Soper River, near Kimmirut, Baffin Island, Nunavut, Canada
Source: Frank Hawthorne
Description: Greenish brown transparent fragment
Measured chemistry: (Na_0.77_K_0.23_)(Ca_1.90_Na_0.10_)_=2_Mg_4.00_(Al_0.58_Fe^3+^_0.07_Ti_0.05_Mg_0.30_)(Si_6.24_Al_1.76_)_=8_O_22_((OH)_0.69_F_0.31_)_2_
Raman shift (cm-1)	intensity
91.981	0
96.161	58.167
100.34	148.719
104.516	375.114
108.691	811.526
112.864	1506.31
117.034	2449.94
121.203	2358.81
125.369	1161.25
129.534	520.451
133.696	347.156
137.857	709.047
142.016	991.743
146.172	265.014
150.327	48.161
154.48	65.885
158.63	27.387
162.779	168.128
166.926	220.495
171.07	197.575
175.213	347.244
179.354	834.261
183.493	1253.72
187.63	1443.61
191.765	1050.93
195.898	547.861
200.029	438.87
204.158	393.191
208.285	566.422
212.41	719.711
216.533	1198.14
220.654	1927.65
224.773	2701.16
228.891	2725.65
233.006	2599.12
237.119	2832.54
241.231	2965.92
245.34	2654.24
249.448	2560.5
253.553	2203.72
257.657	1567.62
261.758	1077.23
265.858	762.211
269.956	560.769
274.052	530.524
278.146	502.218
282.237	360.997
286.327	519.456
290.416	726.872
294.502	885.262
298.586	955.045
302.668	876.855
306.749	796.258
310.827	748.87
314.903	742.156
318.978	963.229
323.051	1102.45
327.121	1166.52
331.19	1176.86
335.257	1144.18
339.322	939.438
343.385	683.063
347.446	749.114
351.505	650.293
355.563	665.146
359.618	889.908
363.672	1218.08
367.723	1374.05
371.773	1510.5
375.821	1620.97
379.866	1430.05
383.91	1787.32
387.952	2237.75
391.992	2226.78
396.031	1961.97
400.067	1480.62
404.101	1290.26
408.134	1073.06
412.165	1029.99
416.193	1149.26
420.22	1113.4
424.245	1018.81
428.268	922.262
432.289	590.695
436.309	450.784
440.326	302.283
444.342	159.534
448.355	131.388
452.367	14.636
456.377	69.604
460.385	10.188
464.391	57.833
468.395	87.108
472.398	156.018
476.398	86.746
480.397	71.147
484.394	14.964
488.389	41.864
492.382	131.371
496.373	74.563
500.362	148.421
504.349	81.972
508.335	206.225
512.319	406.193
516.3	277.875
520.28	148.267
524.259	248.354
528.235	358.145
532.209	233.633
536.182	329.827
540.152	228.749
544.121	92.392
548.088	242.749
552.053	145.94
556.017	266.019
559.978	202.06
563.938	121.946
567.895	55.638
571.851	71.091
575.805	152.235
579.758	31.313
583.708	142.051
587.657	68.959
591.603	69.5
595.548	113.561
599.491	45.062
603.432	26.129
607.372	82.567
611.309	20.622
615.245	199.768
619.179	301.548
623.111	632.919
627.041	494.851
630.97	720.701
634.896	1290.14
638.821	1734.59
642.744	2389.02
646.665	3219.76
650.584	4217.49
654.502	5123.09
658.418	6055.18
662.331	7533.14
666.244	9149.89
670.154	10676.8
674.062	9864.81
677.969	7679.2
681.874	5913.88
685.777	4748.88
689.678	4034.01
693.577	3484.26
697.475	2663.09
701.371	1855.23
705.265	1380.69
709.157	771.448
713.047	625.641
716.936	262.788
720.823	562.044
724.708	331.416
728.591	392.773
732.472	289.904
736.352	312.895
740.23	401.682
744.106	478.729
747.98	339.357
751.853	707.996
755.723	424.348
759.592	327.746
763.459	469.447
767.325	583.041
771.188	283.107
775.05	133.166
778.91	174.182
782.768	289.838
786.625	184.393
790.479	101.613
794.332	33.09
798.183	352.215
802.033	226.479
805.88	64.656
809.726	329.793
813.57	170.959
817.413	263.09
821.253	157.131
825.092	374.029
828.929	343.801
832.764	251.459
836.598	473.074
840.429	421.719
844.259	123.312
848.088	231.826
851.914	177.176
855.739	74.506
859.562	74.336
863.383	237.516
867.203	150.375
871.02	146.75
874.836	75.422
878.65	184.305
882.463	229.996
886.274	381.506
890.083	361.186
893.89	250.365
897.695	157.398
901.499	398.277
905.301	414.002
909.102	607.635
912.9	914.088
916.697	862.348
920.492	891.387
924.285	844.943
928.077	899.252
931.867	833.348
935.655	807.139
939.442	672.262
943.226	690.105
947.009	721.035
950.791	871.947
954.57	619.238
958.348	1039.88
962.124	862.486
965.899	962.736
969.671	714.6
973.442	738.963
977.211	864.795
980.979	830.762
984.745	704.391
988.509	1012.46
992.271	1307.52
996.032	1507.99
999.791	1384.63
1003.55	1872.49
1007.3	1860.54
1011.06	2051.93
1014.81	2021.61
1018.56	1967.53
1022.31	1994.79
1026.06	1761.44
1029.8	1593.55
1033.55	1770.98
1037.29	1729.78
1041.03	1985.26
1044.77	1938.97
1048.5	1418.13
1052.24	1602.23
1055.97	1201.51
1059.7	1407.12
1063.43	1227.64
1067.16	1023.55
1070.89	1020.83
1074.61	879.809
1078.34	990.414
1082.06	860.953
1085.78	965.984
1089.5	595.107
1093.21	480.762
1096.93	10.523
1100.64	278.031
1104.35	167.096
1108.06	249.037
1111.77	66.547
1115.48	69.744
1119.18	183.119
1122.89	207.91
1126.59	69.496
1130.29	173.816
1133.99	103.953
1137.68	188.213
1141.38	97.234
1145.07	141.881
1148.76	154.949
1152.45	131.783
1156.14	260.443
1159.83	196.715
1163.51	97.205
1167.19	123.508
1170.88	25.73
1174.56	56.783
1178.23	126.926
1181.91	170.004
1185.59	276
1189.26	232.115
1192.93	416.402
1196.6	248.836
1200.27	343.473
1203.94	672.512
1207.6	465.119
1211.27	612.826
1214.93	440.506
1218.59	474.902
1222.25	488.906
1225.9	579.629
1229.56	581.062
1233.21	229.236
1236.86	368.254
1240.51	472.227
1244.16	429.635
1247.81	677.566
1251.45	603.08
1255.1	554.393
1258.74	638.486
1262.38	133.598
1266.02	235.777
1269.66	241.498
1273.29	201.412
1276.93	237.623
1280.56	205.18
1284.19	272.541
1287.82	201.711
1291.45	446.023
1295.07	262.416
1298.7	331.098
1302.32	259.652
1305.94	73.105
1309.56	107.312
1313.18	102.582
1316.8	183.602
