Measurement: Raman, 780 nm, unoriented, Raman Data Processed
Mineral: Pargasite
Rruff sample: R060632
Ideal chemistry: NaCa_2_(Mg_4_Al)(Si_6_Al_2_)O_22_(OH)_2_
Locality: unknown
Source: Gemological Institute of America
Description: Black cleavage fragment
Measured chemistry: (Na_0.61_K_0.34_[box]_0.05_)(Ca_1.82_Na_0.18_)_=2_(Mg_3.12_Fe^2+^_0.88_)_=4_(Al_0.78_Ti_0.22_)(Si_6.00_Al_2.00_)_=8_O_22_((OH)_0.84_F_0.16_)_2_
Raman shift (cm-1)	intensity
93.9705	0
97.3453	5.4928
100.72	4.82172
104.095	1.24112
107.47	7.70267
110.845	0.126068
114.219	5.43445
117.594	16.8767
120.969	20.9518
124.344	29.1816
127.719	15.78
131.094	10.9236
134.468	0.587128
137.843	1.13068
141.218	5.19727
144.593	0.81665
147.968	2.13028
151.342	2.62103
154.717	18.74
158.092	33.386
161.467	50.8762
164.842	67.6089
168.216	50.2713
171.591	28.1653
174.966	17.6467
178.341	17.1282
181.716	15.8915
185.09	16.4574
188.465	15.9268
191.84	11.387
195.215	8.48508
198.59	7.03362
201.965	5.67223
205.339	7.8649
208.714	11.1337
212.089	16.3387
215.464	25.8011
218.839	34.353
222.214	47.8589
225.588	57.1661
228.963	63.9562
232.338	65.8774
235.713	67.5363
239.088	67.2978
242.462	61.4157
245.837	52.7935
249.212	45.3196
252.587	36.6109
255.962	27.1085
259.336	19.1736
262.711	12.1308
266.086	6.31972
269.461	2.53903
272.836	0.165192
276.211	0.821045
279.585	0.288513
282.96	0.480515
286.335	3.01613
289.71	0.695755
293.085	2.42523
296.459	0.114487
299.834	0.67485
303.209	1.37404
306.584	1.21286
309.959	0.422684
313.334	0.974213
316.708	2.1575
320.083	3.14305
323.458	5.53058
326.833	5.77486
330.207	6.72966
333.582	5.4443
336.957	5.14407
340.332	4.93561
343.707	6.20557
347.082	5.82161
350.456	7.15062
353.831	8.40536
357.206	9.65907
360.581	13.0799
363.956	16.739
367.33	20.7467
370.705	24.9416
374.08	28.4127
377.455	29.7117
380.83	31.2536
384.205	31.5479
387.579	27.5043
390.954	22.1407
394.329	16.5041
397.704	13.9455
401.079	11.0709
404.453	11.8941
407.828	11.4752
411.203	13.5545
414.578	15.606
417.953	17.0238
421.327	19.2811
424.702	18.2137
428.077	18.8468
431.452	18.2409
434.827	14.8434
438.202	10.3252
441.576	7.68881
444.951	4.11177
448.326	2.25488
451.701	1.6795
455.076	0.921631
458.45	1.68716
461.825	0.554962
465.2	1.42952
468.575	1.23241
471.95	0.563293
475.325	1.54507
478.699	0.750809
482.074	1.3311
485.449	4.2216
488.824	4.83684
492.199	7.19954
495.573	9.29739
498.948	12.1977
502.323	16.1798
505.698	19.8604
509.073	24.4058
512.447	28.4321
515.822	29.7461
519.197	29.9757
522.572	27.5518
525.947	25.7051
529.322	25.2475
532.696	24.6036
536.071	22.6599
539.446	22.8838
542.821	22.2803
546.196	21.8695
549.57	22.0014
552.945	22.1363
556.32	21.3327
559.695	21.3018
563.07	20.8891
566.444	19.4386
569.819	18.9706
573.194	18.0631
576.569	15.3918
579.944	13.3403
583.319	10.3746
586.693	7.08024
590.068	6.47651
593.443	3.93188
596.818	3.46264
600.193	1.32616
603.567	0.817696
606.942	0.745811
610.317	1.02958
613.692	0.914001
617.067	0.068779
620.442	1.40703
623.816	2.88246
627.191	4.94681
630.566	7.91273
633.941	12.1702
637.316	19.2848
640.69	24.1249
644.065	32.0408
647.44	38.7489
650.815	46.1731
654.19	50.3964
657.564	56.7371
660.939	58.3616
664.314	59.5373
667.689	58.0927
671.064	52.4804
674.439	43.1578
677.813	32.8368
681.188	27.2825
684.563	22.7458
687.938	19.0742
691.313	17.103
694.688	12.4289
698.062	8.93781
701.437	2.26463
704.812	2.26265
708.187	2.00955
711.562	0.581558
714.936	6.3156
718.311	10.5834
721.686	15.4673
725.061	20.9739
728.436	26.4319
731.81	31.9221
735.185	35.9505
738.56	40.6584
741.935	43.2723
745.31	45.1115
748.684	44.5825
752.059	44.3462
755.434	41.7311
758.809	35.9482
762.184	28.8992
765.559	21.2962
768.933	15.8258
772.308	11.5971
775.683	9.19391
779.058	8.67162
782.433	8.75986
785.808	10.1471
789.182	10.5901
792.557	10.6451
795.932	11.0142
799.307	11.1786
802.682	11.2254
806.056	11.5443
809.431	8.96408
812.806	7.61482
816.181	7.4832
819.556	6.09689
822.93	4.67868
826.305	3.91538
829.68	1.995
833.055	1.0638
836.43	0.5485
839.804	0.090172
843.179	0.29863
846.554	0.289864
849.929	0.818527
853.304	0.957253
856.679	0.276817
860.053	0.125206
863.428	0.397308
866.803	1.01164
870.178	1.10258
873.553	1.11113
876.927	2.40363
880.302	2.72256
883.677	3.00539
887.052	3.14551
890.427	3.98456
893.802	5.20623
897.176	4.15335
900.551	5.68401
903.926	4.72802
907.301	2.98212
910.676	3.21247
914.05	3.82404
917.425	3.50771
920.8	1.2224
924.175	1.63811
927.55	0.099899
930.924	0.114746
934.299	0.176483
937.674	0.259346
941.049	0.23497
944.424	0.212746
947.799	0.07003
951.173	1.16492
954.548	1.02292
957.923	2.3058
961.298	3.13267
964.673	3.33977
968.047	4.17175
971.422	4.46111
974.797	4.73508
978.172	5.4193
981.547	5.51687
984.922	5.98566
988.296	7.50437
991.671	8.40633
995.046	8.91944
998.421	10.7662
1001.8	13.0263
1005.17	14.6422
1008.54	15.9612
1011.92	17.942
1015.29	18.6314
1018.67	19.0483
1022.04	19.2396
1025.42	17.8703
1028.79	16.0959
1032.17	16.1272
1035.54	12.4097
1038.92	12.4464
1042.29	9.15729
1045.67	7.35777
1049.04	6.81364
1052.42	4.40257
1055.79	3.8212
1059.17	2.86465
1062.54	2.53942
1065.92	1.74368
1069.29	1.02075
1072.67	1.69592
1076.04	0.982834
1079.42	1.02409
1082.79	1.13979
1086.17	1.68334
1089.54	0.999809
1092.92	0.791832
1096.29	1.38191
1099.66	1.07451
1103.04	0.853302
1106.41	1.08192
1109.79	0.782486
1113.16	0.0298
1116.54	0.980446
1119.91	0.133034
1123.29	0.283974
1126.66	0.031715
1130.04	0.013245
1133.41	0.129936
1136.79	0.095825
1140.16	0.13649
1143.54	0.803635
1146.91	0.782349
1150.29	1.00778
1153.66	1.91614
1157.04	0.689125
1160.41	2.22222
1163.79	2.06683
1167.16	1.96725
1170.54	2.16546
1173.91	2.05227
1177.29	2.30302
1180.66	2.55105
1184.04	2.88607
1187.41	1.95252
1190.79	1.81439
1194.16	2.02129
1197.54	2.17634
1200.91	1.31186
1204.28	2.43401
1207.66	3.78252
1211.03	1.26671
1214.41	2.90762
1217.78	1.16304
1221.16	0.891678
1224.53	1.18883
1227.91	0.664803
1231.28	1.20694
1234.66	0.452721
1238.03	1.46994
1241.41	2.22538
1244.78	0.377518
1248.16	1.49745
1251.53	0.060204
1254.91	0.476006
1258.28	0.469734
1261.66	1.32408
1265.03	0.439293
1268.41	0.126236
1271.78	0.5914
1275.16	1.01182
1278.53	1.94774
1281.9	0.027054
