Measurement: Raman, 532 nm, unoriented, Raman Data Processed
Mineral: Parisite-(Ce)
Rruff sample: R120065
Ideal chemistry: CaCe_2_(CO_3_)_3_F_2_
Locality: East Kemptville Tin mine, East Kemptville, Argyle, Yarmouth Co., Nova Scotia, Canada
Source: Donald Doell
Description: Pale orange hexagonal prismatic crystals, associated with R120064, anatase
Raman shift (cm-1)	intensity
169.077	0
171.97	5.54601
174.863	2.14603
177.755	0.004349
180.648	0.383682
183.541	1.78422
186.433	7.66701
189.326	10.4008
192.219	11.0969
195.112	12.8707
198.004	12.1325
200.897	16.8138
203.79	20.9069
206.682	18.9187
209.575	8.74533
212.468	1.92641
215.36	1.64897
218.253	0.855255
221.146	4.94562
224.038	12.3124
226.931	23.5268
229.824	39.3969
232.717	61.0428
235.609	88.0019
238.502	123.844
241.395	157.144
244.287	180.787
247.18	188.15
250.073	187.868
252.965	190.586
255.858	179.548
258.751	149.341
261.644	123.557
264.536	110.518
267.429	117.232
270.322	125.562
273.214	132.804
276.107	126.645
279	120.2
281.892	113.198
284.785	107.654
287.678	95.6796
290.571	81.2603
293.463	72.6594
296.356	70.6759
299.249	71.7073
302.141	72.6413
305.034	74.5057
307.927	65.2736
310.82	49.8587
313.712	30.1545
316.605	17.0904
319.498	8.20822
322.39	3.59219
325.283	3.83144
328.176	0.352051
331.068	3.74869
333.961	3.58815
336.854	1.78581
339.747	8.65854
342.639	19.5268
345.532	35.4869
348.425	53.0847
351.317	72.3028
354.21	86.3547
357.103	90.3456
359.995	80.0752
362.888	61.2605
365.781	43.8969
368.673	29.8391
371.566	19.2157
374.459	16.5466
377.352	14.6321
380.244	15.2632
383.137	17.4848
386.03	18.2147
388.922	17.6634
391.815	13.9616
394.708	10.5978
397.601	9.59561
400.493	5.33699
403.386	3.14906
406.279	1.61065
409.171	0.544434
412.064	1.34944
414.957	0.781082
417.849	0.260956
420.742	0.643288
423.635	0.556282
426.527	2.35461
429.42	1.7273
432.313	1.2862
435.206	1.18005
438.098	2.66455
440.991	2.29419
443.884	1.363
446.776	1.41013
449.669	3.21764
452.562	3.5201
455.454	4.36923
458.347	3.99515
461.24	5.00167
464.133	5.72103
467.025	5.71632
469.918	4.40308
472.811	4.57255
475.703	4.84856
478.596	4.74298
481.489	3.72212
484.382	2.72661
487.274	3.23101
490.167	3.27383
493.06	3.18436
495.952	3.00787
498.845	2.29012
501.738	2.80638
504.63	2.47074
507.523	0.700676
510.416	0.782272
513.308	1.26164
516.201	0.649437
519.094	0.393425
521.987	0.378792
524.879	0.390686
527.772	0.639633
530.665	0.051964
533.557	0.411072
536.45	1.21574
539.343	0.3666
542.236	1.66016
545.128	1.55247
548.021	0.903259
550.914	1.4851
553.806	1.93865
556.699	2.62755
559.592	2.21502
562.484	3.34676
565.377	4.90385
568.27	4.43162
571.163	6.76039
574.055	8.1701
576.948	10.7204
579.841	14.4848
582.733	17.2368
585.626	21.2967
588.519	23.5176
591.411	27.0948
594.304	27.8366
597.197	27.5289
600.09	28.2379
602.982	28.3884
605.875	28.0685
608.768	25.1093
611.66	21.8423
614.553	15.1126
617.446	11.0317
620.338	7.44907
623.231	5.44032
626.124	2.64494
629.016	1.68736
631.909	2.27408
634.802	0.676521
637.695	0.170807
640.587	0.034912
643.48	0.119133
646.373	0.759193
649.265	0.275925
652.158	0.736053
655.051	1.64041
657.943	2.7046
660.836	5.50868
663.729	9.48884
666.622	9.76041
669.514	7.21531
672.407	5.01338
675.3	3.82452
678.192	4.94967
681.085	6.4581
683.978	10.6521
686.87	7.24513
689.763	1.71581
692.656	1.5067
695.549	0.679451
698.441	1.27037
701.334	0.095604
704.227	0.223938
707.119	0.565109
710.012	0.911385
712.905	1.28562
715.798	1.69602
718.69	1.74987
721.583	1.50028
724.476	3.64017
727.368	7.2568
730.261	10.4093
733.154	15.4548
736.046	22.8796
738.939	35.2582
741.832	37.2549
744.725	27.2686
747.617	19.7163
750.51	22.7208
753.403	30.542
756.295	40.1628
759.188	26.3603
762.081	9.79887
764.973	6.49997
767.866	3.40739
770.759	2.70099
773.652	3.1646
776.544	1.681
779.437	2.19357
782.33	2.33406
785.222	1.69812
788.115	1.30621
791.008	0.186722
793.9	0.688141
796.793	1.32889
799.686	0.509216
802.578	0.765533
805.471	0.119186
808.364	1.16112
811.257	0.540634
814.149	0.981232
817.042	0.222672
819.935	0.159149
822.827	0.794235
825.72	1.07817
828.613	0.568405
831.505	1.59253
834.398	1.93449
837.291	1.54941
840.184	2.40794
843.076	5.04434
845.969	6.1695
848.862	5.65044
851.754	5.94121
854.647	7.76872
857.54	10.1833
860.433	12.1601
863.325	15.5275
866.218	18.7989
869.111	24.9944
872.003	26.0839
874.896	23.5965
877.789	21.2344
880.681	20.5552
883.574	21.8307
886.467	20.0673
889.36	18.8124
892.252	16.0879
895.145	14.5268
898.038	13.3637
900.93	9.59784
903.823	7.70674
906.716	6.00797
909.608	3.37676
912.501	2.17845
915.394	0.988922
918.287	0.793137
921.179	0.192383
924.072	0.760208
926.965	1.76411
929.857	2.88045
932.75	4.46503
935.643	7.67511
938.535	10.493
941.428	16.4038
944.321	21.026
947.213	26.1838
950.106	30.2555
952.999	38.8404
955.892	45.7969
958.784	53.8736
961.677	63.177
964.57	70.5668
967.462	80.5838
970.355	85.3485
973.248	88.8585
976.14	92.2307
979.033	90.1995
981.926	88.6569
984.819	83.0979
987.711	77.5849
990.604	73.0776
993.497	64.7651
996.389	58.0804
999.282	51.1926
1002.17	46.1091
1005.07	40.576
1007.96	33.9432
1010.85	28.138
1013.75	22.1127
1016.64	16.824
1019.53	12.1172
1022.42	10.4671
1025.32	6.45689
1028.21	3.33855
1031.1	3.04137
1033.99	1.29115
1036.89	1.86967
1039.78	0.25267
1042.67	1.69327
1045.57	0.303192
1048.46	0.638641
1051.35	1.50615
1054.24	3.68042
1057.14	6.28081
1060.03	9.45049
1062.92	14.9509
1065.81	21.066
1068.71	38.5379
1071.6	88.1703
1074.49	164.341
1077.38	293.837
1080.28	577.408
1083.17	637.887
1086.06	232.629
1088.96	111.255
1091.85	140.223
1094.74	207.102
1097.63	403.981
1100.53	580.452
1103.42	189.576
1106.31	41.0017
1109.2	15.7996
1112.1	7.28532
1114.99	5.3732
1117.88	2.66205
1120.78	2.0312
1123.67	0.397659
1126.56	0.678986
1129.45	0.067688
1132.35	0.851776
1135.24	0.975174
1138.13	0.715576
1141.02	1.10823
1143.92	0.271484
1146.81	0.484131
1149.7	1.14455
1152.6	1.26572
1155.49	1.87209
1158.38	1.73167
1161.27	1.22975
1164.17	2.01265
1167.06	1.59633
1169.95	1.73949
1172.84	2.81895
1175.74	3.6519
1178.63	2.83997
1181.52	4.54865
1184.41	4.1872
1187.31	4.07714
1190.2	3.35292
1193.09	4.21123
1195.99	4.35827
1198.88	4.0273
1201.77	5.1112
1204.66	5.29821
1207.56	6.29218
1210.45	8.8644
1213.34	7.23217
1216.23	6.624
1219.13	7.30675
1222.02	7.81376
1224.91	8.01607
1227.81	7.9379
1230.7	8.03584
1233.59	7.42458
1236.48	7.67156
1239.38	8.0765
1242.27	8.40049
1245.16	8.71147
1248.05	7.66566
1250.95	6.71375
1253.84	6.28144
1256.73	6.30876
1259.62	6.32333
1262.52	4.97892
1265.41	3.42702
1268.3	1.95087
1271.2	2.21184
1274.09	0.87645
1276.98	0.36232
1279.87	0.710823
1282.77	0.326363
1285.66	0.513252
1288.55	0.701004
1291.44	1.24422
1294.34	0.993889
1297.23	0.974327
1300.12	1.08704
1303.02	0
