Measurement: Raman, 532 nm, unoriented, Raman Data Processed
Mineral: Parisite-(Ce)
Rruff sample: R120061
Ideal chemistry: CaCe_2_(CO_3_)_3_F_2_
Locality: Snowbird mine, Fish Creek, Alberton, Mineral County, Montana, USA
Source: Donald Doell
Description: Brown hexagonal prismatic crystals, associated with white quartz
Raman shift (cm-1)	intensity
189.326	0
192.219	0.966492
195.112	0.11557
198.004	0.437241
200.897	0.86853
203.79	0.109131
206.682	5.6228
209.575	7.52446
212.468	8.58302
215.36	11.4169
218.253	14.399
221.146	17.8643
224.038	22.7952
226.931	29.2501
229.824	34.5743
232.717	43.6851
235.609	52.1784
238.502	59.368
241.395	67.5312
244.287	75.9405
247.18	83.9844
250.073	89.3718
252.965	94.4926
255.858	101.638
258.751	100.548
261.644	101.83
264.536	102.983
267.429	99.4866
270.322	96.3852
273.214	89.5795
276.107	78.3185
279	66.7094
281.892	53.4197
284.785	40.8825
287.678	34.9537
290.571	26.4285
293.463	24.1664
296.356	20.9874
299.249	17.8561
302.141	16.249
305.034	13.5834
307.927	10.7486
310.82	7.40073
313.712	6.00499
316.605	4.35912
319.498	3.58435
322.39	2.4295
325.283	1.19386
328.176	1.71873
331.068	1.10232
333.961	2.20068
336.854	1.16631
339.747	1.33002
342.639	2.40027
345.532	0.4496
348.425	2.05609
351.317	1.86729
354.21	0.321915
357.103	1.14329
359.995	0.728622
362.888	1.55786
365.781	1.98642
368.673	0.168762
371.566	0.141525
374.459	1.4722
377.352	2.00957
380.244	5.33167
383.137	7.2265
386.03	9.70964
388.922	11.4125
391.815	12.9193
394.708	13.0893
397.601	13.1228
400.493	11.1711
403.386	10.4023
406.279	8.53529
409.171	7.30791
412.064	6.17581
414.957	4.23907
417.849	3.4639
420.742	1.44365
423.635	1.92767
426.527	1.14222
429.42	1.24246
432.313	0.530991
435.206	2.45031
438.098	0.715553
440.991	0.188637
443.884	0.404068
446.776	0.645653
449.669	1.9797
452.562	1.12742
455.454	1.18961
458.347	1.15263
461.24	2.31568
464.133	2.23549
467.025	2.6179
469.918	1.69442
472.811	2.75797
475.703	2.72134
478.596	2.67577
481.489	4.10252
484.382	3.31455
487.274	4.24632
490.167	3.84423
493.06	3.21051
495.952	4.53152
498.845	3.05324
501.738	2.49541
504.63	1.81451
507.523	1.45189
510.416	1.41961
513.308	1.61131
516.201	0.363113
519.094	0.725243
521.987	0.346451
524.879	0.703316
527.772	0.629395
530.665	0.364273
533.557	0.394958
536.45	0.297646
539.343	1.27534
542.236	1.53625
545.128	4.54044
548.021	6.39736
550.914	4.64565
553.806	6.04132
556.699	7.92146
559.592	10.0045
562.484	10.746
565.377	11.3031
568.27	14.7581
571.163	17.6873
574.055	18.0247
576.948	21.9391
579.841	25.8197
582.733	29.2291
585.626	31.6857
588.519	35.9452
591.411	39.1167
594.304	41.7503
597.197	44.8319
600.09	45.3863
602.982	44.4757
605.875	43.0241
608.768	40.7744
611.66	37.4374
614.553	32.1386
617.446	28.0035
620.338	24.1648
623.231	18.801
626.124	15.1999
629.016	11.4221
631.909	9.2905
634.802	7.84935
637.695	6.73264
640.587	3.28329
643.48	1.59638
646.373	1.54651
649.265	1.29297
652.158	0.247269
655.051	1.07272
657.943	0.238586
660.836	0.304169
663.729	0.303619
666.622	1.33713
669.514	1.69513
672.407	1.65695
675.3	3.27391
678.192	3.09509
681.085	4.00864
683.978	4.45683
686.87	2.6048
689.763	0.397064
692.656	0.376297
695.549	0.014954
698.441	0.207153
701.334	0.570908
704.227	0.763824
707.119	1.282
710.012	1.95827
712.905	1.89937
715.798	3.73144
718.69	5.38725
721.583	8.65221
724.476	14.4539
727.368	20.7672
730.261	28.0712
733.154	37.1236
736.046	40.7164
738.939	43.6052
741.832	41.47
744.725	36.5542
747.617	29.682
750.51	26.3965
753.403	24.7797
756.295	18.3764
759.188	14.4391
762.081	9.40984
764.973	6.47894
767.866	5.38766
770.759	4.13609
773.652	3.78052
776.544	0.835533
779.437	2.88971
782.33	0.765785
785.222	0.875252
788.115	1.27598
791.008	0.026787
793.9	0.818596
796.793	0.932793
799.686	0.164795
802.578	0.502235
805.471	0.071564
808.364	0.809219
811.257	0.454559
814.149	0.613586
817.042	0.884354
819.935	1.02237
822.827	0.012955
825.72	1.09702
828.613	0.309464
831.505	0.958191
834.398	0.503021
837.291	1.95686
840.184	0.751114
843.076	1.32535
845.969	1.51302
848.862	1.60583
851.754	1.52806
854.647	2.23718
857.54	3.05737
860.433	2.75905
863.325	2.47115
866.218	3.09691
869.111	1.45696
872.003	1.7104
874.896	1.28291
877.789	0.462753
880.681	0.830048
883.574	0.260635
886.467	0.770081
889.36	0.641647
892.252	0.948624
895.145	0.049286
898.038	1.10217
900.93	1.62824
903.823	2.02611
906.716	1.75485
909.608	2.04796
912.501	2.72588
915.394	2.31596
918.287	2.20131
921.179	2.94322
924.072	3.45769
926.965	3.85292
929.857	4.75954
932.75	5.04773
935.643	3.83403
938.535	4.83058
941.428	6.60652
944.321	6.48991
947.213	6.78868
950.106	6.18672
952.999	6.65799
955.892	5.42371
958.784	5.85632
961.677	6.11331
964.57	6.51611
967.462	5.00694
970.355	5.47328
973.248	5.58467
976.14	4.59985
979.033	4.1817
981.926	4.33536
984.819	4.03642
987.711	2.80589
990.604	3.78125
993.497	3.70302
996.389	3.12383
999.282	2.5607
1002.17	1.92546
1005.07	1.05646
1007.96	0.940186
1010.85	1.51698
1013.75	1.03169
1016.64	0.770462
1019.53	0.064728
1022.42	0.676559
1025.32	0.11055
1028.21	0.866669
1031.1	1.06486
1033.99	0.413834
1036.89	2.19646
1039.78	2.1371
1042.67	4.4124
1045.57	8.32121
1048.46	13.5711
1051.35	17.5045
1054.24	25.8637
1057.14	38.2369
1060.03	53.3147
1062.92	75.0815
1065.81	104.642
1068.71	145.498
1071.6	201.283
1074.49	265.803
1077.38	346.045
1080.28	415.305
1083.17	410.187
1086.06	384.771
1088.96	404.348
1091.85	411.107
1094.74	377.388
1097.63	331.897
1100.53	240.975
1103.42	133.843
1106.31	74.7801
1109.2	45.0743
1112.1	30.5057
1114.99	18.8761
1117.88	14.4952
1120.78	9.28365
1123.67	6.81454
1126.56	4.26804
1129.45	1.5952
1132.35	1.12407
1135.24	2.10979
1138.13	0.959808
1141.02	0.366165
1143.92	0.26004
1146.81	0.679108
1149.7	1.1927
1152.6	0.021286
1155.49	0.496902
1158.38	0.070236
1161.27	1.01202
1164.17	0.87265
1167.06	1.19414
1169.95	0.496155
1172.84	0.401825
1175.74	0.034897
1178.63	1.70436
1181.52	1.22594
1184.41	0.275558
1187.31	1.42888
1190.2	0.54071
1193.09	1.55625
1195.99	2.31519
1198.88	0.399734
1201.77	1.31504
1204.66	1.24479
1207.56	0.85598
1210.45	1.69204
1213.34	0.721886
1216.23	1.23475
1219.13	0.890121
1222.02	1.03513
1224.91	0.979271
1227.81	1.41815
1230.7	1.42604
1233.59	0.294395
1236.48	0.34481
1239.38	0.680519
1242.27	1.26836
1245.16	1.32758
1248.05	1.48418
1250.95	0.358879
1253.84	1.52303
1256.73	0.577187
1259.62	1.66724
1262.52	1.66582
1265.41	1.39104
1268.3	1.28015
1271.2	0.720497
1274.09	0.966698
1276.98	0.745926
1279.87	0.395653
1282.77	0.674164
1285.66	0.467491
1288.55	1.65128
1291.44	0.955452
1294.34	1.05036
1297.23	0.896523
1300.12	2.05667
1303.02	0
