Measurement: Raman, 532 nm, unoriented, Raman Data Processed
Mineral: Parisite-(Ce)
Rruff sample: R050308
Ideal chemistry: CaCe_2_(CO_3_)_3_F_2_
Locality: Muzo, Bogota, Colombia
Source: Eugene Schlepp
Description: Green hexagonal prism
Measured chemistry: lighter phase: Ca_1.00_(Ce_1.03_La_0.49_Nd_0.42_Y_0.06_)_Σ=2_(CO_3_)_3_F_2.00_ ; darker phase: Ca_1.00_(Ce_0.96_La_0.51_Nd_0.48_Y_0.05_)_Σ=2_(CO_3_)_3_(F_1.82_(OH)_0.18_)_Σ=2_
Raman shift (cm-1)	intensity
140.019	0
143.394	33.8057
146.769	213.806
150.144	805.048
153.519	1731.87
156.894	2421.17
160.268	2742.89
163.643	3296.37
167.018	3610.97
170.393	2802.53
173.768	1753.6
177.143	772.533
180.517	264.245
183.892	56.4028
187.267	29.0393
190.642	17.1816
194.017	10.2444
197.391	83.1934
200.766	2.75977
204.141	35.0354
207.516	8.04273
210.891	24.2195
214.266	65.4526
217.64	1.11133
221.015	233.613
224.39	495.329
227.765	1038.74
231.14	1923.47
234.514	3085.84
237.889	4585.31
241.264	6167.65
244.639	7831.51
248.014	9328.76
251.388	10146
254.763	10461.7
258.138	10378.8
261.513	10510.1
264.888	10914.8
268.263	10631.3
271.637	9560.77
275.012	8180.53
278.387	6241.41
281.762	4249.27
285.137	2739.6
288.512	1929.67
291.886	1608.42
295.261	1800.73
298.636	1994
302.011	1768.23
305.386	1150.85
308.76	650.741
312.135	261.004
315.51	14.5215
318.885	10.7095
322.26	64.2876
325.635	131.598
329.009	230.725
332.384	273.162
335.759	344.382
339.134	540.737
342.509	971.394
345.883	1727.79
349.258	2585.24
352.633	2921.02
356.008	2634.51
359.383	1960.17
362.757	1056.67
366.132	434.158
369.507	68.5659
372.882	94.3313
376.257	36.221
379.632	113.998
383.006	478.941
386.381	830.15
389.756	1277.89
393.131	1466.75
396.506	1487.74
399.88	1245.41
403.255	939.496
406.63	591.384
410.005	335.859
413.38	185.229
416.755	110.197
420.129	10.0284
423.504	9.95544
426.879	12.4034
430.254	3.86096
433.629	32.103
437.003	7.9585
440.378	4.59448
443.753	27.1727
447.128	24.8511
450.503	42.4556
453.878	91.7266
457.252	101.586
460.627	135.932
464.002	159.614
467.377	189.133
470.752	170.662
474.127	201.948
477.501	214.777
480.876	225.019
484.251	224.667
487.626	210.656
491.001	198.622
494.375	155.549
497.75	116.689
501.125	113.224
504.5	81.3521
507.875	87.9414
511.25	52.5273
514.624	66.8085
517.999	58.5918
521.374	27.9225
524.749	45.889
528.124	23.2369
531.498	16.1136
534.873	24.8367
538.248	0.058594
541.623	21.1005
544.998	18.9493
548.372	9.51843
551.747	30.618
555.122	47.9522
558.497	59.217
561.872	75.7966
565.247	88.3402
568.621	150.788
571.996	171.737
575.371	237.226
578.746	317.662
582.121	405.645
585.495	511.411
588.87	593.178
592.245	658.05
595.62	684.269
598.995	710.9
602.37	701.284
605.744	699.254
609.119	570.056
612.494	429.671
615.869	286.506
619.244	198.92
622.619	134.48
625.993	86.8895
629.368	30.9071
632.743	30.6346
636.118	25.5832
639.493	26.463
642.867	9.25366
646.242	5.29858
649.617	8.90015
652.992	23.5508
656.367	71.4877
659.741	138.756
663.116	277.84
666.491	287.37
669.866	181.161
673.241	152.177
676.616	141.08
679.99	242.829
683.365	461.441
686.74	251.646
690.115	37.7176
693.49	5.89307
696.865	0.151245
700.239	2.82068
703.614	30.0551
706.989	22.0142
710.364	26.1124
713.739	72.6074
717.113	102.14
720.488	225.385
723.863	422.603
727.238	802.207
730.613	1661.92
733.987	2555.08
737.362	2919.78
740.737	3037.67
744.112	1831.39
747.487	1257.91
750.862	1526.47
754.236	1611.09
757.611	650.979
760.986	307.677
764.361	208.757
767.736	155.197
771.111	146.382
774.485	139.11
777.86	121.887
781.235	106.329
784.61	110.792
787.985	98.2942
791.359	88.7647
794.734	71.0972
798.109	68.221
801.484	46.8153
804.859	53.9075
808.234	27.562
811.608	11.846
814.983	14.7721
818.358	17.2125
821.733	11.5933
825.108	19.4276
828.482	12.8097
831.857	15.1415
835.232	1.6958
838.607	33.1794
841.982	23.1403
845.356	33.2498
848.731	1.52002
852.106	0.787842
855.481	43.9031
858.856	112.028
862.231	229.259
865.605	398.561
868.98	502.971
872.355	373.082
875.73	329.517
879.105	363.903
882.48	403.502
885.854	419.639
889.229	473.025
892.604	484.286
895.979	498.123
899.354	455.592
902.729	475.638
906.103	399.288
909.478	385.644
912.853	438.497
916.228	408.327
919.602	442.89
922.977	492.173
926.352	628.935
929.727	716.04
933.102	803.992
936.477	946.248
939.851	1016.21
943.226	1220.53
946.601	1258.89
949.976	1356.4
953.351	1366.76
956.726	1417.31
960.1	1366.75
963.475	1344.97
966.85	1313.14
970.225	1237
973.6	1200.56
976.974	1146.94
980.349	1090.85
983.724	981.596
987.099	918.325
990.474	749.007
993.848	630.978
997.223	482.108
1000.6	339.28
1003.97	265.709
1007.35	168.623
1010.72	136.698
1014.1	76.9624
1017.47	20.1086
1020.85	27.3616
1024.22	23.0088
1027.6	40.2362
1030.97	45.6899
1034.35	27.5381
1037.72	14.2212
1041.1	31.4793
1044.47	100.157
1047.85	170.724
1051.22	269.162
1054.6	426.663
1057.97	777.997
1061.35	1197.98
1064.72	1564.22
1068.09	2546.81
1071.47	4738.32
1074.84	9545.45
1078.22	20083.1
1081.59	27821.9
1084.97	13887.3
1088.34	18176.6
1091.72	25889.5
1095.09	17838.3
1098.47	22116
1101.84	8609.47
1105.22	1534.56
1108.59	552.961
1111.97	304.865
1115.34	174.069
1118.72	106.106
1122.09	51.1636
1125.47	24.9044
1128.84	31.6143
1132.22	1.21375
1135.59	10.8575
1138.97	24.8199
1142.34	6.0387
1145.71	30.651
1149.09	22.9952
1152.46	32.8278
1155.84	19.1704
1159.21	44.0375
1162.59	43.8486
1165.96	54.7684
1169.34	74.1505
1172.71	61.297
1176.09	44.6906
1179.46	63.7341
1182.84	64.3508
1186.21	68.9632
1189.59	53.1987
1192.96	41.4882
1196.34	11.3978
1199.71	2.73846
1203.09	0.931152
1206.46	9.06909
1209.84	16.9903
1213.21	15.0655
1216.59	15.6802
1219.96	27.5004
1223.34	30.2
1226.71	43.3277
1230.09	47.3438
1233.46	33.4639
1236.84	22.0084
1240.21	41.991
1243.59	67.129
1246.96	45.9741
1250.34	59.4746
1253.71	29.158
1257.08	24.7468
1260.46	43.2108
1263.83	22.7927
1267.21	24.8686
1270.58	7.57318
1273.96	10.8582
1277.33	5.92938
1280.71	15.4789
1284.08	3.34338
1287.46	4.02191
1290.83	0.851868
1294.21	19.2716
1297.58	8.35254
1300.96	9.03735
1304.33	1.03265
1307.71	21.8966
1311.08	0.923889
1314.46	11.0752
