Measurement: Raman, 514 nm, unoriented, Raman Data Processed
Mineral: Parisite-(Ce)
Rruff sample: R050308
Ideal chemistry: CaCe_2_(CO_3_)_3_F_2_
Locality: Muzo, Bogota, Colombia
Source: Eugene Schlepp
Description: Green hexagonal prism
Measured chemistry: lighter phase: Ca_1.00_(Ce_1.03_La_0.49_Nd_0.42_Y_0.06_)_Σ=2_(CO_3_)_3_F_2.00_ ; darker phase: Ca_1.00_(Ce_0.96_La_0.51_Nd_0.48_Y_0.05_)_Σ=2_(CO_3_)_3_(F_1.82_(OH)_0.18_)_Σ=2_
Raman shift (cm-1)	intensity
52.866	0
57.065	157.649
61.262	3.727
65.458	19.811
69.651	482.902
73.842	1090.14
78.031	1391.58
82.218	1710.18
86.404	2441.88
90.587	3511.35
94.768	4235.23
98.947	4814.64
103.124	4639.74
107.3	4848.67
111.473	5824.86
115.644	7776.77
119.813	7727.19
123.981	8146.84
128.146	8511.3
132.309	7337.11
136.47	7549.83
140.63	6985.3
144.787	6076.82
148.942	5519.24
153.096	5751.64
157.247	6979.58
161.396	8671.72
165.544	9619.27
169.689	8325.31
173.833	5799.13
177.974	3653.3
182.114	2556.03
186.251	1989.29
190.387	1828.69
194.52	1911.2
198.652	1897.57
202.782	1779.13
206.909	1788.38
211.035	1063.1
215.159	678.228
219.281	421.612
223.4	518.222
227.518	766.941
231.634	1476.96
235.748	2540.98
239.86	4129.55
243.97	5763.79
248.079	6943.57
252.185	7365.83
256.289	6707.58
260.391	5540.77
264.492	4175.87
268.59	2833.89
272.687	1941.69
276.781	1167.22
280.874	559.903
284.964	236.827
289.053	218.995
293.14	507.18
297.225	985.109
301.308	1230.31
305.389	1324.04
309.468	1315.75
313.545	1222.46
317.62	1176.97
321.693	1360.35
325.765	1308.68
329.834	1396.89
333.902	1494.28
337.967	2194.11
342.031	3301.22
346.093	4759.35
350.153	6139.46
354.21	6335.52
358.267	5292.51
362.321	3744.41
366.373	2499.2
370.423	1543.88
374.471	1139.41
378.518	858.844
382.563	631.338
386.605	530.082
390.646	439.21
394.685	271.631
398.722	160.307
402.757	73.141
406.79	113.993
410.821	150.337
414.851	27.175
418.878	107.472
422.904	56.428
426.927	23.881
430.949	15.627
434.969	107.353
438.987	60.04
443.003	12.351
447.018	10.267
451.03	63.312
455.041	105.552
459.049	124.509
463.056	80.472
467.061	28.412
471.064	76.62
475.065	39.135
479.064	91.026
483.062	67.578
487.057	63.483
491.051	101.903
495.043	163.2
499.032	310.418
503.02	326.025
507.007	310.668
510.991	386.863
514.973	414.445
518.954	374.005
522.933	374.014
526.91	372.364
530.885	494.245
534.858	518.88
538.829	768.499
542.799	800.979
546.766	858.272
550.732	901.023
554.696	945.674
558.658	1075.9
562.618	1177.74
566.576	1396.84
570.533	1506.43
574.488	1602.85
578.44	1729.71
582.391	1915.56
586.341	2194.89
590.288	2357.88
594.233	2445.42
598.177	2471.43
602.119	2584.84
606.059	2332.38
609.997	2108.12
613.933	1674.59
617.868	1352.44
621.801	848.968
625.731	708.511
629.66	584.053
633.588	396.769
637.513	312.88
641.437	224.856
645.358	155.362
649.278	171.721
653.196	94.758
657.113	181.63
661.027	491.505
664.94	729.078
668.851	391.248
672.76	238.072
676.667	199.561
680.572	537.713
684.476	978.541
688.378	224.053
692.278	121.254
696.176	78.026
700.072	50.007
703.967	140.457
707.86	41.357
711.751	103.321
715.64	32.352
719.527	47.533
723.413	39.65
727.297	145.099
731.179	365.452
735.059	479.976
738.937	771.558
742.814	677.064
746.689	452.433
750.562	371.661
754.433	342.781
758.303	362.841
762.17	126.829
766.036	30.158
769.901	109.868
773.763	199.01
777.624	43.415
781.482	63.998
785.339	121.799
789.195	78.873
793.048	120.103
796.9	107.155
800.75	63.27
804.598	149.629
808.445	68.897
812.289	16.021
816.132	85.993
819.973	79.129
823.813	104.876
827.65	134.36
831.486	259.249
835.32	171.422
839.152	111.617
842.983	115.81
846.812	130.431
850.639	143.439
854.464	65.051
858.288	137.702
862.11	432.192
865.93	818.645
869.748	885.457
873.564	596.429
877.379	430.377
881.192	365.715
885.004	370.015
888.813	350.525
892.621	390.285
896.427	295.346
900.232	313.806
904.034	470.592
907.835	560.713
911.634	455.044
915.432	544.375
919.227	590.688
923.021	599.972
926.813	509.398
930.604	563.788
934.393	586.386
938.18	818.513
941.965	740.308
945.749	540.744
949.53	574.365
953.311	534.068
957.089	603.96
960.866	511.873
964.641	565.825
968.414	467.851
972.185	515.88
975.955	633.022
979.723	616.216
983.49	717.453
987.254	765.729
991.017	710.037
994.779	783.396
998.538	644.135
1002.3	444.616
1006.05	656.761
1009.81	595.033
1013.56	618.48
1017.31	768.147
1021.06	816.221
1024.81	850.751
1028.55	794.503
1032.3	921.329
1036.04	880.681
1039.78	990.979
1043.52	911.169
1047.26	1088.6
1050.99	1262.9
1054.73	1707.48
1058.46	2289.56
1062.19	3172.93
1065.92	4090.51
1069.65	5660.79
1073.37	8480.75
1077.1	16276.4
1080.82	30920.9
1084.54	19323.6
1088.26	21193.5
1091.97	31010.5
1095.69	23956
1099.4	25901
1103.12	7930.2
1106.83	2314.07
1110.54	1226.77
1114.24	835.73
1117.95	529.761
1121.65	752.257
1125.35	619.612
1129.06	439.09
1132.75	322.07
1136.45	415.752
1140.15	311.128
1143.84	207.193
1147.53	41.935
1151.22	66.681
1154.91	109.918
1158.6	78.919
1162.28	45.615
1165.97	9.971
1169.65	10.859
1173.33	47.14
1177.01	161.967
1180.69	93.311
1184.36	37.129
1188.04	29.586
1191.71	113.984
1195.38	114.187
1199.05	39.309
1202.71	21.21
1206.38	218.144
1210.04	135.024
1213.71	105.487
1217.37	87.554
1221.03	64.236
1224.68	157.548
1228.34	17.51
1231.99	12.094
1235.65	27.173
1239.3	93.817
1242.95	236.076
1246.59	230.969
1250.24	331.493
1253.88	216.641
1257.53	85.412
1261.17	58.812
1264.81	211.837
1268.45	135.489
1272.08	154.77
1275.72	266.696
1279.35	353.286
1282.98	289.546
1286.61	296.483
1290.24	225.971
1293.87	498.189
1297.49	356.128
1301.11	349.682
1304.73	341.701
1308.36	356.6
1311.97	217.377
1315.59	500.68
1319.2	353.02
1322.82	262.705
1326.43	445.357
1330.04	318.131
1333.65	332.912
1337.26	199.592
1340.86	313.162
1344.47	361.453
1348.07	405.791
1351.67	458.156
1355.27	441.057
1358.87	429.754
1362.46	442.279
1366.06	438.994
1369.65	444.727
1373.24	381.66
1376.83	238.518
1380.42	317.572
1384	326.105
1387.59	298.447
1391.17	648.439
1394.75	579.607
1398.33	583.441
1401.91	609.646
1405.49	525.412
1409.06	508.752
1412.64	716.025
1416.21	789.873
1419.78	857.133
1423.35	1078.17
1426.91	1324.08
1430.48	1604.5
1434.05	1992.17
1437.61	2743.15
1441.17	2960.58
1444.73	2795.18
1448.29	2171.82
1451.84	2177.68
1455.4	1880.01
1458.95	1690.82
1462.5	1488.37
1466.05	1313.77
1469.6	1146.23
1473.15	877.859
1476.69	813.801
1480.24	576.131
1483.78	532.848
1487.32	420.271
1490.86	317.842
1494.39	137.041
1497.93	171.424
1501.46	90.459
1505	144.977
1508.53	102.988
1512.06	124.416
1515.59	86.113
1519.11	0.266
