Measurement: Raman, 532 nm, unoriented, Raman Data Processed
Mineral: Parsonsite
Rruff sample: R060154
Ideal chemistry: Pb_2_(UO_2_)(PO_4_)_2_0-2H_2_O
Locality: Faye, near Grury, France
Source: Marcus Origlieri
Description: Yellow acicular crystals in radial aggregates
Measured chemistry: Pb_2.18_(UO_2_)_1.09_(PO_4_)_1.82_Â·1.99H_2_O
Raman shift (cm-1)	intensity
152.457	0
155.35	5.93481
158.242	6.14062
161.135	4.99561
164.028	33.9868
166.92	55.281
169.813	86.8186
172.706	117.066
175.598	146.843
178.491	161.43
181.384	171.297
184.277	194.049
187.169	212.438
190.062	237.022
192.955	253.347
195.847	266.321
198.74	286.965
201.633	297.874
204.525	278.728
207.418	252.039
210.311	229.956
213.204	209.703
216.096	184.423
218.989	163.338
221.882	149.04
224.774	141.291
227.667	121.483
230.56	97.9919
233.452	71.842
236.345	65.343
239.238	57.7122
242.131	64.4509
245.023	64.1841
247.916	67.2195
250.809	76.76
253.701	79.4338
256.594	72.5408
259.487	58.3137
262.38	47.3845
265.272	55.7293
268.165	56.6001
271.058	52.3303
273.95	53.1833
276.843	53.4238
279.736	41.8108
282.628	20.186
285.521	15.7253
288.414	13.919
291.307	19.9883
294.199	2.14722
297.092	7.80371
299.985	10.9915
302.877	5.55103
305.77	8.61157
308.663	5.35522
311.555	5.70166
314.448	15.0234
317.341	13.2366
320.234	1.41553
323.126	4.15771
326.019	7.47021
328.912	8.50879
331.804	6.32227
334.697	7.10522
337.59	5.93262
340.483	5.60815
343.375	6.92651
346.268	17.5378
349.161	17.5005
352.053	21.6519
354.946	8.45508
357.839	5.79834
360.731	6.93604
363.624	9.8706
366.517	11.1396
369.41	14.365
372.302	17.1135
375.195	23.9294
378.088	23.2476
380.98	24.1016
383.873	38.9202
386.766	52.7573
389.659	64.145
392.551	70.699
395.444	66.7756
398.337	83.6494
401.229	84.5918
404.122	80.084
407.015	49.7876
409.907	26.1777
412.8	20.9829
415.693	10.7832
418.586	11.6577
421.478	15.3059
424.371	18.9153
427.264	18.7061
430.156	24.74
433.049	30.3169
435.942	34.1648
438.834	31.5371
441.727	31.9631
444.62	16.8184
447.513	13.3643
450.405	16.0195
453.298	24.2344
456.191	25.3914
459.083	33.6504
461.976	29.3513
464.869	26.0439
467.762	7.01929
470.654	9.8042
473.547	2.98901
476.44	1.1853
479.332	3.95337
482.225	5.66553
485.118	2.78101
488.01	1.56958
490.903	8.7832
493.796	5.09424
496.688	5.39185
499.581	14.4854
502.474	13.5735
505.367	15.468
508.259	8.97241
511.152	11.0088
514.045	9.94922
516.938	10.6355
519.83	10.9551
522.723	8.1665
525.616	7.00537
528.508	11.6743
531.401	25.9045
534.294	28.5962
537.186	30.0391
540.079	24.145
542.972	24.907
545.865	23.2131
548.757	31.178
551.65	26.7114
554.543	25.3816
557.435	20.8322
560.328	25.8407
563.221	28.9661
566.114	30.352
569.006	29.4788
571.899	36.301
574.792	47.9092
577.684	51.4265
580.577	60.4358
583.47	62.6865
586.362	60.0276
589.255	54.8167
592.148	58.6802
595.04	60.8906
597.933	56.7766
600.826	58.1228
603.719	57.1003
606.611	54.2915
609.504	45.915
612.397	29.9568
615.289	21.9395
618.182	15.7129
621.075	18.063
623.967	16.4775
626.86	16.4595
629.753	19.1091
632.646	25.8572
635.538	22.1484
638.431	13.4934
641.324	8.23511
644.216	8.66699
647.109	12.0835
650.002	1.18286
652.894	2.81885
655.787	5.51025
658.68	12.2161
661.573	11.303
664.465	10.6567
667.358	2.64038
670.251	3.95581
673.144	7.22729
676.036	0.920654
678.929	7.8811
681.822	3.84644
684.714	14.6277
687.607	10.2141
690.5	9.19165
693.392	3.62549
696.285	2.99609
699.178	2.17212
702.071	1.79492
704.963	2.37671
707.856	4.06396
710.749	4.57959
713.641	9.37988
716.534	19.6628
719.427	24.7959
722.319	24.8105
725.212	25.5959
728.105	35.6191
730.998	29.481
733.89	40.792
736.783	45.8198
739.676	67.2119
742.568	73.3259
745.461	74.8159
748.354	78.5061
751.246	84.6914
754.139	88.7112
757.032	120.731
759.925	147.236
762.817	172.057
765.71	192.949
768.603	227.97
771.495	261.807
774.388	314.297
777.281	347.625
780.173	412.9
783.066	470.896
785.959	554.542
788.852	634.071
791.744	740.024
794.637	849.128
797.53	962.029
800.422	1088.68
803.315	1144.24
806.208	1053.12
809.101	796.547
811.993	540.262
814.886	369.554
817.779	257.02
820.671	199.916
823.564	158.356
826.457	126.657
829.35	104.756
832.242	91.6655
835.135	75.8374
838.028	56.8398
840.92	67.8701
843.813	56.3726
846.706	39.6948
849.598	39.3599
852.491	49.1113
855.384	49.2192
858.277	41.4985
861.169	36.2295
864.062	32.5171
866.955	31.6919
869.847	28.1526
872.74	21.8076
875.633	18.7476
878.525	7.5481
881.418	0.801025
884.311	0.895508
887.204	3.09888
890.096	9.97852
892.989	20.25
895.882	18.3401
898.774	11.145
901.667	1.59692
904.56	1.2605
907.452	1.20142
910.345	1.36792
913.238	9.91504
916.131	18.6045
919.023	16.7842
921.916	27.3901
924.809	32.0723
927.701	35.9114
930.594	43.2571
933.487	59.5715
936.38	80.5732
939.272	101.342
942.165	102.228
945.058	97.3489
947.95	86.2681
950.843	79.8418
953.736	85.2331
956.629	93.4526
959.521	103.178
962.414	115.622
965.307	105.445
968.199	84.1113
971.092	52.7561
973.985	45.469
976.877	47.9585
979.77	50.3645
982.663	49.7732
985.556	44.7693
988.448	39.053
991.341	36.5637
994.234	36.0645
997.126	36.7959
1000.02	44.7148
1002.91	45.384
1005.8	49.7422
1008.7	57.3804
1011.59	71.5896
1014.48	78.3357
1017.38	91.0156
1020.27	94.0339
1023.16	101.563
1026.05	83.0151
1028.95	66.2676
1031.84	54.2082
1034.73	44.0288
1037.62	27.6167
1040.52	14.0479
1043.41	10.544
1046.3	15.3074
1049.19	4.80566
1052.09	3.52197
1054.98	1.31567
1057.87	1.70654
1060.77	2.27075
1063.66	9.27856
1066.55	12.2942
1069.44	22.2966
1072.34	16.8713
1075.23	12.1902
1078.12	4.177
1081.02	1.11279
1083.91	2.09815
1086.8	4.51123
1089.69	0.540527
1092.59	1.33228
1095.48	2.06567
1098.37	0.196045
1101.26	8.92676
1104.16	0.326172
1107.05	1.71973
1109.94	1.88745
1112.83	2.70264
1115.73	8.08594
1118.62	5.43237
1121.51	4.82593
1124.4	5.71045
1127.3	6.50098
1130.19	5.64551
1133.08	10.3892
1135.98	10.9912
1138.87	6.13647
1141.76	6.35107
1144.65	7.1936
1147.55	13.1379
1150.44	17.6028
1153.33	7.06543
1156.22	0.385742
1159.12	0.225586
1162.01	7.66919
1164.9	6.44678
1167.8	7.63403
1170.69	13.8391
1173.58	10.7551
1176.47	11.2935
1179.37	5.37988
1182.26	5.78931
1185.15	8.03979
1188.05	16.1064
1190.94	13.2473
1193.83	11.2847
1196.72	11.3767
1199.62	12.2058
1202.51	11.2373
1205.4	14.7319
1208.29	12.0774
1211.19	14.0085
1214.08	15.0364
1216.97	13.9602
1219.87	10.7825
1222.76	11.2781
1225.65	10.6699
1228.54	12.0227
1231.43	15.9197
1234.33	12.6843
1237.22	7.29224
1240.11	1.11499
1243.01	2.21289
1245.9	4.84326
1248.79	8.3772
1251.68	7.7395
1254.58	3.97729
1257.47	6.61646
1260.36	4.64746
1263.26	9.34351
1266.15	9.25879
1269.04	25.6577
1271.93	21.5344
1274.83	19.4627
1277.72	14.2339
1280.61	2.00147
1283.5	1.61963
1286.4	8.64624
1289.29	5.21997
1292.18	9.38599
1295.08	6.9043
1297.97	2.39502
1300.86	4.5813
