Measurement: Raman, 780 nm, unoriented, Raman Data Processed
Mineral: Parsonsite
Rruff sample: R060154
Ideal chemistry: Pb_2_(UO_2_)(PO_4_)_2_0-2H_2_O
Locality: Faye, near Grury, France
Source: Marcus Origlieri
Description: Yellow acicular crystals in radial aggregates
Measured chemistry: Pb_2.18_(UO_2_)_1.09_(PO_4_)_1.82_Â·1.99H_2_O
Raman shift (cm-1)	intensity
145.54	0
148.433	2.83675
151.326	8.61355
154.218	9.99299
157.111	5.46762
160.004	0.196756
162.897	0.488039
165.789	0.190979
168.682	3.31423
171.575	2.19463
174.467	5.63005
177.36	9.80189
180.253	16.1686
183.145	23.8166
186.038	30.5765
188.931	34.1574
191.823	36.1336
194.716	40.9364
197.609	41.6268
200.502	46.1035
203.394	47.313
206.287	47.3758
209.18	37.5978
212.072	32.0189
214.965	27.8431
217.858	22.9681
220.75	18.4828
223.643	18.849
226.536	14.0218
229.429	9.39127
232.321	7.49537
235.214	3.80143
238.107	7.92896
240.999	9.88705
243.892	14.4626
246.785	19.2935
249.677	20.6928
252.57	20.3188
255.463	16.9461
258.356	14.0919
261.248	9.8685
264.141	8.37078
267.034	7.17294
269.926	6.20172
272.819	5.66271
275.712	3.92077
278.604	3.58654
281.497	2.11083
284.39	0.536304
287.283	0.134927
290.175	0.556871
293.068	0.553954
295.961	0.560495
298.853	1.63645
301.746	3.80986
304.639	9.13479
307.531	13.3584
310.424	21.0988
313.317	31.2011
316.209	38.7328
319.102	50.0245
321.995	61.0825
324.888	72.6758
327.78	80.7163
330.673	86.7288
333.566	91.1837
336.458	91.0818
339.351	90.0157
342.244	83.5644
345.137	74.7416
348.029	60.8722
350.922	49.8415
353.815	39.1931
356.707	29.7403
359.6	20.2502
362.493	16.2276
365.385	11.1273
368.278	5.28976
371.171	5.09443
374.063	2.85312
376.956	0.763988
379.849	0.437711
382.741	1.49524
385.634	1.84926
388.527	4.29419
391.42	5.58375
394.312	7.40219
397.205	9.6623
400.098	10.5933
402.99	13.2388
405.883	10.0824
408.776	5.87343
411.668	0.986133
414.561	3.16846
417.454	3.90601
420.347	6.33598
423.239	11.7802
426.132	15.5843
429.025	17.2283
431.917	21.4998
434.81	23.3132
437.703	24.9755
440.596	20.9802
443.488	18.1917
446.381	15.247
449.274	12.5146
452.166	14.0199
455.059	11.5545
457.952	13.8146
460.844	15.9029
463.737	17.5874
466.63	10.6775
469.522	9.53324
472.415	5.45861
475.308	5.33014
478.201	2.73699
481.093	3.06209
483.986	0.274838
486.879	0.100637
489.771	0.548848
492.664	0.408021
495.557	0.428529
498.45	0.188794
501.342	0.170126
504.235	0.947377
507.128	1.28527
510.02	0.279371
512.913	0.00619
515.806	0.385724
518.698	0.046621
521.591	0.323571
524.484	2.51653
527.376	2.03411
530.269	2.65993
533.162	2.68707
536.055	4.7365
538.947	4.30951
541.84	4.96777
544.733	4.95277
547.625	3.0634
550.518	4.73059
553.411	4.38846
556.303	5.83664
559.196	4.89347
562.089	4.2107
564.981	3.99962
567.874	3.82845
570.767	3.93854
573.66	1.71489
576.552	4.15192
579.445	2.9057
582.338	4.65391
585.23	3.26951
588.123	3.24507
591.016	4.631
593.909	4.82136
596.801	4.54053
599.694	4.07166
602.587	4.39959
605.479	6.54796
608.372	6.36431
611.265	3.24081
614.157	1.88034
617.05	1.27631
619.943	0.424172
622.836	0.657874
625.728	0.471299
628.621	1.28437
631.514	0.684204
634.406	0.061386
637.299	1.5027
640.192	1.45677
643.084	0.229365
645.977	1.7967
648.87	1.08703
651.763	1.15177
654.655	0.097716
657.548	1.08054
660.441	0.933296
663.333	0.733875
666.226	1.0585
669.119	1.66781
672.011	2.59931
674.904	2.03794
677.797	3.32292
680.689	3.88428
683.582	2.9362
686.475	3.20729
689.368	3.12585
692.26	2.50748
695.153	1.74293
698.046	2.21608
700.938	3.495
703.831	0.96299
706.724	1.48238
709.616	1.05778
712.509	0.584315
715.402	0.486867
718.294	0.204729
721.187	0.225204
724.08	0.822603
726.973	0.131771
729.865	0.096878
732.758	0.024795
735.651	1.0396
738.543	0.468415
741.436	0.737734
744.329	1.55503
747.221	0.951501
750.114	2.68677
753.007	5.20847
755.9	7.30675
758.792	10.6018
761.685	15.0446
764.578	18.2378
767.47	23.7398
770.363	30.8484
773.256	37.4657
776.149	47.377
779.041	56.2499
781.934	67.6547
784.827	79.6831
787.719	94.4582
790.612	113.934
793.505	132.44
796.397	154.292
799.29	173.878
802.183	193.981
805.075	197.885
807.968	172.964
810.861	124.059
813.754	79.0261
816.646	53.9461
819.539	37.2842
822.432	27.1811
825.324	20.0601
828.217	13.7945
831.11	11.3323
834.002	8.32214
836.895	6.50891
839.788	5.62834
842.681	4.56086
845.573	2.9062
848.466	3.63194
851.359	4.74276
854.251	4.5994
857.144	5.3403
860.037	6.70423
862.929	6.67544
865.822	4.96325
868.715	4.42296
871.607	4.0579
874.5	3.14083
877.393	3.31939
880.286	1.0578
883.178	0.822298
886.071	0.949089
888.964	1.26316
891.856	0.48214
894.749	0.116007
897.642	0.349977
900.534	0.654295
903.427	0.979123
906.32	0.19074
909.213	0.611007
912.105	0.185549
914.998	0.058457
917.891	1.04534
920.783	1.94622
923.676	4.25021
926.569	6.47034
929.462	8.28163
932.354	11.5491
935.247	14.1482
938.14	16.7386
941.032	16.9528
943.925	17.7132
946.818	16.9401
949.71	15.832
952.603	16.3575
955.496	18.66
958.388	20.73
961.281	22.5512
964.174	22.4005
967.067	19.6443
969.959	15.1521
972.852	7.55094
975.745	3.93717
978.637	3.53539
981.53	3.14229
984.423	2.43064
987.315	0.356168
990.208	1.31326
993.101	0.193233
995.994	0.037646
998.886	1.94508
1001.78	2.86334
1004.67	4.08438
1007.56	6.66778
1010.46	10.1975
1013.35	12.1995
1016.24	14.1381
1019.13	16.7521
1022.03	18.1551
1024.92	16.0617
1027.81	13.103
1030.71	10.9134
1033.6	8.1773
1036.49	6.61424
1039.38	6.10719
1042.28	4.53116
1045.17	5.78139
1048.06	5.00543
1050.95	5.98921
1053.85	7.13947
1056.74	6.22125
1059.63	10.6101
1062.53	10.0875
1065.42	11.0349
1068.31	9.55339
1071.2	10.3483
1074.1	9.94513
1076.99	8.89725
1079.88	7.41549
1082.77	7.17574
1085.67	5.13238
1088.56	2.92145
1091.45	2.52546
1094.35	0.128187
1097.24	0.233952
1100.13	0.15519
1103.02	0.079656
1105.92	0.192768
1108.81	0.524617
1111.7	0.009316
1114.59	0.366935
1117.49	1.86086
1120.38	2.70663
1123.27	2.46244
1126.16	0.974134
1129.06	1.31356
1131.95	4.68904
1134.84	9.64043
1137.74	16.0714
1140.63	21.4967
1143.52	27.9086
1146.41	34.5202
1149.31	40.1031
1152.2	46.0566
1155.09	53.7733
1157.98	61.5765
1160.88	68.5305
1163.77	77.4986
1166.66	88.3445
1169.56	98.7969
1172.45	108.858
1175.34	124.478
1178.23	138.763
1181.13	159.036
1184.02	174.574
1186.91	194.384
1189.8	212.003
1192.7	231.075
1195.59	246.573
1198.48	261.85
1201.38	273.876
1204.27	280.13
1207.16	282.47
1210.05	280.223
1212.95	270.935
1215.84	254.374
1218.73	234.074
1221.62	211.823
1224.52	189.106
1227.41	165.165
1230.3	141.221
1233.19	117.723
1236.09	93.6701
1238.98	74.9173
1241.87	55.2431
1244.77	40.824
1247.66	29.5987
1250.55	15.9716
1253.44	8.51198
1256.34	5.01093
1259.23	0.348955
1262.12	0.654446
1265.01	1.64207
1267.91	2.25338
1270.8	2.59403
1273.69	5.95558
