Measurement: Raman, 785 nm, unoriented, Raman Data Processed
Mineral: Pascoite
Rruff sample: R060574
Ideal chemistry: Ca_3_V^5+^_10_O_28_17H_2_O
Locality: Arrowhead Claim, Slick Rock, San Miguel County, Colorado, USA
Source: Michael Scott
Description: Orange vitreous crust
Raman shift (cm-1)	intensity
125.385	0
128.278	144.207
131.17	2357.89
134.063	5028.15
136.956	11434.2
139.848	23981.6
142.741	38035.2
145.634	42730
148.527	39951.4
151.419	37019.4
154.312	37663.7
157.205	39645.3
160.097	37535.1
162.99	28627.6
165.883	18615.1
168.775	11313.9
171.668	6514.83
174.561	3064.75
177.454	1024.81
180.346	119.377
183.239	46.459
186.132	299.701
189.024	886.753
191.917	1125.36
194.81	646.6
197.702	228.919
200.595	260.095
203.488	5.915
206.381	372.697
209.273	210.714
212.166	269.019
215.059	4.671
217.951	84.084
220.844	203.312
223.737	1745
226.63	4038.79
229.522	9570.88
232.415	13385.9
235.308	19988.5
238.2	25365
241.093	27342.6
243.986	24300.2
246.878	19568
249.771	15052.7
252.664	11245.8
255.557	8109.84
258.449	5424.96
261.342	4570.79
264.235	4090.81
267.127	4029.84
270.02	4594.59
272.913	6808.07
275.805	10101.8
278.698	13722.1
281.591	15832.8
284.483	15187.9
287.376	12983.7
290.269	10154.5
293.162	7636.99
296.054	6130.24
298.947	5296.15
301.84	4873.3
304.732	4636.57
307.625	3811.35
310.518	3166.17
313.41	2673.74
316.303	2424.79
319.196	2422.78
322.089	2460.52
324.981	2601.54
327.874	2883.39
330.767	3746.13
333.659	2297.93
336.552	1784.99
339.445	1184.63
342.337	618.949
345.23	240.349
348.123	82.578
351.016	202.522
353.908	37.582
356.801	124.513
359.694	31.715
362.586	82.023
365.479	30.904
368.372	27.641
371.264	55.414
374.157	39.034
377.05	28.713
379.943	182.807
382.835	417.918
385.728	878.506
388.621	1232.71
391.513	1756.67
394.406	2572.93
397.299	3345.82
400.191	4189.03
403.084	4904.71
405.977	5092.75
408.87	4941.27
411.762	4729.62
414.655	4776.26
417.548	5416.2
420.44	6287.59
423.333	7116
426.226	7543.11
429.118	6960.89
432.011	5017.14
434.904	3257.36
437.797	1480.67
440.689	809.811
443.582	407.663
446.475	242.731
449.367	77.646
452.26	12.973
455.153	7.704
458.046	48.191
460.938	177.14
463.831	278.005
466.724	432.234
469.616	451.292
472.509	455.877
475.402	311.202
478.294	255.175
481.187	209.549
484.08	168.092
486.973	45.907
489.865	18.601
492.758	3.944
495.651	36.097
498.543	27.709
501.436	18.258
504.329	38.501
507.221	67.711
510.114	273.185
513.007	384.849
515.899	672.889
518.792	728.699
521.685	1022.03
524.578	1202.47
527.47	1391.92
530.363	1476.78
533.256	1655.5
536.148	1908.16
539.041	2099.93
541.934	2155.71
544.826	2098.97
547.719	1859.57
550.612	1722.82
553.505	1389.81
556.397	1107.59
559.29	825.767
562.183	659.645
565.075	464.428
567.968	281.391
570.861	169.909
573.753	138.191
576.646	38.625
579.539	71.406
582.432	87.208
585.324	27.62
588.217	67.786
591.11	82.395
594.003	49.39
596.895	1.933
599.788	40.631
602.681	17.558
605.573	30.696
608.466	6.578
611.359	21.031
614.251	12.897
617.144	42.049
620.037	62.987
622.93	27.072
625.822	39.896
628.715	69.63
631.608	93.551
634.5	283.701
637.393	264.876
640.286	427.5
643.178	437.699
646.071	627.466
648.964	702.831
651.857	848.653
654.749	1065.6
657.642	1296.69
660.535	1642.71
663.427	1998.75
666.32	2399.36
669.213	2862.43
672.105	3549.11
674.998	4354.46
677.891	5166.77
680.784	6031.67
683.676	6992.43
686.569	7677.68
689.462	8407.58
692.354	8872.65
695.247	9135.29
698.14	9117.96
701.032	8723.42
703.925	8084.64
706.818	7478.4
709.711	6809.87
712.603	6015.97
715.496	5270.28
718.389	4672.74
721.281	3884.83
724.174	3230.61
727.067	2562.22
729.959	2009.67
732.852	1506.18
735.745	1140.09
738.638	784.864
741.53	548.977
744.423	387.029
747.316	224.728
750.208	85.818
753.101	12.893
755.994	79.055
758.886	33.551
761.779	30.997
764.672	10.882
767.565	23.938
770.457	22.353
773.35	3.468
776.243	25.592
779.135	19.601
782.028	13.241
784.921	2.781
787.813	7.049
790.706	45.251
793.599	26.879
796.492	21.487
799.384	26.944
802.277	54.461
805.17	61.964
808.062	90.923
810.955	96.251
813.848	124.786
816.74	35.322
819.633	67.81
822.526	35.229
825.419	52.378
828.311	46.301
831.204	66.78
834.097	41.186
836.989	128.212
839.882	150.294
842.775	179.031
845.667	339.724
848.56	449.495
851.453	659.193
854.346	790.591
857.238	1117.13
860.131	1386
863.024	1823.2
865.916	2492.78
868.809	3418.95
871.702	4606.4
874.594	6055.82
877.487	6668.4
880.38	6057.36
883.273	4467.21
886.165	2795.51
889.058	1723.24
891.951	1139.65
894.843	720.034
897.736	335.674
900.629	190.454
903.521	90.948
906.414	28.148
909.307	7.643
912.2	19.485
915.092	13.426
917.985	30.077
920.878	17.297
923.77	9.162
926.663	219.014
929.556	463.098
932.448	747.749
935.341	1103.19
938.234	1708.66
941.127	2660.72
944.019	4574.79
946.912	7611.48
949.805	11765.4
952.697	14410.9
955.59	11929.7
958.483	7421.74
961.375	4717.84
964.268	3408.92
967.161	2944.05
970.054	2736
972.946	2490.91
975.839	2597.62
978.732	2804.15
981.624	3569.93
984.517	4896.43
987.41	7136.31
990.302	9686.43
993.195	10617.7
996.088	7372.54
998.981	4057.95
1001.87	2311.36
1004.77	1448.74
1007.66	984.466
1010.55	760.902
1013.44	539.269
1016.34	340.735
1019.23	190.633
1022.12	113.233
1025.02	89.652
1027.91	24.341
1030.8	23.806
1033.69	5.676
1036.59	2.413
1039.48	16.743
1042.37	11.189
1045.26	2.642
1048.16	1.474
1051.05	0.11
1053.94	0.49
1056.84	1.888
1059.73	38.675
1062.62	33.422
1065.51	34.868
1068.4	63.205
1071.3	45.59
1074.19	112.66
1077.08	114.739
1079.98	143.055
1082.87	161.874
1085.76	125.002
1088.65	148.223
1091.55	166.084
1094.44	187.253
1097.33	186.603
1100.22	158.345
1103.12	125.916
1106.01	71.904
1108.9	73.652
1111.8	95.507
1114.69	32.297
1117.58	73.148
1120.47	44.99
1123.37	19.886
1126.26	62.013
1129.15	29.289
1132.05	32.502
1134.94	43.697
1137.83	41.966
1140.72	31.954
1143.62	4.781
1146.51	13.853
1149.4	25.271
1152.29	28.807
1155.19	1.497
1158.08	0.684
1160.97	4.515
1163.87	3.782
1166.76	11.752
1169.65	25.626
1172.54	2.746
1175.43	0.503
1178.33	6.756
1181.22	4.32
1184.11	8.621
1187.01	26.051
1189.9	34.157
1192.79	27.198
1195.68	10.063
1198.58	34.791
1201.47	18.545
1204.36	56.122
1207.26	38.506
1210.15	4.967
1213.04	3.885
1215.93	14.434
1218.83	56.237
1221.72	42.788
1224.61	37.209
1227.5	62.141
1230.4	22.968
1233.29	52.11
1236.18	14.947
1239.08	1.196
1241.97	0.596
1244.86	31.466
1247.75	56.586
1250.65	78.138
1253.54	51.053
1256.43	11.767
