Measurement: Raman, 532 nm, unoriented, Raman Data Processed
Mineral: Pascoite
Rruff sample: R060574
Ideal chemistry: Ca_3_V^5+^_10_O_28_17H_2_O
Locality: Arrowhead Claim, Slick Rock, San Miguel County, Colorado, USA
Source: Michael Scott
Description: Orange vitreous crust
Raman shift (cm-1)	intensity
93.6401	0
97.0149	45.6599
100.39	29.3629
103.765	8.33105
107.139	92.6097
110.514	270.899
113.889	442.497
117.264	617.485
120.639	764.043
124.013	1026.35
127.388	1348.47
130.763	1740.47
134.138	2233.83
137.513	2857.19
140.888	3514.93
144.262	3547.9
147.637	2813.95
151.012	2040.17
154.387	1641.08
157.762	1508.88
161.137	1347.4
164.511	953.159
167.886	541.936
171.261	292.345
174.636	158.905
178.011	93.7472
181.385	63.0773
184.76	55.0144
188.135	67.3224
191.51	81.1714
194.885	71.3865
198.26	47.6943
201.634	13.6567
205.009	10.0996
208.384	21.7841
211.759	24.3375
215.133	18.6238
218.508	1.44812
221.883	37.8957
225.258	87.439
228.633	155.238
232.008	245.976
235.382	370.449
238.757	524.571
242.132	612.445
245.507	559.231
248.882	446.191
252.256	360.362
255.631	282.258
259.006	246.313
262.381	253.75
265.756	282.89
269.131	346.024
272.505	459.509
275.88	602.873
279.255	774.724
282.63	857.62
286.005	815.898
289.38	723.096
292.754	654.337
296.129	599.67
299.504	566.695
302.879	536.229
306.254	492.896
309.628	432.219
313.003	370.137
316.378	313.887
319.753	256.664
323.128	221.181
326.502	198.342
329.877	166.276
333.252	140.406
336.627	112.481
340.002	86.3986
343.377	55.0681
346.751	31.999
350.126	9.09827
353.501	2.41333
356.876	11.2034
360.251	6.86206
363.625	12.3749
367	5.89087
370.375	1.07056
373.75	10.5079
377.125	27.754
380.5	48.7199
383.874	74.6598
387.249	102.136
390.624	137.237
393.999	180.335
397.374	230.509
400.748	281.305
404.123	330.159
407.498	324.822
410.873	279.707
414.248	229.326
417.623	195.672
420.997	186.563
424.372	181.362
427.747	185.172
431.122	140.775
434.497	78.5731
437.872	28.2812
441.246	4.2467
444.621	9.83057
447.996	0.852051
451.371	3.86243
454.745	5.68103
458.12	29.8072
461.495	38.5845
464.87	52.9401
468.245	70.2086
471.62	78.012
474.994	84.6627
478.369	86.5281
481.744	90.6558
485.119	102.45
488.494	103.365
491.868	107.374
495.243	109.421
498.618	118.84
501.993	134.501
505.368	153.347
508.743	165.169
512.117	194.803
515.492	210.891
518.867	225.369
522.242	237.573
525.617	235.319
528.991	225.395
532.366	219.521
535.741	206.214
539.116	191.907
542.491	173.058
545.866	152.684
549.24	140.191
552.615	109.938
555.99	86.4336
559.365	65.484
562.74	53.3375
566.115	33.3425
569.489	16.2234
572.864	19.605
576.239	5.86426
579.614	8.47729
582.989	5.98462
586.363	8.7843
589.738	0.597534
593.113	2.83374
596.488	4.46594
599.863	4.94116
603.237	8.91028
606.612	5.91736
609.987	1.33899
613.362	1.75208
616.737	0.879272
620.112	4.50623
623.486	8.36853
626.861	7.47192
630.236	14.7911
633.611	21.8123
636.986	19.2969
640.361	33.4464
643.735	37.4775
647.11	50.545
650.485	61.6615
653.86	75.4579
657.235	81.3961
660.609	93.0996
663.984	118.067
667.359	136.025
670.734	170.672
674.109	206.341
677.484	244.824
680.858	290.87
684.233	339.524
687.608	373.419
690.983	400.562
694.357	405.958
697.732	405.003
701.107	381.894
704.482	353.953
707.857	314.174
711.232	280.247
714.606	235.622
717.981	195.07
721.356	155.64
724.731	130.481
728.106	106.216
731.481	70.0308
734.855	68.1251
738.23	52.1244
741.605	41.2398
744.98	41.419
748.355	38.906
751.729	61.0031
755.104	34.6694
758.479	28.2295
761.854	26.7231
765.229	19.8494
768.604	13.597
771.978	14.0266
775.353	1.3551
778.728	7.94104
782.103	5.5061
785.478	3.90149
788.852	5.49426
792.227	6.63513
795.602	5.5376
798.977	0.797974
802.352	2.38806
805.726	8.4613
809.101	8.67883
812.476	1.6366
815.851	9.01648
819.226	13.4161
822.601	23.4966
825.975	19.4418
829.35	19.6968
832.725	22.2142
836.1	30.069
839.475	38.9003
842.85	50.6879
846.224	63.4609
849.599	58.5065
852.974	67.6042
856.349	77.1446
859.724	108.576
863.098	131.968
866.473	173.276
869.848	239.244
873.223	315.663
876.598	386.992
879.972	402.147
883.347	308.718
886.722	193.679
890.097	124.711
893.472	77.9635
896.847	52.5801
900.221	29.3735
903.596	12.1502
906.971	3.81946
910.346	7.78027
913.721	8.32922
917.096	9.90808
920.47	2.1626
923.845	17.6914
927.22	25.2247
930.595	50.6755
933.97	73.1909
937.344	113.692
940.719	178
944.094	295.435
947.469	476.116
950.844	724.305
954.218	873.586
957.593	694.498
960.968	463.465
964.343	365.288
967.718	339.042
971.092	334.76
974.467	354.997
977.842	376.521
981.217	426.652
984.592	540.94
987.967	698.736
991.341	895.062
994.716	922.569
998.091	634.62
1001.47	366.769
1004.84	226.127
1008.22	162.372
1011.59	128.252
1014.97	96.153
1018.34	66.5895
1021.72	53.0518
1025.09	31.8616
1028.46	27.2415
1031.84	23.7395
1035.21	13.0105
1038.59	3.02551
1041.96	6.42273
1045.34	5.19263
1048.71	1.59204
1052.09	0.679077
1055.46	12.3417
1058.84	5.2771
1062.21	1.66431
1065.59	3.18384
1068.96	1.77246
1072.34	1.31165
1075.71	3.65723
1079.09	1.50366
1082.46	5.39551
1085.84	6.28625
1089.21	1.23413
1092.59	9.34204
1095.96	5.35413
1099.34	8.3092
1102.71	8.75562
1106.09	12.4703
1109.46	11.7308
1112.84	14.663
1116.21	13.3101
1119.58	12.1655
1122.96	11.1473
1126.33	8.61755
1129.71	4.86902
1133.08	9.31751
1136.46	1.39539
1139.83	7.87671
1143.21	9.34351
1146.58	6.021
1149.96	8.64551
1153.33	6.88672
1156.71	7.40332
1160.08	6.20618
1163.46	5.59741
1166.83	10.9858
1170.21	7.32971
1173.58	8.63306
1176.96	6.22278
1180.33	11.2607
1183.71	10.5885
1187.08	9.38293
1190.46	7.84338
1193.83	9.39624
1197.2	9.59937
1200.58	7.20898
1203.95	4.51623
1207.33	7.07849
1210.7	6.2511
1214.08	22.8099
1217.45	6.37415
1220.83	8.11511
1224.2	3.44873
1227.58	2.29211
1230.95	4.49097
1234.33	7.75525
1237.7	8.40771
1241.08	3.32422
1244.45	2.70532
1247.83	7.30493
1251.2	12.2151
1254.58	6.24719
1257.95	5.80115
1261.33	2.39014
1264.7	2.36292
1268.08	8.96265
1271.45	2.11792
1274.83	6.66894
1278.2	5.11267
1281.58	8.61389
1284.95	2.46545
1288.33	3.95215
1291.7	2.42407
1295.08	5.63586
1298.45	0.46228
1301.83	0
