Measurement: Raman, 532 nm, unoriented, Raman Data Processed
Mineral: Patronite
Rruff sample: R070737
Ideal chemistry: VS_4_
Locality: Ragra Mine (Minasragra), Junín, Cerro de Pasco, Alcides Carrión Province, Pasco Department, Peru
Source: Michael Scott
Description: Lead-gray to gray-black metallic massive
Raman shift (cm-1)	intensity
176.535	0
179.428	28.7793
182.32	190.724
185.213	406.215
188.106	648.98
190.998	1034.39
193.891	1579.54
196.784	1576.75
199.677	1055.44
202.569	528.82
205.462	368.669
208.355	276.497
211.247	238.864
214.14	266.014
217.033	269.806
219.925	359.82
222.818	213.644
225.711	124.861
228.603	45.8462
231.496	40.0391
234.389	76.2993
237.282	37.6875
240.174	69.3096
243.067	82.749
245.96	336.388
248.852	214.82
251.745	234.828
254.638	353.278
257.531	599.024
260.423	774.003
263.316	959.747
266.209	1720.16
269.101	2059.97
271.994	2897.45
274.887	3915.55
277.779	5567.67
280.672	7686.77
283.565	8849.88
286.457	7275.3
289.35	5188.63
292.243	4081.59
295.136	4033.18
298.028	4233.02
300.921	4435.5
303.814	4391.61
306.706	3451.2
309.599	2519.51
312.492	1870.99
315.385	1368.32
318.277	1084.24
321.17	838.523
324.063	618.643
326.955	615.396
329.848	562.102
332.741	544.604
335.633	504.102
338.526	585.25
341.419	645.035
344.312	700.341
347.204	691.262
350.097	582.199
352.99	395.668
355.882	262.555
358.775	125.534
361.668	19.6201
364.56	1.03174
367.453	148.085
370.346	68.2559
373.238	79.5889
376.131	47.1177
379.024	158.741
381.917	255.339
384.809	472.035
387.702	578.029
390.595	893.634
393.487	1320.43
396.38	1895.79
399.273	2652.76
402.166	3402.47
405.058	3838.4
407.951	3423.05
410.844	2418.49
413.736	1433.09
416.629	702.828
419.522	443.376
422.414	447.359
425.307	113.263
428.2	80.5644
431.092	24.4702
433.985	38.0444
436.878	36.5552
439.771	84.3413
442.663	19.3906
445.556	12.0825
448.449	171.832
451.341	241.964
454.234	331.295
457.127	535.297
460.019	742.577
462.912	1167.62
465.805	1135.97
468.697	1465.72
471.59	1666.73
474.483	1807.68
477.376	1858.3
480.268	1940.6
483.161	1923.6
486.054	1863.17
488.946	1600.28
491.839	1502.25
494.732	1401.99
497.625	1358.02
500.517	1419.55
503.41	1598.85
506.303	1775.49
509.195	2001.42
512.088	2366.81
514.981	2644.75
517.873	2947.34
520.766	3190.91
523.659	3433.85
526.552	3361.57
529.444	3238.52
532.337	2866.63
535.23	2375.74
538.122	1998.29
541.015	1582.37
543.908	1302.76
546.8	1122.69
549.693	881.657
552.586	947.665
555.479	936.847
558.371	674.907
561.264	338.353
564.157	332.555
567.049	202.92
569.942	48.331
572.835	44.7783
575.727	24.355
578.62	0.202148
581.513	8.9751
584.405	1.17578
587.298	32.581
590.191	21.6885
593.084	23.71
595.976	120.736
598.869	52.1001
601.762	3.45557
604.654	32.8003
607.547	43.606
610.44	19.7168
613.332	18.8794
616.225	42.9131
619.118	42.6753
622.011	26.1094
624.903	83.0796
627.796	53.9145
630.689	81.4746
633.581	217.247
636.474	268.432
639.367	298.289
642.26	289.497
645.152	389.755
648.045	376.463
650.938	474.025
653.83	533.566
656.723	560.849
659.616	622.22
662.508	668.415
665.401	639.113
668.294	784.184
671.187	830.345
674.079	892.269
676.972	1116.62
679.865	1281.6
682.757	1587.29
685.65	1854.42
688.543	2140.76
691.435	2500.37
694.328	2575.18
697.221	2675.82
700.114	2667.04
703.006	2490.27
705.899	2153.5
708.792	1722.91
711.684	1465.65
714.577	1198.11
717.47	896.634
720.362	726.037
723.255	568.229
726.148	389.652
729.04	338.387
731.933	227.671
734.826	223.393
737.719	77.5859
740.611	110.736
743.504	66.5942
746.397	95.5747
749.289	68.5078
752.182	34.1538
755.075	12.6016
757.967	65.5444
760.86	2.89258
763.753	28.9712
766.646	40.1519
769.538	7.21729
772.431	36.7568
775.324	7.50195
778.216	47.645
781.109	54.0391
784.002	26.2412
786.894	33.7329
789.787	75.1352
792.68	138.691
795.573	59.168
798.465	186.893
801.358	110.33
804.251	51.7158
807.143	96.125
810.036	99.8472
812.929	72.5698
815.822	33.2412
818.714	22.5059
821.607	46.8355
824.5	60.2134
827.392	0.782715
830.285	28.5015
833.178	59.5332
836.07	162.38
838.963	245.287
841.856	264.307
844.748	327.002
847.641	237.733
850.534	150.162
853.427	70.71
856.319	67.4438
859.212	74.1206
862.105	71.8008
864.997	103.623
867.89	175.539
870.783	276.609
873.675	478.731
876.568	681.344
879.461	790.985
882.354	709.674
885.246	265.722
888.139	118.046
891.032	8.5669
893.924	3.97363
896.817	50.9678
899.71	29.8115
902.602	35.7905
905.495	1.93799
908.388	33.5815
911.28	86.2441
914.173	76.2456
917.066	72.1211
919.959	116.905
922.851	126.936
925.744	213.419
928.637	328.791
931.529	426.101
934.422	454.195
937.315	359.425
940.207	171.907
943.1	140.515
945.993	138.47
948.886	99.8291
951.778	118.654
954.671	57.0649
957.564	47.9912
960.456	4.26416
963.349	16.3047
966.242	288.776
969.135	41.102
972.027	312.072
974.92	290.894
977.813	186.286
980.705	420.219
983.598	716.237
986.491	1445.39
989.383	2514.09
992.276	4510.24
995.169	5937.42
998.062	3382.92
1000.95	1632.67
1003.85	941.997
1006.74	734.064
1009.63	593.585
1012.52	474.287
1015.42	445.773
1018.31	348.504
1021.2	317.24
1024.1	438.657
1026.99	265.122
1029.88	385.898
1032.77	425.103
1035.67	249.034
1038.56	231.566
1041.45	340.175
1044.35	198.936
1047.24	212.733
1050.13	135.807
1053.02	96.0674
1055.92	89.0273
1058.81	60.4531
1061.7	71.2842
1064.59	32.394
1067.49	19.21
1070.38	55.4273
1073.27	10.4468
1076.16	45.627
1079.06	66.979
1081.95	22.9463
1084.84	45.8003
1087.73	12.2871
1090.63	47.8994
1093.52	5.10693
1096.41	3.01807
1099.31	33.1821
1102.2	83.0342
1105.09	18.5635
1107.98	77.9482
1110.88	33.1397
1113.77	250.148
1116.66	344.499
1119.56	65.9414
1122.45	66.2222
1125.34	9.81543
1128.23	69.5264
1131.13	83.9756
1134.02	67.0288
1136.91	101.19
1139.8	154.283
1142.7	4.56738
1145.59	39.6997
1148.48	67.6646
1151.38	61.3359
1154.27	2.79785
1157.16	78.0801
1160.05	84.1128
1162.94	42.4536
1165.84	60.5806
1168.73	85.2759
1171.62	48.8149
1174.52	67.481
1177.41	28.7612
1180.3	32.4404
1183.19	6.86133
1186.09	10.1055
1188.98	83.5312
1191.87	113.045
1194.77	32.0576
1197.66	40.5425
1200.55	94.875
1203.44	5.53223
1206.34	89.7866
1209.23	113.816
1212.12	49.978
1215.01	93.6235
1217.91	29.8301
1220.8	89.8662
1223.69	36.7398
1226.59	59.0093
1229.48	15.8945
1232.37	15.4253
1235.26	27.0469
1238.16	91.2461
1241.05	88.9492
1243.94	15.0649
1246.83	27.1587
1249.73	58.751
1252.62	108.512
1255.51	94.5527
1258.4	64.2842
1261.3	47.0269
1264.19	16.5205
1267.08	38.7983
1269.97	20.9282
1272.87	27.644
1275.76	91.7978
1278.65	65.2559
1281.55	51.4419
1284.44	56.5923
1287.33	17.0381
1290.22	39.6509
1293.12	74.1016
1296.01	45.5185
1298.9	119.379
1301.8	0
