Measurement: Raman, 780 nm, unoriented, Raman Data Processed
Mineral: Paulingite-K
Rruff sample: R070604
Ideal chemistry: (K,Ca,Na,Ba,[box])_10_(Si,Al)_42_O_84_34H_2_O
Locality: Squaw Creek, Riggins, Idaho County, Idaho, USA
Source: James Shigley
Description: Vitreous colorless to pale-yellow cubes and dodecahedra
Raman shift (cm-1)	intensity
146.891	0
149.784	1.59375
152.676	19.7354
155.569	56.9844
158.462	1.37988
161.354	133.872
164.247	66.333
167.14	37.6963
170.032	137.819
172.925	100.903
175.818	157.138
178.711	199.072
181.603	80.4268
184.496	91.6543
187.389	165.884
190.281	125.899
193.174	17.2334
196.067	46.4033
198.959	5.63574
201.852	31.9541
204.745	16.7236
207.638	50.4902
210.53	47.4902
213.423	51.2529
216.316	16.1641
219.208	157.341
222.101	153.769
224.994	94.8486
227.887	101.106
230.779	126.439
233.672	179.12
236.565	120.817
239.457	169.714
242.35	174.857
245.243	152.101
248.135	164.631
251.028	169.206
253.921	211.37
256.813	239.172
259.706	222.33
262.599	133.778
265.492	157.346
268.384	160.922
271.277	119.739
274.17	258.449
277.062	108.506
279.955	209.579
282.848	120.798
285.74	79.625
288.633	192.539
291.526	162.767
294.419	129.237
297.311	182.609
300.204	149.24
303.097	115.429
305.989	150.356
308.882	154.941
311.775	103.528
314.668	140.26
317.56	209.946
320.453	194.793
323.346	190.519
326.238	127.688
329.131	114.859
332.024	275.283
334.916	202.597
337.809	161.526
340.702	77.3291
343.594	17.4072
346.487	6.27441
349.38	145.918
352.273	4.17676
355.165	39.9492
358.058	94.7881
360.951	54.5244
363.843	104.053
366.736	90.4981
369.629	25.8613
372.522	5.58887
375.414	2.27734
378.307	57.0205
381.2	43.5684
384.092	24.3125
386.985	19.6445
389.878	11.8662
392.77	28.3516
395.663	30.8818
398.556	36.9522
401.449	87.7305
404.341	182.465
407.234	281.012
410.127	357.538
413.019	488.312
415.912	674.869
418.805	837.995
421.697	901.923
424.59	847.609
427.483	762.791
430.375	607.703
433.268	519.999
436.161	416.422
439.054	299.078
441.946	322.164
444.839	411.215
447.732	461.457
450.624	553.732
453.517	845.628
456.41	1179.05
459.303	1334.71
462.195	1557.77
465.088	1731.6
467.981	1884.17
470.873	2108.36
473.766	2320.24
476.659	2519.78
479.551	2658.11
482.444	2894.09
485.337	3111.24
488.23	3361.45
491.122	3521.32
494.015	3391.69
496.908	3109.95
499.8	2641.44
502.693	2017.4
505.586	1413.22
508.478	980.325
511.371	692.027
514.264	504.267
517.157	309.491
520.049	162.052
522.942	75.917
525.835	106.293
528.727	128.903
531.62	22.3848
534.513	119.59
537.405	61.1514
540.298	35.0332
543.191	69.5957
546.084	27.248
548.976	2.95019
551.869	12.0615
554.762	53.5147
557.654	19.4941
560.547	85.0664
563.44	17.5234
566.332	19.0771
569.225	98.6807
572.118	60.3809
575.011	0.800781
577.903	43.8809
580.796	16.6885
583.689	19.7998
586.581	74.0518
589.474	139.953
592.367	101.551
595.26	73.9551
598.152	145.236
601.045	134.832
603.938	129.53
606.83	96.6094
609.723	209.452
612.616	34.0586
615.508	66.2002
618.401	62.9404
621.294	110.237
624.187	150.706
627.079	133.602
629.972	68.793
632.865	136.186
635.757	118.346
638.65	129.045
641.543	85.2637
644.435	39.6699
647.328	175.536
650.221	195.531
653.114	113.439
656.006	57.2119
658.899	154.345
661.792	147.31
664.684	107.399
667.577	118.287
670.47	103.767
673.362	63.6777
676.255	3.87891
679.148	78.0488
682.04	1.59375
684.933	45.1553
687.826	85.5
690.719	44.2988
693.611	7.07422
696.504	0.570313
699.397	81.7656
702.289	80.3203
705.182	45.0547
708.075	148.159
710.967	44.6914
713.86	127.488
716.753	110.818
719.646	96.6455
722.538	80.7129
725.431	14.0225
728.324	92.6504
731.216	79.5859
734.109	96.4043
737.002	91.6865
739.894	87.8926
742.787	37.332
745.68	95.7588
748.573	29.8896
751.465	79.7871
754.358	106.165
757.251	45.9551
760.143	114.553
763.036	134.582
765.929	134.857
768.822	146.91
771.714	149.244
774.607	91.1943
777.5	73.8486
780.392	95.0156
783.285	126.883
786.178	33.7139
789.07	98.9316
791.963	147.559
794.856	163.214
797.749	64.8418
800.641	55.917
803.534	1.10742
806.427	89.1025
809.319	55.209
812.212	21.9346
815.105	33.7315
817.997	16.5557
820.89	73.0742
823.783	68.6943
826.676	55.8721
829.568	71.9014
832.461	87.249
835.354	24.543
838.246	41.8018
841.139	59.4707
844.032	27.8467
846.924	24.79
849.817	104.394
852.71	159.956
855.602	77.7959
858.495	127.247
861.388	66.4727
864.281	92.3555
867.173	96.3223
870.066	66.2353
872.959	68.5439
875.851	83.3232
878.744	91.6885
881.637	83.9453
884.529	46.4277
887.422	61.6641
890.315	86.4727
893.208	86.6836
896.1	71.2393
898.993	62.2832
901.886	35.2461
904.778	51.1719
907.671	107.081
910.564	227.238
913.457	137.509
916.349	155.439
919.242	63.6025
922.135	84.5566
925.027	128.121
927.92	49.1357
930.813	133.948
933.705	134.23
936.598	100.454
939.491	25.749
942.384	39.4326
945.276	54.5908
948.169	142.47
951.062	89.1728
953.954	68.8272
956.847	121.246
959.74	128.019
962.632	32.3662
965.525	88.1982
968.418	77.8359
971.311	125.202
974.203	43.5508
977.096	76.5273
979.989	16.9941
982.881	102.692
985.774	92.3203
988.667	55.1924
991.559	131.827
994.452	55.7217
997.345	91.2695
1000.24	107.804
1003.13	60.2285
1006.02	38.1299
1008.92	59.8789
1011.81	138.352
1014.7	43.4316
1017.59	137.808
1020.49	28.7246
1023.38	128.141
1026.27	79.3926
1029.16	35.0215
1032.06	65.8701
1034.95	59.2129
1037.84	37.2666
1040.73	27.7529
1043.63	80.4356
1046.52	32.6953
1049.41	70.6943
1052.31	73.3477
1055.2	111.329
1058.09	18.6309
1060.98	60.8125
1063.88	39.5557
1066.77	61.4248
1069.66	42.6572
1072.56	0.113281
1075.45	60.3516
1078.34	20.165
1081.23	40.2666
1084.13	17.5293
1087.02	121.601
1089.91	26.0625
1092.8	61.085
1095.7	135.715
1098.59	83.5205
1101.48	115.962
1104.38	64.3877
1107.27	118.781
1110.16	110.853
1113.05	89.0137
1115.95	110.137
1118.84	79.7139
1121.73	50.1465
1124.62	57.0557
1127.52	98.4414
1130.41	60.2578
1133.3	130.707
1136.19	82.9268
1139.09	110.303
1141.98	115.03
1144.87	103.253
1147.77	74.8037
1150.66	159.995
1153.55	197.294
1156.44	151.264
1159.34	87.7227
1162.23	124.731
1165.12	208.035
1168.01	134.53
1170.91	130.068
1173.8	174.8
1176.69	138.905
1179.59	98.5752
1182.48	121.214
1185.37	121.533
1188.26	110.107
1191.16	133.231
1194.05	2.50391
1196.94	144.814
1199.83	93.541
1202.73	9.90332
1205.62	44.6367
1208.51	109.306
1211.4	57.3447
1214.3	3.78711
1217.19	79.4189
1220.08	26.9209
1222.97	7.45508
1225.87	53.1934
1228.76	117.994
1231.65	17.0752
1234.55	47.585
1237.44	42.1103
1240.33	121.527
1243.22	36.1426
1246.12	44.4522
1249.01	33.0674
1251.9	128.834
1254.8	111.121
1257.69	126.164
1260.58	153.512
1263.47	115.976
1266.37	79.585
1269.26	60.419
1272.15	72.2256
1275.04	0.234375
1277.94	83.2188
1280.83	0.943359
1283.72	23.6865
1286.62	26.4922
