Measurement: Raman, 532 nm, unoriented, Raman Data Processed
Mineral: Paulingite-K
Rruff sample: R070604
Ideal chemistry: (K,Ca,Na,Ba,[box])_10_(Si,Al)_42_O_84_34H_2_O
Locality: Squaw Creek, Riggins, Idaho County, Idaho, USA
Source: James Shigley
Description: Vitreous colorless to pale-yellow cubes and dodecahedra
Raman shift (cm-1)	intensity
156.203	0
159.096	51.5752
161.988	176.215
164.881	52.1562
167.774	80.1133
170.666	198.315
173.559	101.096
176.452	74.4648
179.345	187.803
182.237	268.36
185.13	306.255
188.023	326.832
190.915	177.34
193.808	204.025
196.701	161.916
199.593	96.0361
202.486	161.905
205.379	69.5234
208.272	33.2363
211.164	49.5713
214.057	9.19336
216.95	18.6338
219.842	61.1846
222.735	104.037
225.628	102.829
228.52	127.387
231.413	275.681
234.306	224.981
237.198	243.744
240.091	244.534
242.984	314.803
245.876	299.047
248.769	337.114
251.662	390.63
254.555	399.182
257.447	337.571
260.34	328.581
263.233	403.575
266.125	325.483
269.018	317.885
271.911	368.704
274.803	347.778
277.696	337.471
280.589	211.106
283.482	247.678
286.374	174.367
289.267	159.808
292.16	224.457
295.052	257.363
297.945	67.3545
300.838	93.2871
303.731	78.7441
306.623	80.9023
309.516	140.724
312.409	157.096
315.301	189.725
318.194	162.426
321.087	116.858
323.979	169.847
326.872	184.184
329.765	48.1494
332.658	63.0732
335.55	159.06
338.443	136.266
341.336	173.445
344.228	76.2158
347.121	63.9277
350.014	78.6191
352.906	45.002
355.799	68.5664
358.692	2.35742
361.584	1.36621
364.477	5.07031
367.37	64.0332
370.262	3.11719
373.155	85.2197
376.048	45.4062
378.941	16.624
381.833	21.418
384.726	23.0986
387.619	48.8057
390.511	30.9219
393.404	5.47949
396.297	75.75
399.19	94.7744
402.082	189.515
404.975	293.772
407.868	455.646
410.76	566.159
413.653	669.688
416.546	846.932
419.438	926.115
422.331	963.217
425.224	923.144
428.116	887.824
431.009	586.733
433.902	557.882
436.795	403.562
439.687	429.238
442.58	401.017
445.473	620.672
448.365	581.599
451.258	790.263
454.151	994.724
457.043	1209.6
459.936	1486.61
462.829	1786.11
465.722	2006.99
468.614	2282.37
471.507	2487.03
474.4	2624.31
477.292	2935.64
480.185	3055.33
483.078	3354.18
485.971	3679.28
488.863	3844.56
491.756	3781.32
494.649	3625.24
497.541	3209.67
500.434	2733.52
503.327	2029.29
506.219	1422.63
509.112	912.812
512.005	638.128
514.898	460.6
517.79	277.412
520.683	185.261
523.576	67.1064
526.468	21.5996
529.361	84.6611
532.254	48.374
535.146	3.02051
538.039	19.083
540.932	45.5332
543.824	39.9297
546.717	28.3604
549.61	52.2871
552.503	19.5283
555.395	58.7832
558.288	42.208
561.181	88.0693
564.073	61.71
566.966	84.0068
569.859	46.4619
572.751	107.714
575.644	13.2588
578.537	0.207031
581.429	60.4443
584.322	48.8828
587.215	111.624
590.108	27.0625
593	46.8789
595.893	92.2617
598.786	186.073
601.678	116.194
604.571	101.106
607.464	148.567
610.356	53.3838
613.249	62.2773
616.142	119.458
619.035	74.8369
621.927	155.404
624.82	82.6523
627.713	125.074
630.605	18.4297
633.498	54.6826
636.391	78.8682
639.284	106.385
642.176	174.405
645.069	146.35
647.962	151.496
650.854	16.6855
653.747	68.9629
656.64	2.56738
659.532	78.4531
662.425	32.0742
665.318	39.8652
668.21	90.582
671.103	73.7188
673.996	112.888
676.889	27.8594
679.781	12.5137
682.674	58.0049
685.567	67.7949
688.459	96.0723
691.352	84.3545
694.245	24.5381
697.138	55.4951
700.03	47.8565
702.923	76.4893
705.816	40.4424
708.708	134.218
711.601	44.5322
714.494	91.3594
717.386	65.2773
720.279	42.2607
723.172	32.6631
726.064	125.342
728.957	147.009
731.85	89.9824
734.743	52.792
737.635	48.0215
740.528	271.596
743.421	189.66
746.313	170.088
749.206	82.4131
752.099	146.606
754.991	112.847
757.884	121.91
760.777	150.35
763.669	85.9482
766.562	220.295
769.455	158.431
772.348	134.275
775.24	231.543
778.133	133.974
781.026	105.252
783.918	205.811
786.811	160.667
789.704	122.649
792.596	162.189
795.489	57.9404
798.382	92.8447
801.275	34.581
804.167	80.4434
807.06	122.805
809.953	96.2305
812.845	105.714
815.738	67.4873
818.631	25.3281
821.524	86.8545
824.416	170.779
827.309	173.702
830.202	67.2168
833.094	85.9258
835.987	66.6094
838.88	123.054
841.772	25.5918
844.665	160.053
847.558	29.1768
850.45	47.8574
853.343	52.2529
856.236	129.976
859.129	34.2353
862.021	134.227
864.914	66.8506
867.807	76.1025
870.699	16.5283
873.592	87.6289
876.485	14.9932
879.377	87.7061
882.27	31.3467
885.163	46.6182
888.056	39.0215
890.948	94.1475
893.841	126.118
896.734	54.04
899.626	93.8994
902.519	137.282
905.412	55.6553
908.304	65.4688
911.197	120.853
914.09	116.089
916.982	39.1807
919.875	107.134
922.768	128.931
925.661	50.5527
928.553	79.0244
931.446	90.4023
934.339	31.3457
937.231	85.2168
940.124	127.382
943.017	76.4453
945.909	111.397
948.802	62.46
951.695	151.223
954.588	122.061
957.48	146.054
960.373	68.4385
963.266	48.8897
966.158	121.582
969.051	66.29
971.944	90.7168
974.837	58.1709
977.729	72.043
980.622	50.6934
983.515	110.969
986.407	146.798
989.3	82.6328
992.193	186.081
995.085	103.084
997.978	53.0185
1000.87	162.598
1003.76	75.4131
1006.66	60.6787
1009.55	37.0762
1012.44	57.1855
1015.33	21.877
1018.23	83.1631
1021.12	63.7978
1024.01	60.3438
1026.9	34.3623
1029.8	169.548
1032.69	18.9346
1035.58	138.174
1038.48	119.308
1041.37	140.289
1044.26	91.2871
1047.15	90.0391
1050.05	38.4531
1052.94	12.2451
1055.83	2.34082
1058.72	136.324
1061.62	49.6211
1064.51	80.9893
1067.4	87.4824
1070.3	67.3438
1073.19	60.917
1076.08	1.56738
1078.97	32.5029
1081.87	33.9629
1084.76	11.9219
1087.65	87.8779
1090.54	136.688
1093.44	181.053
1096.33	144.365
1099.22	128.148
1102.12	120.666
1105.01	142.244
1107.9	130.621
1110.79	147.111
1113.69	143.648
1116.58	60.8164
1119.47	133.65
1122.36	119.367
1125.26	93.3711
1128.15	77.3125
1131.04	107.25
1133.93	130.119
1136.83	249.635
1139.72	142.707
1142.61	176.512
1145.51	126.633
1148.4	83.3984
1151.29	216.902
1154.18	239.023
1157.08	311.045
1159.97	213.4
1162.86	81.5898
1165.76	156.541
1168.65	114.162
1171.54	267.102
1174.43	159.385
1177.33	133.641
1180.22	53.0566
1183.11	171.779
1186	119.383
1188.9	204.545
1191.79	118.051
1194.68	145.076
1197.57	160.797
1200.47	111.984
1203.36	134.6
1206.25	16.2383
1209.14	58.0195
1212.04	87.2363
1214.93	98.1348
1217.82	77.9023
1220.72	129.844
