Measurement: Raman, 532 nm, unoriented, Raman Data Processed
Mineral: Paulingite-Na
Rruff sample: R060457
Ideal chemistry: (Na_2_,K_2_,Ca,Ba)_5_Al_10_Si_35_O_90_45H_2_O
Locality: near Ritter, Grant County, Oregon, USA
Source: Michael Scott
Description: Druse of colorless dodecahedral crystals coating vesicles in basalt
Raman shift (cm-1)	intensity
198.179	0
201.071	37.428
203.964	5.23
206.857	69.125
209.749	120.607
212.642	138.496
215.535	63.508
218.428	70.185
221.32	46.719
224.213	125.157
227.106	112.157
229.998	123.377
232.891	76.356
235.784	110.744
238.676	31.982
241.569	13.075
244.462	57.429
247.355	89.576
250.247	57.795
253.14	64.889
256.033	47.792
258.925	115.412
261.818	129.447
264.711	169.928
267.603	196.716
270.496	158.475
273.389	173.365
276.282	189.79
279.174	187.292
282.067	185.222
284.96	245.736
287.852	218.864
290.745	226.276
293.638	266.856
296.53	222.092
299.423	231.702
302.316	263.841
305.209	385.273
308.101	419.698
310.994	484.245
313.887	512.257
316.779	564.952
319.672	512.512
322.565	554.992
325.457	579.286
328.35	476.367
331.243	432.208
334.136	362.93
337.028	336.056
339.921	273.188
342.814	211.842
345.706	135.016
348.599	99.155
351.492	142.609
354.384	65.921
357.277	55.065
360.17	24.059
363.063	3.974
365.955	53.488
368.848	76.944
371.741	101.84
374.633	105.035
377.526	28.362
380.419	36.003
383.311	52.935
386.204	8.735
389.097	161.366
391.99	228.631
394.882	329.414
397.775	453.375
400.668	660.279
403.56	888.419
406.453	1079.16
409.346	1405.25
412.238	1918.87
415.131	2384.71
418.024	2992.02
420.917	3447.69
423.809	3828.61
426.702	3804.21
429.595	3454.63
432.487	2960.69
435.38	2512.82
438.273	2215.11
441.165	2260.73
444.058	2334.14
446.951	2861.07
449.844	3546.72
452.736	4509.33
455.629	5770.24
458.522	7248.07
461.414	9083.97
464.307	10428.1
467.2	12012.7
470.093	13442.1
472.985	14923.2
475.878	15817.2
478.771	16647.7
481.663	16941.4
484.556	16723.1
487.449	15420.1
490.341	13639.7
493.234	10936.7
496.127	8400.05
499.02	6157.4
501.912	4238.02
504.805	2970.04
507.698	2024.99
510.59	1403.33
513.483	844.57
516.376	625.278
519.268	439.789
522.161	274.7
525.054	185.878
527.947	76.436
530.839	134.616
533.732	91.682
536.625	84.9
539.517	56.447
542.41	10.869
545.303	11.356
548.195	0.066
551.088	29.181
553.981	48.022
556.874	115.973
559.766	116.645
562.659	84.387
565.552	26.828
568.444	17.326
571.337	39.82
574.23	45.691
577.122	88.312
580.015	126.864
582.908	145.189
585.801	181.992
588.693	196.793
591.586	306.254
594.479	264.725
597.371	295.261
600.264	344.081
603.157	418.453
606.049	458.062
608.942	487.522
611.835	505.497
614.728	528.113
617.62	507.986
620.513	492.328
623.406	468.408
626.298	428.545
629.191	451.975
632.084	367.438
634.977	367.669
637.869	321.931
640.762	287.741
643.655	294.903
646.547	250.896
649.44	226.015
652.333	221.941
655.225	242.573
658.118	158.382
661.011	185.907
663.904	143.634
666.796	104.509
669.689	102.53
672.582	83.251
675.474	62.296
678.367	32.121
681.26	3.359
684.153	69.077
687.045	38.193
689.938	33.221
692.831	53.21
695.723	118.594
698.616	75.329
701.509	58.038
704.401	50.991
707.294	83.77
710.187	25.444
713.08	85.82
715.972	89.283
718.865	86.474
721.758	98.811
724.65	120.198
727.543	105.332
730.436	89.526
733.328	71.359
736.221	163.23
739.114	141.332
742.006	117.277
744.899	136.802
747.792	205.732
750.685	248.815
753.577	277.072
756.47	345.476
759.363	380.484
762.255	473.441
765.148	509.847
768.041	628.796
770.933	731.89
773.826	764.087
776.719	671.252
779.612	651.794
782.504	596.405
785.397	505.523
788.29	388.329
791.182	347.28
794.075	312.25
796.968	320.395
799.86	271.695
802.753	156.49
805.646	187.298
808.539	86.837
811.431	88.273
814.324	69.09
817.217	104.219
820.109	43.031
823.002	73.712
825.895	54.472
828.787	51.891
831.68	56.265
834.573	14.622
837.466	31.139
840.358	5.762
843.251	21.1
846.144	34.651
849.036	12.06
851.929	37.609
854.822	58.191
857.714	28.49
860.607	24.969
863.5	20.176
866.393	51.792
869.285	99.989
872.178	113.626
875.071	3.539
877.963	101.299
880.856	44.704
883.749	66.305
886.641	128.443
889.534	43.507
892.427	116.995
895.32	151.675
898.212	143.017
901.105	96.821
903.998	168.332
906.89	61.822
909.783	89.988
912.676	59.571
915.568	66.901
918.461	19.075
921.354	4.226
924.247	98.067
927.139	135.891
930.032	69.662
932.925	111.298
935.817	92.812
938.71	80.323
941.603	120.946
944.495	115.679
947.388	69.202
950.281	27.072
953.174	110.251
956.066	20.297
958.959	26.761
961.852	51.4
964.744	82.073
967.637	102.079
970.53	56.256
973.422	28.928
976.315	46.754
979.208	34.59
982.101	13.868
984.993	22.715
987.886	25.299
990.779	2.195
993.672	16.492
996.564	4.283
999.457	6.86
1002.35	10.714
1005.24	30.478
1008.13	23.364
1011.03	67.502
1013.92	53.186
1016.81	32.229
1019.71	89.745
1022.6	41.277
1025.49	0.152
1028.38	59.068
1031.28	83.233
1034.17	60.236
1037.06	116.071
1039.95	184.604
1042.85	93.526
1045.74	19.449
1048.63	26.401
1051.53	1.483
1054.42	33.542
1057.31	47.354
1060.2	26.165
1063.1	13.916
1065.99	64.939
1068.88	57.575
1071.77	159.076
1074.67	178.98
1077.56	166.433
1080.45	263.118
1083.35	424.046
1086.24	434.067
1089.13	562.343
1092.02	726.056
1094.92	635.665
1097.81	699.725
1100.7	756.888
1103.59	811.154
1106.49	874.237
1109.38	944.998
1112.27	922.282
1115.16	868.24
1118.06	927.106
1120.95	888.919
1123.84	952.382
1126.74	884.322
1129.63	973.419
1132.52	997.118
1135.41	981.72
1138.31	946.782
1141.2	905.07
1144.09	965.262
1146.98	824.826
1149.88	852.143
1152.77	816.061
1155.66	766.094
1158.56	722.694
1161.45	717.354
1164.34	584.294
1167.23	526.947
1170.13	455.863
1173.02	393.856
1175.91	454.365
1178.8	351.137
1181.7	202.224
1184.59	209.476
1187.48	212.033
1190.38	3.563
1193.27	42.809
1196.16	16.036
1199.05	14.139
1201.95	17.362
1204.84	33.466
1207.73	3.966
1210.62	29.228
1213.52	0.961
1216.41	10.208
1219.3	41.024
1222.19	13.539
1225.09	26.674
1227.98	17.062
1230.87	96.78
1233.77	37.951
1236.66	86.392
1239.55	58.435
1242.44	69.399
1245.34	116.916
1248.23	115.419
1251.12	153.112
1254.02	110.54
1256.91	190.755
1259.8	151.393
1262.69	89.913
1265.59	9.444
1268.48	66.525
1271.37	112.702
1274.26	181.919
1277.16	203.875
1280.05	123.648
1282.94	107.305
1285.83	110.729
1288.73	46.312
1291.62	107.085
1294.51	66.055
1297.4	0
