Measurement: Raman, 532 nm, unoriented, Raman Data Processed
Mineral: Pavonite
Rruff sample: R070566
Ideal chemistry: AgBi_3_S_5_
Locality: near Charcas, San Luis Potosi, Mexico
Source: James Shigley
Description: Steel-gray metallic massive
Raman shift (cm-1)	intensity
138.939	0
141.832	44.9864
144.724	54.8845
147.617	32.9512
150.51	57.1434
153.402	57.7543
156.295	20.8834
159.188	8.00244
162.08	63.0751
164.973	27.7142
167.866	25.3051
170.758	16.5658
173.651	13.3744
176.544	41.916
179.437	20.115
182.329	66.0824
185.222	81.4454
188.115	110.81
191.007	112.307
193.9	120.902
196.793	122.39
199.685	148.811
202.578	195.025
205.471	176.428
208.364	193.526
211.256	236.001
214.149	225.229
217.042	269.949
219.934	275.4
222.827	273.408
225.72	300.456
228.613	294.712
231.505	316.26
234.398	297.166
237.291	317.878
240.183	308.445
243.076	304.073
245.969	270.921
248.862	254.66
251.754	256.692
254.647	205.025
257.54	216.048
260.432	181.202
263.325	185.172
266.218	178.574
269.11	141.754
272.003	175.713
274.896	171.133
277.788	135.725
280.681	141.638
283.574	117.044
286.467	116.844
289.359	98.1851
292.252	46.7504
295.145	49.1833
298.037	14.8732
300.93	1.84857
303.823	0.824341
306.716	20.3573
309.608	18.4321
312.501	3.94061
315.394	9.02881
318.286	42.493
321.179	10.9803
324.072	17.1182
326.964	1.9613
329.857	23.1448
332.75	4.29266
335.642	4.24005
338.535	1.33746
341.428	32.6156
344.321	5.57556
347.213	42.4945
350.106	21.0963
352.999	0.115112
355.891	26.6975
358.784	25.1869
361.677	13.5071
364.57	13.4368
367.462	12.5142
370.355	6.3045
373.248	45.152
376.14	30.9807
379.033	34.0988
381.926	1.00378
384.818	26.597
387.711	30.6158
390.604	29.7798
393.497	24.7852
396.389	39.4125
399.282	2.08142
402.175	28.4507
405.067	20.8567
407.96	42.5993
410.853	77.2191
413.745	5.86859
416.638	48.7372
419.531	1.80499
422.423	8.20618
425.316	30.1667
428.209	34.2132
431.102	5.63525
433.994	21.1581
436.887	31.8972
439.78	16.968
442.672	7.33313
445.565	25.7967
448.458	23.2111
451.351	65.8641
454.243	62.1975
457.136	29.907
460.029	85.5324
462.921	79.4058
465.814	100.913
468.707	78.7052
471.599	115.095
474.492	58.9706
477.385	59.2772
480.278	32.6824
483.17	45.9229
486.063	39.9639
488.956	22.1282
491.848	23.0125
494.741	33.8543
497.634	24.0743
500.526	36.2514
503.419	9.53259
506.312	16.6727
509.205	19.0541
512.097	51.0424
514.99	15.261
517.883	27.4551
520.775	19.6693
523.668	6.64874
526.561	0.906738
529.453	0.985779
532.346	5.23193
535.239	8.60821
538.132	17.506
541.024	10.1304
543.917	27.5698
546.81	22.6497
549.702	27.8833
552.595	35.7033
555.488	24.6053
558.38	20.3347
561.273	40.0014
564.166	28.9951
567.059	19.5294
569.951	26.0355
572.844	21.5954
575.737	17.0132
578.629	22.7369
581.522	0.610657
584.415	14.1944
587.308	52.5718
590.2	40.0752
593.093	31.9753
595.986	30.5738
598.878	15.2344
601.771	20.8958
604.664	0.354797
607.556	9.62494
610.449	24.2672
613.342	26.6514
616.235	44.284
619.127	59.5529
622.02	23.4414
624.913	2.17139
627.805	11.5588
630.698	39.233
633.591	19.8011
636.483	9.242
639.376	23.8412
642.269	44.3492
645.162	22.6545
648.054	55.613
650.947	10.0283
653.84	24.8507
656.732	55.9508
659.625	33.5811
662.518	17.6877
665.41	18.6409
668.303	10.8338
671.196	29.9077
674.089	31.977
676.981	29.1015
679.874	7.58868
682.767	15.6398
685.659	14.4941
688.552	15.431
691.445	16.9527
694.337	18.5801
697.23	40.3664
700.123	20.6052
703.016	8.0401
705.908	6.09045
708.801	28.2925
711.694	27.1343
714.586	14.9041
717.479	5.12866
720.372	17.829
723.264	17.8272
726.157	1.30316
729.05	18.2684
731.943	10.9575
734.835	14.6763
737.728	21.1904
740.621	1.0777
743.513	27.8163
746.406	25.6794
749.299	35.2933
752.192	23.5869
755.084	25.2133
757.977	10.4049
760.87	16.2589
763.762	27.5963
766.655	36.0388
769.548	26.6443
772.44	9.34314
775.333	13.4232
778.226	20.3865
781.119	4.04572
784.011	56.2864
786.904	39.4568
789.797	7.04578
792.689	24.3117
795.582	17.768
798.475	10.1002
801.367	11.4969
804.26	51.7012
807.153	24.5336
810.045	23.8678
812.938	23.913
815.831	19.7196
818.724	28.7824
821.616	25.982
824.509	1.47809
827.402	32.402
830.294	3.70715
833.187	15.0496
836.08	19.7736
838.972	32.9355
841.865	7.70825
844.758	7.08661
847.651	25.4766
850.543	34.4721
853.436	37.5036
856.329	20.5755
859.221	28.5178
862.114	41.1893
865.007	12.5558
867.899	13.2885
870.792	17.1755
873.685	38.2888
876.578	43.5542
879.47	8.29144
882.363	21.7705
885.256	16.7159
888.148	16.9202
891.041	10.1657
893.934	24.1318
896.827	18.4216
899.719	7.49146
902.612	4.229
905.505	28.2032
908.397	2.3725
911.29	37.488
914.183	1.25043
917.075	22.9105
919.968	5.41894
922.861	39.2992
925.754	13.5454
928.646	53.8347
931.539	31.6653
934.432	15.2902
937.324	24.1335
940.217	3.164
943.11	1.87592
946.002	22.1612
948.895	22.3646
951.788	35.2734
954.681	27.6461
957.573	31.8287
960.466	26.7994
963.359	14.0468
966.251	11.5504
969.144	8.43475
972.037	30.7918
974.929	1.13184
977.822	13.7328
980.715	14.7873
983.607	0.768738
986.5	3.37274
989.393	15.0107
992.286	20.8762
995.178	19.8195
998.071	20.6796
1000.96	10.4985
1003.86	13.175
1006.75	30.8867
1009.64	31.3606
1012.53	42.6101
1015.43	55.1119
1018.32	26.3614
1021.21	5.68262
1024.11	45.5308
1027	29.6002
1029.89	1.93475
1032.78	35.6768
1035.68	1.30182
1038.57	42.669
1041.46	30.9957
1044.35	6.62085
1047.25	37.9738
1050.14	5.93433
1053.03	4.09467
1055.92	15.431
1058.82	24.246
1061.71	24.1095
1064.6	18.2407
1067.5	9.08582
1070.39	24.9802
1073.28	12.8002
1076.17	22.7409
1079.07	14.2209
1081.96	6.87378
1084.85	15.4031
1087.74	36.9927
1090.64	29.7024
1093.53	24.7493
1096.42	18.6665
1099.32	17.8908
1102.21	31.0092
1105.1	26.7959
1107.99	11.4506
1110.89	4.37176
1113.78	15.1832
1116.67	21.9187
1119.57	13.0165
1122.46	15.5081
1125.35	25.2207
1128.24	32.2317
1131.13	7.49408
1134.03	12.8095
1136.92	14.6467
1139.81	17.5455
1142.71	12.4018
1145.6	5.1604
1148.49	20.0273
1151.38	11.989
1154.28	9.91089
1157.17	27.2599
1160.06	3.05231
1162.95	18.4293
1165.85	36.9598
1168.74	13.222
1171.63	10.6942
1174.53	15.0511
1177.42	31.6003
1180.31	32.0298
1183.2	17.2493
1186.1	30.164
1188.99	35.3525
1191.88	29.3503
1194.78	63.0106
1197.67	34.3522
1200.56	4.70728
1203.45	13.5945
1206.35	23.9107
1209.24	31.9143
1212.13	32.2953
1215.02	29.1352
1217.92	30.0883
1220.81	1.4292
1223.7	59.5183
1226.59	28.3598
1229.49	43.8507
1232.38	38.9815
1235.27	32.4
1238.16	36.5787
1241.06	48.2549
1243.95	42.9535
1246.84	27.9924
1249.74	30.1395
1252.63	38.9353
1255.52	31.9764
1258.41	39.6086
1261.31	26.0551
1264.2	2.33106
1267.09	25.7258
1269.98	6.67969
1272.88	25.4925
1275.77	41.665
1278.66	25.5763
1281.56	31.2052
1284.45	55.1384
1287.34	52.8455
1290.23	6.7561
1293.13	9.38672
