Measurement: Raman, 785 nm, unoriented, Raman Data Processed
Mineral: Pearceite
Rruff sample: R050611
Ideal chemistry: Cu(Ag,Cu)_6_Ag_9_As_2_S_11_
Locality: Imiter mine, Morocco
Source: Marcus Origlieri
Description: Dark red flakes. The cell parameters indicate that this is pearceite-M2a2b2c
Measured chemistry: Cu_1.00_(Ag_5.83_Cu_0.17_)_Î£=6.00_Ag_10.78_As_1.99_S_11_
Raman shift (cm-1)	intensity
129.574	0
132.466	106.185
135.359	501.189
138.252	915.267
141.144	907.651
144.037	763.258
146.93	490.521
149.822	262.684
152.715	91.41
155.608	129.801
158.501	136.23
161.393	152.605
164.286	114.297
167.179	77.89
170.071	60.014
172.964	57.592
175.857	4.75
178.749	26.783
181.642	4.09
184.535	12.569
187.428	27.345
190.32	20.96
193.213	33.21
196.106	44.029
198.998	27.201
201.891	33.836
204.784	126.36
207.676	115.026
210.569	207.166
213.462	307.538
216.355	395.187
219.247	460.178
222.14	507.811
225.033	655.817
227.925	758.188
230.818	839.536
233.711	946.61
236.604	1142.07
239.496	1292.09
242.389	1425.33
245.282	1528.65
248.174	1622.82
251.067	1621.12
253.96	1651.5
256.852	1655.99
259.745	1743.11
262.638	1756.14
265.53	1724.3
268.423	1770.23
271.316	1738.6
274.209	1620.68
277.101	1563.29
279.994	1353.5
282.887	1173.92
285.779	895.722
288.672	735.676
291.565	501.161
294.457	353.391
297.35	217.385
300.243	78.178
303.136	25.525
306.028	56.403
308.921	24.801
311.814	132.051
314.706	506.362
317.599	1171.92
320.492	2055.45
323.384	3157.43
326.277	3990.34
329.17	4098.7
332.063	3186.11
334.955	2039.33
337.848	1231.28
340.741	674.379
343.633	278.822
346.526	94.42
349.419	51.87
352.311	145.878
355.204	316.77
358.097	485.085
360.99	847.535
363.882	1501.53
366.775	2844.62
369.668	5074.95
372.56	8641.44
375.453	12297.9
378.346	13814.2
381.238	9679.78
384.131	4444.24
387.024	1971.75
389.917	972.16
392.809	484.523
395.702	277.991
398.595	137.069
401.487	15.288
404.38	34.166
407.273	35.175
410.165	30.18
413.058	23.563
415.951	17.344
418.844	13.051
421.736	9.837
424.629	21.5
427.522	41.877
430.414	51.152
433.307	76.829
436.2	92.856
439.092	100.74
441.985	136.704
444.878	144.387
447.771	154.194
450.663	174.903
453.556	195.505
456.449	211.767
459.341	230.713
462.234	220.034
465.127	225.273
468.02	199.494
470.912	185.685
473.805	184.408
476.698	163.343
479.59	155.761
482.483	149.744
485.376	152.559
488.268	127.5
491.161	122.531
494.054	118.48
496.947	99.905
499.839	106.561
502.732	82.233
505.625	85.738
508.517	77.472
511.41	77.196
514.303	70.277
517.195	62.094
520.088	57.298
522.981	53.436
525.873	45.508
528.766	64.627
531.659	40.771
534.552	27.551
537.444	45.924
540.337	49.533
543.23	47.933
546.122	25.781
549.015	30.196
551.908	31.242
554.8	36.083
557.693	17.753
560.586	28.497
563.479	24.547
566.371	14.974
569.264	18.53
572.157	45.035
575.049	12.19
577.942	6.217
580.835	11.977
583.727	13.603
586.62	24.622
589.513	16.163
592.406	3.357
595.298	6.324
598.191	11.815
601.084	5.985
603.976	22.373
606.869	12.64
609.762	10.268
612.654	6.309
615.547	1.964
618.44	35.739
621.333	2.655
624.225	17.253
627.118	14.191
630.011	17.302
632.903	4.312
635.796	21.028
638.689	15.388
641.581	11.077
644.474	34.453
647.367	8.82
650.26	5.253
653.152	20.621
656.045	9.873
658.938	15.436
661.83	33.611
664.723	43.524
667.616	29.691
670.508	19.988
673.401	17.303
676.294	33.319
679.187	42.8
682.079	29.376
684.972	28.483
687.865	24.645
690.757	31.552
693.65	30.733
696.543	30.921
699.435	29.699
702.328	19.982
705.221	39.861
708.114	34.79
711.006	42.012
713.899	22.763
716.792	12.021
719.684	27.697
722.577	20.564
725.47	1.822
728.362	1.19
731.255	31.013
734.148	29.165
737.041	14.013
739.933	23.336
742.826	11.554
745.719	7.521
748.611	9.376
751.504	34.004
754.397	8.787
757.289	20.867
760.182	20.067
763.075	3.474
765.968	23.445
768.86	43.3
771.753	18.621
774.646	24.097
777.538	9.402
780.431	4.809
783.324	11.006
786.216	37.192
789.109	29.561
792.002	22.272
794.895	14.269
797.787	6.965
800.68	2.02
803.573	3.396
806.465	30.861
809.358	23.795
812.251	8.88
815.143	21.917
818.036	6.134
820.929	8.543
823.822	0.237
826.714	22.182
829.607	8.233
832.5	12.171
835.392	20.715
838.285	41.962
841.178	20.463
844.07	26.269
846.963	38.861
849.856	30.64
852.748	35.187
855.641	25.977
858.534	7.99
861.427	13.176
864.319	27.301
867.212	17.979
870.105	37.796
872.997	17.087
875.89	26.71
878.783	20.913
881.675	32.71
884.568	25.995
887.461	9.774
890.354	28.182
893.246	30.32
896.139	29.1
899.032	10.922
901.924	14.339
904.817	3.67
907.71	4.982
910.602	20.032
913.495	14.675
916.388	51.793
919.281	31.77
922.173	25.509
925.066	27.561
927.959	21.429
930.851	33.59
933.744	7.959
936.637	22.14
939.529	16.688
942.422	30.813
945.315	22.464
948.208	22.371
951.1	19.668
953.993	9.123
956.886	6.301
959.778	11.534
962.671	0.961
965.564	5.02
968.456	1.955
971.349	20.617
974.242	46.015
977.135	38.319
980.027	28.24
982.92	13.733
985.813	8.173
988.705	18.173
991.598	3.674
994.491	28.359
997.383	14.549
1000.28	27.498
1003.17	15.614
1006.06	10.439
1008.95	20.889
1011.85	25.733
1014.74	15.585
1017.63	21.567
1020.52	13.867
1023.42	19.122
1026.31	24.77
1029.2	23.65
1032.1	7.619
1034.99	7.25
1037.88	46.486
1040.77	21.597
1043.67	2.486
1046.56	4.855
1049.45	14.948
1052.35	11.812
1055.24	17.277
1058.13	25.077
1061.02	6.45
1063.92	27.679
1066.81	18.898
1069.7	33.857
1072.59	28.285
1075.49	33.478
1078.38	5.781
1081.27	1.19
1084.16	28.559
1087.06	3.13
1089.95	37.377
1092.84	21.297
1095.73	3.409
1098.63	29.093
1101.52	1.439
1104.41	26.101
1107.31	22.738
1110.2	20.754
1113.09	17.676
1115.98	17.854
1118.88	13.697
1121.77	17.451
1124.66	5.196
1127.56	29.842
1130.45	45.967
1133.34	21.038
1136.23	37
1139.13	20.924
1142.02	48.556
1144.91	1.277
1147.8	8.255
1150.7	24.28
1153.59	10.809
1156.48	34.681
1159.38	26.6
1162.27	2.395
1165.16	37.659
1168.05	33.218
1170.95	9.162
1173.84	5.566
1176.73	2.511
1179.62	18.54
1182.52	24.91
1185.41	15.356
1188.3	23.841
1191.19	29.982
1194.09	30.303
1196.98	15.855
1199.87	0.947
1202.77	19.556
1205.66	17.92
1208.55	20.622
1211.44	2.273
1214.34	26.465
1217.23	13.454
1220.12	29.703
1223.01	23.495
1225.91	8.032
1228.8	33.634
1231.69	28.417
1234.59	39.212
1237.48	2.126
1240.37	20.156
1243.26	32.659
1246.16	27.289
1249.05	29.093
1251.94	21.24
1254.83	39.209
1257.73	16.863
1260.62	25.553
1263.51	32.077
