Measurement: Raman, 780 nm, unoriented, Raman Data Processed
Mineral: Pectolite
Rruff sample: R050396
Ideal chemistry: NaCa_2_Si_3_O_8_(OH)
Locality: Jeffrey Quarry, Asbestos, Quebec, Canada
Source: Marcus Origlieri
Description: Colorless to gray columnar blocky crystals
Measured chemistry: Na_1.00_Ca_2.00_Si_3.00_O_8_(OH)
Raman shift (cm-1)	intensity
129.164	0
132.057	10.7689
134.95	26.1307
137.842	36.4121
140.735	58.6739
143.628	75.9735
146.52	60.7957
149.413	72.3729
152.306	62.7228
155.199	36.3068
158.091	10.603
160.984	4.46069
163.877	6.94592
166.769	6.02649
169.662	0.770264
172.555	0.451416
175.447	7.18811
178.34	21.017
181.233	41.9641
184.126	63.3442
187.018	65.8315
189.911	46.2136
192.804	47.7501
195.696	60.459
198.589	83.6415
201.482	100.787
204.375	91.8104
207.267	76.0759
210.16	68.0321
213.053	74.5147
215.945	81.8657
218.838	92.5555
221.731	103.331
224.623	94.783
227.516	55.3543
230.409	26.3629
233.302	11.6423
236.194	1.60791
239.087	5.12744
241.98	1.62488
244.872	0.373535
247.765	12.8893
250.658	17.2293
253.55	26.9279
256.443	22.4451
259.336	20.8838
262.228	18.2709
265.121	17.4156
268.014	25.7075
270.907	27.8344
273.799	25.2145
276.692	19.4135
279.585	9.01038
282.477	16.98
285.37	11.0172
288.263	7.47058
291.156	12.4779
294.048	19.6582
296.941	26.8733
299.834	43.3575
302.726	49.932
305.619	74.516
308.512	109.404
311.404	156.049
314.297	194.477
317.19	204.467
320.082	169.838
322.975	136.122
325.868	89.4233
328.761	41.1392
331.653	6.42615
334.546	12.4078
337.439	7.69812
340.331	6.06165
343.224	4.32593
346.117	22.8678
349.01	47.9257
351.902	79.1514
354.795	126.265
357.688	137.054
360.58	83.1805
363.473	34.1349
366.366	21.2268
369.258	17.8133
372.151	30.799
375.044	44.2805
377.937	46.8864
380.829	32.8281
383.722	17.0841
386.615	14.5054
389.507	14.0588
392.4	35.9531
395.293	34.8678
398.185	52.9468
401.078	84.1593
403.971	102.011
406.863	142.102
409.756	178.611
412.649	200.495
415.542	192.112
418.434	155.45
421.327	118.249
424.22	110.765
427.112	100.027
430.005	93.5929
432.898	94.8245
435.791	89.1625
438.683	85.1184
441.576	78.2362
444.469	80.8497
447.361	74.7462
450.254	73.9266
453.147	72.8984
456.039	62.7435
458.932	68.3507
461.825	61.2993
464.717	58.693
467.61	48.9524
470.503	40.0773
473.396	36.4969
476.288	30.1
479.181	25.4198
482.074	18.0056
484.966	17.9869
487.859	13.9237
490.752	13.7689
493.644	12.7089
496.537	26.8239
499.43	19.4641
502.323	11.7875
505.215	6.09644
508.108	4.15991
511.001	0.733765
513.893	3.44214
516.786	0.850708
519.679	0.341919
522.572	3.05212
525.464	4.30933
528.357	2.65967
531.25	2.40295
534.142	1.30591
537.035	3.86597
539.928	3.36682
542.82	6.8529
545.713	7.34668
548.606	7.5177
551.499	13.0066
554.391	13.161
557.284	17.0022
560.177	14.2312
563.069	15.1908
565.962	17.3102
568.855	14.7963
571.747	8.06409
574.64	7.1012
577.533	6.78259
580.426	5.07947
583.318	11.4976
586.211	8.13709
589.104	7.58911
591.996	7.69812
594.889	6.95386
597.782	4.81885
600.674	4.69128
603.567	7.94507
606.46	7.72314
609.352	6.43189
612.245	8.78137
615.138	8.91309
618.03	10.642
620.923	19.541
623.816	20.8379
626.709	41.9701
629.601	56.6028
632.494	80.8472
635.387	125.825
638.279	184.361
641.172	258.397
644.065	369.635
646.957	523.549
649.85	659.713
652.743	643.244
655.636	409.232
658.528	201.654
661.421	101.358
664.314	58.8325
667.206	34.2607
670.099	19.3251
672.992	21.0952
675.885	16.5797
678.777	19.1508
681.67	27.2423
684.563	30.0984
687.455	31.7585
690.348	17.4506
693.241	12.3293
696.133	8.8009
699.026	9.13025
701.919	2.61389
704.812	1.39356
707.704	1.1947
710.597	0.664429
713.49	0.778198
716.382	5.58728
719.275	3.31421
722.168	1.98511
725.06	2.22009
727.953	0.46106
730.846	5.06799
733.739	3.60718
736.631	8.55957
739.524	5.99597
742.417	10.1937
745.309	12.0151
748.202	7.88855
751.095	9.08044
753.987	5.19031
756.88	10.9113
759.773	13.6714
762.665	14.7415
765.558	11.9376
768.451	12.2639
771.344	13.0526
774.236	15.6106
777.129	19.1703
780.022	16.6564
782.914	15.5378
785.807	17.4232
788.7	18.5503
791.592	16.0527
794.485	14.3986
797.378	16.6688
800.271	15.658
803.163	14.3001
806.056	20.0735
808.949	18.6487
811.841	16.4139
814.734	14.1874
817.627	11.9609
820.519	12.653
823.412	16.1017
826.305	14.1329
829.198	16.2891
832.09	16.8492
834.983	13.9902
837.876	14.5704
840.768	20.6303
843.661	10.027
846.554	17.8016
849.447	12.4153
852.339	12.6924
855.232	5.98352
858.125	10.485
861.017	4.99719
863.91	3.15601
866.803	5.44592
869.695	15.0065
872.588	9.13904
875.481	1.33557
878.374	1.06055
881.266	1.32935
884.159	3.4104
887.052	1.02515
889.944	1.07202
892.837	2.5144
895.73	2.77051
898.622	2.00073
901.515	10.6537
904.408	8.89551
907.301	18.1155
910.193	22.2248
913.086	16.0199
915.979	7.37646
918.871	7.94373
921.764	4.38794
924.657	4.65234
927.549	3.91394
930.442	6.78613
933.335	6.6991
936.227	9.74512
939.12	4.36914
942.013	4.42944
944.906	2.92236
947.798	0.040771
950.691	0.565308
953.584	0.546387
956.476	7.52747
959.369	16.7013
962.262	29.0109
965.154	31.7512
968.047	41.8671
970.94	49.0928
973.833	41.5793
976.725	31.6857
979.618	20.3661
982.511	10.755
985.403	9.53259
988.296	4.64685
991.189	10.0559
994.082	16.3113
996.974	16.8697
999.867	16.4507
1002.76	15.1914
1005.65	6.48022
1008.54	0.115723
1011.44	9.10413
1014.33	23.1425
1017.22	42.7887
1020.12	73.13
1023.01	111.529
1025.9	118.591
1028.79	89.3674
1031.69	53.952
1034.58	27.1498
1037.47	16.1542
1040.37	4.01379
1043.26	2.29468
1046.15	1.66504
1049.04	0.34436
1051.94	8.14551
1054.83	8.70081
1057.72	7.99207
1060.61	7.12488
1063.51	3.38904
1066.4	4.22803
1069.29	13.463
1072.18	13.7883
1075.08	17.8867
1077.97	18.556
1080.86	22.9185
1083.76	21.6956
1086.65	25.4778
1089.54	28.1448
1092.43	32.8063
1095.33	43.001
1098.22	35.604
1101.11	37.7269
1104	30.9133
1106.9	34.6238
1109.79	30.6564
1112.68	30.0775
1115.58	25.7366
1118.47	17.398
1121.36	18.0751
1124.25	18.519
1127.15	9.375
1130.04	13.6276
1132.93	8.24744
1135.82	13.2784
1138.72	7.19067
1141.61	8.32922
1144.5	3.51269
1147.39	1.4137
1150.29	0.485718
1153.18	4.98169
1156.07	3.03137
1158.96	2.94641
1161.86	8.65991
1164.75	6.26269
1167.64	0.810425
1170.54	3.01965
1173.43	0.618164
1176.32	6.82739
1179.21	12.2019
1182.11	16.1724
1185	24.7517
1187.89	18.1099
1190.79	16.3459
1193.68	21.9439
1196.57	21.7336
1199.46	33.7122
1202.36	38.1045
1205.25	39.5559
1208.14	34.8296
1211.03	41.7146
1213.93	38.6543
1216.82	36.5042
1219.71	38.6829
1222.61	38.9253
1225.5	44.9346
1228.39	52.4158
1231.28	42.7434
1234.18	38.0708
1237.07	41.4314
1239.96	37.4451
1242.85	36.1855
1245.75	32.5273
1248.64	29.6785
1251.53	22.3914
1254.42	15.0991
1257.32	11.821
1260.21	0.270752
1263.1	2.61426
