Measurement: Raman, 532 nm, unoriented, Raman Data Processed
Mineral: Pectolite
Rruff sample: R050396
Ideal chemistry: NaCa_2_Si_3_O_8_(OH)
Locality: Jeffrey Quarry, Asbestos, Quebec, Canada
Source: Marcus Origlieri
Description: Colorless to gray columnar blocky crystals
Measured chemistry: Na_1.00_Ca_2.00_Si_3.00_O_8_(OH)
Raman shift (cm-1)	intensity
123.691	0
126.584	2.06238
129.476	96.6317
132.369	318.623
135.262	501.853
138.155	570.637
141.047	674.521
143.94	756.692
146.833	806.915
149.725	826.32
152.618	562.139
155.511	260.511
158.404	128.956
161.296	54.1258
164.189	17.9491
167.082	19.0336
169.974	16.1475
172.867	12.0227
175.76	15.1835
178.652	38.764
181.545	126.211
184.438	260.29
187.331	189.857
190.223	103.179
193.116	101.628
196.009	147.898
198.901	238.896
201.794	306.84
204.687	224.289
207.579	157.366
210.472	149.418
213.365	180.069
216.257	222.505
219.15	295.23
222.043	336.578
224.936	287.429
227.828	147.957
230.721	54.2782
233.614	26.6503
236.506	0.266968
239.399	22.4946
242.292	17.6422
245.185	2.35132
248.077	36.3821
250.97	69.1152
253.863	107.517
256.755	132.951
259.648	136.587
262.541	115.344
265.433	118.725
268.326	146.936
271.219	160.756
274.111	150.231
277.004	125.523
279.897	81.8245
282.79	24.8054
285.682	8.39893
288.575	8.65942
291.468	3.8667
294.36	22.584
297.253	50.3188
300.146	90.0356
303.038	149.591
305.931	246.439
308.824	387.16
311.717	586.963
314.609	779.225
317.502	799.995
320.395	642.01
323.287	536.012
326.18	380.237
329.073	168.65
331.966	44.9473
334.858	7.18018
337.751	2.17627
340.644	52.4045
343.536	98.0081
346.429	171.46
349.322	281.465
352.214	496.321
355.107	739.574
358	780.937
360.892	556.417
363.785	443.406
366.678	454.881
369.571	549.318
372.463	808.238
375.356	1161.16
378.249	1188.56
381.141	631.847
384.034	268.944
386.927	147.052
389.82	122.623
392.712	145.092
395.605	216.816
398.498	319.986
401.39	463.401
404.283	645.052
407.176	905.139
410.068	1185.21
412.961	1287.32
415.854	1011.75
418.747	598.227
421.639	311.156
424.532	159.991
427.425	76.7039
430.317	47.1663
433.21	24.2795
436.103	10.4468
438.995	0.327881
441.888	4.13647
444.781	0.291992
447.673	3.34326
450.566	8.16455
453.459	13.7891
456.352	32.3816
459.244	55.1582
462.137	61.3816
465.03	51.4309
467.922	28.8513
470.815	6.0188
473.708	2.80591
476.601	14.5166
479.493	5.88574
482.386	11.198
485.279	7.6604
488.171	16.7422
491.064	35.6379
493.957	77.1221
496.849	120.304
499.742	142.226
502.635	66.3184
505.527	37.269
508.42	20.4846
511.313	2.61401
514.206	4.8125
517.098	15.7241
519.991	9.66235
522.884	5.18018
525.776	15.8721
528.669	44.9722
531.562	63.8335
534.455	96.436
537.347	121.171
540.24	115.135
543.133	104.796
546.025	102.133
548.918	91.0945
551.811	89.2839
554.703	89.4373
557.596	91.1187
560.489	91.6655
563.381	84.6111
566.274	79.4094
569.167	55.7817
572.06	49.6191
574.952	40.0649
577.845	29.9861
580.738	31.1462
583.63	25.0027
586.523	12.2671
589.416	25.9836
592.308	19.436
595.201	5.31372
598.094	10.7776
600.987	0.911865
603.879	5.98413
606.772	0.643799
609.665	12.0989
612.557	27.0813
615.45	47.9131
618.343	60.4819
621.236	93.1189
624.128	140.456
627.021	225.226
629.914	353.897
632.806	577.148
635.699	958.668
638.592	1508.1
641.484	2159.51
644.377	3111.99
647.27	4384.57
650.163	5379.4
653.055	4795.03
655.948	2750.09
658.841	1350.2
661.733	717.873
664.626	416.741
667.519	239.205
670.411	151.708
673.304	98.3364
676.197	83.6706
679.09	87.6018
681.982	114.141
684.875	134.922
687.768	115.529
690.66	67.6326
693.553	31.1602
696.446	12.5686
699.338	31.9609
702.231	43.9607
705.124	38.2908
708.016	18.4116
710.909	2.08057
713.802	4.08814
716.695	9.18359
719.587	3.69214
722.48	6.51245
725.373	2.54688
728.265	1.69092
731.158	5.0564
734.051	21.7388
736.943	20.1643
739.836	29.6343
742.729	34.8232
745.622	27.7754
748.514	30.3562
751.407	34.9309
754.3	44.853
757.192	50.4077
760.085	65.323
762.978	75.522
765.87	77.6269
768.763	68.7986
771.656	64.7104
774.549	61.5125
777.441	45.8806
780.334	54.6189
783.227	52.5779
786.119	59.3272
789.012	67.2175
791.905	60.4072
794.798	61.7835
797.69	49.7473
800.583	40.595
803.476	47.6401
806.368	46.9045
809.261	57.7969
812.154	48.4815
815.046	41.5088
817.939	44.8674
820.832	35.7959
823.725	41.8408
826.617	34.3945
829.51	38.4307
832.403	56.5344
835.295	50.1692
838.188	54.1973
841.081	47.4531
843.973	46.3257
846.866	25.9199
849.759	24.5432
852.652	27.9126
855.544	35.604
858.437	34.6616
861.33	19.7004
864.222	13.9146
867.115	8.08643
870.008	13.5588
872.9	7.71411
875.793	4.4165
878.686	0.522217
881.578	5.02564
884.471	10.0481
887.364	1.10278
890.257	1.53564
893.149	2.62671
896.042	11.0657
898.935	40.1316
901.827	96.4426
904.72	154.787
907.613	231.642
910.505	230.265
913.398	128.667
916.291	63.4058
919.184	32.356
922.076	26.6516
924.969	19.6741
927.862	28.4404
930.754	30.0879
933.647	18.1223
936.54	15.6611
939.433	4.6582
942.325	4.26294
945.218	5.7561
948.111	12.4351
951.003	42.5457
953.896	101.082
956.789	178.178
959.681	275.375
962.574	403.618
965.467	555.119
968.36	713.796
971.252	798.696
974.145	760.948
977.038	656.46
979.93	551.226
982.823	494.64
985.716	470.259
988.608	504.337
991.501	602.03
994.394	666.177
997.287	597.281
1000.18	619.021
1003.07	754.962
1005.97	686.802
1008.86	497.773
1011.75	565.658
1014.64	780.003
1017.53	1065.24
1020.43	1466.73
1023.32	1858.69
1026.21	1810.66
1029.11	1257.65
1032	696.652
1034.89	370.859
1037.78	204.075
1040.68	115.883
1043.57	53.1572
1046.46	19.6665
1049.36	1.81055
1052.25	8.9104
1055.14	8.49146
1058.03	12.2559
1060.93	3.50562
1063.82	11.3494
1066.71	0.454102
1069.6	4.84766
1072.5	17.4055
1075.39	19.8879
1078.28	32.7356
1081.17	31.3743
1084.07	41.3696
1086.96	46.8875
1089.85	42.9919
1092.75	63.8403
1095.64	82.092
1098.53	102.46
1101.42	111.878
1104.32	112.61
1107.21	103.754
1110.1	81.0898
1112.99	88.1562
1115.89	72.49
1118.78	63.8196
1121.67	64.1455
1124.57	59.7227
1127.46	41.4448
1130.35	46.5247
1133.24	28.1323
1136.14	31.0085
1139.03	31.5239
1141.92	16.0977
1144.81	25.5398
1147.71	22.0076
1150.6	12.4543
1153.49	2.99268
1156.38	12.5425
1159.28	4.66504
1162.17	6.90796
1165.06	15.9028
1167.96	30.9282
1170.85	33.8018
1173.74	35.6208
1176.63	37.2402
1179.53	26.4145
1182.42	29.4793
1185.31	11.0686
1188.2	3.99829
1191.1	10.2165
1193.99	28.8413
1196.88	12.6116
1199.78	14.5437
1202.67	18.3237
1205.56	8.05713
1208.45	7.78247
1211.35	5.89404
1214.24	1.73804
1217.13	9.40991
1220.02	11.4426
1222.92	4.51587
1225.81	11.3438
1228.7	14.4934
1231.6	24.2256
1234.49	41.9971
1237.38	25.0598
1240.27	26.8574
1243.17	29.0757
1246.06	37.1958
1248.95	21.7034
1251.84	27.8149
1254.74	17.5212
1257.63	3.74536
1260.52	6.31079
1263.41	0.684814
