Measurement: Raman, 780 nm, unoriented, Raman Data Processed
Mineral: Pectolite
Rruff sample: R120024
Ideal chemistry: NaCa_2_Si_3_O_8_(OH)
Locality: Eveslogchorr Mt., Khibiny Massif, Kola Peninsula, Murmanskaja Oblast', Russia
Source: Dr. JÃ¼rgen Wachsmuth
Description: Colorless elongated platy crystals
Raman shift (cm-1)	intensity
113.781	0
117.156	3.5354
120.531	2.53095
123.905	14.6517
127.28	0.923157
130.655	2.47662
134.03	5.99249
137.405	9.85535
140.779	20.8407
144.154	27.1231
147.529	31.0618
150.904	37.1874
154.279	32.8972
157.654	11.7464
161.028	3.74298
164.403	2.35941
167.778	0.823914
171.153	0.957184
174.528	1.64517
177.902	4.75974
181.277	8.38019
184.652	11.363
188.027	13.4247
191.402	11.7851
194.776	15.741
198.151	19.3113
201.526	29.7482
204.901	26.7893
208.276	27.2232
211.651	27.3837
215.025	28.5284
218.4	37.9265
221.775	40.054
225.15	34.5074
228.525	22.4985
231.899	15.9056
235.274	4.66934
238.649	5.11438
242.024	0.467712
245.399	0.243805
248.774	1.13348
252.148	0.984283
255.523	2.29437
258.898	5.05066
262.273	5.42169
265.648	9.59952
269.022	11.3911
272.397	12.8791
275.772	9.81656
279.147	7.25742
282.522	7.41263
285.897	0.548004
289.271	1.51617
292.646	0.143524
296.021	2.58167
299.396	7.5593
302.771	14.139
306.145	28.9432
309.52	54.7391
312.895	85.9845
316.27	104.415
319.645	92.0459
323.019	80.8161
326.394	59.0567
329.769	32.5285
333.144	13.6732
336.519	6.52856
339.894	3.19565
343.268	6.23276
346.643	8.34534
350.018	24.515
353.393	32.5352
356.768	44.1485
360.142	32.6531
363.517	20.7954
366.892	16.2028
370.267	19.4247
373.642	26.7235
377.017	35.7883
380.391	26.4658
383.766	9.94098
387.141	1.78964
390.516	1.64664
393.891	0.272003
397.265	0.223053
400.64	6.02979
404.015	16.8173
407.39	33.3318
410.765	56.0707
414.14	69.8013
417.514	52.5154
420.889	30.4026
424.264	12.6527
427.639	3.03912
431.014	2.85358
434.389	0.006134
437.763	0.054016
441.138	2.69919
444.513	5.0386
447.888	0.156586
451.263	2.20776
454.637	2.51062
458.012	11.4261
461.387	16.2607
464.762	18.2055
468.137	10.3693
471.512	4.04581
474.886	8.30164
478.261	0.796906
481.636	6.15216
485.011	4.72794
488.386	2.72693
491.76	7.80862
495.135	13.5464
498.51	13.8353
501.885	12.9315
505.26	9.65189
508.635	10.5345
512.009	9.07178
515.384	8.4957
518.759	7.1264
522.134	8.04153
525.509	4.06616
528.883	5.55582
532.258	5.7923
535.633	4.30637
539.008	3.35257
542.383	3.67441
545.757	0.43866
549.132	1.46634
552.507	1.72995
555.882	1.21872
559.257	1.20767
562.631	0.260651
566.006	1.3977
569.381	1.02405
572.756	0.054962
576.131	1.32532
579.506	1.2435
582.88	1.43408
586.255	6.89801
589.63	3.405
593.005	2.3587
596.38	2.12454
599.755	3.36408
603.129	2.39822
606.504	4.50708
609.879	4.43961
613.254	4.39597
616.629	8.91815
620.003	9.62848
623.378	12.9235
626.753	19.4084
630.128	23.878
633.503	37.6659
636.878	57.9182
640.252	90.886
643.627	155.043
647.002	258.416
650.377	390.525
653.752	401.513
657.126	244.473
660.501	118.175
663.876	62.7071
667.251	31.9954
670.626	22.1798
674	16.4024
677.375	16.2357
680.75	24.2092
684.125	25.0631
687.5	32.6895
690.875	25.7658
694.249	12.237
697.624	6.61273
700.999	4.7579
704.374	2.93338
707.749	2.24243
711.124	0.082672
714.498	1.125
717.873	0.550446
721.248	0.784424
724.623	0.865784
727.998	1.22907
731.372	1.33246
734.747	4.89874
738.122	0.638275
741.497	2.89966
744.872	10.3548
748.246	21.8646
751.621	2.55716
754.996	3.96521
758.371	3.23444
761.746	3.31647
765.12	3.17551
768.495	3.98615
771.87	3.03033
775.245	4.51032
778.62	3.00351
781.995	5.52304
785.369	0.58728
788.744	1.0213
792.119	5.17435
795.494	3.76752
798.869	2.58435
802.244	2.552
805.618	4.565
808.993	5.5163
812.368	5.75546
815.743	6.11942
819.118	6.18231
822.492	5.40674
825.867	8.35873
829.242	6.59439
832.617	26.4389
835.992	8.17905
839.366	7.03668
842.741	7.18216
846.116	4.0867
849.491	3.24316
852.866	5.01404
856.241	4.31305
859.615	5.70654
862.99	0.650452
866.365	4.84857
869.74	0.53302
873.115	3.3277
876.49	3.74686
879.864	1.54862
883.239	1.24966
886.614	2.29922
889.989	3.89941
893.364	4.68356
896.738	6.30856
900.113	9.27322
903.488	13.1167
906.863	18.7132
910.238	15.2744
913.612	10.9315
916.987	4.83023
920.362	2.64795
923.737	0.035767
927.112	13.2814
930.487	0.731567
933.861	1.00839
937.236	1.6579
940.611	1.75644
943.986	0.765778
947.361	7.7851
950.736	3.69067
954.11	8.90323
957.485	15.9413
960.86	21.6968
964.235	28.2601
967.61	44.6151
970.984	52.3728
974.359	58.5631
977.734	54.1239
981.109	46.4429
984.484	39.0644
987.859	31.0144
991.233	28.344
994.608	36.9978
997.983	30.835
1001.36	31.7421
1004.73	35.686
1008.11	37.2475
1011.48	37.9168
1014.86	57.0979
1018.23	92.6408
1021.61	139.802
1024.98	175.477
1028.36	160.122
1031.73	97.9986
1035.11	53.7262
1038.48	28.7006
1041.86	14.4079
1045.23	12.1683
1048.61	6.83145
1051.98	1.01575
1055.36	4.38464
1058.73	1.7912
1062.1	0.356445
1065.48	1.78333
1068.85	0.860596
1072.23	0.480713
1075.6	0.538513
1078.98	0.738617
1082.35	6.46527
1085.73	1.6756
1089.1	3.65994
1092.48	0.031952
1095.85	5.57901
1099.23	1.43359
1102.6	3.2854
1105.98	2.10486
1109.35	4.83203
1112.73	1.16028
1116.1	1.14908
1119.48	1.07239
1122.85	0.253937
1126.23	2.22711
1129.6	5.47494
1132.98	2.28003
1136.35	4.2829
1139.72	9.87347
1143.1	13.3912
1146.47	6.11658
1149.85	5.6163
1153.22	7.85541
1156.6	5.37885
1159.97	12.9913
1163.35	5.41879
1166.72	7.69287
1170.1	8.1106
1173.47	6.48541
1176.85	2.3179
1180.22	0.474457
1183.6	31.9982
1186.97	6.36023
1190.35	8.78452
1193.72	3.10318
1197.1	1.04608
1200.47	0.656769
1203.85	5.09763
1207.22	2.9967
1210.6	4.21774
1213.97	7.40979
1217.35	5.32797
1220.72	3.97693
1224.1	2.90894
1227.47	5.53217
1230.85	2.86752
1234.22	1.4252
1237.6	3.93091
1240.97	0.04718
1244.34	3.33801
1247.72	0.701172
1251.09	3.76172
1254.47	5.35474
1257.84	3.6507
1261.22	4.09094
1264.59	7.19452
1267.97	3.13086
1271.34	1.9599
1274.72	8.93549
1278.09	4.33832
1281.47	0.050476
1284.84	0.772644
