Measurement: Raman, 532 nm, unoriented, Raman Data Processed
Mineral: Pectolite
Rruff sample: R070607
Ideal chemistry: NaCa_2_Si_3_O_8_(OH)
Locality: Poudrette quarry (Demix quarry; Uni-Mix quarry; Desourdy quarry), Mont Saint-Hilaire, Rouville County, Québec, Canada
Source: Michael Scott
Description: Colorless platy microcrystals associated with griceite, R070436
Measured chemistry: Na_1.00_(Ca_1.03_Mn_0.94_Fe^2+^_0.03_)_Σ=2_Si_3.00_O_8_(OH)
Raman shift (cm-1)	intensity
150.52	0
153.413	75.8994
156.305	200.98
159.198	376.234
162.091	479.405
164.984	405.755
167.876	212.563
170.769	53.4304
173.662	34.9517
176.554	40.511
179.447	70.551
182.34	249.955
185.232	499.858
188.125	637.148
191.018	839.737
193.911	1110.92
196.803	1124.27
199.696	1049.84
202.589	959.45
205.481	859.495
208.374	855.642
211.267	760.689
214.159	723.452
217.052	755.648
219.945	672.711
222.838	492.657
225.73	301.275
228.623	96.3657
231.516	12.9407
234.408	31.8674
237.301	55.1638
240.194	82.9812
243.086	42.2805
245.979	62.5508
248.872	255.412
251.764	457.343
254.657	717.936
257.55	816.475
260.443	840.385
263.335	983.196
266.228	1226.51
269.121	1435.79
272.013	1620.74
274.906	1638.34
277.799	1821.21
280.692	1985.43
283.584	2327.84
286.477	2481.87
289.37	2604.64
292.262	2402.47
295.155	2027.19
298.048	1740.46
300.94	1621.34
303.833	1538.55
306.726	1369.75
309.618	1290.32
312.511	1252.62
315.404	1286.76
318.296	1349.67
321.189	1454.18
324.082	1357.94
326.975	1073.16
329.867	631.853
332.76	486.809
335.653	306.555
338.545	386.972
341.438	422.979
344.331	516.454
347.224	531.734
350.116	452.836
353.009	476.756
355.902	394.043
358.794	391.271
361.687	445.819
364.58	480.376
367.472	452.992
370.365	484.319
373.258	459.767
376.151	238.163
379.043	65.2898
381.936	3.21631
384.829	12.5388
387.721	100.975
390.614	55.261
393.507	31.2002
396.399	89.1419
399.292	184.648
402.185	313.329
405.077	586.788
407.97	797.946
410.863	981.312
413.756	1085.32
416.648	1217.58
419.541	1201.23
422.434	996.614
425.326	699.957
428.219	427.975
431.112	245.06
434.004	133.699
436.897	64.5427
439.79	81.4551
442.683	25.5918
445.575	12.6821
448.468	39.5581
451.361	36.6323
454.253	126.517
457.146	366.934
460.039	307.027
462.931	416.331
465.824	343.875
468.717	256.23
471.61	217.088
474.502	249.66
477.395	280.009
480.288	362.234
483.18	423.399
486.073	579.235
488.966	767.348
491.858	1001.03
494.751	1050.97
497.644	1032.99
500.536	818.783
503.429	796.926
506.322	823.073
509.215	794.108
512.107	805.446
515	751.26
517.893	735.023
520.785	731.337
523.678	742.648
526.571	661.46
529.463	563.044
532.356	331.219
535.249	176.48
538.141	64.1926
541.034	65.1335
543.927	4.71436
546.82	7.67871
549.712	14.7969
552.605	10.8425
555.498	11.1157
558.39	22.0435
561.283	24.4836
564.176	4.58179
567.068	15.0095
569.961	19.1836
572.854	10.3047
575.747	4.7605
578.639	20.1565
581.532	19.7766
584.425	8.34009
587.317	25.8596
590.21	42.6948
593.103	41.0034
595.995	41.3557
598.888	22.4587
601.781	95.8901
604.674	111.936
607.566	72.1069
610.459	155.684
613.352	163.377
616.244	236.773
619.137	456.846
622.03	453.587
624.923	545.895
627.815	907.993
630.708	1088.85
633.601	1529.03
636.493	2175.22
639.386	3286.63
642.279	4928.96
645.171	7104.67
648.064	9455.1
650.957	12064.7
653.849	14682.9
656.742	15382.7
659.635	12257.5
662.528	7747.77
665.42	4544.81
668.313	2734.85
671.206	1803.58
674.098	1294.37
676.991	1037.21
679.884	934.974
682.776	990.046
685.669	1156.9
688.562	1420.25
691.455	1744.63
694.347	2018.24
697.24	2071.16
700.133	1699.43
703.025	1251.95
705.918	988.464
708.811	880.23
711.703	737.879
714.596	442.658
717.489	212.894
720.381	86.2429
723.274	47.7993
726.167	13.9873
729.06	17.1277
731.952	2.29614
734.845	11.219
737.738	19.054
740.63	3.24585
743.523	4.24878
746.416	52.1008
749.308	33.8845
752.201	5.3501
755.094	0.92041
757.987	0.884033
760.879	6.73364
763.772	24.9473
766.665	60.6902
769.557	101.196
772.45	63.6218
775.343	69.2095
778.235	15.436
781.128	77.4443
784.021	94.7766
786.913	90.6846
789.806	58.7239
792.699	89.4932
795.592	108.584
798.484	103.846
801.377	148
804.27	67.7612
807.162	40.0671
810.055	69.1519
812.948	70.3069
815.841	108.22
818.733	108.23
821.626	99.2158
824.519	87.9753
827.411	105.99
830.304	106.974
833.197	95.0356
836.089	113.966
838.982	78.5129
841.875	69.8294
844.768	91.0361
847.66	96.0837
850.553	135.637
853.446	134.893
856.338	133.151
859.231	113.545
862.124	111.414
865.016	40.2402
867.909	55.2012
870.802	16.283
873.694	3.46606
876.587	22.5144
879.48	37.499
882.373	16.512
885.265	92.9763
888.158	116.359
891.051	217.251
893.943	238.774
896.836	296.769
899.729	364.07
902.621	338.886
905.514	272.236
908.407	229.661
911.299	147.593
914.192	78.6504
917.085	20.575
919.978	17.8018
922.87	40.5515
925.763	33.3779
928.656	27.4192
931.548	18.741
934.441	44.9851
937.334	191.142
940.226	259.971
943.119	400.377
946.012	667.303
948.905	859.161
951.797	1210.24
954.69	1597.76
957.583	2074.91
960.475	2581.97
963.368	3115.32
966.261	3594.75
969.153	4047.84
972.046	4364.04
974.939	4483.81
977.832	4401.18
980.724	4197.35
983.617	3893.44
986.51	3642.94
989.402	3396.23
992.295	3167.31
995.188	2676.3
998.08	2238.08
1000.97	1947.18
1003.87	1881.87
1006.76	1928.98
1009.65	2098.89
1012.54	2419.82
1015.44	2797.98
1018.33	3057.16
1021.22	3315.87
1024.12	3282.24
1027.01	2884.97
1029.9	2272.79
1032.79	1739.24
1035.69	1294.49
1038.58	973.977
1041.47	668.313
1044.36	471.983
1047.26	392.729
1050.15	212.908
1053.04	220.137
1055.93	120.851
1058.83	70.0664
1061.72	12.2293
1064.61	23.3259
1067.51	20.3379
1070.4	29.1453
1073.29	30.9912
1076.18	18.4431
1079.08	48.9004
1081.97	16.96
1084.86	17.373
1087.75	5.43726
1090.65	51.4141
1093.54	15.6165
1096.43	58.1487
1099.33	48.9961
1102.22	88.6677
1105.11	117.506
1108	141.525
1110.9	129.676
1113.79	176.713
1116.68	146.414
1119.57	131.845
1122.47	94.5947
1125.36	74.1626
1128.25	97.4661
1131.14	87.0122
1134.04	69.3538
1136.93	87.0679
1139.82	45.4285
1142.71	22.7632
1145.61	25.9219
1148.5	66.5076
1151.39	130.609
1154.29	40.5867
1157.18	34.02
1160.07	40.4092
1162.96	66.0989
1165.86	72.5767
1168.75	43.8042
1171.64	39.3345
1174.54	51.7393
1177.43	67.1643
1180.32	13.0159
1183.21	75.3245
1186.11	42.7134
1189	23.9282
1191.89	22.7864
1194.78	19.2451
1197.68	7.83423
1200.57	8.08447
1203.46	83.3831
1206.36	25.397
1209.25	35.1633
1212.14	5.51172
1215.03	11.666
1217.92	8.80737
1220.82	30.8259
1223.71	35.8489
1226.6	46.5203
1229.5	64.9399
1232.39	11.1494
1235.28	37.5278
1238.17	21.0366
1241.07	36.5554
1243.96	53.1982
1246.85	14.2263
1249.74	32.8557
1252.64	9.90063
1255.53	18.3105
1258.42	2.87866
1261.32	64.4062
1264.21	43.404
1267.1	28.8782
1269.99	54.3652
1272.89	31.5657
1275.78	12.6643
1278.67	19.4009
1281.57	0.102539
