Measurement: Raman, 514 nm, unoriented, Raman Data Processed
Mineral: Pectolite
Rruff sample: R050396
Ideal chemistry: NaCa_2_Si_3_O_8_(OH)
Locality: Jeffrey Quarry, Asbestos, Quebec, Canada
Source: Marcus Origlieri
Description: Colorless to gray columnar blocky crystals
Measured chemistry: Na_1.00_Ca_2.00_Si_3.00_O_8_(OH)
Raman shift (cm-1)	intensity
97.554	0
101.732	42.973
105.908	197.152
110.082	349.62
114.254	341.533
118.424	436.142
122.592	336.864
126.758	365.689
130.922	540.481
135.083	746.018
139.243	946.529
143.401	1038.12
147.557	932.914
151.711	851.481
155.863	649.628
160.013	425.131
164.161	175.898
168.308	124.771
172.452	66.039
176.594	65.412
180.734	227.197
184.872	462.02
189.008	436.016
193.143	416.881
197.275	612.467
201.405	1013.38
205.534	822.648
209.66	581.697
213.784	658.604
217.907	819.023
222.027	1120.53
226.146	980.996
230.263	432.388
234.377	111.729
238.49	76.962
242.601	120.588
246.709	47.121
250.816	156.901
254.921	163.454
259.024	167.885
263.125	278.741
267.224	235.79
271.321	211.109
275.416	84.351
279.51	5.721
283.601	11.765
287.69	31.729
291.778	58.124
295.863	117.928
299.947	61.388
304.029	48.031
308.108	258.531
312.186	481.262
316.262	684.294
320.336	770.461
324.408	776.798
328.478	625.643
332.546	323.938
336.612	185.143
340.677	23.778
344.739	79.307
348.799	106.908
352.858	409.486
356.915	561.994
360.969	545.795
365.022	475.39
369.073	475.851
373.122	639.274
377.169	844.35
381.215	534.052
385.258	335.12
389.299	272.026
393.339	195.5
397.376	259.627
401.412	380.165
405.446	718.847
409.478	1302.62
413.508	1818.17
417.536	1556.66
421.562	951.476
425.586	485.252
429.609	335.93
433.629	139.353
437.648	232.291
441.665	133.774
445.68	190.545
449.693	236.706
453.704	78.955
457.713	225.861
461.721	141.134
465.726	150.268
469.73	55.404
473.731	63.119
477.731	41.498
481.729	4.774
485.725	48.917
489.72	53.966
493.712	120.041
497.703	215.413
501.691	258.826
505.678	108.283
509.663	103.487
513.646	167.98
517.627	233.701
521.607	151.005
525.584	150.184
529.56	85.566
533.534	126.111
537.506	61.824
541.476	47.986
545.444	21.202
549.41	72.686
553.375	17.018
557.337	2.552
561.298	48.067
565.257	30.368
569.214	64.109
573.17	110.156
577.123	48.642
581.075	56.383
585.024	237.398
588.972	219.505
592.918	218.236
596.863	193.502
600.805	253.387
604.746	227.095
608.685	276.675
612.621	239.472
616.557	413.153
620.49	492.653
624.421	585.191
628.351	566.051
632.279	854.151
636.205	1325.33
640.129	1963.85
644.051	3856.64
647.972	7927.56
651.89	12555.2
655.807	9102.28
659.722	4135.36
663.636	1870.44
667.547	970.051
671.457	776.117
675.365	560.269
679.271	571.411
683.175	562.021
687.077	881.332
690.978	629.827
694.877	515.237
698.774	327.035
702.669	216.258
706.562	203.568
710.454	37.425
714.344	175.082
718.232	18.984
722.118	150.313
726.002	156.55
729.885	20.723
733.766	71
737.645	147.974
741.522	198.581
745.397	112.391
749.271	85.848
753.143	113.583
757.013	55.102
760.881	5.784
764.748	215.854
768.613	208.618
772.476	38.727
776.337	143.287
780.196	122.433
784.054	126.428
787.91	136.69
791.764	100.548
795.616	0.3
799.467	191.704
803.316	90.081
807.163	47.534
811.008	18.347
814.851	152.71
818.693	121.797
822.533	191.348
826.371	208.807
830.208	201.166
834.042	14.062
837.875	118.84
841.706	247.934
845.536	146.979
849.363	225.738
853.189	236.387
857.013	184.682
860.836	129.77
864.656	139.137
868.475	192.842
872.292	36.625
876.108	43.232
879.922	275.084
883.733	103.996
887.544	126.254
891.352	48.092
895.159	54.781
898.964	25.121
902.767	138.785
906.568	262.947
910.368	569.256
914.166	599.297
917.962	421.328
921.757	354.512
925.55	380.24
929.341	521.906
933.13	577.467
936.918	646.846
940.703	359.512
944.488	390.951
948.27	371.836
952.051	550.604
955.83	633.348
959.607	757.988
963.383	964.297
967.156	1269.23
970.928	1840.38
974.699	2015.1
978.468	1706.11
982.234	1417.99
986	605.619
989.763	841.984
993.525	911.83
997.285	1311.19
1001.04	907.887
1004.8	1049.44
1008.55	1010.84
1012.31	873.924
1016.06	1051.12
1019.81	1828.14
1023.56	2957.76
1027.31	3360.53
1031.05	2715.45
1034.79	1624.8
1038.53	1000.91
1042.27	1187.73
1046.01	831.768
1049.75	447.537
1053.48	667.326
1057.22	491.438
1060.95	658.754
1064.68	591.965
1068.4	295.754
1072.13	404.877
1075.86	289.293
1079.58	79.963
1083.3	393.098
1087.02	106.15
1090.74	14.688
1094.45	70.287
1098.17	18.072
1101.88	164.258
1105.59	120.877
1109.3	389.514
1113.01	6.375
1116.71	203.195
1120.42	404.463
1124.12	296.721
1127.82	5.305
1131.52	202.176
1135.22	32.699
1138.91	128.719
1142.61	169.176
1146.3	300.535
1149.99	536.785
1153.68	407.355
1157.37	676.348
1161.06	445.367
1164.74	360.289
1168.42	304.516
1172.1	595.039
1175.78	659.422
1179.46	232.168
1183.14	322.875
1186.81	470.434
1190.48	669.625
1194.15	662.535
1197.83	365.582
1201.49	678.586
1205.16	66.164
1208.82	566.539
1212.49	427.32
1216.15	294.203
1219.81	457.09
1223.46	611.598
1227.12	792.527
1230.78	492.176
1234.43	216.77
1238.08	78.434
1241.73	373.734
1245.38	289.734
