Measurement: Raman, 780 nm, unoriented, Raman Data Processed
Mineral: Pectolite
Rruff sample: R060101
Ideal chemistry: NaCa_2_Si_3_O_8_(OH)
Locality: West Patterson, New Jersey, USA
Source: University of Arizona Mineral Museum
Description: Tufts of white acicular sprays
Measured chemistry: Na_1.02_Ca_2.00_Si_2.99_O_8_(OH)
Raman shift (cm-1)	intensity
142.166	0
145.058	16.2033
147.951	53.3721
150.844	69.3838
153.736	42.0567
156.629	21.3419
159.522	6.91481
162.414	0.870859
165.307	1.54584
168.2	1.43461
171.093	0.958056
173.985	1.41278
176.878	4.80938
179.771	12.6227
182.663	32.8673
185.556	46.3345
188.449	27.4534
191.341	21.8448
194.234	26.4685
197.127	34.981
200.019	52.8861
202.912	59.3384
205.805	54.2207
208.697	41.6664
211.59	37.2733
214.483	40.7852
217.376	48.4631
220.268	54.0406
223.161	58.468
226.054	51.0156
228.946	29.5882
231.839	13.3203
234.732	7.53397
237.625	5.66304
240.517	1.49333
243.41	0.430702
246.303	0.278248
249.195	5.51196
252.088	4.28055
254.981	5.38591
257.873	10.8493
260.766	9.74449
263.659	12.1122
266.551	12.9878
269.444	19.3026
272.337	20.8177
275.23	24.8751
278.122	13.0312
281.015	8.81287
283.908	2.16789
286.8	0.109354
289.693	2.32006
292.586	0.243922
295.478	7.01037
298.371	19.1722
301.264	23.7895
304.157	43.4973
307.049	61.3515
309.942	100.857
312.835	152.035
315.727	205.936
318.62	195.998
321.513	151.955
324.406	118.92
327.298	75.8126
330.191	35.0109
333.084	9.19385
335.976	0.385271
338.869	5.46349
341.762	8.43738
344.654	15.6434
347.547	32.5535
350.44	61.3812
353.332	108.807
356.225	157.368
359.118	140.53
362.01	80.1993
364.903	43.1234
367.796	42.1422
370.689	50.6656
373.581	81.1916
376.474	118.033
379.367	113.087
382.259	48.7002
385.152	21.9162
388.045	2.20551
390.938	0.198031
393.83	2.75693
396.723	9.70904
399.616	20.6218
402.508	37.026
405.401	58.8497
408.294	91.5131
411.186	125.773
414.079	140.751
416.972	104.878
419.865	54.0055
422.757	29.3991
425.65	12.2937
428.543	3.51554
431.435	1.59186
434.328	1.13391
437.221	1.53813
440.113	0.500285
443.006	0.75885
445.899	0.661217
448.791	0.866399
451.684	0.325373
454.577	1.7166
457.47	2.12336
460.362	9.63399
463.255	13.9357
466.148	12.0792
469.04	10.3167
471.933	3.54976
474.826	7.04494
477.719	6.17046
480.611	4.95796
483.504	5.61297
486.397	5.50172
489.289	8.4344
492.182	9.95307
495.075	15.2482
497.967	26.9667
500.86	20.1303
503.753	12.3046
506.645	10.2913
509.538	7.95802
512.431	4.04966
515.323	8.90372
518.216	5.06683
521.109	5.11777
524.002	5.54523
526.894	7.76005
529.787	8.34728
532.68	8.64944
535.572	9.95743
538.465	9.79589
541.358	7.30141
544.25	7.43272
547.143	4.1673
550.036	7.3825
552.929	4.82459
555.821	0.59636
558.714	1.03511
561.607	1.07364
564.499	0.367786
567.392	0.389783
570.285	0.396826
573.178	0.076324
576.07	0.252378
578.963	1.13472
581.856	0.701719
584.748	1.32689
587.641	0.07663
590.534	2.4996
593.426	2.54216
596.319	0.20196
599.212	1.91865
602.105	1.96345
604.997	2.85232
607.89	4.68912
610.783	6.34029
613.675	8.31251
616.568	13.0335
619.461	14.7127
622.353	18.477
625.246	25.1486
628.139	30.3353
631.031	44.404
633.924	64.6888
636.817	107.701
639.71	144.521
642.602	200.252
645.495	295.114
648.388	431.892
651.28	555.142
654.173	482.528
657.066	272.954
659.958	137.659
662.851	76.0628
665.744	46.5045
668.636	27.9424
671.529	21.304
674.422	14.9267
677.315	11.7649
680.207	13.0025
683.1	16.5874
685.993	16.1481
688.885	15.4678
691.778	8.91946
694.671	3.37052
697.563	4.24497
700.456	3.94019
703.349	4.64233
706.242	4.9317
709.134	1.40532
712.027	0.667103
714.92	0.472135
717.812	0.017141
720.705	0.723472
723.598	0.361715
726.49	0.085576
729.383	0.167147
732.276	1.28781
735.169	0.861131
738.061	2.06568
740.954	1.62521
743.847	1.20561
746.739	1.4302
749.632	1.82635
752.525	0.073536
755.418	1.88574
758.31	0.436043
761.203	0.970248
764.096	0.328299
766.988	0.162159
769.881	1.22353
772.774	1.38601
775.666	3.36353
778.559	1.77491
781.452	2.01639
784.345	1.44908
787.237	3.06678
790.13	0.658552
793.023	5.38108
795.915	2.08175
798.808	0.327372
801.701	4.75772
804.593	3.73813
807.486	2.87229
810.379	4.09539
813.271	4.76806
816.164	4.23738
819.057	4.88909
821.949	6.69791
824.842	5.80896
827.735	4.12356
830.628	4.39182
833.52	4.29011
836.413	4.88744
839.306	3.34988
842.198	5.61017
845.091	1.50484
847.984	3.41621
850.876	2.09077
853.769	4.84654
856.662	3.41093
859.555	3.64501
862.447	0.793967
865.34	3.91627
868.233	0.310519
871.125	0.318698
874.018	0.044518
876.911	0.23713
879.803	0.014729
882.696	0.159867
885.589	0.048074
888.482	0.061599
891.374	1.28468
894.267	3.84183
897.16	4.23408
900.052	7.42132
902.945	8.88616
905.838	17.5208
908.731	24.678
911.623	19.8803
914.516	12.1143
917.409	6.2619
920.301	5.90641
923.194	2.69489
926.087	0.42849
928.979	1.0837
931.872	0.538996
934.765	0.693898
937.658	0.451799
940.55	0.731454
943.443	0.616935
946.336	0.563594
949.228	0.946808
952.121	0.309283
955.014	5.75418
957.906	9.6936
960.799	18.5442
963.692	32.4272
966.584	38.8875
969.477	53.6757
972.37	59.5777
975.263	58.3224
978.155	51.0329
981.048	41.7633
983.941	39.761
986.833	37.1026
989.726	44.1574
992.619	45.7598
995.511	54.7318
998.404	44.9044
1001.3	50.3888
1004.19	59.0739
1007.08	55.454
1009.98	44.993
1012.87	50.1161
1015.76	73.0455
1018.65	104.344
1021.55	142.993
1024.44	174.941
1027.33	166.103
1030.22	113.392
1033.12	63.0754
1036.01	33.6979
1038.9	21.7099
1041.8	12.547
1044.69	7.54132
1047.58	4.71811
1050.47	2.87754
1053.37	2.4026
1056.26	1.37635
1059.15	2.69465
1062.04	1.90189
1064.94	1.66887
1067.83	0.212664
1070.72	1.74222
1073.61	0.237618
1076.51	0.321299
1079.4	0.553061
1082.29	0.689714
1085.18	1.56898
1088.08	2.40541
1090.97	0.488774
1093.86	4.07464
1096.76	0.363684
1099.65	0.126729
1102.54	4.20911
1105.43	0.206701
1108.33	5.5277
1111.22	4.55677
1114.11	0.929823
1117.01	0.253028
1119.9	1.85414
1122.79	5.44866
1125.68	2.72445
1128.58	3.49136
1131.47	0.134097
1134.36	0.531947
1137.25	2.20503
1140.15	3.94813
1143.04	1.27141
1145.93	5.3765
1148.82	2.68519
1151.72	0.470029
1154.61	4.36582
1157.5	1.87847
1160.39	5.17582
1163.29	4.45876
1166.18	4.73771
1169.07	7.80841
1171.97	4.90838
1174.86	4.2424
1177.75	7.44986
1180.64	4.7674
1183.54	5.13935
1186.43	3.89368
1189.32	3.94304
1192.21	7.5045
1195.11	6.76211
1198	5.96473
1200.89	4.76818
1203.79	4.14438
1206.68	5.6032
1209.57	2.99498
1212.46	4.88793
1215.36	3.84103
1218.25	1.69062
1221.14	1.18688
1224.04	1.19538
1226.93	0.148422
1229.82	1.20911
1232.71	0.231235
1235.61	1.42701
1238.5	1.41613
1241.39	0.342064
1244.28	1.81553
1247.18	3.98905
1250.07	4.39947
1252.96	2.99894
1255.85	0.563273
1258.75	2.38137
1261.64	1.77525
1264.53	4.16556
1267.42	3.0543
1270.32	1.73228
1273.21	0.908446
1276.1	0.268862
1279	1.02192
1281.89	1.81179
1284.78	1.52477
