Measurement: Raman, 780 nm, unoriented, Raman Data Processed
Mineral: Pectolite
Rruff sample: R070607
Ideal chemistry: NaCa_2_Si_3_O_8_(OH)
Locality: Poudrette quarry (Demix quarry; Uni-Mix quarry; Desourdy quarry), Mont Saint-Hilaire, Rouville County, Québec, Canada
Source: Michael Scott
Description: Colorless platy microcrystals associated with griceite, R070436
Measured chemistry: Na_1.00_(Ca_1.03_Mn_0.94_Fe^2+^_0.03_)_Σ=2_Si_3.00_O_8_(OH)
Raman shift (cm-1)	intensity
148.446	0
151.339	105.502
154.232	260.342
157.124	289.656
160.017	422.079
162.91	436.211
165.803	306.621
168.695	131.694
171.588	44.8993
174.481	9.77453
177.373	0.894047
180.266	2.90455
183.159	73.0998
186.051	196.105
188.944	341.673
191.837	467.905
194.73	580.464
197.622	651.826
200.515	578.518
203.408	516.607
206.3	509.054
209.193	476.309
212.086	437.687
214.978	479.263
217.871	427.559
220.764	392.841
223.656	304.596
226.549	191.416
229.442	114.877
232.335	78.5614
235.227	26.8312
238.12	27.9912
241.013	5.44003
243.905	5.89083
246.798	40.2723
249.691	48.1364
252.583	161.21
255.476	319.779
258.369	379.045
261.262	386.081
264.154	444.008
267.047	526.697
269.94	612.86
272.832	690.053
275.725	734.06
278.618	784.227
281.51	900.63
284.403	1052.61
287.296	1236.89
290.189	1280.57
293.081	1218.22
295.974	1048.62
298.867	852.444
301.759	753.689
304.652	686.987
307.545	529.019
310.438	436.43
313.33	461.292
316.223	434.736
319.116	513.594
322.008	630.24
324.901	584.534
327.794	422.594
330.686	210.381
333.579	53.928
336.472	82.106
339.365	57.3491
342.257	104.018
345.15	181.405
348.043	212.253
350.935	168.971
353.828	133.384
356.721	118.326
359.613	149.96
362.506	186.675
365.399	194.488
368.291	295.122
371.184	298.688
374.077	242.69
376.97	140.742
379.862	9.60444
382.755	41.2389
385.648	7.98238
388.54	7.23003
391.433	29.0225
394.326	53.2804
397.219	27.9534
400.111	45.0341
403.004	160.3
405.897	337.556
408.789	480.196
411.682	611.443
414.575	777.733
417.467	852.524
420.36	889.575
423.253	831.984
426.146	771.25
429.038	627.629
431.931	564.436
434.824	527.193
437.716	522.16
440.609	487.654
443.502	427.194
446.394	404.803
449.287	379.76
452.18	351.155
455.073	363.526
457.965	377.223
460.858	440.691
463.751	371.765
466.643	327.108
469.536	126.321
472.429	79.3083
475.322	21.4022
478.214	34.2909
481.107	40.0586
484	111.947
486.892	138.965
489.785	208.005
492.678	360.858
495.57	427.608
498.463	401.293
501.356	383.177
504.248	347.801
507.141	413.834
510.034	399.656
512.927	408.392
515.819	376.528
518.712	368.849
521.605	405.305
524.497	424.353
527.39	361.853
530.283	259.805
533.176	173.306
536.068	89.5106
538.961	45.9098
541.854	3.20727
544.746	5.94376
547.639	12.9989
550.532	4.57827
553.424	2.38168
556.317	18.6074
559.21	10.8927
562.102	17.3862
564.995	8.39868
567.888	1.75692
570.781	2.56361
573.673	5.53547
576.566	1.62985
579.459	8.76831
582.351	5.50157
585.244	5.67003
588.137	8.04568
591.029	12.6235
593.922	31.1556
596.815	29.0195
599.708	17.1482
602.6	12.5374
605.493	5.34246
608.386	42.0736
611.278	68.184
614.171	66.4215
617.064	81.3941
619.957	65.1114
622.849	126.709
625.742	171.628
628.635	229.538
631.527	338.818
634.42	498.506
637.313	705.107
640.205	994.228
643.098	1499.67
645.991	2339.76
648.884	3469.45
651.776	4760.35
654.669	6121.89
657.562	6593.02
660.454	5370.01
663.347	3374.65
666.24	1922.32
669.132	1068.67
672.025	706.583
674.918	437.618
677.811	297.381
680.703	286.983
683.596	278.647
686.489	313.578
689.381	449.595
692.274	623.372
695.167	752.981
698.059	761.452
700.952	640.603
703.845	466.596
706.737	354.855
709.63	327.394
712.523	284.281
715.416	158.312
718.308	89.6082
721.201	11.9643
724.094	15.2011
726.986	3.77981
729.879	3.82626
732.772	12.8099
735.664	11.1463
738.557	9.67403
741.45	0.44838
744.343	5.70515
747.235	10.1743
750.128	21.5091
753.021	25.4707
755.913	14.2168
758.806	14.5879
761.699	56.9592
764.591	46.4777
767.484	63.5775
770.377	41.4336
773.27	35.6859
776.162	42.0215
779.055	22.1037
781.948	8.60319
784.84	35.878
787.733	53.1928
790.626	36.172
793.519	48.5095
796.411	22.3124
799.304	29.4723
802.197	12.3993
805.089	19.4471
807.982	7.55281
810.875	57.2493
813.767	1.57306
816.66	34.8688
819.553	30.7663
822.446	8.50203
825.338	14.7742
828.231	40.3518
831.124	31.9262
834.016	8.78702
836.909	32.254
839.802	1.84894
842.694	25.121
845.587	32.5344
848.48	20.7884
851.373	32.6467
854.265	46.2271
857.158	38.7186
860.051	28.6126
862.943	4.02845
865.836	7.70292
868.729	3.06463
871.621	43.4012
874.514	8.23598
877.407	28.3268
880.3	30.8729
883.192	27.3508
886.085	42.6621
888.978	37.2788
891.87	55.4561
894.763	99.461
897.656	150.326
900.548	131.664
903.441	96.3044
906.334	121.407
909.227	107.35
912.119	95.5887
915.012	22.0284
917.905	10.4897
920.797	2.53428
923.69	1.08215
926.583	10.7733
929.476	10.9012
932.368	12.5106
935.261	8.17026
938.154	10.8051
941.046	45.2258
943.939	112.97
946.832	201.01
949.724	285.394
952.617	389.201
955.51	526.729
958.403	720.113
961.295	866.579
964.188	1076.97
967.081	1274.09
969.973	1508.21
972.866	1621.16
975.759	1665.16
978.651	1609.92
981.544	1577.58
984.437	1455.6
987.33	1410.57
990.222	1309.17
993.115	1157.64
996.008	1064.82
998.9	721.016
1001.79	647.965
1004.69	573.823
1007.58	572.854
1010.47	615.807
1013.36	678.024
1016.26	849.206
1019.15	1018.21
1022.04	1068.99
1024.93	1033.66
1027.83	873.673
1030.72	717.104
1033.61	556.114
1036.51	350.908
1039.4	223.707
1042.29	200.991
1045.18	116.769
1048.08	70.385
1050.97	32.5851
1053.86	15.5269
1056.75	7.70983
1059.65	2.88059
1062.54	4.12216
1065.43	16.967
1068.33	0.875841
1071.22	7.53801
1074.11	10.5053
1077	8.5269
1079.9	32.9616
1082.79	13.3202
1085.68	27.0256
1088.57	32.5618
1091.47	47.0286
1094.36	22.6195
1097.25	12.4108
1100.14	28.4372
1103.04	21.5394
1105.93	72.5887
1108.82	88.8206
1111.72	84.1718
1114.61	70.7805
1117.5	64.0915
1120.39	78.3716
1123.29	97.6261
1126.18	98.5709
1129.07	87.9406
1131.96	62.9636
1134.86	31.7177
1137.75	8.5412
1140.64	16.7327
1143.54	11.9855
1146.43	7.92921
1149.32	26.8153
1152.21	33.4153
1155.11	35.2741
1158	40.5911
1160.89	43.0607
1163.78	25.9936
1166.68	38.4443
1169.57	73.6184
1172.46	48.2021
1175.36	104.119
1178.25	68.9271
1181.14	52.6465
1184.03	61.9049
1186.93	60.6078
1189.82	96.5706
1192.71	62.777
1195.6	62.1366
1198.5	16.0299
1201.39	18.1964
1204.28	7.74857
1207.17	41.2167
1210.07	85.9281
1212.96	0.634129
1215.85	39.5688
1218.74	42.2041
1221.64	20.7111
1224.53	19.4211
1227.42	5.21785
1230.32	33.2086
1233.21	56.0861
1236.1	88.5208
1238.99	102.412
1241.89	121.461
1244.78	95.0417
1247.67	54.6364
1250.57	28.2295
1253.46	12.3283
1256.35	0
