Measurement: Raman, 532 nm, unoriented, Raman Data Processed
Mineral: Pellyite
Rruff sample: R150078
Ideal chemistry: Ba_2_CaFe^2+^_2_Si_6_O_17_
Locality: Gun Claim, Yukon Territory, Canada
Source: Gunnar Farber
Description: Colorless tabular or prismatic crystals with conchoidal fracture, associated with suzukiite (R150039), walstromite (R150079), and bavsiite.
Raman shift (cm-1)	intensity
102.8	0
106.175	0.077148
109.55	68.0487
112.925	77.8992
116.3	76.4188
119.674	54.2429
123.049	72.6411
126.424	92.2262
129.799	109.237
133.174	102.544
136.548	97.4069
139.923	161.453
143.298	206.074
146.673	248.032
150.048	221.257
153.423	173.863
156.797	148.05
160.172	135.291
163.547	124.246
166.922	77.4843
170.297	46.2244
173.672	29.2197
177.046	44.3566
180.421	48.8404
183.796	50.7419
187.171	34.5643
190.546	11.7944
193.92	8.13928
197.295	9.64587
200.67	2.37036
204.045	8.22021
207.42	1.80347
210.794	13.3036
214.169	43.72
217.544	93.92
220.919	148.781
224.294	229.391
227.669	328.415
231.043	439.165
234.418	555.991
237.793	607.879
241.168	538.659
244.543	405.1
247.917	270.799
251.292	190.424
254.667	134.399
258.042	113.496
261.417	104.108
264.792	91.2159
268.166	68.548
271.541	36.5015
274.916	15.4861
278.291	2.29175
281.666	5.57764
285.041	7.4762
288.415	2.3335
291.79	7.2179
295.165	6.18701
298.54	6.83838
301.915	7.35388
305.289	12.3989
308.664	11.7971
312.039	2.17835
315.414	6.79651
318.789	2.14832
322.163	28.7797
325.538	64.4612
328.913	78.413
332.288	66.4438
335.663	53.4305
339.038	52.1157
342.412	40.3064
345.787	40.0269
349.162	55.6471
352.537	99.2123
355.912	147.908
359.286	189.113
362.661	221.962
366.036	219.049
369.411	204.097
372.786	214.036
376.161	252.267
379.535	333.979
382.91	431.986
386.285	485.101
389.66	437.684
393.035	307.628
396.409	202.263
399.784	150.714
403.159	154.325
406.534	178.587
409.909	239.083
413.284	339.655
416.658	464.017
420.033	570.519
423.408	620.481
426.783	599.62
430.158	428.178
433.532	233.785
436.907	110.198
440.282	44.9753
443.657	14.7898
447.032	2.0581
450.406	6.40259
453.781	30.8543
457.156	47.3658
460.531	23.8395
463.906	1.98669
467.281	9.78662
470.655	4.79651
474.03	7.26672
477.405	10.8772
480.78	6.07605
484.155	5.61121
487.529	13.578
490.904	34.4462
494.279	62.1168
497.654	86.3961
501.029	106.858
504.404	118.967
507.778	120.796
511.153	128.726
514.528	128.114
517.903	114.106
521.278	99.504
524.653	81.636
528.027	65.9314
531.402	63.5043
534.777	89.2628
538.152	147.88
541.527	239.199
544.901	372.764
548.276	545.313
551.651	683.731
555.026	730.553
558.401	670.643
561.775	648.821
565.15	699.233
568.525	827.429
571.9	972.73
575.275	1078.6
578.649	1023.36
582.024	819.315
585.399	554.312
588.774	319.155
592.149	165.827
595.524	90.0647
598.898	53.7623
602.273	27.5654
605.648	18.8956
609.023	17.3816
612.398	9.44238
615.773	3.3241
619.147	2.67883
622.522	6.06653
625.897	8.64966
629.272	0.74646
632.647	6.97949
636.021	12.3697
639.396	16.344
642.771	15.8649
646.146	23.7162
649.521	33.1428
652.895	31.6056
656.27	14.2235
659.645	25.7206
663.02	34.2747
666.395	66.8511
669.77	121.465
673.144	196.221
676.519	293.155
679.894	425.94
683.269	421.598
686.644	219.072
690.019	97.5796
693.393	37.072
696.768	17.0959
700.143	1.8501
703.518	4.53735
706.893	3.95129
710.267	1.28613
713.642	5.29456
717.017	1.69214
720.392	3.66663
723.767	0.77063
727.141	9.88123
730.516	14.9304
733.891	23.402
737.266	21.9559
740.641	17.1952
744.016	10.9134
747.39	10.3567
750.765	16.9426
754.14	21.7328
757.515	38.3426
760.89	61.8732
764.264	99.0361
767.639	154.467
771.014	179.992
774.389	128.156
777.764	67.8833
781.139	36.5199
784.513	17.6819
787.888	11.6243
791.263	13.172
794.638	3.50098
798.013	3.06604
801.388	8.92127
804.762	22.0175
808.137	31.9797
811.512	37.2742
814.887	36.1375
818.261	17.917
821.636	20.8041
825.011	7.30176
828.386	8.61829
831.761	7.64502
835.136	12.2726
838.51	12.2339
841.885	27.5134
845.26	45.2621
848.635	69.6881
852.01	101.385
855.385	124.289
858.759	132.889
862.134	115.935
865.509	83.8082
868.884	51.1051
872.259	40.5612
875.633	33.7933
879.008	24.4504
882.383	26.7231
885.758	20.963
889.133	14.9039
892.508	19.4761
895.882	20.1567
899.257	8.54712
902.632	17.2506
906.007	12.2432
909.382	6.32373
912.756	7.88159
916.131	9.9729
919.506	7.07458
922.881	6.0946
926.256	1.32471
929.63	4.43347
933.005	6.96204
936.38	15.3025
939.755	13.1438
943.13	6.99365
946.505	0.814819
949.879	19.9182
953.254	45.3909
956.629	82.0012
960.004	122.695
963.379	158.773
966.754	164.724
970.128	154.358
973.503	179.786
976.878	261.865
980.253	395.054
983.628	614.618
987.002	783.16
990.377	595.14
993.752	302.316
997.127	191.722
1000.5	177.406
1003.88	229.233
1007.25	314.031
1010.63	405.786
1014	499.784
1017.38	542.024
1020.75	591.67
1024.12	651.579
1027.5	804.333
1030.88	1034.64
1034.25	1353.86
1037.62	1721.29
1041	1764.36
1044.37	1218.88
1047.75	652.589
1051.12	333.64
1054.5	188.657
1057.87	123.435
1061.25	109.202
1064.62	131.133
1068	200.003
1071.37	282.48
1074.75	324.135
1078.12	234.568
1081.5	115.508
1084.87	49.5652
1088.25	13.3176
1091.62	6.32251
1095	6.78979
1098.37	9.60718
1101.75	6.94897
1105.12	8.94678
1108.5	1.1062
1111.87	16.219
1115.24	18.6352
1118.62	21.0735
1121.99	5.37622
1125.37	1.39624
1128.74	1.08106
1132.12	10.7561
1135.49	5.56226
1138.87	6.34912
1142.24	13.0771
1145.62	17.3025
1148.99	22.8989
1152.37	33.3621
1155.74	41.665
1159.12	42
1162.49	31.1502
1165.87	34.3628
1169.24	24.0706
1172.62	23.4211
1175.99	28.6008
1179.37	25.6489
1182.74	22.5911
1186.12	18.8899
1189.49	10.044
1192.87	11.7793
1196.24	11.1511
1199.62	3.14868
1202.99	0.006592
1206.37	6.73706
1209.74	7.2041
1213.12	12.1199
1216.49	4.36035
1219.87	11.0615
1223.24	14.2398
1226.61	5.2063
1229.99	13.8447
1233.36	16.1685
1236.74	18.7417
1240.11	18.1384
1243.49	27.603
1246.86	29.8726
1250.24	26.9416
1253.61	26.4334
1256.99	25.6909
1260.36	26.8606
1263.74	21.6287
1267.11	18.6611
1270.49	20.3696
1273.86	21.5366
1277.24	32.9512
1280.61	15.8076
1283.99	9.46924
1287.36	5.80444
1290.74	2.01856
1294.11	5.35767
1297.49	7.57495
1300.86	1.65283
