Measurement: Raman, 780 nm, unoriented, Raman Data Processed
Mineral: Penfieldite
Rruff sample: R050163
Ideal chemistry: Pb_2_Cl_3_(OH)
Locality: Margarita mine, Sierra Gorda, Antofagasta, Chile
Source: Jim McGlasson
Description: Colorless pyramidal crystals, associated with blue pseudobol√©ite, R050162
Raman shift (cm-1)	intensity
147.946	0
150.839	0.889831
153.731	1.07471
156.624	2.38153
159.517	12.1294
162.41	33.3102
165.302	52.6165
168.195	46.4534
171.088	22.5055
173.98	6.49573
176.873	1.66217
179.766	9.43198
182.658	20.5289
185.551	34.0091
188.444	44.9185
191.337	52.6456
194.229	61.1634
197.122	67.1
200.015	67.612
202.907	61.8916
205.8	49.696
208.693	33.3947
211.585	20.0715
214.478	9.76395
217.371	7.95569
220.263	9.22647
223.156	15.862
226.049	21.9187
228.942	22.0701
231.834	16.1676
234.727	8.03302
237.62	0.20343
240.512	3.14464
243.405	3.87973
246.298	1.66067
249.19	3.66214
252.083	8.19881
254.976	16.3229
257.869	26.659
260.761	38.8513
263.654	53.3411
266.547	70.4476
269.439	88.293
272.332	105.222
275.225	120.388
278.118	134.883
281.01	143.522
283.903	150.748
286.796	148.817
289.688	141.154
292.581	134.09
295.474	125.414
298.366	120.213
301.259	115.448
304.152	110.418
307.045	103.879
309.937	95.3127
312.83	82.5872
315.723	70.3553
318.615	61.1998
321.508	54.0469
324.401	47.9776
327.293	44.2985
330.186	39.34
333.079	34.8764
335.971	29.3211
338.864	25.5481
341.757	22.3494
344.649	17.5877
347.542	14.5969
350.435	14.0824
353.328	8.64954
356.22	6.40948
359.113	5.45255
362.006	3.61419
364.898	2.65035
367.791	1.21174
370.684	1.01215
373.577	0.508202
376.469	0.656099
379.362	0.094969
382.255	0.411158
385.147	0.266731
388.04	0.281464
390.933	0.584885
393.825	0.736958
396.718	0.49217
399.611	0.758718
402.503	0.707092
405.396	0.289248
408.289	0.030144
411.182	0.449045
414.074	0.364319
416.967	0.881548
419.86	1.15459
422.752	2.235
425.645	2.61532
428.538	3.25009
431.43	4.20692
434.323	5.05265
437.216	5.30349
440.109	4.80722
443.001	3.92386
445.894	3.39979
448.787	2.99264
451.679	1.99612
454.572	0.932842
457.465	0.764545
460.358	0.33983
463.25	0.178772
466.143	0.163759
469.036	0.11961
471.928	0.12359
474.821	0.11128
477.714	0.169116
480.606	0.347971
483.499	0.330273
486.392	0.426988
489.284	0.050115
492.177	0.499062
495.07	0.522051
497.963	0.226356
500.855	0.393311
503.748	0.130309
506.641	0.15409
509.533	0.315182
512.426	0.441552
515.319	0.328063
518.212	0.465752
521.104	0.360598
523.997	0.307315
526.89	0.491118
529.782	0.269728
532.675	0.69996
535.568	0.031669
538.46	0.183871
541.353	0.224178
544.246	0.095964
547.139	0.234033
550.031	0.019378
552.924	0.422283
555.817	0.162575
558.709	0.145557
561.602	0.035414
564.495	0.245146
567.388	0.157495
570.28	0.494317
573.173	0.396454
576.066	0.337298
578.958	0.454897
581.851	1.28206
584.744	1.04914
587.636	1.48139
590.529	1.98758
593.422	2.41228
596.314	2.98765
599.207	3.55701
602.1	4.11601
604.992	4.73669
607.885	5.33614
610.778	5.41597
613.671	5.93983
616.563	6.71115
619.456	6.67486
622.349	7.13163
625.241	6.38206
628.134	6.00255
631.027	5.81223
633.919	5.05882
636.812	4.54199
639.705	4.14266
642.598	3.8561
645.49	3.32758
648.383	2.78806
651.276	2.57204
654.168	1.99488
657.061	2.21312
659.954	2.1714
662.846	1.84396
665.739	1.6388
668.632	1.64836
671.525	1.45695
674.417	0.699732
677.31	0.213259
680.203	0.74371
683.095	0.473071
685.988	0.080117
688.881	0.231322
691.774	0.09948
694.666	0.039483
697.559	0.193993
700.452	0.093277
703.344	0.250875
706.237	0.178529
709.13	0.204692
712.022	0.202601
714.915	0.917953
717.808	0.892807
720.701	1.42267
723.593	1.88117
726.486	2.20615
729.379	2.69205
732.271	3.55186
735.164	4.05703
738.057	5.15258
740.949	5.66765
743.842	6.25276
746.735	7.58406
749.628	8.71589
752.52	9.34401
755.413	10.7198
758.306	11.3305
761.198	12.4283
764.091	12.814
766.984	13.1661
769.876	13.0517
772.769	12.8191
775.662	11.999
778.554	11.346
781.447	10.5933
784.34	8.88343
787.233	7.95926
790.125	7.06601
793.018	5.62084
795.911	5.21124
798.803	4.37608
801.696	3.36944
804.589	2.73182
807.481	2.32826
810.374	1.90617
813.267	1.2551
816.16	1.0904
819.052	1.08302
821.945	0.455789
824.838	0.538247
827.73	0.194011
830.623	0.043416
833.516	0.300248
836.409	0.091375
839.301	0.092981
842.194	0.032953
845.087	0.160775
847.979	0.183905
850.872	0.06465
853.765	0.004405
856.657	0.015736
859.55	0.14386
862.443	0.019236
865.336	0.234657
868.228	0.005582
871.121	0.288212
874.014	0.019161
876.906	0.222646
879.799	0.234721
882.692	0.301064
885.584	0.337024
888.477	0.185017
891.37	0.182751
894.263	0.275549
897.155	0.374985
900.048	0.348005
902.941	0.004043
905.833	0.050138
908.726	0.162856
911.619	0.341174
914.511	0.327394
917.404	0.082642
920.297	0.100547
923.189	0.028284
926.082	0.354153
928.975	0.018373
931.868	0.324057
934.76	0.298409
937.653	0.013365
940.546	0.289191
943.438	0.34302
946.331	0.154062
949.224	0.408178
952.116	0.724319
955.009	1.10005
957.902	1.59597
960.795	2.66347
963.687	4.76231
966.58	7.72658
969.473	9.88383
972.365	12.3593
975.258	12.3311
978.151	10.8821
981.043	7.46025
983.936	4.78758
986.829	2.76349
989.722	2.03107
992.614	1.31767
995.507	1.16542
998.4	0.97205
1001.29	1.21906
1004.18	1.71202
1007.08	3.31092
1009.97	3.09318
1012.86	0.908549
1015.76	0.130952
1018.65	0.22553
1021.54	0.171937
1024.43	0.010688
1027.33	0.01892
1030.22	0.188084
1033.11	0.010389
1036.01	0.178022
1038.9	0.379449
1041.79	0.14619
1044.68	0.365248
1047.58	0.42987
1050.47	0.876949
1053.36	0.74922
1056.25	0.541526
1059.15	0.861694
1062.04	0.643487
1064.93	0.486475
1067.82	0.254828
1070.72	0.182699
1073.61	0.234065
1076.5	0.194839
1079.39	0.231953
1082.29	0.148699
1085.18	0.126155
1088.07	0.219233
1090.97	0.023846
1093.86	0.185159
1096.75	0.186809
1099.64	0.136839
1102.54	0.086111
1105.43	0.176067
1108.32	0.090783
1111.21	0.466281
1114.11	0.080574
1117	0.037923
1119.89	0.197264
1122.79	0.393395
1125.68	0.542619
1128.57	0.609351
1131.46	0.778588
1134.36	0.990313
1137.25	0.82901
1140.14	0.370782
1143.04	0.945735
1145.93	0.925905
1148.82	0.739405
1151.71	0.71524
1154.61	0.723843
1157.5	0.700866
1160.39	0.451687
1163.28	0.454215
1166.18	0.384878
1169.07	0.129918
1171.96	0.170021
1174.85	0.270319
1177.75	0.027881
1180.64	0.002724
1183.53	0.236643
1186.42	0.00174
1189.32	0.056844
1192.21	0.309269
1195.1	0.092775
1198	0.222327
1200.89	0.786196
1203.78	0.891778
1206.67	0.825674
1209.57	1.172
1212.46	1.40014
1215.35	1.9852
1218.24	2.12818
1221.14	2.21787
1224.03	2.63479
1226.92	2.82925
1229.82	3.13485
1232.71	3.17713
1235.6	2.97313
1238.49	2.46203
1241.39	2.64227
1244.28	1.92573
1247.17	1.76895
1250.07	1.30405
1252.96	1.48854
1255.85	0.985408
1258.74	0.497639
1261.63	0.432179
1264.53	0.683262
1267.42	0.536902
1270.31	0.0950243
1273.21	0.116656
1276.1	0.172606
1278.99	0.268045
1281.88	0.187643
1284.78	0.126856
