Measurement: Raman, 532 nm, unoriented, Raman Data Processed
Mineral: Penfieldite
Rruff sample: R050163
Ideal chemistry: Pb_2_Cl_3_(OH)
Locality: Margarita mine, Sierra Gorda, Antofagasta, Chile
Source: Jim McGlasson
Description: Colorless pyramidal crystals, associated with blue pseudobol√©ite, R050162
Raman shift (cm-1)	intensity
149.19	0
152.082	5.88171
154.975	31.5881
157.868	54.8164
160.76	116.141
163.653	213.893
166.546	289.239
169.438	252.084
172.331	145.052
175.224	63.8677
178.117	22.3149
181.009	19.1716
183.902	29.0618
186.795	42.9611
189.687	47.6678
192.58	52.7503
195.473	54.591
198.365	61.2437
201.258	63.3
204.151	49.8307
207.043	32.7852
209.936	13.2183
212.829	2.52869
215.722	2.47138
218.614	0.81189
221.507	15.0742
224.4	37.7996
227.292	63.1121
230.185	67.8012
233.078	52.3791
235.97	26.2052
238.863	5.01334
241.756	6.93756
244.649	8.23676
247.541	5.03235
250.434	3.42981
253.327	15.572
256.219	32.9397
259.112	54.6732
262.005	81.7064
264.897	116.327
267.79	156.18
270.683	201.372
273.576	248.341
276.468	295.964
279.361	339.457
282.254	369.977
285.146	386.884
288.039	383.945
290.932	361.038
293.825	333.764
296.717	315.399
299.61	302.3
302.503	292.358
305.395	284.572
308.288	272.483
311.181	244.677
314.073	209.5
316.966	172.806
319.859	146.711
322.752	126.688
325.644	113.115
328.537	102.224
331.43	90.0095
334.322	79.1631
337.215	69.1407
340.108	60.3267
343	51.7032
345.893	43.0244
348.786	34.2245
351.678	26.8974
354.571	19.9158
357.464	14.9028
360.356	11.2071
363.249	8.9128
366.142	5.9543
369.035	4.26322
371.927	3.12231
374.82	1.58459
377.713	0.633224
380.605	0.384445
383.498	0.82267
386.391	1.12654
389.284	0.427605
392.176	1.52303
395.069	0.808762
397.962	0.895088
400.854	0.711681
403.747	0.426208
406.64	0.473873
409.532	0.376801
412.425	0.553822
415.318	0.835358
418.211	0.906643
421.103	1.01744
423.996	2.01652
426.889	3.0605
429.781	4.07077
432.674	6.13056
435.567	9.74097
438.459	12.8021
441.352	9.81656
444.245	7.07137
447.137	7.54695
450.03	8.78314
452.923	6.90901
455.816	2.74024
458.708	1.57488
461.601	1.26675
464.494	1.58057
467.386	0.767231
470.279	1.0633
473.172	1.07459
476.065	0.067432
478.957	0.356632
481.85	0.44664
484.743	0.248806
487.635	1.20544
490.528	0.347672
493.421	0.695419
496.313	0.541157
499.206	0.227921
502.099	0.488251
504.991	0.052471
507.884	0.21954
510.777	0.497284
513.67	0.656029
516.562	0.562222
519.455	0.109234
522.348	0.496838
525.24	1.59847
528.133	1.1035
531.026	1.19757
533.918	1.21164
536.811	1.20182
539.704	0.690273
542.597	1.34019
545.489	0.68866
548.382	0.64822
551.275	0.867386
554.167	0.640835
557.06	0.445946
559.953	0.201023
562.846	0.518143
565.738	0.242908
568.631	0.572937
571.524	0.771603
574.416	0.013779
577.309	0.607586
580.202	0.655998
583.094	1.54258
585.987	0.919971
588.88	2.06194
591.773	3.09972
594.665	3.91587
597.558	4.9397
600.451	7.54334
603.343	8.65609
606.236	10.6444
609.129	11.7357
612.021	12.8418
614.914	13.7853
617.807	14.3007
620.699	15.7806
623.592	15.9442
626.485	15.6556
629.378	14.6575
632.27	13.4733
635.163	13.312
638.056	11.3
640.948	10.3376
643.841	8.8787
646.734	7.9881
649.626	7.04148
652.519	6.88547
655.412	6.13982
658.305	5.6354
661.197	5.99158
664.09	5.09654
666.983	4.28101
669.875	3.94986
672.768	3.32249
675.661	2.09697
678.553	1.2809
681.446	0.147167
684.339	0.024887
687.232	0.19231
690.124	0.499065
693.017	0.138474
695.91	0.531399
698.802	0.297264
701.695	0.548248
704.588	0.041088
707.481	0.258003
710.373	0.905628
713.266	1.88
716.159	1.69491
719.051	2.36801
721.944	4.14499
724.837	5.68242
727.729	7.23061
730.622	8.56591
733.515	10.5224
736.408	12.4889
739.3	15.4416
742.193	17.7035
745.086	21.3924
747.978	24.3605
750.871	28.2521
753.764	31.5702
756.656	34.8132
759.549	39.306
762.442	42.4938
765.335	44.3918
768.227	46.2832
771.12	47.6245
774.013	47.1137
776.905	44.7612
779.798	41.4377
782.691	37.7454
785.583	32.848
788.476	29.9068
791.369	25.9464
794.261	23.2601
797.154	19.0988
800.047	15.9768
802.939	13.8112
805.832	11.3665
808.725	10.1542
811.618	7.82503
814.51	6.25131
817.403	5.51213
820.296	3.68507
823.188	3.0836
826.081	2.39729
828.974	1.23607
831.866	1.15803
834.759	0.92828
837.652	0.465374
840.545	0.387962
843.437	0.074989
846.33	0.405666
849.223	0.054379
852.115	0.126396
855.008	0.278671
857.901	0.002533
860.793	0.138027
863.686	0.364876
866.579	0.555531
869.472	0.413803
872.364	0.546566
875.257	0.135838
878.15	0.409328
881.042	0.749714
883.935	0.488522
886.828	0.822166
889.721	0.389393
892.613	1.04324
895.506	0.70742
898.399	0.951824
901.291	0.694988
904.184	1.10781
907.077	1.33396
909.969	0.853367
912.862	0.817814
915.755	0.788998
918.648	0.5606
921.54	0.348083
924.433	0.46183
927.326	0.365891
930.218	0.246048
933.111	0.286964
936.004	0.459908
938.896	0.093109
941.789	0.127728
944.682	0.228054
947.574	0.489182
950.467	0.551598
953.36	0.424274
956.253	1.16558
959.145	2.47975
962.038	4.44285
964.931	8.31716
967.823	13.4507
970.716	19.6392
973.609	29.1728
976.501	40.6861
979.394	41.9198
982.287	28.2375
985.18	16.24
988.072	9.77044
990.965	5.78107
993.858	3.45074
996.75	2.70892
999.643	2.58406
1002.54	2.65316
1005.43	3.22506
1008.32	4.76528
1011.21	3.48939
1014.11	1.04634
1017	0.130718
1019.89	0.45261
1022.78	0.216446
1025.68	0.27578
1028.57	0.177158
1031.46	0.043228
1034.36	0.456745
1037.25	0.165241
1040.14	0.204983
1043.03	0.552143
1045.93	1.02297
1048.82	1.24602
1051.71	1.64212
1054.6	1.77605
1057.5	1.97069
1060.39	1.72647
1063.28	1.91364
1066.17	1.23276
1069.07	0.617622
1071.96	0.851948
1074.85	0.362194
1077.75	0.877087
1080.64	0.203873
1083.53	0.167984
1086.42	0.434734
1089.32	0.08625
1092.21	0.102058
1095.1	0.629932
1097.99	0.172333
1100.89	0.371105
1103.78	0.813488
1106.67	0.123581
1109.57	0.371197
1112.46	0.249233
1115.35	0.334881
1118.24	0.113491
1121.14	0.61554
1124.03	0.580654
1126.92	0.562477
1129.82	1.11789
1132.71	1.80835
1135.6	1.36599
1138.49	1.4445
1141.38	0.998787
1144.28	1.65953
1147.17	1.46521
1150.06	1.78018
1152.96	1.60928
1155.85	2.21416
1158.74	2.41982
1161.63	1.65348
1164.53	0.867744
1167.42	1.14079
1170.31	0.914852
1173.2	0.711422
1176.1	0.812099
1178.99	0.332001
1181.88	0.361526
1184.78	0.742405
1187.67	0.854393
1190.56	0.821777
1193.45	0.94627
1196.35	0.385235
1199.24	0.153187
1202.13	0.158993
1205.03	0.315662
1207.92	0.855072
1210.81	0.708157
1213.7	0.793999
1216.6	0.515808
1219.49	0.80336
1222.38	0.477451
1225.27	0.680756
1228.17	0.177467
1231.06	0.406727
1233.95	0.315155
1236.84	0.300488
1239.74	0.534672
1242.63	0.253166
1245.52	0.077141
1248.41	0.267307
1251.31	0.218376
1254.2	0.354202
1257.09	0.824654
1259.99	0.264732
1262.88	0.59996
1265.77	1.03995
1268.66	0.609272
1271.56	0.500767
1274.45	0.473679
1277.34	0.243694
1280.23	0.681801
1283.13	0.432796
1286.02	0.445473
1288.91	0.622677
1291.81	0.442337
1294.7	0.089264
1297.59	0.64925
1300.48	0.000576
1303.38	0.732609
