Measurement: Raman, 532 nm, unoriented, Raman Data Processed
Mineral: Penikisite
Rruff sample: R060270
Ideal chemistry: BaMg_2_Al_2_(PO_4_)_3_(OH)_3_
Locality: 16 miles north of Hess River, Yukon Territory, Canada
Source: Michael Scott
Description: Pale bluish green massive associated with quartz
Measured chemistry: Ba_1.00_(Mg_1.90_Mn_0.05_Sr_0.02_[box]_0.02_Ca_0.01_)_Σ=2_(Al_1.97_Ti_0.03_)_Σ=2_(P_1.00_O_4_)_3_(OH)_3_ ; H not measured but estimated by difference and charge balance
Raman shift (cm-1)	intensity
168.113	0
171.006	12.5533
173.898	9.58624
176.791	3.15686
179.684	23.0614
182.577	43.8292
185.469	56.111
188.362	49.6013
191.255	45.0834
194.147	43.9967
197.04	55.0358
199.933	77.6608
202.825	109.069
205.718	138.945
208.611	173.611
211.504	244.912
214.396	223.65
217.289	195.056
220.182	251.407
223.074	254.805
225.967	106.894
228.86	50.4589
231.752	23.9733
234.645	10.4177
237.538	4.99451
240.43	1.49243
243.323	9.18652
246.216	16.0206
249.109	24.5222
252.001	39.7797
254.894	60.8462
257.787	78.8546
260.679	32.1759
263.572	12.2434
266.465	2.51025
269.358	5.65112
272.25	8.03967
275.143	2.4198
278.036	13.1378
280.928	28.28
283.821	20.5267
286.714	21.0553
289.606	36.4731
292.499	50.6001
295.392	71.1357
298.284	56.7277
301.177	33.2322
304.07	10.6956
306.963	11.5994
309.855	9.7478
312.748	26.3124
315.641	32.9558
318.533	28.6193
321.426	30.6724
324.319	46.5496
327.212	80.4269
330.104	75.2251
332.997	75.7059
335.89	75.5181
338.782	86.0002
341.675	76.546
344.568	67.5148
347.46	50.401
350.353	63.1217
353.246	61.5082
356.139	52.6956
359.031	36.2321
361.924	17.301
364.817	14.5912
367.709	16.1003
370.602	20.5242
373.495	10.2854
376.387	2.67883
379.28	2.79663
382.173	1.92615
385.065	0.237793
387.958	6.5946
390.851	0.552734
393.744	1.52185
396.636	1.36743
399.529	9.81262
402.422	12.1123
405.314	25.6434
408.207	33.0658
411.1	28.214
413.993	30.1011
416.885	34.8517
419.778	48.3894
422.671	66.6269
425.563	76.2463
428.456	79.5376
431.349	69.9297
434.241	53.331
437.134	78.0543
440.027	88.8937
442.92	126.682
445.812	166.78
448.705	221.816
451.598	268.433
454.49	303.463
457.383	338.739
460.276	326.179
463.168	240.735
466.061	170.55
468.954	121.096
471.846	77.1693
474.739	44.1215
477.632	22.1595
480.525	17.0601
483.417	13.7118
486.31	20.9546
489.203	28.2834
492.095	31.7979
494.988	37.8204
497.881	59.9828
500.774	68.4675
503.666	75.2545
506.559	44.8422
509.452	18.2194
512.344	11.7826
515.237	17.4688
518.13	21.0026
521.022	27.8026
523.915	40.4296
526.808	45.2705
529.701	38.6842
532.593	17.8965
535.486	22.1255
538.379	0.208374
541.271	7.31274
544.164	9.58386
547.057	2.91785
549.949	6.96484
552.842	27.2058
555.735	49.1611
558.628	91.5237
561.52	143.64
564.413	144.035
567.306	120.895
570.198	142.957
573.091	185.012
575.984	217.211
578.876	174.631
581.769	126.004
584.662	107.965
587.554	121.319
590.447	154.48
593.34	186.232
596.232	159.795
599.125	60.3544
602.018	10.5729
604.911	2.99768
607.803	0.005371
610.696	25.852
613.589	42.1774
616.481	57.363
619.374	97.8206
622.267	149.85
625.159	192.112
628.052	180.653
630.945	138.724
633.838	96.2316
636.73	68.847
639.623	30.0049
642.516	11.3307
645.408	6.7301
648.301	1.44336
651.194	1.07593
654.087	8.18396
656.979	0.348999
659.872	4.54663
662.765	7.91577
665.657	21.0443
668.55	12.5016
671.443	24.6177
674.335	24.4578
677.228	17.5382
680.121	10.7435
683.014	8.04944
685.906	2.05042
688.799	1.23657
691.692	2.06506
694.584	1.83252
697.477	4.68689
700.37	8.24817
703.263	2.18091
706.155	0.009399
709.048	5.59705
711.941	3.53076
714.833	5.41174
717.726	0.841187
720.619	8.59717
723.511	1.08179
726.404	5.69751
729.297	6.85693
732.189	8.23401
735.082	6.70874
737.975	4.53186
740.868	5.08569
743.76	7.0929
746.653	7.2428
749.546	12.0096
752.438	14.7985
755.331	9.89197
758.224	2.77795
761.116	16.8182
764.009	5.93835
766.902	6.19788
769.795	9.71326
772.687	2.23645
775.58	9.45361
778.473	9.70984
781.365	9.72815
784.258	11.5483
787.151	10.6809
790.043	7.27136
792.936	1.80078
795.829	9.41016
798.722	3.58874
801.614	8.79663
804.507	1.43018
807.4	3.07507
810.292	2.66504
813.185	1.62695
816.078	14.1519
818.971	9.24011
821.863	8.78601
824.756	7.41321
827.649	5.97009
830.541	22.3563
833.434	18.3381
836.327	17.3662
839.219	20.3651
842.112	22.788
845.005	15.9658
847.898	11.8033
850.79	13.6362
853.683	17.0844
856.576	14.9072
859.468	10.0725
862.361	7.83179
865.254	13.7355
868.146	3.96362
871.039	4.41235
873.932	4.06946
876.824	4.78967
879.717	1.40295
882.61	4.60669
885.503	1.45703
888.395	2.37915
891.288	6.90649
894.181	3.7771
897.073	4.60388
899.966	4.06177
902.859	4.1936
905.751	0.522827
908.644	3.69775
911.537	0.469604
914.43	7.77856
917.322	3.30261
920.215	11.3057
923.108	14.5392
926	18.8405
928.893	50.7159
931.786	54.1338
934.678	76.0082
937.571	78.4814
940.464	71.3154
943.357	42.6407
946.249	28.884
949.142	25.1682
952.035	28.39
954.927	35.9324
957.82	58.3237
960.713	84.7956
963.606	125.714
966.498	140.622
969.391	95.46
972.284	30.1672
975.176	8.83545
978.069	7.16186
980.962	4.20996
983.854	0.210205
986.747	15.2107
989.64	15.6885
992.533	20.446
995.425	26.5315
998.318	47.375
1001.21	93.9312
1004.1	145.694
1007	172.834
1009.89	245.943
1012.78	413.163
1015.67	556.631
1018.57	520.751
1021.46	586.566
1024.35	769.93
1027.24	1098.09
1030.14	1309.43
1033.03	921.071
1035.92	425.748
1038.82	199.231
1041.71	104.199
1044.6	77.4053
1047.49	61.3306
1050.39	54.5984
1053.28	51.5488
1056.17	36.1272
1059.07	20.1738
1061.96	34.7659
1064.85	47.696
1067.74	28.1558
1070.63	6.146
1073.53	3.03442
1076.42	4.771
1079.31	5.26856
1082.21	5.46094
1085.1	4.06909
1087.99	2.2478
1090.88	6.84106
1093.78	7.97461
1096.67	22.7273
1099.56	21.2344
1102.45	25.8801
1105.35	22.4221
1108.24	12.5479
1111.13	20.1602
1114.03	33.9141
1116.92	65.9624
1119.81	113.895
1122.7	204.077
1125.6	290.087
1128.49	258.859
1131.38	198.925
1134.28	136.525
1137.17	76.4365
1140.06	50.1245
1142.95	41.9815
1145.85	45.0955
1148.74	37.352
1151.63	49.794
1154.52	48.8901
1157.42	43.8274
1160.31	31.3701
1163.2	40.1731
1166.09	30.0193
1168.99	28.3843
1171.88	20.2285
1174.77	12.7998
1177.66	17.1665
1180.56	2.60547
1183.45	9.62842
1186.34	10.4502
1189.24	7.32373
1192.13	0.231201
1195.02	16.4287
1197.91	5.18921
1200.81	8.30273
1203.7	7.31201
1206.59	6.07446
1209.48	9.98657
1212.38	21.5056
1215.27	14.5505
1218.16	0.387695
1221.06	10.4499
1223.95	5.21509
1226.84	3.18677
1229.73	9.9397
1232.63	9.05786
1235.52	16.1907
1238.41	12.0891
1241.31	13.2405
1244.2	15.7317
1247.09	13.7278
1249.98	23.0032
1252.88	32.2832
1255.77	17.5947
1258.66	17.0476
1261.55	27.1709
1264.45	12.4565
1267.34	20.4163
1270.23	29.0432
1273.12	26.417
1276.02	11.0605
1278.91	6.95459
1281.8	16.3481
1284.69	10.3081
1287.59	0.998291
1290.48	3.35327
1293.37	11.8501
1296.27	2.5647
1299.16	15.9617
1302.05	8.76294
