Measurement: Raman, 532 nm, unoriented, Raman Data Processed
Mineral: Penikisite
Rruff sample: R060160
Ideal chemistry: BaMg_2_Al_2_(PO_4_)_3_(OH)_3_
Locality: 16 miles north of the Hess River, Mayo Mining District, Yukon Territory, Canada
Source: Mark Mauthner
Description: Aggregate of green crystals in quartz associated with purple gorceixite, R060158. Crystal used in the Bowman et al (2013) study.
Measured chemistry: Ba_1.00_(Mg_1.97_Mn_0.03_)_Î£=2_Al_2.00_(P_1.00_O_4_)_3_(OH)_3_
Raman shift (cm-1)	intensity
147.154	0
150.046	0.324066
152.939	3.61197
155.832	5.80783
158.724	15.9124
161.617	35.8269
164.51	28.5984
167.403	14.4529
170.295	17.6117
173.188	13.5839
176.081	3.81105
178.973	3.2686
181.866	11.4785
184.759	9.31258
187.651	0.890854
190.544	0.11618
193.437	4.64716
196.329	10.8842
199.222	21.4187
202.115	42.9206
205.008	56.828
207.9	79.4374
210.793	94.9166
213.686	87.1146
216.578	105.034
219.471	124.146
222.364	65.9525
225.256	23.8756
228.149	6.3952
231.042	1.68431
233.935	1.65595
236.827	0.661804
239.72	6.35727
242.613	10.8729
245.505	17.4538
248.398	25.1398
251.291	39.2037
254.184	56.7755
257.076	45.5159
259.969	17.0352
262.862	5.12111
265.754	0.209702
268.647	1.66489
271.54	5.38825
274.433	10.3833
277.325	14.5093
280.218	14.9365
283.111	13.6146
286.003	13.8417
288.896	19.4775
291.789	23.4618
294.681	22.0321
297.574	14.2851
300.467	8.16536
303.36	7.9389
306.252	13.0836
309.145	20.6842
312.038	31.9582
314.93	36.6106
317.823	44.2134
320.716	57.7559
323.608	80.1404
326.501	97.7872
329.394	86.8223
332.287	63.4997
335.179	55.0209
338.072	45.13
340.965	33.2207
343.857	28.4162
346.75	31.0359
349.643	34.1964
352.536	29.2704
355.428	18.2907
358.321	8.68584
361.214	5.50011
364.106	3.71091
366.999	5.11043
369.892	4.76939
372.784	3.83534
375.677	1.23421
378.57	0.622314
381.462	2.34311
384.355	2.86635
387.248	2.33606
390.141	0.846069
393.033	1.58931
395.926	4.9724
398.819	8.85252
401.712	13.0441
404.604	15.4994
407.497	16.6178
410.39	14.6773
413.282	18.6914
416.175	25.733
419.068	33.6036
421.96	43.4488
424.853	48.9764
427.746	43.5975
430.639	34.2281
433.531	30.5617
436.424	35.2973
439.317	47.9949
442.209	70.1498
445.102	90.9474
447.995	114.977
450.887	140.257
453.78	165.464
456.673	171.056
459.566	154.249
462.458	122.987
465.351	107.214
468.244	84.6679
471.136	51.8742
474.029	31.6546
476.922	21.4063
479.815	16.8513
482.707	18.9132
485.6	22.9809
488.493	28.0697
491.385	30.1416
494.278	34.2673
497.171	35.7129
500.063	35.6326
502.956	23.0777
505.849	7.59668
508.741	1.58695
511.634	0.409668
514.527	2.69128
517.42	5.65091
520.312	10.6396
523.205	12.2486
526.098	8.55273
528.99	6.91248
531.883	0.313721
534.776	3.17871
537.669	3.55255
540.561	2.22784
543.454	2.07523
546.347	10.6859
549.239	22.2599
552.132	33.5536
555.025	55.3397
557.918	78.8546
560.81	93.5052
563.703	73.4499
566.596	57.5746
569.488	61.6467
572.381	69.3904
575.274	70.5188
578.166	59.0424
581.059	47.5549
583.952	49.9985
586.845	61.6168
589.737	79.8582
592.63	84.2463
595.523	44.6881
598.415	9.60324
601.308	0.18808
604.201	0.503876
607.093	5.5513
609.986	14.7675
612.879	25.5336
615.771	40.6273
618.664	62.2337
621.557	83.6716
624.45	91.4093
627.342	71.1356
630.235	53.9932
633.128	40.8729
636.02	24.3098
638.913	11.8142
641.806	5.55069
644.699	3.44367
647.591	3.44409
650.484	2.93973
653.377	4.31131
656.269	6.12772
659.162	9.76352
662.055	14.4276
664.947	17.165
667.84	18.6255
670.733	21.6433
673.626	20.1216
676.518	14.8366
679.411	7.35776
682.304	3.47568
685.197	1.66757
688.089	0.156372
690.982	0.375641
693.875	2.91382
696.767	2.6579
699.66	1.7276
702.553	0.15802
705.445	0.121674
708.338	0.87619
711.231	2.37042
714.124	2.81299
717.016	1.78613
719.909	2.13583
722.802	0.845917
725.694	4.65485
728.587	1.15039
731.48	2.8512
734.372	3.12979
737.265	5.96713
740.158	5.1156
743.051	6.96301
745.943	4.96796
748.836	5.74173
751.729	4.44812
754.621	4.04361
757.514	3.40248
760.407	3.0644
763.299	2.5002
766.192	0.878845
769.085	1.90796
771.977	1.51318
774.87	1.40677
777.763	0.385437
780.656	1.75128
783.548	2.65866
786.441	4.40497
789.334	3.07666
792.226	2.35217
795.119	4.96054
798.012	4.90494
800.905	5.86874
803.797	6.69818
806.69	8.03082
809.583	11.2035
812.475	12.8889
815.368	15.739
818.261	19.5243
821.154	25.4343
824.046	34.1857
826.939	42.6593
829.832	53.3138
832.724	59.5309
835.617	63.0514
838.51	59.5411
841.403	54.9702
844.295	41.7465
847.188	29.4442
850.081	24.5049
852.973	16.826
855.866	14.5778
858.759	11.364
861.651	6.92255
864.544	7.29993
867.437	3.31464
870.33	4.8233
873.222	1.11633
876.115	0.831665
879.008	0.976868
881.9	0.508728
884.793	1.16718
887.686	0.49408
890.578	0.065186
893.471	1.87268
896.364	1.36914
899.256	1.34552
902.149	2.84992
905.042	4.65192
907.935	2.46197
910.827	7.53186
913.72	13.7406
916.613	18.4277
919.505	27.9537
922.398	39.3774
925.291	57.4371
928.184	78.6271
931.076	93.2606
933.969	111.802
936.862	102.999
939.754	73.7276
942.647	45.8901
945.54	28.8563
948.433	17.3756
951.325	10.731
954.218	18.1115
957.111	27.1994
960.003	39.0216
962.896	51.1444
965.789	43.3649
968.682	23.4967
971.574	7.82752
974.467	0.742981
977.36	1.50043
980.252	1.4353
983.145	3.22754
986.038	7.65137
988.93	7.95892
991.823	9.66327
994.716	19.9444
997.609	36.1968
1000.5	64.7542
1003.39	97.7296
1006.29	131.987
1009.18	205.304
1012.07	320.242
1014.97	360.962
1017.86	365.483
1020.75	431.939
1023.64	554.983
1026.54	683.191
1029.43	591.194
1032.32	302.26
1035.21	140.893
1038.11	73.9559
1041	43.1622
1043.89	30.985
1046.78	26.2479
1049.68	22.6276
1052.57	17.718
1055.46	16.6356
1058.36	16.0566
1061.25	20.9408
1064.14	19.497
1067.03	11.3582
1069.93	7.06921
1072.82	3.00214
1075.71	2.74054
1078.6	1.30743
1081.5	3.59808
1084.39	4.21539
1087.28	0.808167
1090.17	5.39868
1093.07	11.596
1095.96	13.7831
1098.85	17.3096
1101.75	13.4412
1104.64	10.3198
1107.53	7.44604
1110.42	12.8946
1113.32	30.3943
1116.21	50.1104
1119.1	84.76
1121.99	134.362
1124.89	155.035
1127.78	138.519
1130.67	113.797
1133.57	66.0903
1136.46	35.3015
1139.35	26.5211
1142.24	22.5347
1145.14	25.733
1148.03	28.0876
1150.92	25.8388
1153.81	20.8768
1156.71	19.1027
1159.6	22.426
1162.49	29.0943
1165.38	22.0014
1168.28	12.8538
1171.17	6.18524
1174.06	4.94434
1176.96	1.4021
1179.85	0.702881
1182.74	0.078857
1185.63	0.007935
1188.53	4.57165
1191.42	5.32397
1194.31	0.605835
1197.2	3.30273
1200.1	7.61475
1202.99	3.22754
1205.88	2.901
1208.78	6.4386
1211.67	0.542603
1214.56	2.75818
1217.45	5.50256
1220.35	3.96326
1223.24	4.51611
1226.13	0.127441
1229.03	2.80713
1231.92	6.12134
1234.81	5.35596
1237.7	3.59302
1240.6	0.370239
1243.49	2.11816
1246.38	3.29956
1249.27	2.95288
1252.17	0.659912
1255.06	3.03088
1257.95	0.824463
1260.84	3.70154
1263.74	2.92004
1266.63	7.40149
1269.52	8.203
1272.41	10.2417
1275.31	6.03625
1278.2	9.60718
1281.09	1.32031
1283.99	0.962769
1286.88	6.27441
1289.77	5.62415
1292.66	5.09534
1295.56	2.46484
1298.45	3.38123
1301.34	0.958374
