Measurement: Raman, 780 nm, unoriented, Raman Data Processed
Mineral: Penikisite
Rruff sample: R060270
Ideal chemistry: BaMg_2_Al_2_(PO_4_)_3_(OH)_3_
Locality: 16 miles north of Hess River, Yukon Territory, Canada
Source: Michael Scott
Description: Pale bluish green massive associated with quartz
Measured chemistry: Ba_1.00_(Mg_1.90_Mn_0.05_Sr_0.02_[box]_0.02_Ca_0.01_)_Σ=2_(Al_1.97_Ti_0.03_)_Σ=2_(P_1.00_O_4_)_3_(OH)_3_ ; H not measured but estimated by difference and charge balance
Raman shift (cm-1)	intensity
91.5332	0
94.908	21.4336
98.2828	0.540222
101.658	5.50234
105.032	6.67271
108.407	2.66205
111.782	12.7051
115.157	23.223
118.532	27.8696
121.907	43.3449
125.281	78.0498
128.656	99.6939
132.031	111.931
135.406	104.316
138.781	102.222
142.155	131.303
145.53	152.035
148.905	63.3573
152.28	24.1703
155.655	21.9865
159.03	23.6939
162.404	47.1763
165.779	29.6658
169.154	7.3091
172.529	9.27183
175.904	2.4122
179.278	2.29756
182.653	11.8435
186.028	15.5252
189.403	12.4628
192.778	25.7696
196.153	31.8659
199.527	49.6982
202.902	67.7883
206.277	72.8859
209.652	89.6717
213.027	94.3813
216.401	66.1254
219.776	78.9386
223.151	54.084
226.526	19.1961
229.901	0.813766
233.275	1.58258
236.65	1.3969
240.025	4.97461
243.4	7.88049
246.775	14.7985
250.15	19.9752
253.524	28.7132
256.899	31.3409
260.274	17.7296
263.649	3.688
267.024	1.59053
270.399	2.66267
273.773	2.63856
277.148	11.4367
280.523	15.0478
283.898	17.1267
287.273	15.556
290.647	20.6973
294.022	31.8458
297.397	27.6017
300.772	10.4107
304.147	10.4111
307.522	19.2074
310.896	21.8111
314.271	19.0271
317.646	21.8783
321.021	25.4717
324.396	29.6057
327.77	42.3859
331.145	34.0593
334.52	35.4456
337.895	34.1316
341.27	30.7196
344.644	22.3455
348.019	24.7807
351.394	34.5579
354.769	23.1807
358.144	9.48296
361.519	12.1736
364.893	7.48156
368.268	10.1824
371.643	7.67741
375.018	0.01815
378.393	0.525108
381.767	0.550316
385.142	6.5643
388.517	1.53475
391.892	0.242447
395.267	1.01531
398.642	0.997337
402.016	9.49517
405.391	15.5195
408.766	16.3778
412.141	13.0622
415.516	18.9745
418.89	25.3855
422.265	35.3278
425.64	39.7969
429.015	38.1513
432.39	42.0287
435.765	49.7967
439.139	75.4378
442.514	102.612
445.889	127.919
449.264	155.881
452.639	170.063
456.014	182.942
459.388	169.492
462.763	121.272
466.138	90.0468
469.513	60.7453
472.887	34.0509
476.262	20.6009
479.637	19.0847
483.012	21.3753
486.387	27.798
489.762	36.9088
493.136	42.1974
496.511	47.8155
499.886	45.4299
503.261	37.3288
506.636	15.0165
510.01	10.5293
513.385	8.90835
516.76	7.26747
520.135	9.33252
523.51	12.4354
526.885	13.1215
530.259	5.02743
533.634	2.55035
537.009	1.74287
540.384	4.73692
543.759	2.73771
547.134	7.96091
550.508	13.6859
553.883	27.9107
557.258	53.7347
560.633	82.7669
564.008	72.1702
567.382	58.0224
570.757	68.7525
574.132	83.2019
577.507	85.5039
580.882	69.6026
584.256	65.7888
587.631	78.8099
591.006	94.0671
594.381	83.8903
597.756	31.4925
601.131	4.69765
604.505	10.0334
607.88	17.4047
611.255	43.0861
614.63	60.7687
618.005	83.9739
621.38	107.092
624.754	116.935
628.129	89.2647
631.504	54.1374
634.879	32.4058
638.254	19.635
641.628	5.17792
645.003	2.78001
648.378	0.61792
651.753	0.411972
655.128	1.9809
658.503	4.32632
661.877	7.29462
665.252	1.88961
668.627	7.11992
672.002	7.50843
675.377	6.28564
678.751	1.69974
682.126	2.32712
685.501	0.644768
688.876	2.44298
692.251	0.156151
695.625	0.574013
699	0.131058
702.375	5.31665
705.75	3.12408
709.125	0.308548
712.5	3.66456
715.874	0.688774
719.249	1.08033
722.624	2.03072
725.999	1.622
729.374	2.75925
732.749	3.78176
736.123	0.294205
739.498	4.60055
742.873	4.3871
746.248	3.3905
749.623	3.68982
752.997	3.56309
756.372	4.50606
759.747	4.54878
763.122	3.72876
766.497	5.13529
769.871	0.78212
773.246	2.89326
776.621	2.61836
779.996	2.61003
783.371	4.32166
786.745	0.107109
790.12	6.23333
793.495	3.39141
796.87	4.8854
800.245	0.220909
803.62	1.39492
806.994	2.58932
810.369	7.481
813.744	4.22936
817.119	1.76304
820.494	3.54828
823.869	8.01379
827.243	8.91354
830.618	9.18612
833.993	9.4651
837.368	14.0605
840.743	7.70061
844.117	9.20872
847.492	4.2442
850.867	7.4988
854.242	6.80583
857.617	6.28735
860.991	5.47874
864.366	5.93501
867.741	8.23256
871.116	1.44858
874.491	0.047333
877.866	1.659
881.24	5.08601
884.615	5.74519
887.99	2.68063
891.365	3.08398
894.74	1.14516
898.115	2.51008
901.489	2.95798
904.864	0.558109
908.239	0.298843
911.614	3.03474
914.989	0.259457
918.363	0.693844
921.738	8.68375
925.113	7.26446
928.488	20.1488
931.863	20.2475
935.237	26.198
938.612	22.4438
941.987	18.1679
945.362	7.72194
948.737	10.981
952.112	7.05519
955.486	14.5418
958.861	15.5106
962.236	23.3582
965.611	24.0766
968.986	16.8181
972.361	1.21764
975.735	2.14682
979.11	0.306946
982.485	2.99842
985.86	5.77951
989.235	13.6945
992.609	20.932
995.984	30.0365
999.359	49.4656
1002.73	90.5325
1006.11	114.799
1009.48	160.732
1012.86	248.728
1016.23	300.839
1019.61	341.083
1022.98	405.721
1026.36	489.161
1029.73	474.773
1033.11	232.379
1036.48	97.481
1039.86	49.8144
1043.23	37.735
1046.61	29.0122
1049.98	18.9962
1053.36	18.0284
1056.73	14.8646
1060.11	16.0199
1063.48	17.7032
1066.86	11.0379
1070.23	3.8935
1073.61	1.01091
1076.98	2.11049
1080.36	0.391354
1083.73	0.830688
1087.1	1.38656
1090.48	6.55983
1093.85	4.60672
1097.23	8.01782
1100.6	12.2044
1103.98	4.95451
1107.35	3.4631
1110.73	18.0603
1114.1	48.5055
1117.48	66.4101
1120.85	105.989
1124.23	136.655
1127.6	99.6809
1130.98	65.7085
1134.35	37.897
1137.73	21.5057
1141.1	22.5128
1144.48	16.4769
1147.85	21.6491
1151.23	21.6761
1154.6	17.9245
1157.97	14.889
1161.35	14.4548
1164.72	12.6841
1168.1	5.71421
1171.47	2.15941
1174.85	2.00225
1178.22	0.936543
1181.6	0.889462
1184.97	1.30844
1188.35	1.87563
1191.72	3.5546
1195.1	7.07647
1198.47	6.46638
1201.85	6.48282
1205.22	7.6661
1208.6	2.32999
1211.97	5.74235
1215.35	5.54935
1218.72	7.08355
1222.1	7.61255
1225.47	9.96545
1228.85	10.0162
1232.22	6.90068
1235.6	4.54027
1238.97	3.71223
1242.35	8.22547
1245.72	5.84476
1249.1	3.91068
1252.47	3.63229
1255.85	0.45932
1259.22	1.19603
1262.6	5.88072
1265.97	0.715267
1269.34	1.22467
1272.72	4.29271
1276.09	2.1135
1279.47	6.62003
1282.84	4.50684
