Measurement: Raman, 780 nm, unoriented, Raman Data Processed
Mineral: Penikisite
Rruff sample: R060160
Ideal chemistry: BaMg_2_Al_2_(PO_4_)_3_(OH)_3_
Locality: 16 miles north of the Hess River, Mayo Mining District, Yukon Territory, Canada
Source: Mark Mauthner
Description: Aggregate of green crystals in quartz associated with purple gorceixite, R060158. Crystal used in the Bowman et al (2013) study.
Measured chemistry: Ba_1.00_(Mg_1.97_Mn_0.03_)_Î£=2_Al_2.00_(P_1.00_O_4_)_3_(OH)_3_
Raman shift (cm-1)	intensity
147.469	0
150.362	0.38591
153.254	0.547092
156.147	1.11078
159.04	5.04625
161.932	12.7449
164.825	13.1046
167.718	5.33207
170.61	4.21921
173.503	4.36416
176.396	1.97782
179.288	0.958164
182.181	0.766156
185.074	0.541632
187.966	0.373881
190.859	0.189695
193.752	0.534231
196.645	1.02299
199.537	2.38646
202.43	5.13069
205.323	7.55484
208.215	10.8136
211.108	16.614
214.001	15.0652
216.893	17.3265
219.786	22.5272
222.679	15.1642
225.572	7.20869
228.464	2.49514
231.357	1.70671
234.25	2.52202
237.142	3.35568
240.035	4.37829
242.928	6.03849
245.821	8.81034
248.713	10.1919
251.606	12.629
254.499	18.917
257.391	15.7789
260.284	5.2728
263.177	0.931694
266.069	0.116161
268.962	0.647041
271.855	0.259905
274.748	1.3992
277.64	3.92976
280.533	3.10028
283.426	3.0373
286.318	3.78938
289.211	4.41328
292.104	5.89643
294.996	6.32081
297.889	4.20751
300.782	3.6363
303.675	4.05677
306.567	4.01926
309.46	6.84657
312.353	9.05129
315.245	9.51088
318.138	12.091
321.031	15.468
323.923	20.6799
326.816	25.2206
329.709	24.1529
332.601	15.3886
335.494	10.8451
338.387	8.61094
341.279	6.67798
344.172	5.92903
347.065	5.91901
349.958	5.53421
352.85	6.06763
355.743	3.35002
358.636	1.37399
361.528	0.527002
364.421	1.26091
367.314	0.757999
370.207	0.750134
373.099	1.02785
375.992	0.29875
378.885	0.004583
381.777	0.764849
384.67	0.991175
387.563	0.160254
390.455	0.759441
393.348	0.620487
396.241	0.732235
399.134	2.20791
402.026	3.69967
404.919	4.43652
407.812	3.13091
410.704	3.02434
413.597	3.05146
416.49	3.87109
419.382	5.33688
422.275	8.91164
425.168	10.1366
428.06	9.53419
430.953	8.38819
433.846	7.85834
436.739	8.79585
439.631	12.3612
442.524	15.9765
445.417	19.8854
448.309	25.7075
451.202	30.4103
454.095	34.1527
456.988	35.9525
459.88	33.7232
462.773	30.9178
465.666	30.3973
468.558	27.1938
471.451	17.4359
474.344	11.7348
477.236	7.21381
480.129	6.3568
483.022	5.83358
485.914	6.95814
488.807	7.83044
491.7	8.87334
494.592	9.72969
497.485	7.98939
500.378	8.81827
503.271	5.87744
506.163	2.00102
509.056	0.373732
511.949	0.259096
514.841	0.485775
517.734	0.355179
520.627	0.980381
523.519	0.849306
526.412	1.2545
529.305	0.575665
532.198	0.231422
535.09	1.82882
537.983	0.289465
540.876	0.191673
543.768	1.65674
546.661	4.43859
549.554	6.08067
552.447	10.2529
555.339	15.8391
558.232	24.9398
561.125	30.1405
564.017	22.9995
566.91	14.5726
569.803	14.2137
572.695	16.013
575.588	16.0546
578.481	13.7644
581.374	10.2918
584.266	10.3204
587.159	12.8459
590.052	16.7137
592.944	18.1335
595.837	9.97556
598.73	2.16894
601.622	0.506008
604.515	0.658768
607.408	2.75452
610.301	5.30786
613.193	8.63347
616.086	13.2315
618.979	19.3803
621.871	25.87
624.764	28.2827
627.657	21.5774
630.549	14.4418
633.442	9.69723
636.335	6.38357
639.227	3.35451
642.12	1.40104
645.013	0.847742
647.905	0.681972
650.798	0.348285
653.691	0.623983
656.584	1.14687
659.476	1.92659
662.369	2.37261
665.262	3.5721
668.154	4.5735
671.047	4.72016
673.94	4.12896
676.832	2.29153
679.725	2.06869
682.618	1.49568
685.511	0.225797
688.403	0.166174
691.296	0.150111
694.189	0.021371
697.081	0.383816
699.974	0.218927
702.867	0.05829
705.76	0.396036
708.652	0.371529
711.545	0.253363
714.438	0.513464
717.33	0.190588
720.223	0.218558
723.116	0.383822
726.008	0.651505
728.901	0.815831
731.794	1.04238
734.687	1.1206
737.579	0.356326
740.472	0.773517
743.365	1.1456
746.257	1.34343
749.15	0.693907
752.043	0.661656
754.935	0.924301
757.828	1.28537
760.721	1.85772
763.614	1.12773
766.506	0.35355
769.399	0.63572
772.292	0.781771
775.184	0.990305
778.077	0.915009
780.97	0.246534
783.862	1.1549
786.755	0.375639
789.648	0.869801
792.54	1.93061
795.433	0.823446
798.326	1.62033
801.218	1.76634
804.111	1.76316
807.004	1.82705
809.897	1.33232
812.789	1.90937
815.682	2.54703
818.575	3.00541
821.467	3.96318
824.36	5.2336
827.253	6.83348
830.145	7.38818
833.038	8.93558
835.931	9.90554
838.824	9.69072
841.716	8.10751
844.609	6.56206
847.502	5.14921
850.394	4.27417
853.287	3.88403
856.18	2.93932
859.072	2.46454
861.965	1.95747
864.858	0.903857
867.751	1.2885
870.643	0.403902
873.536	1.09807
876.429	0.682774
879.321	0.192528
882.214	0.174017
885.107	0.59094
888	0.498896
890.892	0.196354
893.785	0.183629
896.678	0.408808
899.57	0.309803
902.463	0.755752
905.356	0.594655
908.248	0.538064
911.141	1.09589
914.034	2.03183
916.927	2.96671
919.819	3.59267
922.712	6.01768
925.605	8.32972
928.497	12.0423
931.39	16.3806
934.283	19.1267
937.175	18.4867
940.068	14.2643
942.961	9.00261
945.854	5.11436
948.746	2.77979
951.639	2.13677
954.532	2.15361
957.424	2.5612
960.317	4.34812
963.21	5.83608
966.102	5.75753
968.995	4.27292
971.888	1.3642
974.78	0.11825
977.673	0.42037
980.566	0.072277
983.458	0.5553
986.351	2.39069
989.244	2.33983
992.137	2.51686
995.029	3.86329
997.922	7.09314
1000.82	13.3865
1003.71	20.7663
1006.6	29.6051
1009.49	48.1983
1012.38	76.0665
1015.28	86.1745
1018.17	78.9496
1021.06	83.5917
1023.96	107.076
1026.85	134.859
1029.74	122.172
1032.63	66.0763
1035.53	30.2687
1038.42	14.7759
1041.31	9.91518
1044.2	6.72371
1047.1	5.99283
1049.99	4.26225
1052.88	4.07821
1055.78	2.76148
1058.67	2.91917
1061.56	2.49712
1064.45	2.38003
1067.35	1.53947
1070.24	0.596476
1073.13	0.564588
1076.03	0.130745
1078.92	0.175344
1081.81	0.27704
1084.7	0.277228
1087.6	0.644164
1090.49	0.934485
1093.38	2.86707
1096.27	5.08876
1099.17	4.57347
1102.06	3.36721
1104.95	2.31012
1107.84	1.18471
1110.74	1.67429
1113.63	4.4311
1116.52	7.58326
1119.41	12.7916
1122.31	20.3289
1125.2	26.1278
1128.09	22.9457
1130.99	19.5772
1133.88	11.6774
1136.77	6.17746
1139.66	5.15826
1142.56	4.7036
1145.45	5.65472
1148.34	5.8934
1151.23	6.59065
1154.13	4.03919
1157.02	4.28655
1159.91	4.92123
1162.81	4.84703
1165.7	3.71702
1168.59	2.29373
1171.48	1.36884
1174.38	0.177123
1177.27	0.507204
1180.16	0.000968
1183.06	0.258308
1185.95	0.449732
1188.84	0.722578
1191.73	1.37203
1194.62	0.752175
1197.52	0.24111
1200.41	0.551543
1203.3	0.791817
1206.2	1.14063
1209.09	1.06768
1211.98	1.53001
1214.87	1.39407
1217.77	1.72392
1220.66	1.95937
1223.55	2.55666
1226.44	1.48711
1229.34	1.21518
1232.23	1.42003
1235.12	0.79189
1238.02	0.964025
1240.91	1.08126
1243.8	1.24467
1246.69	1.4123
1249.59	1.03807
1252.48	0.877125
1255.37	1.0872
1258.27	0.539509
1261.16	0.303256
1264.05	0.284142
1266.94	1.13802
1269.84	0.588237
1272.73	0.47946
1275.62	0.989626
1278.51	1.09832
1281.41	0.242719
1284.3	0.993539
