Measurement: Raman, 532 nm, unoriented, Raman Data Processed
Mineral: Penkvilksite
Rruff sample: R130027
Ideal chemistry: Na_4_Ti_2_Si_8_O_22_4H_2_O
Locality: Lovozero Massif, Kola Peninsula, Murmanskaja Oblast', Northern Region, Russia
Source: Don Doell
Description: Powdery white aggregate
Raman shift (cm-1)	intensity
206.998	0
209.891	15.3638
212.784	41.6065
215.676	0.935913
218.569	36.2627
221.462	36.5371
224.354	6.49988
227.247	36.0543
230.14	28.3253
233.032	2.37817
235.925	2.20007
238.818	38.3486
241.71	57.9329
244.603	103.336
247.496	140.812
250.389	169.785
253.281	219.755
256.174	318.392
259.067	412.093
261.959	448.027
264.852	347.2
267.745	203.343
270.637	103.153
273.53	51.554
276.423	35.6533
279.316	50.7787
282.208	68.6642
285.101	95.4952
287.994	140.218
290.886	165.581
293.779	167.858
296.672	143.846
299.565	127.651
302.457	123.163
305.35	134.594
308.243	125.647
311.135	119.915
314.028	61.2427
316.921	30.2101
319.813	1.0661
322.706	3.90185
325.599	1.68524
328.491	28.6501
331.384	64.2775
334.277	102.212
337.17	159.631
340.062	212.412
342.955	243.335
345.848	235.481
348.74	211.17
351.633	182.445
354.526	172.922
357.418	190.751
360.311	223.086
363.204	285.699
366.097	339.611
368.989	340.126
371.882	307.183
374.775	275.703
377.667	233.733
380.56	161.982
383.453	89.9385
386.346	42.5375
389.238	13.4489
392.131	1.78729
395.024	0.298279
397.916	4.57989
400.809	7.26135
403.702	3.96179
406.594	3.88806
409.487	4.26117
412.38	23.717
415.272	34.6057
418.165	39.5652
421.058	57.6517
423.951	81.3937
426.843	100.6
429.736	100.536
432.629	56.8973
435.521	43.3432
438.414	47.3464
441.307	42.4033
444.2	50.0762
447.092	67.8984
449.985	66.1414
452.878	61.7159
455.77	57.2227
458.663	52.5944
461.556	33.4109
464.448	21.892
467.341	20.9924
470.234	9.32312
473.127	1.71814
476.019	0.70813
478.912	0.246765
481.805	4.66516
484.697	17.586
487.59	40.8717
490.483	63.0914
493.375	95.2391
496.268	119.981
499.161	137.395
502.053	120.482
504.946	94.573
507.839	77.6127
510.732	77.168
513.624	81.1977
516.517	96.8358
519.41	119.8
522.302	152.424
525.195	191.838
528.088	236.252
530.981	274.982
533.873	321.917
536.766	362.868
539.659	396.284
542.551	421.97
545.444	429.084
548.337	431.087
551.229	393.344
554.122	342.165
557.015	280.613
559.908	212.133
562.8	163.144
565.693	120.831
568.586	80.6762
571.478	58.0455
574.371	33.5295
577.264	22.5525
580.156	14.4083
583.049	11.3488
585.942	6.08276
588.835	3.50385
591.727	2.13592
594.62	0.465088
597.513	0.2771
600.405	4.10144
603.298	2.42645
606.191	5.26733
609.083	4.25537
611.976	3.36304
614.869	0.988342
617.761	6.09351
620.654	8.86847
623.547	12.6729
626.44	18.3242
629.332	22.62
632.225	31.1004
635.118	44.9492
638.01	57.709
640.903	74.3126
643.796	94.7816
646.688	113.517
649.581	109.682
652.474	82.3785
655.367	55.4511
658.259	32.7603
661.152	18.9061
664.045	14.0911
666.937	5.45764
669.83	3.23041
672.723	1.45435
675.615	1.53101
678.508	3.30713
681.401	4.34869
684.294	3.44421
687.186	0.47467
690.079	1.57635
692.972	4.92065
695.864	4.3512
698.757	7.33496
701.65	11.8491
704.543	19.6556
707.435	21.4703
710.328	22.051
713.221	21.4299
716.113	20.9984
719.006	16.9254
721.899	17.5787
724.791	17.7469
727.684	16.4633
730.577	11.121
733.47	9.99103
736.362	11.0729
739.255	11.0836
742.148	8.39856
745.04	9.49573
747.933	9.69403
750.826	7.49652
753.718	2.42175
756.611	3.84692
759.504	4.54559
762.396	10.2701
765.289	13.1087
768.182	14.4486
771.075	15.3441
773.967	20.3924
776.86	26.1851
779.753	26.457
782.645	25.2063
785.538	27.4464
788.431	27.866
791.323	30.7074
794.216	29.6248
797.109	27.0047
800.002	20.7344
802.894	18.3207
805.787	16.4888
808.68	12.5384
811.572	2.08423
814.465	0.052063
817.358	0.367493
820.25	1.37408
823.143	1.25439
826.036	2.06586
828.929	6.6958
831.821	5.58325
834.714	6.37769
837.607	7.17706
840.5	1.57349
843.392	6.96472
846.285	14.8947
849.178	19.7325
852.07	25.1353
854.963	37.594
857.856	43.0739
860.748	36.0559
863.641	28.2991
866.534	25.4843
869.427	27.5923
872.319	34.0755
875.212	48.2905
878.105	68.5919
880.997	94.9956
883.89	138.842
886.783	210.432
889.675	315.748
892.568	465.022
895.461	671.293
898.354	926.989
901.246	1215.57
904.139	1471.03
907.032	1561.04
909.924	1431.47
912.817	1176.96
915.71	1030.83
918.602	1045.92
921.495	1195.93
924.388	1443.15
927.28	1708.58
930.173	1859.01
933.066	1710.53
935.959	1331.07
938.851	950.944
941.744	685.644
944.637	499.776
947.529	385.339
950.422	307.982
953.315	255.395
956.207	229.391
959.1	210.898
961.993	175.654
964.886	130.636
967.778	97.5109
970.671	75.6434
973.564	61.9584
976.456	48.642
979.349	35.8318
982.242	25.191
985.135	17.3414
988.027	5.99176
990.92	3.40894
993.813	3.86426
996.705	4.52582
999.598	8.12311
1002.49	9.11316
1005.38	5.38513
1008.28	5.21161
1011.17	0.646484
1014.06	1.02216
1016.95	1.40668
1019.85	6.43866
1022.74	9.82459
1025.63	15.0354
1028.53	21.2462
1031.42	24.4061
1034.31	34.4171
1037.2	45.4313
1040.1	60.246
1042.99	79.3553
1045.88	112.994
1048.77	147.835
1051.67	184.73
1054.56	229.15
1057.45	264.843
1060.35	290.371
1063.24	302.284
1066.13	290.01
1069.02	249.432
1071.92	190.839
1074.81	142.65
1077.7	113.673
1080.59	98.2227
1083.49	87.1932
1086.38	73.4272
1089.27	59.1867
1092.16	43.6902
1095.06	31.7164
1097.95	31.3623
1100.84	29.5579
1103.73	28.5651
1106.63	26.1993
1109.52	27.5602
1112.41	27.0309
1115.31	27.0334
1118.2	24.4675
1121.09	19.373
1123.98	12.8807
1126.88	8.58643
1129.77	5.08917
1132.66	1.88806
1135.56	1.99109
1138.45	2.49463
1141.34	0.192749
1144.23	0.650085
1147.13	0.525757
1150.02	1.02093
1152.91	0.093079
1155.8	1.21375
1158.7	1.81927
1161.59	0.596008
1164.48	0.990906
1167.38	1.06213
1170.27	3.93591
1173.16	1.66614
1176.05	2.90173
1178.94	4.21332
1181.84	0.328613
1184.73	1.6106
1187.62	0.454163
1190.52	0.291992
1193.41	1.26068
1196.3	1.3869
1199.19	3.82678
1202.09	1.29083
1204.98	6.32251
1207.87	5.16846
1210.77	5.72742
1213.66	4.50232
1216.55	5.92139
1219.44	1.73065
1222.34	4.17395
1225.23	2.64002
1228.12	3.29748
1231.01	1.16705
1233.91	0.045959
1236.8	2.04559
1239.69	1.06171
1242.59	1.49835
1245.48	0.56665
1248.37	1.68915
1251.26	4.88739
1254.16	0.906616
1257.05	0.968872
1259.94	3.79901
1262.83	4.10852
1265.73	4.79657
1268.62	6.51782
1271.51	4.36713
1274.4	3.98315
1277.3	0.710876
1280.19	2.28699
1283.08	2.40802
1285.97	0.36908
1288.87	0.89032
1291.76	2.6543
1294.65	1.91583
1297.55	2.83038
1300.44	1.9762
