Measurement: Raman, 780 nm, unoriented, Raman Data Processed
Mineral: Penkvilksite
Rruff sample: R130027
Ideal chemistry: Na_4_Ti_2_Si_8_O_22_4H_2_O
Locality: Lovozero Massif, Kola Peninsula, Murmanskaja Oblast', Northern Region, Russia
Source: Don Doell
Description: Powdery white aggregate
Raman shift (cm-1)	intensity
90.2353	0
93.1281	16.5432
96.0207	5.28265
98.9134	13.7865
101.806	38.7528
104.699	65.9237
107.591	63.3634
110.484	48.8879
113.377	31.6574
116.27	7.20868
119.162	4.08499
122.055	1.07474
124.948	2.15744
127.84	7.6702
130.733	17.1499
133.626	29.1258
136.518	55.3179
139.411	86.8833
142.304	113.158
145.197	78.138
148.089	43.1307
150.982	39.6701
153.875	48.6959
156.767	64.7972
159.66	87.2148
162.553	115.373
165.446	130.689
168.338	128.126
171.231	100.838
174.124	62.0606
177.016	35.0512
179.909	17.769
182.802	11.8242
185.694	8.4817
188.587	7.55365
191.48	0.295731
194.373	5.20012
197.265	6.01805
200.158	2.34564
203.051	0.706009
205.943	4.71977
208.836	3.19852
211.729	4.5118
214.621	1.75603
217.514	1.92783
220.407	4.50597
223.299	9.6572
226.192	13.5019
229.085	14.9343
231.978	19.608
234.87	27.0256
237.763	41.3327
240.656	56.8564
243.548	78.0576
246.441	105.1
249.334	133.247
252.226	174.073
255.119	222.441
258.012	274.151
260.904	287.522
263.797	226.347
266.69	143.916
269.583	86.6399
272.475	63.8456
275.368	56.8138
278.261	59.0901
281.153	67.6602
284.046	87.048
286.939	103.714
289.832	126.234
292.724	127.357
295.617	110.763
298.51	95.5187
301.402	89.2768
304.295	92.624
307.188	91.9779
310.08	74.9044
312.973	47.1956
315.866	18.2462
318.759	0.031677
321.651	2.37872
324.544	3.08635
327.437	14.956
330.329	33.0746
333.222	52.3422
336.115	82.8867
339.007	111.17
341.9	131.236
344.793	122.013
347.685	105.941
350.578	89.9705
353.471	80.6045
356.364	89.5848
359.256	110.268
362.149	136.371
365.042	162.403
367.934	168.831
370.827	152.619
373.72	135.538
376.613	115.909
379.505	82.6608
382.398	42.9854
385.291	18.3554
388.183	5.7169
391.076	1.07095
393.969	3.28444
396.861	5.03932
399.754	3.82716
402.647	2.01817
405.539	1.94864
408.432	5.37466
411.325	12.4441
414.217	17.3222
417.11	23.4733
420.003	34.0643
422.896	41.9491
425.788	51.8666
428.681	46.141
431.574	31.0883
434.466	20.5376
437.359	20.6025
440.252	23.4301
443.144	29.2356
446.037	34.809
448.93	37.0571
451.823	37.553
454.715	34.4717
457.608	30.1776
460.501	24.4868
463.393	18.0819
466.286	14.0661
469.179	7.96463
472.072	2.90512
474.964	1.0005
477.857	1.151
480.75	2.84821
483.642	9.5565
486.535	15.7726
489.428	26.6183
492.32	38.2551
495.213	50.1576
498.106	53.4227
500.998	48.4333
503.891	37.6306
506.784	30.1969
509.677	29.0416
512.569	31.118
515.462	39.5574
518.355	51.0011
521.247	66.2118
524.14	79.6371
527.033	100.584
529.926	118.616
532.818	137.255
535.711	155.517
538.604	170.6
541.496	180.965
544.389	186.875
547.282	184.718
550.174	171.486
553.067	147.982
555.96	118.32
558.852	93.2815
561.745	68.8864
564.638	48.9059
567.53	34.9562
570.423	23.3727
573.316	15.943
576.209	10.7036
579.101	6.74255
581.994	3.86925
584.887	2.57619
587.779	0.635193
590.672	0.419556
593.565	0.157631
596.457	0.752136
599.35	2.69873
602.243	0.745438
605.136	2.67726
608.028	0.94693
610.921	0.395264
613.814	1.38428
616.706	3.27519
619.599	6.36461
622.492	8.46156
625.385	11.4877
628.277	15.6055
631.17	23.0207
634.063	33.1084
636.955	41.2621
639.848	51.4707
642.741	64.4639
645.633	76.9757
648.526	76.0078
651.419	57.8519
654.312	35.3626
657.204	19.2016
660.097	10.1389
662.99	5.05062
665.882	2.78818
668.775	1.72926
671.668	0.596642
674.56	0.276703
677.453	1.26944
680.346	1.15573
683.239	0.487389
686.131	0.911682
689.024	0.387146
691.917	0.172981
694.809	2.39823
697.702	5.19675
700.595	5.30141
703.487	7.99416
706.38	10.6115
709.273	10.3261
712.165	10.3929
715.058	8.01312
717.951	8.59023
720.843	6.16335
723.736	5.1236
726.629	5.55006
729.522	5.03097
732.414	4.32964
735.307	3.81561
738.2	4.64226
741.092	4.36419
743.985	2.2607
746.878	2.22126
749.77	2.28775
752.663	2.73615
755.556	1.87865
758.449	3.09156
761.341	3.56004
764.234	5.38003
767.127	6.87321
770.019	7.39278
772.912	9.94799
775.805	10.7958
778.697	10.9774
781.59	12.4381
784.483	13.0694
787.376	14.2902
790.268	16.247
793.161	14.7683
796.054	12.3756
798.946	10.4469
801.839	8.63592
804.732	7.32873
807.625	5.77534
810.517	2.91949
813.41	1.25224
816.303	0.282158
819.195	0.811607
822.088	1.85012
824.981	1.84594
827.873	2.71784
830.766	2.9773
833.659	3.61099
836.552	1.5685
839.444	0.106934
842.337	1.74847
845.23	4.50365
848.122	7.50657
851.015	11.0861
853.908	15.0775
856.8	18.6395
859.693	16.8178
862.586	12.7358
865.479	10.6249
868.371	12.427
871.264	16.0854
874.157	21.1
877.049	29.9245
879.942	43.3137
882.835	65.2865
885.727	95.1231
888.62	141.12
891.513	207.628
894.405	292.373
897.298	402.053
900.191	527.567
903.083	640.457
905.976	694.623
908.869	632.867
911.762	518.606
914.654	446.546
917.547	453.185
920.44	508.898
923.332	600.669
926.225	717.935
929.118	790.267
932.01	732.918
934.903	567.189
937.796	402.425
940.689	288.463
943.581	211.655
946.474	158.411
949.367	125.89
952.259	104.371
955.152	93.2376
958.045	86.3941
960.937	71.7673
963.83	51.8461
966.723	40.1543
969.615	30.0054
972.508	24.7555
975.401	20.6658
978.294	14.9753
981.186	12.7026
984.079	6.89661
986.972	2.41126
989.864	1.09061
992.757	0.933609
995.65	3.21998
998.543	2.83916
1001.43	1.66579
1004.33	2.36971
1007.22	2.04178
1010.11	1.58541
1013.01	0.060631
1015.9	1.53246
1018.79	2.07515
1021.68	3.34783
1024.58	6.02879
1027.47	6.45804
1030.36	9.849
1033.26	11.8855
1036.15	15.704
1039.04	20.9054
1041.93	28.528
1044.83	36.3708
1047.72	48.7139
1050.61	62.1943
1053.5	76.1476
1056.4	86.2581
1059.29	94.4626
1062.18	94.5219
1065.08	89.3084
1067.97	75.8329
1070.86	59.3134
1073.75	44.0261
1076.64	34.2912
1079.54	27.8495
1082.43	24.123
1085.32	19.835
1088.22	15.3086
1091.11	10.641
1094	7.63236
1096.89	4.67297
1099.79	5.14048
1102.68	2.74486
1105.57	2.27337
1108.46	3.71014
1111.36	4.23669
1114.25	4.47814
1117.14	3.15434
1120.04	2.90408
1122.93	1.25296
1125.82	0.262917
1128.71	0.39632
1131.61	0.266953
