Measurement: Raman, 532 nm, unoriented, Raman Data Processed
Mineral: Pentahydrite
Rruff sample: R070069
Ideal chemistry: MgSO_4_5H_2_O
Locality: Vulcano Island, Eolie Islands, Messina Province, Sicily, Italy
Source: James Shigley
Description: Unconsolidated coarse crystalline grains associated with anhydrite
Raman shift (cm-1)	intensity
182.965	0
185.857	11.9978
188.75	49.3018
191.643	61.6035
194.535	109.064
197.428	165.605
200.321	210.568
203.214	281.322
206.106	328.822
208.999	349.696
211.892	351.085
214.784	367.844
217.677	425.238
220.57	404.465
223.462	422.953
226.355	480.433
229.248	507.489
232.141	559.881
235.033	642.047
237.926	739.201
240.819	775.983
243.711	813.585
246.604	816.882
249.497	716.199
252.389	620.661
255.282	507.494
258.175	373.45
261.067	252.385
263.96	180.929
266.853	139.208
269.746	77.9683
272.638	90.9736
275.531	34.6997
278.424	15.1155
281.316	8.70386
284.209	5.37134
287.102	18.9077
289.995	8.64331
292.887	0.814941
295.78	7.07422
298.673	29.041
301.565	22.821
304.458	36.3279
307.351	21.3704
310.243	34.5139
313.136	16.2314
316.029	52.523
318.921	42.9324
321.814	1.65405
324.707	0.930176
327.6	60.1216
330.492	8.73511
333.385	55.3982
336.278	53.6228
339.17	79.3723
342.063	129.78
344.956	148.005
347.849	179.318
350.741	219.705
353.634	242.124
356.527	284.884
359.419	302.102
362.312	312.608
365.205	248.904
368.097	243.785
370.99	184.208
373.883	105.853
376.776	80.7463
379.668	52.8591
382.561	31.4294
385.454	45.6577
388.346	3.03027
391.239	6.33276
394.132	11.5727
397.024	19.5071
399.917	1.68457
402.81	13.9429
405.702	6.32617
408.595	27.8174
411.488	64.3843
414.381	107.591
417.273	151.92
420.166	161.113
423.059	248.197
425.951	271.348
428.844	416.9
431.737	568.755
434.63	747.215
437.522	902.37
440.415	1069.53
443.308	1149.2
446.2	1123.04
449.093	1032.44
451.986	1017.6
454.878	1083.43
457.771	1234.11
460.664	1382.49
463.557	1517.82
466.449	1444.73
469.342	1197.05
472.235	876.523
475.127	572.108
478.02	374.068
480.913	284.959
483.805	197.449
486.698	146.663
489.591	83.1099
492.484	64.9448
495.376	62.5166
498.269	7.88086
501.162	20.947
504.054	16.898
506.947	20.8379
509.84	14.4075
512.732	9.33032
515.625	16.364
518.518	39.8838
521.411	7.31128
524.303	5.52734
527.196	1.18433
530.089	1.55322
532.981	17.9353
535.874	32.4844
538.767	45.7024
541.659	41.9939
544.552	3.79858
547.445	33.5332
550.338	75.0169
553.23	103.233
556.123	114.164
559.016	121.787
561.908	136.73
564.801	177.148
567.694	189.278
570.587	211.727
573.479	219.982
576.372	253.609
579.265	285.487
582.157	334.06
585.05	370.135
587.943	371.06
590.835	460.215
593.728	491.981
596.621	539.624
599.514	548.272
602.406	613.596
605.299	640.524
608.192	644.312
611.084	641.137
613.977	650.512
616.87	659.178
619.762	676.442
622.655	659.082
625.548	694.702
628.441	697.012
631.333	626.095
634.226	517.204
637.119	461.604
640.011	345.111
642.904	311.601
645.797	224.906
648.689	197.128
651.582	161.424
654.475	121.77
657.367	131.815
660.26	70.8628
663.153	33.3638
666.046	43.7568
668.938	6.63623
671.831	25.5395
674.724	47.1917
677.616	23.6726
680.509	2.19116
683.402	49.1599
686.294	6.12305
689.187	2.82324
692.08	6.38477
694.973	26.8511
697.865	19.4006
700.758	18.6768
703.651	8.49121
706.543	25.5776
709.436	40.1389
712.329	17.1548
715.221	15.2947
718.114	13.1614
721.007	21.2686
723.9	42.72
726.792	13.3816
729.685	32.301
732.578	5.60571
735.471	30.5674
738.363	50.9673
741.256	14.3765
744.149	26.689
747.041	59.7297
749.934	11.655
752.827	51.6006
755.719	26.946
758.612	44.9482
761.505	16.8105
764.398	41.354
767.29	5.43628
770.183	40.1929
773.076	43.2595
775.968	35.7974
778.861	33.9006
781.754	14.8721
784.646	4.87256
787.539	29.7615
790.432	16.7244
793.324	25.3267
796.217	26.0293
799.11	25.9717
802.003	14.7949
804.895	12.438
807.788	29.5662
810.681	23.9343
813.573	1.95068
816.466	21.5215
819.359	58.3618
822.251	28.0461
825.144	32.8357
828.037	1.59839
830.93	33.0752
833.822	38.7842
836.715	2.87598
839.608	36.8108
842.5	24.0325
845.393	31.1589
848.286	7.68237
851.178	57.99
854.071	16.5691
856.964	27.323
859.857	24.8301
862.749	29.1782
865.642	17.9368
868.535	30.2537
871.427	37.1125
874.32	11.7925
877.213	39.0547
880.106	9.5
882.998	20.9314
885.891	29.436
888.784	7.0918
891.676	4.96021
894.569	4.81128
897.462	8.45874
900.354	12.4299
903.247	4.93799
906.14	20.3023
909.033	16.1482
911.925	34.2256
914.818	39.6094
917.711	3.08228
920.603	10.718
923.496	12.0479
926.389	20.5957
929.281	17.6714
932.174	16.3298
935.067	56.0166
937.96	23.2842
940.852	50.2188
943.745	44.2639
946.638	37.5454
949.53	70.0408
952.423	100.595
955.316	98.0813
958.208	192.881
961.101	295.688
963.994	408.003
966.886	565.668
969.779	929.192
972.672	1924.76
975.565	5079.61
978.457	9862.34
981.35	15994.7
984.243	22093
987.135	9760.25
990.028	2771.24
992.921	1123.04
995.813	626.294
998.706	345.769
1001.6	245.722
1004.49	196.791
1007.38	129.993
1010.28	123.228
1013.17	82.7107
1016.06	66.0835
1018.96	65.8721
1021.85	46.7922
1024.74	37.1011
1027.63	16.0674
1030.53	16.116
1033.42	3.302
1036.31	10.2161
1039.2	6.94971
1042.1	8.78149
1044.99	13.5012
1047.88	9.85596
1050.78	29.6904
1053.67	40.5242
1056.56	60.1418
1059.45	42.3582
1062.35	53.7998
1065.24	110.117
1068.13	186.066
1071.02	192.254
1073.92	319.435
1076.81	319.114
1079.7	380.487
1082.59	378.19
1085.49	406.703
1088.38	372.96
1091.27	309.607
1094.16	253.547
1097.06	244.625
1099.95	175.822
1102.84	144.917
1105.74	111.312
1108.63	108.668
1111.52	92.3059
1114.41	97.7271
1117.31	111.27
1120.2	128.338
1123.09	196.615
1125.98	256.252
1128.88	322.274
1131.77	377.742
1134.66	499.957
1137.56	656.766
1140.45	782.318
1143.34	863.165
1146.23	896.136
1149.13	828.616
1152.02	691.755
1154.91	556.699
1157.81	365.667
1160.7	307.242
1163.59	207.477
1166.48	116.253
1169.38	146.132
1172.27	86.8124
1175.16	64.83
1178.05	21.3888
1180.95	38.7306
1183.84	17.8174
1186.73	19.955
1189.62	24.5922
1192.52	10.3772
1195.41	11.0918
1198.3	4.91211
1201.19	21.7891
1204.09	4.849
1206.98	1.64172
1209.87	5.13245
1212.77	30.5258
1215.66	15.3831
1218.55	0.780518
1221.44	9.27393
1224.34	36.9213
1227.23	11.5872
1230.12	16.6885
1233.02	5.72888
1235.91	46.4078
1238.8	15.9287
1241.69	16.5381
1244.59	31.5188
1247.48	10.6254
1250.37	32.2424
1253.26	48.8801
1256.16	34.4462
1259.05	47.6611
1261.94	12.7534
1264.84	21.4737
1267.73	16.5083
1270.62	33.5724
1273.51	11.1346
1276.41	28.1454
1279.3	29.0955
1282.19	28.2487
1285.08	16.9602
1287.98	27.2046
1290.87	32.5984
1293.76	51.891
1296.65	1.94641
1299.55	21.5709
1302.44	18.7294
1305.33	6.26758
