Measurement: Raman, 532 nm, unoriented, Raman Data Processed
Mineral: Pentagonite
Rruff sample: R120136
Ideal chemistry: CaV^4+^OSi_4_O_10_4H_2_O
Locality: Wagholi, Poona, Maharashtra State, India
Source: Marcus Origlieri
Description: Bright blue blades
Raman shift (cm-1)	intensity
159.269	0
162.161	0.714784
165.054	0.114401
167.947	1.00558
170.839	2.793
173.732	5.8252
176.625	6.95779
179.518	11.2136
182.41	16.1089
185.303	23.0201
188.196	30.6028
191.088	43.3481
193.981	53.7358
196.874	58.1058
199.766	61.9937
202.659	64.9718
205.552	63.2087
208.445	57.7363
211.337	48.2336
214.23	39.376
217.123	32.731
220.015	28.56
222.908	29.2287
225.801	30.7908
228.693	30.2472
231.586	25.0904
234.479	19.1518
237.371	13.3009
240.264	8.8074
243.157	5.91116
246.05	3.09159
248.942	0.494469
251.835	0.770271
254.728	0.199894
257.62	0.830154
260.513	1.67716
263.406	1.56198
266.298	0.397156
269.191	0.027168
272.084	0.402878
274.977	0.823616
277.869	5.235
280.762	10.5335
283.655	15.7925
286.547	20.8129
289.44	19.2369
292.333	14.9052
295.226	11.8171
298.118	11.723
301.011	13.0419
303.904	18.0515
306.796	21.0302
309.689	21.7211
312.582	21.3547
315.474	21.2202
318.367	22.0833
321.26	22.5622
324.152	22.9693
327.045	22.1658
329.938	19.6107
332.831	17.7225
335.723	15.8725
338.616	16.0138
341.509	16.1433
344.401	15.3333
347.294	15.3966
350.187	14.488
353.079	11.4644
355.972	8.39447
358.865	5.90719
361.758	2.4233
364.65	0.015015
367.543	0.957237
370.436	1.15701
373.328	0.290771
376.221	1.48625
379.114	2.85319
382.007	6.27234
384.899	10.971
387.792	15.4496
390.685	22.1168
393.577	28.4471
396.47	33.9085
399.363	33.647
402.255	28.3948
405.148	20.2375
408.041	13.9357
410.933	9.13355
413.826	6.93976
416.719	5.03726
419.612	3.50528
422.504	2.19797
425.397	1.68409
428.29	0.988949
431.182	0.334248
434.075	0.553421
436.968	0.072357
439.861	0.074409
442.753	0.145405
445.646	0.794098
448.539	0.768841
451.431	0.815331
454.324	1.19209
457.217	1.02714
460.109	1.09909
463.002	0.549406
465.895	0.336142
468.788	0.966803
471.68	0.758858
474.573	1.03463
477.466	0.836344
480.358	1.69033
483.251	1.25091
486.144	1.99425
489.036	2.21009
491.929	3.4582
494.822	3.26088
497.714	1.82872
500.607	0.414669
503.5	0.500401
506.393	0.771013
509.285	0.730257
512.178	2.67407
515.071	4.10029
517.963	5.51677
520.856	6.96842
523.749	9.12703
526.641	8.67351
529.534	7.23374
532.427	5.71325
535.32	4.85179
538.212	4.61929
541.105	4.93114
543.998	5.49744
546.89	7.04575
549.783	8.80767
552.676	9.1779
555.568	8.81574
558.461	7.80412
561.354	7.27472
564.247	5.30445
567.139	5.04153
570.032	3.70007
572.925	2.70842
575.817	2.53475
578.71	1.49611
581.603	2.27745
584.495	1.05764
587.388	0.876091
590.281	0.190809
593.174	0.304113
596.066	0.520441
598.959	0.065231
601.852	0.298788
604.744	0.200438
607.637	0.079346
610.53	0.875303
613.423	1.25846
616.315	1.61997
619.208	1.80363
622.101	2.76383
624.993	3.54093
627.886	4.96136
630.779	6.47519
633.671	9.63396
636.564	14.316
639.457	21.7198
642.35	31.8891
645.242	47.0985
648.135	66.7707
651.028	82.8928
653.92	75.7179
656.813	49.3498
659.706	28.7528
662.598	16.0569
665.491	10.1632
668.384	6.22027
671.277	4.39237
674.169	2.39189
677.062	1.8059
679.955	1.20245
682.847	0.437117
685.74	0.047668
688.633	0.193571
691.525	0.076857
694.418	0.018255
697.311	0.112396
700.203	0.017996
703.096	0.188759
705.989	0.685568
708.882	0.43375
711.774	0.718519
714.667	0.376194
717.56	0.767178
720.452	0.403532
723.345	0.112305
726.238	0.236115
729.13	0.024509
732.023	0.303547
734.916	0.232821
737.809	0.19556
740.701	0.002241
743.594	0.349735
746.487	0.65699
749.379	0.473608
752.272	1.04187
755.165	1.0096
758.058	1.66079
760.95	1.84711
763.843	2.50004
766.736	2.52194
769.628	2.469
772.521	1.92044
775.414	2.6433
778.306	2.45243
781.199	2.15647
784.092	2.41249
786.985	2.07233
789.877	1.48837
792.77	1.17954
795.663	1.23844
798.555	0.682497
801.448	0.75865
804.341	0.328516
807.233	0.679146
810.126	0.249672
813.019	0.030317
815.912	0.283339
818.804	0.391714
821.697	0.547464
824.59	0.318953
827.482	0.106922
830.375	0.278219
833.268	0.518637
836.16	0.657475
839.053	0.05118
841.946	0.802914
844.838	0.455481
847.731	0.247459
850.624	0.219473
853.517	0.12369
856.409	0.407211
859.302	0.331774
862.195	0.059431
865.087	0.322191
867.98	0.116974
870.873	0.196514
873.765	0.084291
876.658	0.067253
879.551	0.20463
882.444	0.156878
885.336	0.138462
888.229	0.388159
891.122	0.400595
894.014	0.131443
896.907	0.060789
899.8	0.186316
902.692	0.014162
905.585	0.622591
908.478	0.682182
911.371	2.75975
914.263	2.09989
917.156	1.43201
920.049	2.25521
922.941	3.2206
925.834	4.42956
928.727	6.09476
931.62	6.96425
934.512	7.28992
937.405	8.34627
940.298	10.2156
943.19	11.5392
946.083	14.6089
948.976	20.4975
951.868	29.1493
954.761	44.0381
957.654	67.946
960.547	109.417
963.439	166.244
966.332	241.702
969.225	389.702
972.117	631.121
975.01	363.838
977.903	146.98
980.795	91.9421
983.688	62.832
986.581	39.6211
989.473	28.2139
992.366	22.784
995.259	18.1899
998.152	15.5613
1001.04	10.366
1003.94	7.31419
1006.83	4.33341
1009.72	2.92472
1012.62	1.17974
1015.51	0.903976
1018.4	0.031519
1021.29	0.281797
1024.19	0.39773
1027.08	0.274244
1029.97	0.383598
1032.86	0.0159
1035.76	0.236917
1038.65	0.661955
1041.54	1.72302
1044.43	3.70485
1047.33	5.63827
1050.22	6.62086
1053.11	4.66183
1056.01	2.6564
1058.9	1.36917
1061.79	1.41819
1064.68	1.79308
1067.58	3.10418
1070.47	4.31997
1073.36	6.28232
1076.26	8.77106
1079.15	11.7393
1082.04	17.4839
1084.93	24.4271
1087.83	31.0527
1090.72	31.6022
1093.61	24.5979
1096.5	16.1379
1099.4	10.4004
1102.29	7.03069
1105.18	4.35827
1108.07	3.96239
1110.97	2.52049
1113.86	1.91846
1116.75	1.37441
1119.64	0.908878
1122.54	0.447874
1125.43	0.491009
1128.32	0.108343
1131.22	0.252016
1134.11	0.2572
1137	0.18071
1139.89	0.049152
1142.79	0.190702
1145.68	0.147724
1148.57	0.047853
1151.46	1.09198
1154.36	0.750135
1157.25	0.845877
1160.14	0.779939
1163.04	0.784788
1165.93	0.527016
1168.82	0.006736
1171.71	0.755606
1174.61	0.885748
1177.5	1.22903
1180.39	1.18806
1183.28	1.58499
1186.18	1.71795
1189.07	1.92965
1191.96	1.89184
1194.86	1.9527
1197.75	1.48128
1200.64	0.837328
1203.53	0.774023
1206.43	0.397122
1209.32	0.307814
1212.21	0.362948
1215.1	0.593227
1218	0.199286
1220.89	0.095262
1223.78	0.186771
1226.67	0.138245
1229.57	0.190249
1232.46	0.146309
1235.35	0.415606
1238.25	0.084205
1241.14	0.249026
1244.03	0.529555
1246.92	0.030529
1249.82	0.33445
1252.71	0.002343
1255.6	0.256133
1258.49	0.51906
1261.39	0.366898
1264.28	0.112994
1267.17	0.496301
1270.07	0.318762
1272.96	0.615228
1275.85	0.440987
1278.74	0.369504
1281.64	0.256054
1284.53	0.566879
1287.42	0.560328
1290.31	0.008013
1293.21	0.210103
1296.1	0.044619
1298.99	0.263939
1301.88	0
