Measurement: Raman, 780 nm, unoriented, Raman Data Processed
Mineral: Pentagonite
Rruff sample: R120136
Ideal chemistry: CaV^4+^OSi_4_O_10_4H_2_O
Locality: Wagholi, Poona, Maharashtra State, India
Source: Marcus Origlieri
Description: Bright blue blades
Raman shift (cm-1)	intensity
97.9492	0
101.324	0.072805
104.699	0.510843
108.074	2.71141
111.448	5.49799
114.823	8.50665
118.198	10.3305
121.573	11.886
124.948	11.5234
128.322	10.6283
131.697	9.56487
135.072	11.2669
138.447	13.3111
141.822	11.6706
145.197	8.37082
148.571	6.16339
151.946	4.67214
155.321	3.86318
158.696	3.63804
162.071	3.26479
165.446	2.64977
168.82	0.861346
172.195	0.622101
175.57	0.458896
178.945	0.402185
182.32	0.444096
185.694	1.29083
189.069	2.22832
192.444	4.67572
195.819	6.21907
199.194	10.0014
202.569	13.7432
205.943	17.0078
209.318	17.5358
212.693	14.68
216.068	10.5683
219.442	9.29717
222.817	9.82345
226.192	11.4359
229.567	10.6751
232.942	8.83877
236.317	6.00258
239.691	3.64402
243.066	2.4901
246.441	1.07022
249.816	0.753011
253.191	1.00337
256.565	1.50116
259.94	2.29459
263.315	1.45603
266.69	0.253929
270.065	0.205087
273.44	0.494566
276.814	0.714605
280.189	1.49323
283.564	2.49858
286.939	4.60496
290.314	4.23369
293.688	4.09914
297.063	4.98376
300.438	6.96021
303.813	8.27068
307.188	9.32399
310.562	8.21084
313.937	9.17956
317.312	10.7984
320.687	13.3516
324.062	14.9408
327.437	13.6127
330.811	10.8045
334.186	8.4015
337.561	5.94512
340.936	4.03329
344.311	3.23407
347.685	2.52572
351.06	1.64718
354.435	1.61005
357.81	0.837667
361.185	0.207047
364.56	0.079932
367.934	0.042278
371.309	0.095292
374.684	0.377623
378.059	0.165812
381.434	0.398846
384.808	1.26381
388.183	2.26855
391.558	3.64254
394.933	4.64017
398.308	4.63996
401.683	3.922
405.057	3.03119
408.432	1.98674
411.807	1.27181
415.182	1.19352
418.557	0.680969
421.931	0.524898
425.306	0.600656
428.681	0.454278
432.056	0.406834
435.431	0.007305
438.805	0.099103
442.18	0.231103
445.555	0.318343
448.93	0.232427
452.305	0.377841
455.68	0.472674
459.054	0.018178
462.429	0.204006
465.804	0.061539
469.179	0.272028
472.554	0.192054
475.928	0.130226
479.303	0.036986
482.678	0.26634
486.053	0.250745
489.428	0.478938
492.803	0.704669
496.177	0.641702
499.552	0.377356
502.927	0.446006
506.302	0.018749
509.677	0.302421
513.051	0.589043
516.426	0.919995
519.801	0.961839
523.176	1.34552
526.551	1.36867
529.926	1.27678
533.3	0.572704
536.675	0.778231
540.05	0.724556
543.425	0.776323
546.799	0.932211
550.174	1.26795
553.549	1.43875
556.924	1.56042
560.299	1.57236
563.674	1.37925
567.048	1.14017
570.423	1.05744
573.798	1.03902
577.173	0.617816
580.548	0.540654
583.923	0.656575
587.297	0.181358
590.672	0.244895
594.047	0.109571
597.422	0.01295
600.797	0.342728
604.171	0.062364
607.546	0.274796
610.921	0.14669
614.296	0.036514
617.671	0.244433
621.045	0.24603
624.42	0.58899
627.795	0.745769
631.17	0.954751
634.545	1.66932
637.919	2.16159
641.294	4.34612
644.669	6.44879
648.044	10.1459
651.419	11.9266
654.794	9.07011
658.168	5.00976
661.543	2.98366
664.918	1.58749
668.293	0.780637
671.668	0.519144
675.043	0.463457
678.417	0.476083
681.792	0.321724
685.167	0.361771
688.542	0.013607
691.917	0.279228
695.291	0.233231
698.666	0.296478
702.041	0.433538
705.416	0.283403
708.791	0.354488
712.165	0.21889
715.54	0.471808
718.915	0.356541
722.29	0.560959
725.665	0.306326
729.039	0.443233
732.414	0.248401
735.789	0.688449
739.164	0.562179
742.539	0.414747
745.914	0.238749
749.288	0.358336
752.663	0.824712
756.038	0.542138
759.413	0.619076
762.788	0.986512
766.163	0.811214
769.537	0.825897
772.912	1.01583
776.287	0.375155
779.662	0.453044
783.037	0.60235
786.411	0.228338
789.786	0.646276
793.161	0.275427
796.536	0.506544
799.911	0.247368
803.285	0.514282
806.66	0.344046
810.035	0.055252
813.41	0.199532
816.785	0.269455
820.159	0.287964
823.534	0.17878
826.909	0.385727
830.284	0.172558
833.659	0.559914
837.034	0.287466
840.408	0.324543
843.783	0.300093
847.158	0.370308
850.533	0.345825
853.908	0.261465
857.283	0.546928
860.657	0.023623
864.032	0.084034
867.407	0.57332
870.782	0.252882
874.157	0.254383
877.531	0.647594
880.906	0.107241
884.281	0.509237
887.656	0.100761
891.031	0.065727
894.405	0.487402
897.78	0.062265
901.155	0.258539
904.53	0.076391
907.905	0.046425
911.279	0.277611
914.654	0.520678
918.029	0.486197
921.404	0.794594
924.779	1.16314
928.154	1.35805
931.528	1.47863
934.903	1.57436
938.278	1.73323
941.653	1.47845
945.028	1.63141
948.403	3.10304
951.777	3.53204
955.152	5.96376
958.527	10.5845
961.902	21.8986
965.277	41.9725
968.651	88.7618
972.026	142.694
975.401	57.0192
978.776	22.2033
982.151	12.1308
985.525	7.74688
988.9	5.08195
992.275	3.25658
995.65	2.81264
999.025	1.55141
1002.4	1.98937
1005.77	1.06786
1009.15	0.01305
1012.52	0.190987
1015.9	0.259319
1019.27	0.3717
1022.65	0.461697
1026.02	0.151012
1029.4	0.247662
1032.77	0.007324
1036.15	0.303684
1039.52	0.56741
1042.9	0.621506
1046.27	0.889156
1049.65	1.09931
1053.02	0.668674
1056.4	0.280697
1059.77	0.635159
1063.15	0.659828
1066.52	1.02421
1069.9	1.08488
1073.27	0.591518
1076.64	1.0854
1080.02	1.82957
1083.39	1.90753
1086.77	2.39107
1090.14	2.65529
1093.52	1.85088
1096.89	1.54344
1100.27	0.839336
1103.64	0.719894
1107.02	0.469509
1110.39	0.249462
1113.77	0.122406
1117.14	0.345074
1120.52	0.446392
1123.89	0.315536
1127.27	0.416874
1130.64	0.798107
1134.02	0.398319
1137.39	0.740707
1140.77	0.540302
1144.14	0.673828
1147.52	0.910439
1150.89	1.2082
1154.27	1.21317
1157.64	1.21776
1161.02	0.996567
1164.39	0.661587
1167.77	0.328564
1171.14	0.843956
1174.52	1.05117
1177.89	1.01661
1181.27	1.13322
1184.64	0.878529
1188.01	1.05165
1191.39	1.08622
1194.76	0.623547
1198.14	1.42788
1201.51	0.607533
1204.89	1.58316
1208.26	0.505695
1211.64	0.498535
1215.01	0.097504
1218.39	0.846806
1221.76	0.706299
1225.14	0.46331
1228.51	0.009102
1231.89	0.013474
1235.26	0.857674
1238.64	0.274643
1242.01	1.15857
1245.39	0.68663
1248.76	0.646324
1252.14	0.676445
1255.51	0.482445
1258.88	0.978065
1262.26	0.690483
1265.63	1.34406
1269.01	0.561531
1272.38	0.338051
1275.76	0.488091
1279.13	0.259506
1282.51	0.126457
