Measurement: Raman, 532 nm, unoriented, Raman Data Processed
Mineral: Pentahydrite
Rruff sample: R100022
Ideal chemistry: MgSO_4_5H_2_O
Locality: Leopoldshall, Stassfurt, Stassfurt Deposit, Saxony-Anhalt, Germany
Source: Michael Scott
Description: Colorless well-formed tabular crystals associated with carnallite R070291 and kainite R100021.
Raman shift (cm-1)	intensity
123.834	0
127.209	5.29804
130.583	1.82851
133.958	8.43614
137.333	23.5388
140.708	31.1983
144.083	50.4619
147.458	89.0222
150.832	124.468
154.207	148.254
157.582	161.626
160.957	188.659
164.332	217.096
167.706	239.608
171.081	260.942
174.456	245.821
177.831	204.445
181.206	166.881
184.581	145.44
187.955	140.827
191.33	147.347
194.705	161.845
198.08	190.992
201.455	210.47
204.829	206.964
208.204	182.899
211.579	162.606
214.954	154.209
218.329	154.028
221.703	146.346
225.078	140.427
228.453	142.11
231.828	146.144
235.203	145.537
238.578	139.473
241.952	126.356
245.327	110.574
248.702	94.7709
252.077	74.4282
255.452	56.7099
258.827	36.7165
262.201	21.0905
265.576	15.0496
268.951	7.15715
272.326	0.502548
275.701	0.73941
279.075	4.67311
282.45	3.91052
285.825	3.21785
289.2	6.10149
292.575	0.074127
295.95	0.823486
299.324	1.90431
302.699	6.69331
306.074	8.4424
309.449	8.60033
312.824	11.9433
316.198	15.5177
319.573	20.2251
322.948	30.0419
326.323	37.3328
329.698	50.0771
333.072	62.2877
336.447	80.2824
339.822	98.034
343.197	110.114
346.572	109.427
349.947	100.204
353.321	88.0368
356.696	83.5789
360.071	80.7398
363.446	77.5371
366.821	69.0207
370.195	45.9786
373.57	33.4169
376.945	17.2182
380.32	7.98611
383.695	2.99487
387.07	2.73474
390.444	1.10304
393.819	0.872116
397.194	0.855209
400.569	2.99577
403.944	4.87131
407.318	14.6121
410.693	18.5453
414.068	26.1819
417.443	40.0055
420.818	57.8008
424.192	81.2141
427.567	119.529
430.942	169.247
434.317	230.323
437.692	303.715
441.067	382.368
444.441	434.767
447.816	444.814
451.191	420.027
454.566	380.498
457.941	328.528
461.315	265.733
464.69	209.118
468.065	157.194
471.44	112.945
474.815	81.1178
478.19	58.5213
481.564	39.3752
484.939	26.3553
488.314	13.3326
491.689	8.72035
495.064	4.0092
498.438	0.124817
501.813	1.2462
505.188	4.36292
508.563	5.02745
511.938	3.42908
515.313	0.924744
518.687	0.294785
522.062	2.89021
525.437	6.82239
528.812	12.2412
532.187	14.1615
535.562	17.6743
538.936	21.35
542.311	27.8695
545.686	34.0366
549.061	36.2154
552.436	46.3811
555.81	51.5255
559.185	55.0267
562.56	62.9803
565.935	60.479
569.31	65.6108
572.684	70.8233
576.059	85.3278
579.434	100.057
582.809	120.237
586.184	149
589.558	180.756
592.933	218.057
596.308	235.264
599.683	228.488
603.058	188.836
606.433	147.738
609.807	119.477
613.182	100.739
616.557	88.1962
619.932	81.8341
623.307	75.6789
626.682	69.2624
630.056	57.9808
633.431	46.0178
636.806	41.77
640.181	30.1029
643.556	24.0699
646.93	17.2212
650.305	12.418
653.68	8.44061
657.055	4.42436
660.43	2.57948
663.804	0.120667
667.179	0.192368
670.554	1.90172
673.929	1.85947
677.304	1.13214
680.678	0.793915
684.053	1.66312
687.428	0.708115
690.803	0.733704
694.178	0.299698
697.553	0.202591
700.927	0.649368
704.302	0.301086
707.677	2.54773
711.052	0.761322
714.427	2.67593
717.802	2.33495
721.176	1.98312
724.551	4.80783
727.926	2.57834
731.301	3.50558
734.676	2.01996
738.05	3.5058
741.425	6.44533
744.8	2.13586
748.175	6.05133
751.55	5.26756
754.924	4.13683
758.299	6.37137
761.674	7.27072
765.049	5.63905
768.424	5.03702
771.799	7.07439
775.173	4.7131
778.548	5.31166
781.923	4.17348
785.298	6.27399
788.673	4.74634
792.048	4.15166
795.422	3.8754
798.797	0.603577
802.172	5.95226
805.547	0.797318
808.922	5.56796
812.296	3.67256
815.671	4.25221
819.046	3.70099
822.421	4.46246
825.796	5.38681
829.17	1.17517
832.545	2.33376
835.92	2.98692
839.295	2.96597
842.67	2.66115
846.045	2.81088
849.419	3.09033
852.794	4.59375
856.169	0.938873
859.544	2.51559
862.919	0.489059
866.293	3.14768
869.668	2.34003
873.043	0.167252
876.418	2.07832
879.793	1.00957
883.168	2.38861
886.542	2.4106
889.917	1.29707
893.292	1.75339
896.667	1.0616
900.042	0.71994
903.416	2.49184
906.791	0.128586
910.166	0.624237
913.541	0.753922
916.916	0.016541
920.29	0.814789
923.665	1.03482
927.04	1.41097
930.415	0.63443
933.79	2.89255
937.165	4.47176
940.539	3.11188
943.914	1.31503
947.289	6.15151
950.664	8.16339
954.039	8.92162
957.413	11.5178
960.788	15.1763
964.163	21.5246
967.538	28.7329
970.913	38.8754
974.288	51.1397
977.662	78.0662
981.037	108.116
984.412	164.279
987.787	262.052
991.162	483.281
994.537	1043.65
997.911	1743.87
1001.29	3265.11
1004.66	5059.17
1008.04	2509.7
1011.41	730.623
1014.78	307.004
1018.16	167.218
1021.53	98.4929
1024.91	61.2233
1028.29	40.2703
1031.66	25.0548
1035.03	13.5468
1038.41	9.92394
1041.78	6.16864
1045.16	4.18709
1048.53	1.09308
1051.91	1.15216
1055.28	1.8803
1058.66	1.20772
1062.03	1.05022
1065.41	2.30276
1068.78	0.000885
1072.16	4.28439
1075.53	10.126
1078.91	15.1241
1082.28	20.2233
1085.66	31.3568
1089.03	42.3361
1092.41	44.7129
1095.78	46.7341
1099.16	45.0117
1102.53	36.4403
1105.9	34.7379
1109.28	33.157
1112.65	31.2024
1116.03	29.0785
1119.4	25.1
1122.78	22.6846
1126.15	19.827
1129.53	20.4702
1132.9	25.0984
1136.28	29.9835
1139.65	39.0632
1143.03	51.9515
1146.4	69.9061
1149.78	91.2213
1153.15	112.943
1156.53	123.941
1159.9	125.243
1163.28	112.946
1166.65	87.8976
1170.03	62.1379
1173.4	43.6147
1176.78	27.952
1180.15	19.7032
1183.53	12.5528
1186.9	10.9208
1190.28	7.22646
1193.65	5.15274
1197.03	1.70776
1200.4	1.78488
1203.78	0.446121
1207.15	0.694214
1210.53	0.571259
1213.9	0.076508
1217.27	1.96576
1220.65	2.00774
1224.02	0.991486
1227.4	1.77647
1230.77	3.75246
1234.15	2.65949
1237.52	0.294556
1240.9	0.713821
1244.27	2.51526
1247.65	3.67876
1251.02	2.42044
1254.4	3.57068
1257.77	5.36575
1261.15	2.20938
1264.52	1.93155
1267.9	2.88391
1271.27	3.02151
1274.65	3.48102
1278.02	2.87935
1281.4	0.138702
1284.77	3.41977
1288.15	2.71805
1291.52	2.60095
1294.89	6.05495
1298.27	1.49977
1301.64	1.39473
