Measurement: Raman, 780 nm, unoriented, Raman Data Processed
Mineral: Pentahydrite
Rruff sample: R100022
Ideal chemistry: MgSO_4_5H_2_O
Locality: Leopoldshall, Stassfurt, Stassfurt Deposit, Saxony-Anhalt, Germany
Source: Michael Scott
Description: Colorless well-formed tabular crystals associated with carnallite R070291 and kainite R100021.
Raman shift (cm-1)	intensity
92.6273	0
96.0021	7.40158
99.3769	5.43736
102.752	0.03656
106.127	13.8963
109.501	13.527
112.876	15.0222
116.251	24.9167
119.626	17.7081
123.001	14.8716
126.376	3.46625
129.75	2.97105
133.125	0.319
136.5	0.261566
139.875	1.46239
143.25	2.08372
146.624	5.29066
149.999	8.4904
153.374	16.9434
156.749	21.9999
160.124	27.1748
163.499	32.7712
166.873	34.2877
170.248	28.2111
173.623	25.8789
176.998	19.6689
180.373	15.5191
183.747	17.7014
187.122	17.9236
190.497	21.7172
193.872	22.1743
197.247	26.5315
200.621	34.3454
203.996	32.8401
207.371	34.2247
210.746	33.0764
214.121	39.7893
217.495	37.5916
220.87	43.1951
224.245	41.4343
227.62	45.0619
230.995	45.4685
234.37	46.6578
237.744	43.5687
241.119	37.8108
244.494	32.4513
247.869	25.6028
251.244	19.6706
254.619	11.8401
257.993	7.53171
261.368	6.32515
264.743	1.65437
268.118	1.25962
271.493	0.136589
274.867	0.440002
278.242	0.324806
281.617	3.41279
284.992	2.07204
288.367	1.78675
291.741	1.70525
295.116	3.86684
298.491	3.24401
301.866	3.10719
305.241	6.31204
308.616	5.3888
311.99	5.36875
315.365	6.79759
318.74	5.3654
322.115	10.8979
325.49	11.2138
328.865	11.7823
332.239	14.5878
335.614	15.8358
338.989	16.7916
342.364	17.9438
345.739	17.8696
349.113	15.6681
352.488	15.5525
355.863	12.2104
359.238	13.4865
362.613	8.53188
365.988	7.59964
369.362	6.51909
372.737	2.90597
376.112	2.86851
379.487	0.047737
382.862	0.844307
386.236	1.34663
389.611	0.537086
392.986	1.37362
396.361	4.19743
399.736	1.16228
403.111	4.44885
406.485	6.61065
409.86	13.0876
413.235	12.7347
416.61	13.6774
419.985	21.586
423.359	37.0332
426.734	49.2004
430.109	67.5138
433.484	81.6003
436.859	95.6002
440.233	103.231
443.608	99.9229
446.983	94.9867
450.358	82.6166
453.733	70.4733
457.108	56.3199
460.482	43.4551
463.857	31.7646
467.232	24.5268
470.607	16.3492
473.982	14.0561
477.356	7.96769
480.731	6.1789
484.106	5.00324
487.481	2.91384
490.856	0.3536
494.231	0.533394
497.605	0.858822
500.98	3.1e-05
504.355	0.640663
507.73	1.45767
511.105	0.200642
514.479	0.362186
517.854	1.00831
521.229	0.577156
524.604	0.697189
527.979	3.07086
531.354	2.13911
534.728	4.04974
538.103	2.79076
541.478	3.39466
544.853	7.83772
548.228	6.65289
551.602	5.96121
554.977	7.78205
558.352	6.23402
561.727	7.77152
565.102	9.0888
568.476	10.622
571.851	13.6904
575.226	17.6863
578.601	23.3084
581.976	30.1447
585.351	38.2234
588.725	43.5988
592.1	49.6833
595.475	45.7147
598.85	43.4196
602.225	37.438
605.6	29.0614
608.974	23.4151
612.349	19.4079
615.724	16.588
619.099	14.4345
622.474	12.8117
625.848	12.0842
629.223	8.71382
632.598	7.416
635.973	5.8785
639.348	4.17588
642.722	5.36338
646.097	2.46775
649.472	3.17166
652.847	1.64357
656.222	4.9101
659.597	1.74496
662.971	0.376995
666.346	0.020718
669.721	0.09219
673.096	0.311474
676.471	1.66079
679.846	0.700489
683.22	0.765583
686.595	1.11982
689.97	0.074539
693.345	1.8746
696.72	0.529408
700.094	0.63974
703.469	1.41283
706.844	2.41081
710.219	0.613281
713.594	0.119015
716.968	1.11563
720.343	3.74096
723.718	2.21664
727.093	0.114017
730.468	0.107025
733.842	2.82645
737.217	2.1429
740.592	2.01607
743.967	0.574287
747.342	3.92447
750.717	3.20687
754.091	2.56843
757.466	0.713989
760.841	1.88464
764.216	4.26051
767.591	1.38187
770.966	0.773754
774.34	4.76441
777.715	2.08735
781.09	5.43824
784.465	1.59769
787.84	1.13041
791.214	2.53788
794.589	0.844982
797.964	3.87087
801.339	1.11464
804.714	3.56362
808.088	1.6891
811.463	3.52996
814.838	2.66588
818.213	5.58326
821.588	2.89082
824.963	2.28304
828.337	3.97929
831.712	2.22013
835.087	3.37385
838.462	2.76836
841.837	4.34162
845.212	3.0401
848.586	5.85654
851.961	4.54841
855.336	3.11182
858.711	2.3124
862.086	3.7547
865.46	0.779087
868.835	2.19397
872.21	3.24378
875.585	2.45473
878.96	2.19402
882.335	0.635605
885.709	4.13126
889.084	2.21389
892.459	4.16556
895.834	2.8832
899.209	1.40306
902.583	0.508595
905.958	2.46857
909.333	1.67436
912.708	1.23644
916.083	1.14873
919.457	1.43312
922.832	1.19495
926.207	0.806465
929.582	1.77787
932.957	1.21362
936.332	0.368725
939.706	2.10676
943.081	0.831779
946.456	1.56764
949.831	3.05047
953.206	0.759892
956.58	2.80003
959.955	2.46816
963.33	6.53385
966.705	4.43828
970.08	7.72855
973.455	10.2694
976.829	15.52
980.204	23.076
983.579	37.179
986.954	60.9177
990.329	139.847
993.703	332.356
997.078	449.134
1000.45	557.733
1003.83	540.11
1007.2	304.017
1010.58	98.2368
1013.95	41.0196
1017.33	20.8032
1020.7	11.6012
1024.08	9.13476
1027.45	5.85437
1030.83	4.52145
1034.2	0.657612
1037.58	0.104851
1040.95	0.958214
1044.33	2.34174
1047.7	2.04518
1051.08	0.328606
1054.45	1.49338
1057.83	1.39528
1061.2	0.475113
1064.58	1.18189
1067.95	4.72768
1071.32	3.85649
1074.7	5.48066
1078.07	8.64143
1081.45	9.28985
1084.82	12.2497
1088.2	12.9123
1091.57	13.0814
1094.95	13.9209
1098.32	13.071
1101.7	9.59769
1105.07	7.41747
1108.45	8.98498
1111.82	5.7018
1115.2	5.13175
1118.57	2.90213
1121.95	5.03096
1125.32	5.02051
1128.7	4.14072
1132.07	7.15043
1135.45	6.75661
1138.82	7.64954
1142.19	11.6953
1145.57	13.1987
1148.94	18.5039
1152.32	21.5997
1155.69	22.1161
1159.07	20.9294
1162.44	17.629
1165.82	15.4751
1169.19	8.00265
1172.57	8.40173
1175.94	4.87164
1179.32	2.30227
1182.69	1.76535
1186.07	0.67165
1189.44	1.63468
1192.82	0.574539
1196.19	1.76669
1199.57	1.7662
1202.94	1.64492
1206.32	0.590565
1209.69	0.790054
1213.07	0.186703
1216.44	2.10294
1219.82	0.889832
1223.19	0.03363
1226.57	0.328224
1229.94	1.55982
1233.32	0.993521
1236.69	1.8978
1240.07	2.83163
1243.44	3.16132
1246.82	2.21325
1250.19	3.39062
1253.56	1.51444
1256.94	0.642143
1260.31	2.50396
1263.69	0.129787
1267.06	1.00245
1270.44	0.908089
1273.81	3.16019
1277.19	2.98282
1280.56	1.90259
1283.94	0.835829
