Measurement: Raman, 780 nm, unoriented, Raman Data Processed
Mineral: Pentahydrite
Rruff sample: R060990
Ideal chemistry: MgSO_4_5H_2_O
Locality: Strassfurt, Prussia
Source: Michael Scott
Description: Unconsolidated aggregate of colorless grains, mixed with starkeyite
Raman shift (cm-1)	intensity
92.1452	0
95.52	212.969
98.8948	139.892
102.27	24.1401
105.644	4.16357
109.019	9.48535
112.394	1.42969
115.769	50.0205
119.144	36.3013
122.519	49.7168
125.893	20.9775
129.268	21.9814
132.643	4.05615
136.018	23.0796
139.393	21.9736
142.768	7.57861
146.142	12.8452
149.517	8.8501
152.892	14.1895
156.267	34.6172
159.642	56.9522
163.016	83.5649
166.391	76.1133
169.766	62.6914
173.141	64.2734
176.516	25.0571
179.89	26.9595
183.265	22.3135
186.64	51.0928
190.015	55.0073
193.39	68.1738
196.764	108.762
200.139	102.53
203.514	135.19
206.889	134.875
210.264	106.298
213.639	79.3267
217.013	71.3618
220.388	51.7466
223.763	68.2715
227.138	85.3272
230.513	108.999
233.887	119.495
237.262	118.053
240.637	114.997
244.012	104.353
247.387	109.564
250.762	84.1724
254.136	47.9136
257.511	13.2075
260.886	12.938
264.261	17.9009
267.636	6.53125
271.01	1.05713
274.385	0.942383
277.76	1.86182
281.135	10.4062
284.51	4.13477
287.885	7.13232
291.259	29.5933
294.634	13.7559
298.009	8.6831
301.384	5.1543
304.759	20.6255
308.134	10.3945
311.508	4.75
314.883	7.26367
318.258	31.54
321.633	33.0454
325.008	24.8023
328.382	41.7148
331.757	23.0879
335.132	25.248
338.507	63.7666
341.882	57.9199
345.257	54.6475
348.631	59.3237
352.006	22.6013
355.381	17.5127
358.756	26.7786
362.131	37.8857
365.505	17.4622
368.88	39.5884
372.255	17.9094
375.63	16.427
379.005	13.8911
382.38	7.0813
385.754	0.195068
389.129	35.5185
392.504	4.67993
395.879	19.95
399.253	24.4439
402.628	58.7861
406.003	72.6196
409.378	62.7498
412.753	97.6587
416.128	123.336
419.502	120.287
422.877	178.383
426.252	213.167
429.627	253.425
433.002	302.537
436.377	346.037
439.751	372.641
443.126	375.518
446.501	357.242
449.876	321.297
453.251	307.584
456.625	264.107
460	225.644
463.375	187.102
466.75	137.124
470.125	108.755
473.5	95.5696
476.874	60.0281
480.249	31.4002
483.624	29.5171
486.999	17.7356
490.374	22.1262
493.748	3.61304
497.123	24.5054
500.498	9.06128
503.873	2.09399
507.248	5.65137
510.623	9.29248
513.997	8.5354
517.372	7.9834
520.747	0.349121
524.122	10.9062
527.497	10.6672
530.871	21.8298
534.246	10.5696
537.621	6.9209
540.996	12.4395
544.371	9.55249
547.745	5.5022
551.12	8.22266
554.495	11.9485
557.87	12.7429
561.245	10.4358
564.62	17.1741
567.994	8.51416
571.369	34.9702
574.744	40.3718
578.119	57.6721
581.494	73.8196
584.869	96.5872
588.243	105.144
591.618	116.205
594.993	130.981
598.368	153.06
601.743	137.094
605.117	124.973
608.492	92.948
611.867	109.032
615.242	80.501
618.617	73.9761
621.991	74.0903
625.366	64.7705
628.741	74.186
632.116	63.6946
635.491	75.2676
638.865	53.022
642.24	50.6167
645.615	39.3779
648.99	43.3386
652.365	23.9856
655.74	33.0913
659.114	21.7239
662.489	13.3589
665.864	11.0525
669.239	14.2493
672.614	11.6157
675.989	6.95752
679.363	3.99756
682.738	1.90186
686.113	4.14673
689.488	2.00269
692.863	3.52441
696.237	7.63867
699.612	13.1294
702.987	8.92236
706.362	11.8928
709.737	17.6304
713.111	9.08081
716.486	16.2044
719.861	19.0068
723.236	10.906
726.611	14.064
729.986	9.70874
733.36	26.2947
736.735	7.90723
740.11	12.4426
743.485	19.6506
746.86	26.6309
750.235	26.6423
753.609	11.7485
756.984	4.66602
760.359	16.0498
763.734	17.979
767.109	30.4114
770.483	18.1467
773.858	17.7773
777.233	5.49658
780.608	22.1438
783.983	8.56323
787.357	0.460693
790.732	9.14673
794.107	36.5632
797.482	8.19678
800.857	8.80542
804.232	6.54004
807.606	24.4729
810.981	38.8174
814.356	14.637
817.731	21.2466
821.106	26.6279
824.481	19.5689
827.855	6.01489
831.23	11.5918
834.605	12.0835
837.98	4.33057
841.355	11.3225
844.729	17.3618
848.104	8.77124
851.479	20.1401
854.854	14.832
858.229	16.896
861.604	24.2327
864.978	25.1262
868.353	22.9145
871.728	22.9773
875.103	17.9285
878.477	17.9751
881.852	3.87915
885.227	24.1648
888.602	27.7056
891.977	12.5239
895.352	12.0527
898.726	6.41724
902.101	6.71387
905.476	8.42798
908.851	11.1167
912.226	8.12231
915.601	1.67456
918.975	19.6389
922.35	2.64722
925.725	0.712891
929.1	8.00513
932.475	36.1074
935.849	8.30225
939.224	6.13892
942.599	16.9341
945.974	11.8162
949.349	6.33398
952.723	24.6643
956.098	16.5986
959.473	10.28
962.848	11.1865
966.223	13.6672
969.598	28.376
972.972	26.709
976.347	25.7239
979.722	45.0039
983.097	106.867
986.472	106.824
989.846	215.262
993.221	506.165
996.596	793.064
999.971	1192.78
1003.35	1888.32
1006.72	1820.41
1010.1	576.774
1013.47	198.138
1016.85	116.378
1020.22	61.4995
1023.6	31.584
1026.97	12.3691
1030.34	27.398
1033.72	3.93091
1037.09	34.1753
1040.47	8.52051
1043.84	33.919
1047.22	8.2124
1050.59	7.76465
1053.97	0.527344
1057.34	2.14746
1060.72	1.70581
1064.09	12.4512
1067.47	0.240967
1070.84	13.0422
1074.22	1.08667
1077.59	9.66504
1080.97	6.5415
1084.34	31.4636
1087.72	44.4377
1091.09	62.0698
1094.47	70.2634
1097.84	36.4475
1101.21	42.7573
1104.59	45.5105
1107.96	52.471
1111.34	51.9883
1114.71	12.2244
1118.09	32.5933
1121.46	14.1851
1124.84	2.55273
1128.21	1.96631
1131.59	4.88477
1134.96	1.20215
1138.34	24.3899
1141.71	32.2996
1145.09	33.4224
1148.46	47.352
1151.84	43.2861
1155.21	84.6111
1158.59	67.0732
1161.96	65.4954
1165.34	53.6404
1168.71	41.8374
1172.09	31.5005
1175.46	30.0027
1178.84	32.6316
1182.21	40.4802
1185.59	12.4573
1188.96	2.98975
1192.34	18.4077
1195.71	15.3787
1199.09	21.8899
1202.46	17.6995
1205.84	17.4539
1209.21	2.01929
1212.58	8.84863
1215.96	3.10229
1219.33	14.3179
1222.71	12.9099
1226.08	52.3833
1229.46	13.4416
1232.83	11.5771
1236.21	22.1807
1239.58	1.4668
1242.96	5.35132
1246.33	28.0535
1249.71	14.4763
1253.08	16.3035
1256.46	16.114
1259.83	32.4722
1263.21	16.3921
1266.58	36.2239
1269.96	12.135
1273.33	21.6404
1276.71	20.6174
1280.08	0.731201
1283.46	4.29468
