Measurement: Raman, 532 nm, unoriented, Raman Data Processed
Mineral: Pentahydrite
Rruff sample: R060990
Ideal chemistry: MgSO_4_5H_2_O
Locality: Strassfurt, Prussia
Source: Michael Scott
Description: Unconsolidated aggregate of colorless grains, mixed with starkeyite
Raman shift (cm-1)	intensity
166.26	0
169.153	6.75806
172.046	17.1101
174.938	20.0914
177.831	15.6062
180.724	7.20532
183.616	0.320801
186.509	12.1672
189.402	20.155
192.294	36.0862
195.187	59.5762
198.08	88.1033
200.972	108.702
203.865	112.727
206.758	116.31
209.651	109.129
212.543	101.371
215.436	118.405
218.329	106.826
221.221	115.067
224.114	117.183
227.007	120.67
229.899	122.959
232.792	119.356
235.685	125.909
238.578	130.7
241.47	113.549
244.363	100.791
247.256	93.933
250.148	77.4099
253.041	67.8769
255.934	46.6378
258.827	33.9448
261.719	16.1847
264.612	7.92944
267.505	10.9441
270.397	11.568
273.29	2.4054
276.183	1.90576
279.075	0.132202
281.968	1.34607
284.861	3.0238
287.753	0.349976
290.646	0.199951
293.539	3.11169
296.432	12.1854
299.324	11.2179
302.217	10.0339
305.11	13.1993
308.002	10.7432
310.895	12.1771
313.788	4.97717
316.68	10.5513
319.573	6.92212
322.466	7.34839
325.359	12.872
328.251	21.5334
331.144	24.2998
334.037	25.0848
336.929	34.4653
339.822	35.8815
342.715	34.6599
345.608	45.3938
348.5	36.3245
351.393	31.5249
354.286	27.9177
357.178	25.9276
360.071	26.6119
362.964	25.8977
365.856	17.8041
368.749	11.7964
371.642	3.77319
374.534	5.55261
377.427	0.258911
380.32	3.8916
383.213	1.88611
386.105	0.549683
388.998	4.48352
391.891	8.29456
394.783	11.1062
397.676	19.6224
400.569	27.4326
403.462	33.6776
406.354	42.3417
409.247	53.0048
412.14	62.6062
415.032	75.2666
417.925	93.1014
420.818	109.304
423.71	139.556
426.603	164.895
429.496	198.592
432.389	231.454
435.281	265.493
438.174	304.789
441.067	309.177
443.959	329.233
446.852	326.739
449.745	328.424
452.637	308.693
455.53	274.694
458.423	257.435
461.315	219.382
464.208	178.496
467.101	136.082
469.994	108.038
472.886	78.1848
475.779	59.6753
478.672	44.3677
481.564	32.6168
484.457	24.5627
487.35	9.57581
490.243	15.6165
493.135	0.887573
496.028	1.16419
498.921	3.91077
501.813	4.92847
504.706	0.273804
507.599	4.17432
510.491	1.22717
513.384	2.0011
516.277	1.63208
519.169	0.90625
522.062	3.66162
524.955	3.94226
527.848	4.2771
530.74	6.58606
533.633	10.3135
536.526	9.99512
539.418	12.6822
542.311	10.1974
545.204	10.4827
548.096	16.9936
550.989	21.5199
553.882	19.7682
556.775	13.1576
559.667	22.098
562.56	8.70715
565.453	18.7396
568.345	33.9733
571.238	35.1855
574.131	39.2082
577.024	36.2559
579.916	53.7812
582.809	70.0885
585.702	79.55
588.594	102.258
591.487	123.115
594.38	145.917
597.272	160.449
600.165	152.845
603.058	128.498
605.95	105.843
608.843	86.853
611.736	88.3931
614.629	75.3705
617.521	63.4548
620.414	66.025
623.307	66.537
626.199	59.3816
629.092	51.8013
631.985	53.8761
634.877	40.2644
637.77	35.2438
640.663	23.042
643.556	22.4866
646.448	20.1836
649.341	24.2194
652.234	17.1599
655.126	23.032
658.019	15.2467
660.912	12.9731
663.804	8.12378
666.697	11.8742
669.59	12.1165
672.482	4.33484
675.375	2.32483
678.268	0.752808
681.161	1.7478
684.053	1.74304
686.946	3.13916
689.839	3.55383
692.731	4.45117
695.624	5.93713
698.517	1.62463
701.409	1.24512
704.302	0.532471
707.195	0.926636
710.088	7.61133
712.98	4.8656
715.873	12.5662
718.766	4.17273
721.658	1.71619
724.551	1.24426
727.444	0.387085
730.337	2.05591
733.229	4.1405
736.122	1.41357
739.015	8.80676
741.907	4.91638
744.8	14.5692
747.693	9.10901
750.585	5.81555
753.478	10.5693
756.371	9.30115
759.264	11.4217
762.156	10.9144
765.049	10.0105
767.942	11.4637
770.834	13.058
773.727	15.3179
776.62	10.0731
779.513	8.203
782.405	5.79077
785.298	12.5894
788.191	0.157104
791.083	9.66174
793.976	10.0446
796.869	0.986328
799.761	1.57812
802.654	12.1845
805.547	2.76526
808.439	12.1
811.332	1.33276
814.225	10.8812
817.118	6.14136
820.01	19.4104
822.903	15.3509
825.796	5.19653
828.688	6.20606
831.581	2.71997
834.474	13.5072
837.366	6.76941
840.259	16.6252
843.152	14.2163
846.045	11.1582
848.937	7.07446
851.83	6.99146
854.723	9.74756
857.615	2.34778
860.508	8.7113
863.401	2.62305
866.293	12.209
869.186	16.7369
872.079	9.96057
874.972	10.225
877.864	3.91675
880.757	9.91773
883.65	9.21362
886.542	9.14246
889.435	9.18274
892.328	10.5422
895.221	2.20667
898.113	11.0791
901.006	4.55469
903.899	9.36047
906.791	7.85437
909.684	9.7074
912.577	9.0741
915.469	9.8313
918.362	8.72729
921.255	1.85644
924.148	13.062
927.04	0.413208
929.933	1.20068
932.826	2.27405
935.718	0.38916
938.611	6.42896
941.504	3.94153
944.396	9.64148
947.289	3.30298
950.182	11.8658
953.074	16.3608
955.967	13.7529
958.86	9.12561
961.753	6.47607
964.645	14.1277
967.538	19.5598
970.431	21.804
973.323	32.7749
976.216	42.2
979.109	77.0618
982.001	100.237
984.894	124.766
987.787	153.341
990.68	253.763
993.572	484.602
996.465	869.182
999.358	1379.05
1002.25	2349.84
1005.14	3254.45
1008.04	1926.67
1010.93	669.705
1013.82	294.782
1016.71	163.947
1019.61	99.8142
1022.5	63.7322
1025.39	45.9375
1028.29	42.0498
1031.18	26.6602
1034.07	10.0747
1036.96	20.2903
1039.86	16.7866
1042.75	13.6997
1045.64	8.11865
1048.53	7.91748
1051.43	2.27417
1054.32	3.52783
1057.21	6.06494
1060.1	1.80957
1063	1.33301
1065.89	2.15601
1068.78	6.86133
1071.67	7.97876
1074.57	11.1121
1077.46	18.5684
1080.35	14.3579
1083.25	28.0698
1086.14	37.5496
1089.03	37.6062
1091.92	45.7722
1094.82	59.9314
1097.71	60.45
1100.6	57.5947
1103.49	55.5442
1106.39	52.4329
1109.28	57.3784
1112.17	56.1384
1115.07	46.4397
1117.96	40.8254
1120.85	26.4807
1123.74	19.6394
1126.64	7.18945
1129.53	15.9829
1132.42	6.64087
1135.32	11.3401
1138.21	12.8669
1141.1	31.3733
1143.99	28.023
1146.88	44.7505
1149.78	60.46
1152.67	78.1399
1155.56	80.5571
1158.46	92.5376
1161.35	90.7661
1164.24	83.5881
1167.13	69.5095
1170.03	41.2239
1172.92	28.1775
1175.81	31.1682
1178.7	20.3115
1181.6	18.6865
1184.49	8.74805
1187.38	31.8359
1190.28	17.2561
1193.17	14.9817
1196.06	10.8377
1198.95	5.30347
1201.85	6.28711
1204.74	5.16333
1207.63	3.03687
1210.53	3.75464
1213.42	10.2959
1216.31	8.77124
1219.2	8.90894
1222.1	2.3728
1224.99	9.58008
1227.88	3.07519
1230.77	11.6592
1233.67	3.21362
1236.56	0.708496
1239.45	1.43628
1242.34	1.42017
1245.24	3.73999
1248.13	8.42114
1251.02	16.3069
1253.91	6.52197
1256.81	10.5083
1259.7	7.8479
1262.59	19.7087
1265.49	10.8293
1268.38	12.1836
1271.27	11.5207
1274.16	13.4827
1277.06	10.1223
1279.95	15.0815
1282.84	9.1394
1285.73	1.92041
1288.63	11.1462
1291.52	14.5815
1294.41	6.43823
1297.31	12.1677
1300.2	2.71338
