Measurement: Raman, 785 nm, unoriented, Raman Data Processed
Mineral: Pentahydrite
Rruff sample: R070069
Ideal chemistry: MgSO_4_5H_2_O
Locality: Vulcano Island, Eolie Islands, Messina Province, Sicily, Italy
Source: James Shigley
Description: Unconsolidated coarse crystalline grains associated with anhydrite
Raman shift (cm-1)	intensity
191.217	0
194.11	38.3185
197.002	82.7424
199.895	204.566
202.788	292.621
205.68	377.359
208.573	438.938
211.466	460.984
214.359	462.5
217.251	522.638
220.144	553.168
223.037	579.633
225.929	577.853
228.822	619.096
231.715	669.569
234.607	729.818
237.5	814.426
240.393	983.353
243.286	1090.3
246.178	1147.87
249.071	1106.93
251.964	912.503
254.856	758.258
257.749	601.482
260.642	425.943
263.534	322.589
266.427	212.063
269.32	115.021
272.213	93.3852
275.105	58.7992
277.998	21.5094
280.891	6.95032
283.783	3.16504
286.676	20.1437
289.569	14.5348
292.462	31.9561
295.354	16.956
298.247	13.3852
301.14	5.45923
304.032	29.2223
306.925	67.3229
309.818	69.1312
312.71	73.1354
315.603	85.4459
318.496	81.2504
321.389	104.075
324.281	100.537
327.174	127.138
330.067	138.492
332.959	176.917
335.852	180.046
338.745	216.006
341.637	263.077
344.53	281.081
347.423	334.118
350.315	414.5
353.208	444.529
356.101	515.167
358.994	528.411
361.886	536.418
364.779	526.098
367.672	434.021
370.564	356.868
373.457	284.576
376.35	180.64
379.243	109.552
382.135	66.2711
385.028	29.4495
387.921	25.9815
390.813	12.33
393.706	0.252991
396.599	3.17749
399.491	14.431
402.384	1.10718
405.277	2.31207
408.17	43.3715
411.062	61.5467
413.955	60.307
416.848	105.157
419.74	158.96
422.633	204.093
425.526	291.799
428.418	374.594
431.311	502.327
434.204	660.386
437.096	860.661
439.989	1017.11
442.882	1119.83
445.775	1134.6
448.667	1076.88
451.56	997
454.453	1057.49
457.345	1186.73
460.238	1372.16
463.131	1554.61
466.024	1607.39
468.916	1403.82
471.809	1029.27
474.702	733.088
477.594	465.252
480.487	323.944
483.38	214.935
486.272	129.175
489.165	114.041
492.058	54.0441
494.95	45.5804
497.843	6.51269
500.736	21.9274
503.629	0.559814
506.521	8.77606
509.414	21.2867
512.307	5.45532
515.199	10.9398
518.092	4.33331
520.985	6.00024
523.878	7.62415
526.77	4.70111
529.663	5.15155
532.556	16.7499
535.448	19.1486
538.341	48.308
541.234	27.8526
544.126	40.157
547.019	69.4061
549.912	93.0514
552.804	81.5587
555.697	108.081
558.59	108.4
561.482	159.986
564.375	169.078
567.268	185.273
570.161	203.583
573.053	245.55
575.946	281.755
578.839	309.477
581.731	369.207
584.624	405.291
587.517	454.825
590.409	535.393
593.302	579.518
596.195	629.53
599.088	727.348
601.98	774.659
604.873	860.305
607.766	884.782
610.658	920.526
613.551	929.071
616.444	979.881
619.337	990.984
622.229	1036.2
625.122	1089.91
628.015	1034.9
630.907	1008.79
633.8	888.948
636.693	787.593
639.585	648.25
642.478	501.125
645.371	377.596
648.264	292.317
651.156	217.243
654.049	166.754
656.942	130.481
659.834	88.5801
662.727	57.2137
665.62	38.8657
668.513	28.6358
671.405	14.3161
674.298	4.1568
677.191	8.35596
680.083	14.4099
682.976	4.67639
685.869	1.99469
688.761	2.58789
691.654	2.67395
694.547	2.83258
697.439	1.09604
700.332	7.6723
703.225	13.8904
706.118	7.90643
709.01	20.1361
711.903	26.5024
714.796	7.85605
717.688	16.8552
720.581	30.6678
723.474	21.7802
726.366	44.8973
729.259	34.9528
732.152	38.4387
735.045	22.5435
737.937	38.9606
740.83	45.2418
743.723	37.5984
746.615	24.9573
749.508	29.5885
752.401	48.8282
755.293	41.6381
758.186	40.2156
761.079	54.4266
763.972	23.9233
766.864	35.0771
769.757	27.6422
772.65	32.3679
775.542	34.0678
778.435	35.4799
781.328	30.2951
784.221	33.3223
787.113	24.0653
790.006	3.24097
792.899	16.3875
795.791	26.6663
798.684	15.9437
801.577	13.1016
804.469	20.1106
807.362	26.7027
810.255	12.9068
813.148	22.7331
816.04	11.4312
818.933	9.31158
821.826	14.3175
824.718	19.3805
827.611	5.02924
830.504	8.49704
833.396	12.0731
836.289	4.36755
839.182	1.59164
842.074	5.96469
844.967	12.2551
847.86	7.48184
850.753	13.0585
853.645	11.2958
856.538	7.1366
859.431	0.962494
862.323	11.0671
865.216	3.71173
868.109	6.27899
871.001	14.0364
873.894	7.45428
876.787	18.9744
879.68	14.2808
882.572	27.8839
885.465	9.9426
888.358	2.22186
891.25	17.9462
894.143	3.65576
897.036	14.6625
899.928	18.9529
902.821	2.47354
905.714	27.8589
908.607	0.17984
911.499	22.8124
914.392	2.64551
917.285	1.37756
920.177	11.238
923.07	12.1813
925.963	4.30496
928.856	11.376
931.748	16.6514
934.641	21.4869
937.534	21.0382
940.426	35.7338
943.319	51.8598
946.212	52.7683
949.104	81.8118
951.997	100.346
954.89	138.094
957.783	192.698
960.675	285.425
963.568	430.724
966.461	667.111
969.353	960.561
972.246	1733.95
975.139	4180.19
978.031	8317.35
980.924	17007.2
983.817	29118.1
986.71	16949.6
989.602	5210.07
992.495	1841.54
995.388	937.769
998.28	561.964
1001.17	326.959
1004.07	233.111
1006.96	180.501
1009.85	116.499
1012.74	74.4962
1015.64	77.4038
1018.53	63.202
1021.42	44.7883
1024.32	13.8502
1027.21	17.0748
1030.1	0.413208
1032.99	14.2174
1035.88	3.11014
1038.78	0.674042
1041.67	9.66043
1044.56	19.8946
1047.46	8.32016
1050.35	1.07263
1053.24	19.3597
1056.13	54.3953
1059.03	46.0273
1061.92	86.5193
1064.81	72.1464
1067.7	125.013
1070.6	165.948
1073.49	229.588
1076.38	273.321
1079.28	312.044
1082.17	350.036
1085.06	353.428
1087.95	359.939
1090.85	325.95
1093.74	246.784
1096.63	220.655
1099.53	191.523
1102.42	136.35
1105.31	100.989
1108.2	134.071
1111.1	99.5136
1113.99	118.577
1116.88	136.192
1119.77	144.964
1122.67	189.111
1125.56	256.827
1128.45	323.869
1131.34	440.084
1134.24	590.815
1137.13	745.565
1140.02	887.454
1142.91	1027.89
1145.81	1104.14
1148.7	1047
1151.59	897.775
1154.49	735.871
1157.38	550.443
1160.27	421.916
1163.16	299.777
1166.06	206.206
1168.95	146.839
1171.84	108.388
1174.73	82.7101
1177.63	35.7588
1180.52	26.2405
1183.41	22.8358
1186.31	22.7301
1189.2	10.5643
1192.09	11.4857
1194.98	9.48633
1197.88	1.0705
1200.77	4.0957
1203.66	13.4463
1206.56	1.8139
1209.45	3.93301
1212.34	19.4374
1215.23	3.93533
1218.12	24.8385
1221.02	24.0418
1223.91	17.6293
1226.8	21.1727
1229.7	8.36917
