Measurement: Raman, 532 nm, unoriented, Raman Data Processed
Mineral: Peretaite
Rruff sample: R060459
Ideal chemistry: CaSb^3+^_4_O_4_(SO_4_)_2_(OH)_2_2H_2_O
Locality: Pereta mine, Grosseto, Tuscany, Italy
Source: Michael Scott
Description: Colorless thin plates, with red incrustations of valentinite
Raman shift (cm-1)	intensity
178.298	0
181.191	1.45923
184.084	16.036
186.976	51.3876
189.869	154.917
192.762	271.152
195.655	331.435
198.547	271.195
201.44	165.748
204.333	125.705
207.225	151.596
210.118	204.094
213.011	276.71
215.904	337.341
218.796	387.617
221.689	446.756
224.582	583.138
227.474	763.387
230.367	788.806
233.26	531.002
236.152	299.373
239.045	174.881
241.938	120.182
244.831	86.6697
247.723	62.4551
250.616	49.3485
253.509	32.0483
256.401	26.3724
259.294	19.8944
262.187	13.4547
265.079	15.7125
267.972	11.0479
270.865	4.33691
273.758	9.13501
276.65	1.57678
279.543	1.7467
282.436	2.92114
285.328	1.42542
288.221	7.32788
291.114	3.13806
294.007	0.61084
296.899	2.59497
299.792	4.55737
302.685	3.45923
305.577	9.28491
308.47	24.495
311.363	30.887
314.255	48.1664
317.148	54.5054
320.041	93.2046
322.933	142.936
325.826	197.781
328.719	275.276
331.612	368.669
334.504	470.835
337.397	534.499
340.29	446.468
343.183	293.572
346.075	185.568
348.968	134.982
351.861	103.135
354.753	75.0414
357.646	58.7677
360.539	45.6556
363.431	30.8662
366.324	21.9355
369.217	17.425
372.11	16.4044
375.002	5.90076
377.895	8.3595
380.788	8.7865
383.68	3.62793
386.573	2.59668
389.466	0.450195
392.358	2.02039
395.251	4.84705
398.144	12.407
401.036	34.8967
403.929	51.9955
406.822	61.925
409.715	93.4724
412.607	153.543
415.5	224.523
418.393	243.892
421.285	191.309
424.178	185.895
427.071	209.246
429.964	261.809
432.856	291.621
435.749	277.566
438.642	219.516
441.534	144.117
444.427	82.1945
447.32	40.7364
450.212	19.7981
453.105	15.895
455.998	8.40344
458.891	2.48669
461.783	3.47766
464.676	8.47742
467.569	21.3308
470.461	28.9814
473.354	32.5896
476.247	41.1505
479.139	51.045
482.032	47.5444
484.925	37.8872
487.818	18.5653
490.71	18.7307
493.603	11.3318
496.496	10.5948
499.388	11.2692
502.281	11.8648
505.174	0.085815
508.067	5.54602
510.959	3.08923
513.852	2.03125
516.745	3.04858
519.637	0.358887
522.53	5.06201
525.423	1.67822
528.316	5.91248
531.208	2.48547
534.101	11.2318
536.994	6.57031
539.886	20.4805
542.779	16.5856
545.672	19.5391
548.564	23.8313
551.457	33.3677
554.35	41.0011
557.242	38.0408
560.135	49.498
563.028	52.3839
565.921	76.144
568.813	99.924
571.706	139.859
574.599	188.864
577.491	270.613
580.384	400.731
583.277	597.856
586.17	808.014
589.062	1011.1
591.955	1146.87
594.848	1226.6
597.74	1001.29
600.633	577.063
603.526	317.974
606.418	216.478
609.311	187.435
612.204	152.613
615.097	83.759
617.989	46.2151
620.882	35.5889
623.775	21.2176
626.667	14.092
629.56	11.8261
632.453	2.53626
635.346	3.02332
638.238	4.28906
641.131	17.8457
644.024	25.6141
646.916	34.2952
649.809	46.3472
652.702	39.3444
655.594	14.0465
658.487	8.29248
661.38	3.69983
664.273	2.81274
667.165	5.83435
670.058	0.03186
672.951	2.12634
675.843	3.4331
678.736	5.75232
681.629	2.5625
684.521	9.89734
687.414	9.77856
690.307	23.2328
693.199	24.7446
696.092	19.8864
698.985	22.3117
701.878	28.5709
704.77	32.145
707.663	39.251
710.556	35.8058
713.448	40.9672
716.341	38.5679
719.234	26.2395
722.127	14.5458
725.019	16.7246
727.912	10.5035
730.805	13.9529
733.697	3.23193
736.59	9.10449
739.483	3.66907
742.375	2.6919
745.268	0.302979
748.161	0.622559
751.054	0.894043
753.946	1.98377
756.839	3.29419
759.732	2.87292
762.625	4.98987
765.517	2.44458
768.41	1.70508
771.303	6.28833
774.195	2.11804
777.088	3.75476
779.981	6.38928
782.873	8.32495
785.766	5.729
788.659	0.637695
791.552	4.24683
794.444	11.295
797.337	5.04773
800.23	12.34
803.122	14.7739
806.015	8.72107
808.908	13.7472
811.8	16.225
814.693	17.8541
817.586	7.53577
820.479	6.48535
823.371	6.57227
826.264	1.98169
829.157	0.232788
832.049	6.58337
834.942	3.05347
837.835	9.86035
840.727	9.61414
843.62	5.11743
846.513	8.3335
849.405	9.2616
852.298	24.8103
855.191	31.074
858.084	28.248
860.976	31.8297
863.869	17.1352
866.762	20.9509
869.654	15.9269
872.547	14.5504
875.44	13.7354
878.333	10.7863
881.225	11.296
884.118	9.37427
887.011	0.24939
889.903	15.5832
892.796	1.25842
895.689	4.1145
898.582	1.51929
901.474	5.72253
904.367	6.85205
907.26	6.91797
910.152	2.18164
913.045	1.87524
915.938	3.98584
918.83	0.439575
921.723	1.61816
924.616	0.696533
927.509	6.6488
930.401	5.46851
933.294	4.68201
936.187	9.26148
939.079	15.3435
941.972	6.80103
944.865	0.779663
947.757	10.4049
950.65	13.1293
953.543	19.6608
956.436	33.2512
959.328	46.3068
962.221	71.1431
965.114	109.221
968.006	205.467
970.899	349.617
973.792	559.222
976.684	1003.78
979.577	1521.21
982.47	1075.63
985.362	372.144
988.255	155.189
991.148	82.9037
994.041	54.5935
996.933	39.0365
999.826	31.2002
1002.72	19.3617
1005.61	21.9138
1008.5	15.3909
1011.4	13.8799
1014.29	14.3158
1017.18	11.6228
1020.08	14.0316
1022.97	6.28271
1025.86	3.87012
1028.75	2.98071
1031.65	7.09033
1034.54	7.11975
1037.43	8.16016
1040.32	4.03918
1043.22	3.01123
1046.11	4.74902
1049	0.662354
1051.89	4.9342
1054.79	4.85254
1057.68	2.07202
1060.57	4.04382
1063.47	0.763916
1066.36	1.90857
1069.25	1.82458
1072.14	6.35315
1075.04	10.5887
1077.93	7.26392
1080.82	9.10706
1083.71	7.6333
1086.61	18.5249
1089.5	17.0373
1092.39	16.4264
1095.29	20.955
1098.18	20.4908
1101.07	30.4836
1103.96	35.9525
1106.86	53.0044
1109.75	59.6611
1112.64	70.2722
1115.53	71.1671
1118.43	62.4926
1121.32	53.4725
1124.21	39.6406
1127.11	30.0386
1130	24.735
1132.89	30.72
1135.78	22.4203
1138.68	29.1713
1141.57	34.9816
1144.46	34.0504
1147.35	26.8566
1150.25	17.7295
1153.14	18.5629
1156.03	18.0931
1158.92	11.239
1161.82	7.56018
1164.71	10.3812
1167.6	7.62183
1170.5	5.81995
1173.39	3.40063
1176.28	8.52124
1179.17	3.78076
1182.07	7.10681
1184.96	1.78955
1187.85	7.73828
1190.74	4.65894
1193.64	2.61231
1196.53	2.77881
1199.42	0.500122
1202.32	7.67346
1205.21	3.39819
1208.1	2.2146
1210.99	8.50073
1213.89	9.46228
1216.78	8.20117
1219.67	0.836548
1222.56	10.7318
1225.46	7.54394
1228.35	5.6062
1231.24	12.1855
1234.13	5.85889
1237.03	3.00952
1239.92	3.28638
1242.81	6.76819
1245.71	3.16052
1248.6	4.36804
1251.49	10.9974
1254.38	5.8053
1257.28	1.33081
1260.17	13.4423
1263.06	14.4358
1265.95	14.4965
1268.85	21.174
1271.74	16.8696
1274.63	14.7739
1277.53	4.16284
1280.42	8.54688
1283.31	11.5986
1286.2	4.78564
1289.1	6.93042
1291.99	5.37659
1294.88	6.79016
1297.78	7.06714
1300.67	1.16174
