Measurement: Raman, 780 nm, unoriented, Raman Data Processed
Mineral: Peretaite
Rruff sample: R060459
Ideal chemistry: CaSb^3+^_4_O_4_(SO_4_)_2_(OH)_2_2H_2_O
Locality: Pereta mine, Grosseto, Tuscany, Italy
Source: Michael Scott
Description: Colorless thin plates, with red incrustations of valentinite
Raman shift (cm-1)	intensity
162.923	0
165.816	2.74853
168.708	0.420471
171.601	12.7308
174.494	26.0593
177.386	45.5819
180.279	53.0087
183.172	74.6028
186.065	104.272
188.957	157.95
191.85	221.468
194.743	260.018
197.635	223.581
200.528	179.411
203.421	186.847
206.313	255.897
209.206	357.787
212.099	435.367
214.992	487.592
217.884	538.224
220.777	607.371
223.67	715.016
226.562	822.539
229.455	755.838
232.348	499.948
235.24	303.166
238.133	199.51
241.026	134.58
243.918	105.033
246.811	79.4857
249.704	62.2203
252.597	47.7396
255.489	32.5719
258.382	31.8266
261.275	24.3767
264.167	19.7184
267.06	15.429
269.953	12.7034
272.846	6.8555
275.738	3.47138
278.631	0.257507
281.524	4.99472
284.416	0.051147
287.309	0.090942
290.202	2.32095
293.094	8.93439
295.987	4.44379
298.88	4.93689
301.772	2.88293
304.665	18.7593
307.558	32.1715
310.45	52.3394
313.343	82.6784
316.236	137.032
319.129	202.149
322.021	272.724
324.914	339.855
327.807	419.88
330.699	510.907
333.592	594.926
336.485	606.971
339.377	470.351
342.27	306.602
345.163	197.377
348.056	134.846
350.948	97.8824
353.841	72.4208
356.734	56.2786
359.626	40.1387
362.519	31.4083
365.412	23.8014
368.305	18.7419
371.197	17.189
374.09	9.36407
376.983	7.86035
379.875	10.4884
382.768	7.25995
385.661	9
388.553	12.1406
391.446	14.4824
394.339	26.0804
397.231	44.2867
400.124	59.5892
403.017	75.0278
405.909	95.6097
408.802	124.802
411.695	174.93
414.588	234.682
417.48	241.917
420.373	243.794
423.266	260.077
426.158	292.438
429.051	326.202
431.944	335.901
434.837	301.962
437.729	214.563
440.622	132.347
443.515	74.5734
446.407	35.7412
449.3	12.9264
452.193	2.36966
455.085	3.19568
457.978	0.946259
460.871	1.36438
463.764	6.16571
466.656	14.7586
469.549	21.3038
472.442	29.9764
475.334	37.1245
478.227	43.4258
481.12	33.9771
484.012	26.2633
486.905	11.4255
489.798	7.04925
492.69	0.272278
495.583	2.36881
498.476	0.443878
501.369	1.4631
504.261	2.08398
507.154	2.49899
510.047	3.53
512.939	1.72086
515.832	5.99515
518.725	1.97949
521.617	1.27588
524.51	2.62112
527.403	6.22018
530.296	5.82095
533.188	12.3109
536.081	15.9629
538.974	18.8091
541.866	21.1873
544.759	23.3044
547.652	28.0834
550.544	34.6131
553.437	42.9055
556.33	50.7841
559.222	63.7831
562.115	79.4394
565.008	102.352
567.901	137.927
570.793	201.025
573.686	284.973
576.579	416.14
579.471	586.089
582.364	757.756
585.257	917.833
588.149	1067.59
591.042	1202.88
593.935	1223.85
596.828	892.938
599.72	482.774
602.613	261.496
605.506	161.451
608.398	112.319
611.291	86.7444
614.184	60.3073
617.077	40.1251
619.969	27.1162
622.862	21.0697
625.755	14.2237
628.647	13.4916
631.54	10.8919
634.433	16.8723
637.325	17.4527
640.218	21.0768
643.111	25.3376
646.004	32.9605
648.896	47.4356
651.789	32.8982
654.682	7.77484
657.574	3.00436
660.467	1.20438
663.36	0.390656
666.252	0.951935
669.145	5.73566
672.038	1.71127
674.931	1.75635
677.823	1.39188
680.716	2.81381
683.609	1.77124
686.501	4.6951
689.394	4.40619
692.287	5.11838
695.179	3.81192
698.072	7.24469
700.965	8.83133
703.857	10.1114
706.75	12.0031
709.643	13.317
712.535	14.1932
715.428	9.5015
718.321	7.36652
721.214	6.96155
724.106	4.38086
726.999	1.62726
729.892	5.24658
732.784	4.08206
735.677	0.730164
738.57	1.5379
741.462	2.3414
744.355	0.697235
747.248	4.18472
750.141	0.002411
753.033	0.910645
755.926	3.28473
758.819	0.414673
761.711	2.19244
764.604	0.266449
767.497	4.29541
770.389	1.65646
773.282	1.8916
776.175	2.88077
779.068	3.79379
781.96	3.90372
784.853	1.10025
787.746	1.9476
790.638	5.26443
793.531	6.86734
796.424	4.1716
799.317	5.7616
802.209	5.67691
805.102	8.27707
807.995	10.337
810.887	10.5042
813.78	8.62988
816.673	3.83405
819.565	5.50644
822.458	5.9061
825.351	2.96329
828.244	4.90823
831.136	0.968109
834.029	2.53705
836.922	3.18851
839.814	3.66028
842.707	6.6702
845.6	9.92084
848.492	11.3579
851.385	16.5428
854.278	19.5319
857.17	22.2084
860.063	34.8704
862.956	15.9543
865.849	11.7671
868.741	8.58893
871.634	5.14099
874.527	6.44733
877.419	5.04013
880.312	4.78574
883.205	7.09848
886.097	6.06021
888.99	4.18643
891.883	3.33725
894.775	1.46857
897.668	0.482819
900.561	1.97995
903.454	0.723511
906.346	1.98932
909.239	1.19272
912.132	1.55524
915.024	0.545166
917.917	2.09256
920.81	0.619904
923.702	1.58212
926.595	0.705078
929.488	3.81152
932.381	2.81812
935.273	1.87415
938.166	3.92432
941.059	4.05841
943.951	6.36865
946.844	8.30081
949.737	9.68955
952.63	14.5403
955.522	15.1761
958.415	28.777
961.308	44.218
964.2	88.0464
967.093	171.998
969.986	222.872
972.878	298.009
975.771	422.829
978.664	545.759
981.557	309.794
984.449	109.827
987.342	48.9302
990.235	27.0704
993.127	18.4513
996.02	12.6918
998.913	10.3463
1001.8	5.39294
1004.7	3.16867
1007.59	2.63272
1010.48	3.98462
1013.38	2.22336
1016.27	2.06262
1019.16	0.490936
1022.05	0.832977
1024.95	2.14923
1027.84	0.7742
1030.73	6.76514
1033.62	0.743439
1036.52	4.72336
1039.41	0.776093
1042.3	3.16861
1045.2	1.707
1048.09	1.39319
1050.98	0.456421
1053.87	3.5722
1056.77	2.38321
1059.66	3.5166
1062.55	2.41269
1065.44	1.04767
1068.34	2.98904
1071.23	1.785
1074.12	1.92551
1077.02	1.14075
1079.91	1.11508
1082.8	1.80322
1085.69	5.86374
1088.59	6.73605
1091.48	11.4819
1094.37	11.4941
1097.26	7.95389
1100.16	7.97215
1103.05	11.8547
1105.94	15.9477
1108.84	21.6571
1111.73	18.3648
1114.62	21.2331
1117.51	18.5231
1120.41	12.6779
1123.3	14.9822
1126.19	13.7753
1129.08	18.0654
1131.98	22.8678
1134.87	25.2774
1137.76	34.6789
1140.65	29.4216
1143.55	26.1499
1146.44	23.281
1149.33	16.3913
1152.23	16.5631
1155.12	9.31467
1158.01	8.96591
1160.9	5.16928
1163.8	3.84932
1166.69	2.7023
1169.58	5.44637
1172.47	3.12956
1175.37	1.2981
1178.26	4.41586
1181.15	1.75723
1184.05	0.12793
1186.94	2.00343
1189.83	2.08192
1192.72	2.1716
1195.62	1.84345
1198.51	1.91652
1201.4	1.17773
1204.29	0.238525
1207.19	3.35373
1210.08	0.451508
1212.97	1.11813
1215.87	4.63492
1218.76	3.88397
1221.65	2.15671
1224.54	2.81277
1227.44	0.85672
1230.33	0.542252
1233.22	2.06238
1236.11	3.41421
1239.01	3.64214
1241.9	3.45575
1244.79	2.21608
1247.68	3.8568
1250.58	2.38757
1253.47	11.4752
1256.36	1.61795
1259.26	2.3371
1262.15	4.20602
1265.04	2.25839
1267.93	3.59354
1270.83	1.83173
1273.72	3.17749
1276.61	3.63867
1279.5	3.79416
1282.4	1.64343
