Measurement: Raman, 780 nm, unoriented, Raman Data Processed
Mineral: Perhamite
Rruff sample: R110142
Ideal chemistry: Ca_3_Al_7.7_Si_3_P_4_O_23.5_(OH)_14.1_8H_2_O
Locality: Emmons quarry, Uncle Tom Mountain, Greenwood, Oxford County, Maine, USA
Source: Donald Doell
Description: Parallel aggregates of tan colored hexagonal plates
Raman shift (cm-1)	intensity
94.4962	0
97.871	11.1003
101.246	4.75537
104.621	2.76038
107.996	8.35266
111.37	2.07776
114.745	13.8761
118.12	20.0907
121.495	27.4789
124.87	25.3805
128.244	12.2705
131.619	10.8702
134.994	2.74994
138.369	3.12836
141.744	1.74536
145.119	2.41406
148.493	3.34802
151.868	6.30042
155.243	16.6677
158.618	22.9055
161.993	35.0803
165.367	50.8758
168.742	57.5204
172.117	64.6271
175.492	70.9434
178.867	83.5496
182.242	101.567
185.616	127.359
188.991	147.883
192.366	136.76
195.741	106.015
199.115	85.6061
202.49	80.1363
205.865	73.1992
209.24	67.4037
212.615	56.6245
215.99	52.2283
219.364	38.0355
222.739	28.5446
226.114	20.0519
229.489	13.8498
232.864	15.0796
236.238	5.01453
239.613	6.11353
242.988	0.964722
246.363	0.421021
249.738	5.14038
253.113	8.41913
256.487	9.97046
259.862	22.421
263.237	29.3128
266.612	35.9673
269.987	50.2286
273.361	55.3658
276.736	58.2496
280.111	46.5808
283.486	28.1256
286.861	13.2232
290.236	5.03992
293.61	3.46435
296.985	2.23877
300.36	6.362
303.735	4.74902
307.11	11.0754
310.485	10.0499
313.859	3.37878
317.234	1.96429
320.609	2.33374
323.984	1.00427
327.359	0.387451
330.733	0.454956
334.108	1.63788
337.483	8.04993
340.858	8.37952
344.233	14.597
347.608	19.2631
350.982	33.8278
354.357	43.4527
357.732	63.1616
361.107	78.0532
364.482	91.8013
367.856	102.975
371.231	118.233
374.606	116.096
377.981	103.846
381.356	78.6274
384.731	57.2419
388.105	43.5077
391.48	24.3148
394.855	12.3778
398.23	1.67599
401.605	4.34119
404.979	1.72699
408.354	2.1911
411.729	0.910553
415.104	0.977203
418.479	4.39587
421.853	12.2595
425.228	16.0634
428.603	19.9669
431.978	26.0793
435.353	29.3918
438.728	31.3109
442.102	22.8286
445.477	18.0395
448.852	12.4004
452.227	7.65765
455.602	3.71991
458.976	7.55359
462.351	7.4086
465.726	13.9266
469.101	7.56876
472.476	2.52438
475.851	1.4115
479.225	3.22278
482.6	15.0033
485.975	27.9541
489.35	50.7492
492.725	81.759
496.099	128.105
499.474	179.946
502.849	234.377
506.224	271.3
509.599	278.01
512.973	280.04
516.348	280.982
519.723	249.897
523.098	203.016
526.473	145.706
529.848	97.5057
533.222	55.0958
536.597	37.689
539.972	19.049
543.347	9.55508
546.722	4.32754
550.096	0.98941
553.471	1.55289
556.846	4.50092
560.221	1.60004
563.596	0.700439
566.971	0.089294
570.345	0.584564
573.72	2.94379
577.095	7.28973
580.47	2.97836
583.845	0.61142
587.22	0.042175
590.594	2.57449
593.969	10.5766
597.344	9.68887
600.719	7.27954
604.094	7.26715
607.468	3.66223
610.843	11.8768
614.218	21.0224
617.593	17.4831
620.968	7.06445
624.342	5.06513
627.717	9.84363
631.092	9.853
634.467	13.1565
637.842	9.88995
641.217	8.43991
644.591	2.35171
647.966	1.28928
651.341	0.40625
654.716	2.22983
658.091	1.06604
661.466	1.69177
664.84	2.54099
668.215	3.39056
671.59	6.42288
674.965	6.75302
678.34	11.3892
681.714	15.7316
685.089	16.3142
688.464	22.0541
691.839	24.2441
695.214	30.4135
698.588	36.8888
701.963	41.5902
705.338	45.6011
708.713	49.234
712.088	41.004
715.462	31.7172
718.837	26.5257
722.212	17.6466
725.587	12.3017
728.962	8.14813
732.337	7.15112
735.711	5.36676
739.086	3.78836
742.461	4.34595
745.836	4.42493
749.211	5.68857
752.586	2.73434
755.96	2.39563
759.335	0.762482
762.71	3.86337
766.085	4.53366
769.46	3.47543
772.834	5.51132
776.209	7.18491
779.584	8.40506
782.959	7.50513
786.334	9.84528
789.708	11.8064
793.083	18.5141
796.458	12.5117
799.833	12.5726
803.208	8.33411
806.583	11.2214
809.957	8.90573
813.332	8.4295
816.707	9.38995
820.082	5.87335
823.457	7.17548
826.832	2.1059
830.206	4.40964
833.581	1.43631
836.956	1.72058
840.331	3.63296
843.706	4.25235
847.08	2.56299
850.455	2.00214
853.83	3.73254
857.205	2.6171
860.58	1.76007
863.955	8.44089
867.329	7.50934
870.704	5.35001
874.079	6.88876
877.454	10.2758
880.829	5.5484
884.203	5.76184
887.578	6.36551
890.953	3.42654
894.328	3.95947
897.703	0.225586
901.077	1.8801
904.452	1.47363
907.827	1.05231
911.202	0.898315
914.577	0.572266
917.952	0.94104
921.326	1.12567
924.701	0.447601
928.076	1.42886
931.451	0.931122
934.826	0.883026
938.2	0.697998
941.575	4.24292
944.95	2.0578
948.325	1.42477
951.7	1.69721
955.074	9.1218
958.449	10.3418
961.824	20.7426
965.199	25.5588
968.574	35.0816
971.949	36.0496
975.323	48.1784
978.698	68.1002
982.073	96.8742
985.448	119.24
988.823	132.953
992.197	149.656
995.572	177.32
998.947	196.119
1002.32	211.728
1005.7	199.496
1009.07	157.838
1012.45	104.782
1015.82	75.4406
1019.2	70.4087
1022.57	87.2879
1025.95	121.364
1029.32	169.268
1032.69	196.119
1036.07	144.302
1039.44	77.2366
1042.82	37.006
1046.19	15.8818
1049.57	6.02194
1052.94	0.560638
1056.32	0.394714
1059.69	0.464355
1063.07	1.31183
1066.44	0.189636
1069.82	2.13907
1073.19	2.58127
1076.57	9.56439
1079.94	13.0768
1083.32	30.4787
1086.69	49.6823
1090.07	81.8387
1093.44	117.366
1096.82	120.097
1100.19	74.982
1103.57	34.8206
1106.94	14.9665
1110.32	9.26157
1113.69	3.18478
1117.07	6.40414
1120.44	3.06873
1123.82	1.3454
1127.19	7.51546
1130.57	6.23589
1133.94	4.20012
1137.32	3.77653
1140.69	2.16017
1144.06	0.832291
1147.44	0.822464
1150.81	1.12697
1154.19	3.63123
1157.56	6.03702
1160.94	9.33717
1164.31	12.8164
1167.69	21.8873
1171.06	28.4375
1174.44	39.4555
1177.81	43.6628
1181.19	49.2264
1184.56	44.6346
1187.94	42.6907
1191.31	37.1605
1194.69	29.2001
1198.06	19.7039
1201.44	13.308
1204.81	8.59103
1208.19	4.46054
1211.56	6.12482
1214.93	3.57025
1218.31	5.37235
1221.68	3.60792
1225.06	3.91646
1228.43	3.2961
1231.81	0.288757
1235.18	1.42218
1238.56	2.1013
1241.93	0.363083
1245.31	0.556946
1248.68	4.76387
1252.06	3.21283
1255.43	2.42219
1258.81	1.05867
1262.18	2.41388
1265.56	4.6262
1268.93	6.29012
1272.31	3.46626
1275.68	2.2262
1279.06	0.209625
1282.43	0.471527
