Measurement: Raman, 532 nm, unoriented, Raman Data Processed
Mineral: Perhamite
Rruff sample: R110142
Ideal chemistry: Ca_3_Al_7.7_Si_3_P_4_O_23.5_(OH)_14.1_8H_2_O
Locality: Emmons quarry, Uncle Tom Mountain, Greenwood, Oxford County, Maine, USA
Source: Donald Doell
Description: Parallel aggregates of tan colored hexagonal plates
Raman shift (cm-1)	intensity
186.433	0
189.326	113.504
192.219	104.814
195.112	5.81982
198.004	7.37598
200.897	56.7007
203.79	91.5957
206.682	79.6001
209.575	76.2344
212.468	51.9761
215.36	43.666
218.253	27.3384
221.146	23.9341
224.038	21.9219
226.931	3.23193
229.824	10.1396
232.717	16.0903
235.609	21.0537
238.502	12.0146
241.395	6.54297
244.287	12.1523
247.18	13.7983
250.073	14.8657
252.965	51.3442
255.858	89.3887
258.751	136.27
261.644	160.448
264.536	183.909
267.429	217.253
270.322	289.577
273.214	297.628
276.107	289.016
279	242.49
281.892	198.657
284.785	95.5786
287.678	47.5161
290.571	45.8804
293.463	35.3955
296.356	26.4351
299.249	44.6284
302.141	41.8291
305.034	47.9839
307.927	34.6377
310.82	37.8745
313.712	26.1157
316.605	35.0293
319.498	5.29639
322.39	17.6348
325.283	10.6768
328.176	4.23144
331.068	12.8428
333.961	17.3174
336.854	46.5957
339.747	54.1406
342.639	36.5923
345.532	43.7583
348.425	77.1177
351.317	132.332
354.21	196.754
357.103	291.169
359.995	352.018
362.888	342.877
365.781	325.957
368.673	321.841
371.566	323.424
374.459	279.743
377.352	208.555
380.244	175.053
383.137	129.05
386.03	93.02
388.922	65.7119
391.815	32.7119
394.708	2.81543
397.601	11.8872
400.493	9.20654
403.386	1.33545
406.279	0.063477
409.171	0.931641
412.064	14.6699
414.957	14.5479
417.849	5.49707
420.742	12.8779
423.635	2.77978
426.527	6.78662
429.42	30.5947
432.313	47.6089
435.206	32.5269
438.098	12.0317
440.991	2.58252
443.884	4.84229
446.776	16.5151
449.669	17.3184
452.562	19.4277
455.454	22.4028
458.347	55.6816
461.24	89.4258
464.133	112.635
467.025	109.179
469.918	56.4692
472.811	41.8711
475.703	26.7666
478.596	33.6851
481.489	48.5855
484.382	106.197
487.274	157.272
490.167	244.615
493.06	362.858
495.952	493.38
498.845	673.339
501.738	775.459
504.63	814.931
507.523	782.977
510.416	754.479
513.308	718.449
516.201	669.326
519.094	579.689
521.987	467.227
524.879	370.964
527.772	302.953
530.665	194.962
533.557	144.886
536.45	104.21
539.343	85.2412
542.236	73.5767
545.128	79.5776
548.021	88.2964
550.914	87.5181
553.806	70.8252
556.699	45.4292
559.592	40.3525
562.484	22.0488
565.377	15.1343
568.27	1.88818
571.163	9.39746
574.055	6.77051
576.948	4.66748
579.841	27.4531
582.733	24.4336
585.626	21.0469
588.519	5.54199
591.411	17.2925
594.304	22.877
597.197	26.2588
600.09	32.7964
602.982	25.4644
605.875	43.3227
608.768	87.6934
611.66	144.453
614.553	157.076
617.446	137.455
620.338	84.0127
623.231	65.7051
626.124	59.1152
629.016	49.6973
631.909	53.4194
634.802	62.8735
637.695	57.2402
640.587	26.291
643.48	11.544
646.373	7.73779
649.265	8.36572
652.158	11.876
655.051	11.4375
657.943	7.49512
660.836	21.3418
663.729	14.4004
666.622	8.41943
669.514	24.3818
672.407	22.2686
675.3	36.0093
678.192	56.731
681.085	83.8769
683.978	95.4858
686.87	106.551
689.763	128.962
692.656	155.117
695.549	169.634
698.441	199.904
701.334	197.068
704.227	199.997
707.119	213.484
710.012	199.851
712.905	174.661
715.798	115.614
718.69	72.3623
721.583	52.2461
724.476	54.2847
727.368	63.1948
730.261	60.8897
733.154	41.3911
736.046	34.0674
738.939	20.3276
741.832	9.42432
744.725	7.6582
747.617	4.58057
750.51	9.95801
753.403	28.5571
756.295	35.5298
759.188	25.0498
762.081	14.251
764.973	16.6421
767.866	14.1426
770.759	11.9902
773.652	14.7866
776.544	12.6001
779.437	32.314
782.33	34.5649
785.222	22.271
788.115	3.67578
791.008	30.231
793.9	54.0869
796.793	28.1543
799.686	6.40381
802.578	10.2803
805.471	11.0166
808.364	35.0933
811.257	22.2319
814.149	30.9297
817.042	21.1895
819.935	42.5068
822.827	30.7734
825.72	6.64453
828.613	2.52295
831.505	25.5615
834.398	7.89111
837.291	4.64307
840.184	3.30225
843.076	4.50049
845.969	7.58594
848.862	4.61279
851.754	8.06152
854.647	14.2974
857.54	30.5288
860.433	31.813
863.325	27.9439
866.218	28.1255
869.111	12.916
872.003	40.0239
874.896	24.3257
877.789	27.8628
880.681	8.33447
883.574	10.248
886.467	32.2749
889.36	40.8765
892.252	36.4326
895.145	16.2007
898.038	6.52295
900.93	11.6172
903.823	13.9243
906.716	26.4087
909.608	42.1338
912.501	43.0102
915.394	39.4927
918.287	45.8037
921.179	38.792
924.072	27.729
926.965	25.0928
929.857	41.8486
932.75	11.7285
935.643	2.7749
938.535	26.3555
941.428	16.2207
944.321	23.1548
947.213	12.8667
950.106	14.9902
952.999	1.13525
955.892	10.9912
958.784	9.56348
961.677	3.86865
964.57	42.6548
967.462	38.5142
970.355	55.7378
973.248	43.6382
976.14	55.439
979.033	73.126
981.926	96.8101
984.819	122.246
987.711	174.685
990.604	269.209
993.497	375.457
996.389	514.012
999.282	639.186
1002.17	761.793
1005.07	699.671
1007.96	520.067
1010.85	342.735
1013.75	256.226
1016.64	250.249
1019.53	356.929
1022.42	519.149
1025.32	679.193
1028.21	849.989
1031.1	873.302
1033.99	684.173
1036.89	434.306
1039.78	233.467
1042.67	130.105
1045.57	83.4941
1048.46	50.6768
1051.35	38.7666
1054.24	39.6533
1057.14	46.7725
1060.03	30.1162
1062.92	29.9287
1065.81	17.1152
1068.71	14.4277
1071.6	20.6104
1074.49	6.02637
1077.38	29.9062
1080.28	56.8955
1083.17	102.192
1086.06	189.851
1088.96	276.634
1091.85	353.192
1094.74	317.894
1097.63	199.719
1100.53	132.746
1103.42	62.6123
1106.31	57.8447
1109.2	28.4258
1112.1	57.5254
1114.99	38.4463
1117.88	33.5352
1120.78	21.4492
1123.67	14.6221
1126.56	0.170898
1129.45	13.6348
1132.35	21.501
1135.24	2.2041
1138.13	10.998
1141.02	5.54102
1143.92	6.94238
1146.81	22.4912
1149.7	43.8525
1152.6	45.1055
1155.49	28.4043
1158.38	15.4648
1161.27	30.2627
1164.17	50.458
1167.06	58.2666
1169.95	62.8174
1172.84	63.0674
1175.74	111.397
1178.63	94.9365
1181.52	121.148
1184.41	105.814
1187.31	108.693
1190.2	57.7998
1193.09	71.2383
1195.99	54.9395
1198.88	51.6826
1201.77	49.2529
1204.66	48.9629
1207.56	78.3066
1210.45	87.0508
1213.34	85.7578
1216.23	59.169
1219.13	40.0029
1222.02	31.8525
1224.91	39.0518
1227.81	39.5547
1230.7	18.4482
1233.59	11.1885
1236.48	21.834
1239.38	5.0332
1242.27	30.7109
1245.16	23.1582
1248.05	13.502
1250.95	21.8105
1253.84	22.4551
1256.73	20.8779
1259.62	36.8662
1262.52	27.4404
1265.41	29.1875
1268.3	24.6523
1271.2	22.5762
1274.09	16.335
1276.98	16.0195
1279.87	9.28125
1282.77	8.20703
1285.66	11.8008
1288.55	28.7031
1291.44	32.7022
1294.34	9.03809
1297.23	5.52539
1300.12	19.6191
1303.02	0
