Measurement: Raman, 532 nm, unoriented, Raman Data Processed
Mineral: Perite
Rruff sample: R060766
Ideal chemistry: PbBiO_2_Cl
Locality: Blue Bell mine, San Bernardino, California, USA
Source: Michael Scott
Description: Pale straw-yellow granular, associated with fluorite, hemimorphite, quartz and chlorargyrite
Raman shift (cm-1)	intensity
165.877	0
168.77	184.475
171.663	47.6699
174.556	115.83
177.448	8.32812
180.341	57.3262
183.234	213.92
186.126	275.164
189.019	205.398
191.912	364.083
194.804	336.731
197.697	212.03
200.59	149.762
203.482	103.486
206.375	190.471
209.268	96.0684
212.161	9.84375
215.053	83.3184
217.946	5.77637
220.839	54.457
223.731	47.5996
226.624	146.268
229.517	558.909
232.41	508.761
235.302	490.959
238.195	721.533
241.088	742.253
243.98	818.725
246.873	1021.46
249.766	1063.96
252.658	896.608
255.551	989.955
258.444	1074.98
261.337	1088.26
264.229	1260.42
267.122	1278.95
270.015	1302.37
272.907	1259.47
275.8	1397.56
278.693	1447.08
281.585	1464.43
284.478	1433.91
287.371	1436.68
290.264	1433.95
293.156	1377.33
296.049	1250.42
298.942	1195.03
301.834	1169.79
304.727	1112.87
307.62	1141.98
310.512	1032.06
313.405	835.461
316.298	753.533
319.19	637.003
322.083	598.683
324.976	513.275
327.869	500.481
330.761	434.557
333.654	477.356
336.547	396.515
339.439	378.918
342.332	315.992
345.225	331.644
348.118	414.421
351.01	486.978
353.903	518.283
356.796	491.299
359.688	513.516
362.581	503.294
365.474	483.37
368.366	478.542
371.259	459.002
374.152	487.69
377.045	446.183
379.937	333.089
382.83	339.462
385.723	303.886
388.615	240.427
391.508	223.999
394.401	89.876
397.293	21.1514
400.186	74.7529
403.079	132.163
405.971	141.451
408.864	131.435
411.757	137.698
414.65	27.6543
417.542	0.417969
420.435	21.8398
423.328	43.208
426.22	81.6016
429.113	178.322
432.006	158.882
434.898	305.569
437.791	421.295
440.684	476.638
443.577	664.585
446.469	769.372
449.362	948.179
452.255	1179.34
455.147	1359.99
458.04	1585.46
460.933	1791.89
463.825	2225.45
466.718	2429.75
469.611	2864.51
472.503	3338.24
475.396	3902.28
478.289	4247.92
481.182	4689.33
484.074	5279.57
486.967	5671.66
489.86	5824.34
492.752	5932.25
495.645	6061.68
498.538	6089.06
501.43	5922.81
504.323	5738.48
507.216	5367.88
510.109	5013.55
513.001	4606.28
515.894	4252.37
518.787	3771.93
521.679	3319.99
524.572	2973.18
527.465	2642.33
530.357	2271.48
533.25	1888.73
536.143	1734.22
539.036	1445.96
541.928	1341.32
544.821	1156.99
547.714	1009.06
550.606	852.067
553.499	694.269
556.392	581.581
559.284	438.006
562.177	390.819
565.07	286.925
567.963	186.667
570.855	149.491
573.748	120.523
576.641	57.5088
579.533	6.67188
582.426	68.1191
585.319	7.47461
588.212	4.16309
591.104	32.8506
593.997	58.9766
596.89	75.1436
599.782	37.918
602.675	90.293
605.568	13.499
608.46	7.35547
611.353	28.96
614.246	30.8096
617.139	14.332
620.031	88.6484
622.924	173.78
625.817	163.691
628.709	108.315
631.602	96.4424
634.495	128.299
637.387	181.122
640.28	144.988
643.173	192.302
646.065	151.952
648.958	239.223
651.851	274.143
654.744	278.44
657.636	262.609
660.529	171.273
663.422	160.843
666.314	228.994
669.207	149.508
672.1	150.805
674.992	109.956
677.885	62.9785
680.778	37.8491
683.67	133.763
686.563	162.936
689.456	77.3916
692.349	127.371
695.241	228.873
698.134	190.024
701.027	230.366
703.919	254.302
706.812	298.495
709.705	389.263
712.597	434.062
715.49	517.119
718.383	545.981
721.276	573.102
724.168	562.904
727.061	578.648
729.954	550.186
732.846	505.918
735.739	491.39
738.632	388.597
741.524	390.367
744.417	293.569
747.31	302.19
750.203	229
753.095	16.0298
755.988	122.975
758.881	93.3203
761.773	24.0708
764.666	59.3682
767.559	23.0029
770.452	32.6162
773.344	2.45947
776.237	62.21
779.13	4.95801
782.022	12.3174
784.915	0.367188
787.808	3.40869
790.7	39.3867
793.593	58.6533
796.486	59.5903
799.379	81.6343
802.271	105.066
805.164	72.3921
808.057	66.6489
810.949	106.646
813.842	86.4238
816.735	108.061
819.627	117.474
822.52	79.4048
825.413	118.829
828.306	136.986
831.198	133.57
834.091	160.589
836.984	81.8887
839.876	72.876
842.769	71.4717
845.662	75.6201
848.554	106.403
851.447	64.4243
854.34	52.917
857.232	73.5747
860.125	106.51
863.018	53.6494
865.911	85.1055
868.803	19.4575
871.696	18.0332
874.589	15.3135
877.481	75.2173
880.374	52.9785
883.267	74.8648
886.159	100.274
889.052	115.022
891.945	103.267
894.837	91.4043
897.73	71.314
900.623	30.0874
903.516	46.5142
906.408	36.9531
909.301	33.2353
912.194	7.64014
915.086	37.7051
917.979	27.2349
920.872	29.9648
923.764	44.0938
926.657	127.876
929.55	43.0483
932.443	103.419
935.335	16.6523
938.228	24.3208
941.121	65.3472
944.013	44.4131
946.906	57.4106
949.799	71.1509
952.692	39.146
955.584	32.5391
958.477	93.8921
961.37	158.271
964.262	119.448
967.155	137.692
970.048	87.8374
972.94	57.5645
975.833	125.975
978.726	82.3467
981.619	224.808
984.511	80.9604
987.404	82.2432
990.297	52.8838
993.189	37.0185
996.082	6.35791
998.975	55.459
1001.87	84.1201
1004.76	45.8145
1007.65	74.1318
1010.54	38.833
1013.44	21.1699
1016.33	21.9185
1019.22	19.1372
1022.12	0.423828
1025.01	67.7759
1027.9	22.6577
1030.79	97.8765
1033.69	149.895
1036.58	93.2441
1039.47	97.3467
1042.37	86.3828
1045.26	100.13
1048.15	48.709
1051.04	31.0102
1053.94	91.2139
1056.83	157.525
1059.72	132.939
1062.61	145.883
1065.51	59.4898
1068.4	116.211
1071.29	141.083
1074.18	109.012
1077.08	112.648
1079.97	21.8267
1082.86	73.1948
1085.76	49.7559
1088.65	83.4058
1091.54	57.7026
1094.43	34.3272
1097.33	59.853
1100.22	77.313
1103.11	64.5703
1106.01	84.8174
1108.9	111.974
1111.79	10.5327
1114.68	16.6753
1117.58	68.0962
1120.47	7.79981
1123.36	79.3638
1126.25	1.12061
1129.15	62.2153
1132.04	109.232
1134.93	50.2012
1137.82	23.248
1140.72	21.2949
1143.61	48.792
1146.5	8.37354
1149.39	47.5693
1152.29	70.8413
1155.18	90.5933
1158.07	42.667
1160.97	102.964
1163.86	59.0147
1166.75	49.0034
1169.64	50.7905
1172.54	71.0478
1175.43	31.5474
1178.32	100.147
1181.21	99.3013
1184.11	74.4365
1187	66.5801
1189.89	63.0239
1192.79	56.251
1195.68	72.21
1198.57	41.6143
1201.46	29.4053
1204.36	30.1572
1207.25	23.3491
1210.14	64.8574
1213.03	17.5015
1215.93	85.3633
1218.82	23.252
1221.71	39.8965
1224.61	78.688
1227.5	74.27
1230.39	58.1397
1233.28	77.0635
1236.18	72.6719
1239.07	90.9043
1241.96	27.3794
1244.85	99.0649
1247.75	113.335
1250.64	73.2978
1253.53	62.1494
1256.42	43.8438
1259.32	88.7666
1262.21	63.3613
1265.1	16.2847
1268	14.0415
1270.89	145.689
1273.78	145.505
1276.67	110.452
1279.57	79.4663
1282.46	59.4697
1285.35	62.9004
1288.24	2.23584
1291.14	38.9224
