Measurement: Raman, 785 nm, unoriented, Raman Data Processed
Mineral: Perite
Rruff sample: R060766
Ideal chemistry: PbBiO_2_Cl
Locality: Blue Bell mine, San Bernardino, California, USA
Source: Michael Scott
Description: Pale straw-yellow granular, associated with fluorite, hemimorphite, quartz and chlorargyrite
Raman shift (cm-1)	intensity
163.954	0
166.847	378.271
169.739	1032.85
172.632	866.172
175.525	325.231
178.417	0.001095
181.31	56.9567
184.203	119.533
187.096	429.444
189.988	621.808
192.881	610.209
195.774	801.908
198.666	705.656
201.559	450.931
204.452	545.345
207.345	226.836
210.237	68.3855
213.13	69.1394
216.023	92.0925
218.915	975.883
221.808	1534.23
224.701	1666.58
227.593	1663.6
230.486	1767.93
233.379	1835.75
236.272	1812.34
239.164	1758.6
242.057	1497.01
244.95	1512.14
247.842	1292.11
250.735	1332.66
253.628	1301.14
256.52	1341.02
259.413	1262.68
262.306	1214.7
265.199	1284.12
268.091	1123.01
270.984	995.307
273.877	930.79
276.769	1054.09
279.662	1448.55
282.555	1556.11
285.447	1971.82
288.34	1943.69
291.233	1629
294.125	1465.24
297.018	1463.04
299.911	1536.01
302.804	1678.22
305.696	1607.61
308.589	1496.22
311.482	1212.33
314.374	718.98
317.267	519.958
320.16	451.866
323.053	277.933
325.945	459.244
328.838	470.563
331.731	264.055
334.623	158.087
337.516	104.149
340.409	49.8431
343.301	75.9391
346.194	73.8616
349.087	134.058
351.979	240.768
354.872	327.439
357.765	388.307
360.658	368.858
363.55	273.006
366.443	607.994
369.336	1037.63
372.228	1434.08
375.121	1715.25
378.014	1862.04
380.906	1790.98
383.799	1758.5
386.692	1743
389.585	1540.99
392.477	1403.01
395.37	1277.28
398.263	974.099
401.155	502.237
404.048	216.071
406.941	86.4195
409.834	5.6669
412.726	65.7009
415.619	14.8895
418.512	98.7467
421.404	29.6839
424.297	34.9374
427.19	23.9791
430.082	56.5268
432.975	61.4171
435.868	7.01694
438.76	33.4538
441.653	45.5881
444.546	267.952
447.439	328.109
450.331	357.474
453.224	521.035
456.117	528.689
459.009	902.408
461.902	1289.56
464.795	1667.31
467.687	2168.68
470.58	2760.16
473.473	3473.07
476.365	4144.88
479.258	4924.71
482.151	5695.12
485.044	6747.41
487.936	7556.95
490.829	8093.19
493.722	8574.04
496.614	8775.67
499.507	8723.98
502.4	8518.75
505.293	8134.36
508.185	7636.16
511.078	6877.35
513.971	6061.93
516.863	5175.72
519.756	4461.27
522.649	3648.2
525.541	3074.78
528.434	2511.15
531.327	2044.15
534.22	1759.86
537.112	1549.7
540.005	1362.81
542.898	1154.86
545.79	845.288
548.683	713.134
551.576	522.907
554.468	457.71
557.361	271.452
560.254	244.085
563.146	221.41
566.039	184.384
568.932	75.9796
571.825	19.5222
574.717	71.4586
577.61	30.7724
580.503	13.5237
583.395	58.8814
586.288	5.09634
589.181	44.7291
592.073	12.1114
594.966	78.6378
597.859	25.1776
600.752	17.1799
603.644	91.4537
606.537	28.0484
609.43	23.8392
612.322	83.1815
615.215	48.0448
618.108	93.137
621	61.6973
623.893	128.508
626.786	154.003
629.679	206.565
632.571	281.445
635.464	261.548
638.357	306.289
641.25	370.509
644.142	366.585
647.035	292.572
649.928	269.137
652.82	264.59
655.713	328.244
658.606	314.002
661.498	337.005
664.391	345.431
667.284	213.814
670.177	244.433
673.069	273.8
675.962	195.426
678.855	132.714
681.747	98.5877
684.64	92.877
687.533	18.2852
690.425	0.151844
693.318	88.8533
696.211	109.701
699.104	74.5657
701.996	1.71079
704.889	34.0948
707.782	36.4078
710.674	22.6932
713.567	86.9854
716.46	166.205
719.352	191.833
722.245	225.264
725.138	181.75
728.03	150.564
730.923	154.647
733.816	117.523
736.709	173.605
739.601	184.299
742.494	132.473
745.387	122.524
748.279	123.982
751.172	117.931
754.065	165.926
756.957	2.28578
759.85	18.5406
762.743	31.6588
765.636	96.3015
768.528	14.3938
771.421	65.9589
774.314	0.587055
777.206	2.60754
780.099	9.88383
782.992	34.2113
785.885	115.834
788.777	183.417
791.67	150.502
794.563	121.246
797.455	92.2281
800.348	35.9875
803.241	40.1129
806.133	45.337
809.026	36.3125
811.919	211.671
814.812	203.297
817.704	190.75
820.597	207.499
823.49	110.153
826.382	298.073
829.275	173.059
832.168	208.622
835.06	174.273
837.953	177.674
840.846	89.8225
843.738	154.62
846.631	42.2884
849.524	168.401
852.417	77.0459
855.309	46.5705
858.202	12.1277
861.095	92.4994
863.987	44.9823
866.88	43.7232
869.773	12.2426
872.665	29.3871
875.558	155.374
878.451	6.70213
881.343	126.863
884.236	119.817
887.129	181.853
890.022	69.3866
892.914	69.8239
895.807	0.984041
898.7	14.2456
901.592	90.0319
904.485	0.290855
907.378	79.4468
910.27	145.314
913.163	7.81368
916.056	12.0417
918.949	7.79819
921.841	8.03536
924.734	41.7845
927.627	26.0561
930.519	78.4019
933.412	232.429
936.305	56.4958
939.197	73.2096
942.09	35.4691
944.983	10.3243
947.876	6.80932
950.768	121.448
953.661	98.6293
956.554	104.73
959.446	170.728
962.339	139.403
965.232	111.66
968.125	97.6232
971.017	92.0895
973.91	177.017
976.803	176.667
979.695	210.143
982.588	220.906
985.481	76.6251
988.373	8.09832
991.266	46.3188
994.159	13.5393
997.052	75.243
999.944	121.819
1002.84	132.24
1005.73	60.6248
1008.62	98.268
1011.51	30.1857
1014.41	25.1249
1017.3	104.492
1020.19	49.1085
1023.09	66.9844
1025.98	47.8837
1028.87	35.3837
1031.76	9.31576
1034.66	56.5026
1037.55	39.5376
1040.44	22.2643
1043.34	54.2333
1046.23	4.87343
1049.12	26.8036
1052.01	54.6199
1054.91	62.9827
1057.8	8.81248
1060.69	24.9041
1063.58	74.3831
1066.48	50.5171
1069.37	132.851
1072.26	67.543
1075.15	83.5047
1078.05	102.459
1080.94	62.3757
1083.83	105.111
1086.72	35.3293
1089.62	108.058
1092.51	46.3312
1095.4	36.6412
1098.3	132.481
1101.19	83.4214
1104.08	78.4731
1106.97	30.6664
1109.87	21.273
1112.76	95.6326
1115.65	98.9505
1118.55	13.9804
1121.44	107.484
1124.33	95.6951
1127.22	104.87
1130.12	38.761
1133.01	16.145
1135.9	37.1344
1138.79	97.6766
1141.69	14.7615
1144.58	58.3753
1147.47	0.663378
1150.37	56.8948
1153.26	80.1928
1156.15	67.6991
1159.04	117.213
1161.93	67.1072
1164.83	52.2407
1167.72	66.5153
1170.61	50.3345
1173.51	82.4495
1176.4	16.7977
1179.29	57.501
1182.18	4.44374
1185.08	30.0845
1187.97	1.57942
1190.86	28.9913
1193.76	23.3953
1196.65	13.249
1199.54	11.4279
1202.43	39.4012
1205.33	100.303
1208.22	2.26891
1211.11	127.521
1214	227.325
1216.9	333.484
1219.79	240.096
1222.68	315.423
1225.58	203.691
1228.47	168.537
1231.36	140.766
1234.25	138.96
1237.15	118.992
1240.04	127.148
1242.93	148.861
1245.82	232.512
1248.72	142.505
1251.61	19.2545
1254.5	69.481
1257.39	1.3344
1260.29	8.39061
