Measurement: Raman, 780 nm, unoriented, Raman Data Processed
Mineral: Perovskite
Rruff sample: R120121
Ideal chemistry: CaTiO_3_
Locality: Fuka mine, Bicchu-cho, Okayama Prefecture, Japan
Source: Marcus Origlieri
Description: Isolated grey-to-black octahedra frozen in matrix, associated with wollastonite R120122, spurrite and gehlenite
Raman shift (cm-1)	intensity
100.36	0
103.735	15.8706
107.109	80.3027
110.484	176.649
113.859	274.903
117.234	364.106
120.609	417.127
123.984	451.613
127.358	488.166
130.733	506.858
134.108	507.366
137.483	505.192
140.858	489.529
144.232	493.166
147.607	463.848
150.982	431.977
154.357	437.45
157.732	376.182
161.107	345.8
164.481	346.745
167.856	402.096
171.231	457.156
174.606	433.769
177.981	310.276
181.355	213.038
184.73	141.654
188.105	107.59
191.48	64.29
194.855	28.6738
198.229	0.171387
201.604	10.6504
204.979	12.5576
208.354	1.65772
211.729	20.2812
215.103	27.8877
218.478	11.2983
221.853	38.8164
225.228	21.9443
228.603	22.3501
231.978	147.409
235.352	321.809
238.727	402.139
242.102	363.404
245.477	363.413
248.852	450.316
252.226	625.809
255.601	862.896
258.976	1171.72
262.351	1453.74
265.726	1696.36
269.101	1967.73
272.475	2151.06
275.85	2245.82
279.225	2231.61
282.6	2069.04
285.975	1779.49
289.349	1447.33
292.724	1110.67
296.099	817.357
299.474	604.766
302.849	467.879
306.224	389.118
309.598	407.877
312.973	382.546
316.348	355.791
319.723	252.107
323.098	114.04
326.472	5.77246
329.847	79.7285
333.222	114.71
336.597	8.3291
339.972	150.139
343.346	424.616
346.721	818.69
350.096	1262.57
353.471	1807.13
356.846	2383.78
360.221	2833.6
363.595	3206.41
366.97	3360.82
370.345	3378.24
373.72	3232.56
377.095	2967.77
380.469	2765.59
383.844	2542.07
387.219	2371.87
390.594	2220.55
393.969	2183.39
397.344	2286.06
400.718	2553.91
404.093	2890.33
407.468	3273.15
410.843	3706.22
414.217	4103.19
417.592	4348.32
420.967	4539.75
424.342	4443.86
427.717	4141.49
431.092	3690.75
434.466	3044.34
437.841	2315.87
441.216	1650.48
444.591	983.573
447.966	496.571
451.341	126.189
454.715	81.5664
458.09	152.339
461.465	75.0752
464.84	38.2998
468.215	289.551
471.589	536.28
474.964	743.22
478.339	885.417
481.714	1082.39
485.089	1218.67
488.463	1296.42
491.838	1390.79
495.213	1469.4
498.588	1592.65
501.963	1682.15
505.337	1756.67
508.712	1768.8
512.087	1711.57
515.462	1508.78
518.837	1202.11
522.212	951.623
525.586	649.942
528.961	338.107
532.336	161.556
535.711	14.0918
539.086	36.2725
542.46	5.87695
545.835	171.118
549.21	415.284
552.585	732.054
555.96	1041.03
559.335	1366.82
562.709	1553.35
566.084	1714.11
569.459	1714.26
572.834	1595.29
576.209	1511.75
579.583	1356.57
582.958	1183.81
586.333	1046.33
589.708	918.054
593.083	750.777
596.457	637.617
599.832	502.857
603.207	443.841
606.582	357.807
609.957	284.417
613.332	215.383
616.706	163.445
620.081	82.2051
623.456	77.2158
626.831	37.7539
630.206	0.762207
633.58	20.7954
636.955	36.374
640.33	36.5425
643.705	7.88184
647.08	8.90479
650.455	16.4932
653.829	6.00928
657.204	60.3042
660.579	114.333
663.954	149.992
667.329	224.688
670.703	265.402
674.078	328.34
677.453	408.692
680.828	456.689
684.203	541.214
687.577	627.967
690.952	681.402
694.327	728.959
697.702	764.338
701.077	811.37
704.452	816.292
707.826	880.868
711.201	888.109
714.576	898.734
717.951	898.459
721.326	846.52
724.7	831.161
728.075	795.094
731.45	764.752
734.825	697.557
738.2	686.369
741.574	648.953
744.949	544.364
748.324	487.115
751.699	445.015
755.074	395.713
758.449	355.383
761.823	310.7
765.198	271.4
768.573	211.987
771.948	186.358
775.323	156.638
778.697	131.606
782.072	99.4751
785.447	77.9394
788.822	56.771
792.197	22.8809
795.572	25.647
798.946	11.2295
802.321	13.5444
805.696	7.74854
809.071	20.7979
812.446	33.3721
815.82	3.72559
819.195	10.9224
822.57	49.9136
825.945	74.5093
829.32	127.242
832.694	176.335
836.069	247.39
839.444	311.345
842.819	404.793
846.194	532.556
849.569	626.87
852.943	753.454
856.318	885.121
859.693	991.453
863.068	1113.94
866.443	1186.94
869.817	1242.93
873.192	1271.95
876.567	1271.49
879.942	1258.41
883.317	1255.09
886.692	1179.59
890.066	1120.26
893.441	1041.37
896.816	940.375
900.191	850.566
903.566	761.054
906.94	655.12
910.315	592.494
913.69	500.484
917.065	431.865
920.44	372.292
923.814	302.773
927.189	228.484
930.564	159.738
933.939	107.301
937.314	56.2688
940.689	19.1245
944.063	2.51465
947.438	19.9722
950.813	15.9312
954.188	8.36572
957.563	3.35474
960.937	14.8794
964.312	49.9065
967.687	77.7351
971.062	116.731
974.437	155.821
977.812	205.112
981.186	254.986
984.561	311.761
987.936	363.64
991.311	447.687
994.686	490.36
998.06	558.424
1001.43	590.182
1004.81	604.886
1008.18	592.963
1011.56	584.598
1014.93	532.404
1018.31	480.513
1021.68	430.083
1025.06	380.606
1028.43	309.632
1031.81	255.094
1035.18	206.273
1038.56	166.047
1041.93	115.249
1045.31	75.4009
1048.68	51.1926
1052.06	19.7366
1055.43	12.1003
1058.81	2.96777
1062.18	4.41089
1065.56	12.5832
1068.93	16.2444
1072.31	1.56592
1075.68	2.55225
1079.06	2.32593
1082.43	20.7654
1085.81	33.8938
1089.18	37.6057
1092.56	48.9031
1095.93	66.4573
1099.31	59.7991
1102.68	75.1497
1106.05	75.0149
1109.43	73.158
1112.8	72.5723
1116.18	64.6333
1119.55	75.2395
1122.93	75.4346
1126.3	68.7637
1129.68	62.7
1133.05	75.7573
1136.43	77.1003
1139.8	89.4841
1143.18	88.324
1146.55	107.317
1149.93	107.543
1153.3	136.363
1156.68	133.125
1160.05	145.654
1163.43	180.459
1166.8	183.046
1170.18	211.014
1173.55	264.676
1176.93	279.847
1180.3	305.258
1183.67	309.197
1187.05	311.194
1190.42	317.937
1193.8	323.773
1197.17	331.38
1200.55	326.261
1203.92	299.248
1207.3	265.198
1210.67	240.65
1214.05	200.899
1217.42	156.462
1220.8	112.936
1224.17	34.9287
1227.55	19.1362
1230.92	8.68799
1234.3	0.496582
1237.67	7.4751
1241.05	23.8755
1244.42	25.2827
1247.8	68.5137
1251.17	101.705
1254.55	148.436
1257.92	123.049
1261.3	98.7822
1264.67	89.5591
1268.05	86.4756
1271.42	74.6333
1274.8	62.168
1278.17	44.6494
1281.55	40.5674
