Measurement: Raman, 532 nm, unoriented, Raman Data Processed
Mineral: Perovskite
Rruff sample: R120121
Ideal chemistry: CaTiO_3_
Locality: Fuka mine, Bicchu-cho, Okayama Prefecture, Japan
Source: Marcus Origlieri
Description: Isolated grey-to-black octahedra frozen in matrix, associated with wollastonite R120122, spurrite and gehlenite
Raman shift (cm-1)	intensity
200.249	0
203.141	0.770874
206.034	6.74731
208.927	21.9763
211.819	41.4672
214.712	68.8124
217.605	104.317
220.497	117.304
223.39	103.71
226.283	99.0944
229.175	128.7
232.068	190.432
234.961	262.726
237.854	330.239
240.746	339.979
243.639	261.197
246.532	164.334
249.424	83.8132
252.317	38.9438
255.21	12.1509
258.103	4.12512
260.995	13.6224
263.888	9.46472
266.781	0.024658
269.673	16.7825
272.566	29.1781
275.459	37.1368
278.351	33.8574
281.244	34.4382
284.137	27.6078
287.029	28.4129
289.922	24.864
292.815	23.3148
295.708	22.4456
298.6	19.202
301.493	20.0852
304.386	20.3743
307.278	20.283
310.171	20.8959
313.064	24.741
315.957	31.407
318.849	42.0399
321.742	60.8384
324.635	79.3107
327.527	99.3734
330.42	111.874
333.313	110.852
336.205	108.522
339.098	105.236
341.991	102.343
344.884	98.4038
347.776	89.1993
350.669	81.8868
353.562	70.7036
356.454	63.9637
359.347	56.2605
362.24	55.5795
365.132	51.6917
368.025	52.7507
370.918	53.3048
373.81	58.5767
376.703	60.7126
379.596	64.4813
382.489	68.7837
385.381	65.1824
388.274	67.3979
391.167	67.7085
394.059	70.8945
396.952	74.0989
399.845	69.8149
402.738	62.0356
405.63	52.0245
408.523	40.8254
411.416	29.5416
414.308	18.3456
417.201	7.36529
420.094	0.282837
422.986	4.78723
425.879	9.17004
428.772	5.37256
431.664	2.7406
434.557	4.46576
437.45	7.49377
440.343	13.7578
443.235	13.9183
446.128	20.532
449.021	29.1413
451.913	39.3387
454.806	50.7778
457.699	77.7539
460.591	101.593
463.484	122.736
466.377	131.773
469.27	122.178
472.162	96.6185
475.055	76.309
477.948	60.8395
480.84	51.9307
483.733	48.3534
486.626	47.5583
489.519	48.4562
492.411	46.1285
495.304	41.8667
498.197	38.4488
501.089	34.1534
503.982	28.2997
506.875	23.371
509.767	23.1661
512.66	20.0411
515.553	22.1478
518.446	24.1073
521.338	22.7661
524.231	23.4371
527.124	27.0051
530.016	23.5073
532.909	25.1977
535.802	25.9373
538.694	20.6218
541.587	16.4486
544.48	13.4201
547.372	9.42023
550.265	7.51898
553.158	4.34604
556.051	1.78705
558.943	0.733856
561.836	2.6904
564.729	2.1749
567.621	4.24841
570.514	1.30008
573.407	0.442261
576.299	0.514404
579.192	4.15579
582.085	5.81055
584.978	8.6868
587.87	12.5775
590.763	17.5248
593.656	18.1006
596.548	23.6858
599.441	26.6325
602.334	30.7501
605.226	34.6148
608.119	41.6647
611.012	45.888
613.905	53.2477
616.797	57.355
619.69	65.7739
622.583	68.942
625.475	70.4565
628.368	72.0275
631.261	74.7666
634.154	77.6249
637.046	76.1621
639.939	77.657
642.832	76.7499
645.724	75.1049
648.617	73.8103
651.51	71.8638
654.402	70.2304
657.295	68.2923
660.188	66.8234
663.081	63.674
665.973	60.9308
668.866	57.5921
671.759	53.9635
674.651	51.3164
677.544	45.2501
680.437	39.3578
683.329	34.1439
686.222	28.5337
689.115	24.9945
692.008	18.3948
694.9	14.9565
697.793	9.40927
700.686	3.61734
703.578	0.076324
706.471	1.22009
709.364	2.9899
712.256	4.52264
715.149	5.52271
718.042	3.33041
720.934	0.194611
723.827	2.66522
726.72	4.99277
729.613	9.78177
732.505	16.4397
735.398	22.9321
738.291	31.3751
741.183	38.0963
744.076	51.7976
746.969	62.0527
749.861	74.575
752.754	87.1535
755.647	100.916
758.54	118.748
761.432	134.204
764.325	155.033
767.218	171.605
770.11	190.586
773.003	207.667
775.896	226.336
778.788	241.233
781.681	252.606
784.574	262.565
787.467	266.371
790.359	271.242
793.252	268.529
796.145	257.139
799.037	247.138
801.93	225.314
804.823	206.103
807.716	185.434
810.608	160.019
813.501	142.509
816.394	124.258
819.286	106.499
822.179	92.6205
825.072	80.3794
827.964	66.5906
830.857	58.2842
833.75	48.9331
836.643	41.9049
839.535	34.9761
842.428	30.871
845.321	26.0031
848.213	18.7642
851.106	13.7866
853.999	8.48764
856.891	7.35956
859.784	4.94238
862.677	1.20416
865.569	0.925415
868.462	0.839813
871.355	1.39468
874.248	2.02344
877.14	0.781006
880.033	3.0338
882.926	2.03055
885.818	1.54144
888.711	0.337021
891.604	1.19846
894.496	0.899429
897.389	1.36629
900.282	3.02045
903.175	4.91745
906.067	4.70699
908.96	5.95308
911.853	6.23601
914.745	7.10753
917.638	8.33815
920.531	9.26633
923.423	9.76373
926.316	9.57744
929.209	10.8564
932.102	10.337
934.994	9.32162
937.887	9.46297
940.78	8.09824
943.672	9.54231
946.565	7.19188
949.458	4.95984
952.351	4.18828
955.243	2.4297
958.136	2.92331
961.029	1.81384
963.921	1.85547
966.814	1.46187
969.707	3.26158
972.599	3.40826
975.492	2.45113
978.385	2.90273
981.278	2.89191
984.17	1.57568
987.063	2.54243
989.956	2.56926
992.848	1.69237
995.741	2.82788
998.634	3.19521
1001.53	2.95158
1004.42	4.07434
1007.31	3.57605
1010.21	4.12604
1013.1	5.96568
1015.99	7.95137
1018.88	11.2451
1021.77	12.0192
1024.67	5.90654
1027.56	6.97772
1030.45	6.22476
1033.35	5.96724
1036.24	6.37396
1039.13	7.40475
1042.02	6.19877
1044.92	6.64905
1047.81	5.95297
1050.7	7.04812
1053.6	6.1143
1056.49	5.68774
1059.38	5.3197
1062.27	5.36391
1065.17	4.66135
1068.06	3.83432
1070.95	3.99309
1073.84	3.77268
1076.74	4.22823
1079.63	2.2232
1082.52	3.81903
1085.41	3.01025
1088.31	1.65712
1091.2	2.03597
1094.09	0.936417
1096.99	0.101753
1099.88	0.960091
1102.77	0.907555
1105.66	0.108147
1108.56	0.353378
1111.45	0.362686
1114.34	0.419525
1117.23	0.003777
1120.13	0.330627
1123.02	0.285835
1125.91	0.330078
1128.81	0.153336
1131.7	0.285461
1134.59	0.032562
1137.48	0.249802
1140.38	0.219772
1143.27	0.499481
1146.16	0.783363
1149.05	1.05467
1151.95	1.14874
1154.84	0.106171
1157.73	1.22475
1160.62	1.16692
1163.52	1.62518
1166.41	2.03157
1169.3	0.569489
1172.2	1.0622
1175.09	2.00745
1177.98	1.77604
1180.87	1.53438
1183.77	2.48621
1186.66	2.16421
1189.55	1.97405
1192.44	1.81612
1195.34	1.26975
1198.23	3.09616
1201.12	1.794
1204.02	1.06039
1206.91	1.49589
1209.8	1.75965
1212.69	1.51438
1215.59	0.92691
1218.48	1.24759
1221.37	1.23164
1224.26	1.50076
1227.16	0.829056
1230.05	0.773491
1232.94	1.39437
1235.84	0.347588
1238.73	0.096107
1241.62	0.219864
1244.51	0.637177
1247.41	1.18932
1250.3	1.34635
1253.19	1.71104
1256.08	0.37188
1258.98	1.11176
1261.87	2.17012
1264.76	1.43682
1267.65	0.985809
1270.55	1.4986
1273.44	0.678734
1276.33	0.318573
1279.23	0.95256
1282.12	1.54975
1285.01	1.24553
1287.9	0.764854
1290.8	0.770699
1293.69	0.795822
1296.58	0.407318
1299.47	0.058022
