Measurement: Raman, 532 nm, unoriented, Raman Data Processed
Mineral: Perovskite
Rruff sample: R130037
Ideal chemistry: CaTiO_3_
Locality: Bond zone (Quebec Columbium Ltd. and Columbium Mining Products properties), Oka complex, Oka, Deux-Montagnes RCM, Laurentides, Québec, Canada
Source: Don Doell
Description: Sharp black cubes, associated with åkermanite, R130036
Raman shift (cm-1)	intensity
178.071	0
180.964	0.113152
183.857	2.13078
186.749	2.7048
189.642	3.68326
192.535	5.22636
195.427	7.8214
198.32	8.89843
201.213	11.7129
204.105	11.4614
206.998	11.8708
209.891	11.9863
212.784	14.0905
215.676	15.5557
218.569	20.6309
221.462	22.6921
224.354	26.187
227.247	32.0571
230.14	36.7343
233.032	42.1863
235.925	49.2472
238.818	53.4446
241.71	54.5575
244.603	47.6761
247.496	36.6057
250.389	26.3657
253.281	19.1755
256.174	12.8412
259.067	10.1297
261.959	7.19548
264.852	5.4869
267.745	4.48623
270.637	2.62744
273.53	2.17113
276.423	1.87946
279.316	0.752129
282.208	0.977432
285.101	0.088371
287.994	0.436584
290.886	0.12883
293.779	0.763115
296.672	0.974113
299.565	1.10257
302.457	2.072
305.35	4.43555
308.243	4.64607
311.135	5.77289
314.028	8.55518
316.921	10.6929
319.813	12.5585
322.706	14.2017
325.599	15.196
328.491	18.058
331.384	18.1315
334.277	17.9932
337.17	17.2492
340.062	16.5628
342.955	15.1698
345.848	12.6309
348.74	11.1792
351.633	8.90118
354.526	6.83794
357.418	7.55717
360.311	5.72454
363.204	5.37762
366.097	5.00687
368.989	4.69271
371.882	4.19932
374.775	3.55906
377.667	2.21252
380.56	2.77886
383.453	1.62287
386.346	1.65597
389.238	1.36877
392.131	1.66553
395.024	0.857193
397.916	0.449936
400.809	0.423668
403.702	0.810913
406.594	0.17382
409.487	0.358383
412.38	0.571678
415.272	0.676033
418.165	0.391705
421.058	0.41283
423.951	0.234447
426.843	0.067219
429.736	0.175179
432.629	1.40953
435.521	1.46778
438.414	4.49127
441.307	5.63319
444.2	10.3715
447.092	16.6504
449.985	20.3877
452.878	27.7124
455.77	35.9686
458.663	43.2539
461.556	43.4534
464.448	34.9546
467.341	23.6096
470.234	15.1081
473.127	9.75098
476.019	6.35393
478.912	4.1945
481.805	4.33534
484.697	2.34536
487.59	3.28496
490.483	2.93061
493.375	2.57627
496.268	3.99962
499.161	3.94916
502.053	5.49327
504.946	5.37849
507.839	5.8759
510.732	6.61855
513.624	6.78011
516.517	7.15282
519.41	8.08918
522.302	7.98144
525.195	8.98255
528.088	8.53877
530.981	8.2055
533.873	8.54845
536.766	8.7356
539.659	8.03306
542.551	8.08703
545.444	7.33053
548.337	8.14398
551.229	6.62092
554.122	6.54767
557.015	6.75224
559.908	5.86642
562.8	4.73929
565.693	3.66151
568.586	3.58772
571.478	3.18435
574.371	2.73447
577.264	2.21047
580.156	1.91756
583.049	1.91315
585.942	1.58117
588.835	1.62867
591.727	1.01009
594.62	1.18698
597.513	0.219494
600.405	0.002892
603.298	0.055347
606.191	0.118317
609.083	0.188164
611.976	0.10844
614.869	0.032497
617.761	0.605732
620.654	0.364609
623.547	0.267067
626.44	0.777618
629.332	0.403301
632.225	0.328808
635.118	0.718582
638.01	1.00909
640.903	1.50367
643.796	2.22241
646.688	2.27853
649.581	1.09222
652.474	1.3432
655.367	2.10398
658.259	1.07177
661.152	1.82475
664.045	1.28032
666.937	1.30821
669.83	1.17022
672.723	0.848564
675.615	1.1441
678.508	0.798187
681.401	0.761322
684.294	0.411861
687.186	0.142582
690.079	0.362415
692.972	0.095833
695.864	0.15546
698.757	0.279808
701.65	0.787743
704.543	0.186279
707.435	0.1189
710.328	0.51297
713.221	0.54517
716.113	0.379223
719.006	0.924797
721.899	0.549824
724.791	0.48431
727.684	1.44535
730.577	1.02728
733.47	2.65261
736.362	3.67472
739.255	4.19374
742.148	6.11013
745.04	6.83529
747.933	8.42766
750.826	10.3518
753.718	11.9938
756.611	14.0517
759.504	15.2519
762.396	18.4262
765.289	20.2047
768.182	21.9907
771.075	24.291
773.967	27.3871
776.86	28.4084
779.753	29.7056
782.645	31.7149
785.538	31.7898
788.431	33.2504
791.323	33.881
794.216	34.6168
797.109	33.3344
800.002	33.0569
802.894	31.8266
805.787	31.423
808.68	30.6236
811.572	29.2071
814.465	29.1302
817.358	29.08
820.25	27.581
823.143	26.6785
826.036	25.8688
828.929	23.8818
831.821	22.3691
834.714	20.6277
837.607	19.1792
840.5	17.5127
843.392	15.4347
846.285	12.8137
849.178	10.9742
852.07	9.34328
854.963	8.26891
857.856	6.29312
860.748	5.03973
863.641	3.96172
866.534	3.01658
869.427	2.20114
872.319	2.68809
875.212	0.573589
878.105	0.902779
880.997	0.174774
883.89	0.914391
886.783	0.355583
889.675	0.034498
892.568	0.485493
895.461	0.609428
898.354	0.067169
901.246	0.332262
904.139	0.490753
907.032	0.113241
909.924	0.002169
912.817	0.074516
915.71	0.452816
918.602	0.787195
921.495	1.09645
924.388	1.23514
927.28	1.35963
930.173	1.24548
933.066	1.07231
935.959	1.48933
938.851	1.74198
941.744	1.65409
944.637	1.50961
947.529	1.56254
950.422	1.44285
953.315	0.892988
956.207	1.34477
959.1	1.66532
961.993	1.60171
964.886	0.804878
967.778	1.42543
970.671	0.602785
973.564	0.730724
976.456	0.79122
979.349	0.592943
982.242	0.764271
985.135	1.01199
988.027	0.777323
990.92	1.24527
993.813	0.892242
996.705	1.03979
999.598	0.924276
1002.49	0.525291
1005.38	1.08326
1008.28	0.844982
1011.17	0.867247
1014.06	0.690229
1016.95	1.22246
1019.85	0.644505
1022.74	0.756382
1025.63	0.828167
1028.53	0.601152
1031.42	0.893269
1034.31	0.636816
1037.2	1.03815
1040.1	1.05322
1042.99	0.69128
1045.88	0.932272
1048.77	0.239012
1051.67	1.08552
1054.56	0.537678
1057.45	0.441774
1060.35	0.299999
1063.24	0.649921
1066.13	0.278767
1069.02	0.484398
1071.92	0.378738
1074.81	0.790789
1077.7	0.230246
1080.59	0.731068
1083.49	0.357012
1086.38	0.752844
1089.27	0.992458
1092.16	0.506746
1095.06	0.485128
1097.95	0.141842
1100.84	0.274412
1103.73	0.536949
1106.63	0.161295
1109.52	0.514448
1112.41	0.33477
1115.31	0.399128
1118.2	0.413631
1121.09	1.164
1123.98	0.592937
1126.88	0.977943
1129.77	0.452869
1132.66	0.337847
1135.56	0.158587
1138.45	0.132723
1141.34	0.316799
1144.23	0.544615
1147.13	0.508307
1150.02	0.937336
1152.91	0.166744
1155.8	0.402203
1158.7	0.463331
1161.59	0.111336
1164.48	0.025692
1167.38	0.276571
1170.27	0.07486
1173.16	0.568505
1176.05	0.299517
1178.94	0.306729
1181.84	0.478708
1184.73	0.975558
1187.62	0.615479
1190.52	0.591445
1193.41	0.251247
1196.3	0.962352
1199.19	0.541112
1202.09	0.457204
1204.98	0.632621
1207.87	0.258375
1210.77	0.757648
1213.66	0.661876
1216.55	0.497222
1219.44	0.373021
1222.34	0.734378
1225.23	0.669418
1228.12	0.350617
1231.01	0.270926
1233.91	0.612176
1236.8	0.431561
1239.69	0.34293
1242.59	0.73069
1245.48	0.575028
1248.37	1.12693
1251.26	0.745673
1254.16	0.211192
1257.05	0.073607
1259.94	0.758651
1262.83	1.08182
1265.73	0.933182
1268.62	0.362015
1271.51	0.51957
1274.4	0.347551
1277.3	1.14672
1280.19	0.335423
1283.08	0.925577
1285.97	0.715717
1288.87	0.627935
1291.76	0.368654
1294.65	0.05249
1297.55	0.539697
1300.44	0.051121
