Measurement: Raman, 780 nm, unoriented, Raman Data Processed
Mineral: Perovskite
Rruff sample: R130037
Ideal chemistry: CaTiO_3_
Locality: Bond zone (Quebec Columbium Ltd. and Columbium Mining Products properties), Oka complex, Oka, Deux-Montagnes RCM, Laurentides, Québec, Canada
Source: Don Doell
Description: Sharp black cubes, associated with åkermanite, R130036
Raman shift (cm-1)	intensity
91.1996	0
94.5744	5.78395
97.9492	5.75571
101.324	0.62619
104.699	3.01163
108.074	0.098999
111.448	1.22839
114.823	3.75729
118.198	4.57399
121.573	5.78084
124.948	4.63129
128.322	4.60547
131.697	2.99654
135.072	2.46991
138.447	4.50429
141.822	3.26915
145.197	2.36307
148.571	1.82317
151.946	3.90781
155.321	3.06385
158.696	1.68214
162.071	2.74299
165.446	1.75795
168.82	1.55886
172.195	1.04771
175.57	0.239754
178.945	1.09132
182.32	0.967552
185.694	0.272324
189.069	0.68042
192.444	0.02401
195.819	1.33824
199.194	1.43382
202.569	3.68724
205.943	4.19138
209.318	5.69157
212.693	5.90536
216.068	7.14032
219.442	9.144
222.817	11.0606
226.192	13.8925
229.567	16.794
232.942	18.4787
236.317	20.1021
239.691	18.0943
243.066	13.8878
246.441	8.6679
249.816	5.32983
253.191	2.86398
256.565	1.09064
259.94	1.5172
263.315	0.62365
266.69	0.976608
270.065	1.36684
273.44	1.37305
276.814	1.85535
280.189	1.47222
283.564	1.45971
286.939	1.333
290.314	3.22776
293.688	1.76334
297.063	2.46066
300.438	2.3761
303.813	4.36636
307.188	4.43305
310.562	4.36706
313.937	7.35719
317.312	6.91046
320.687	7.49459
324.062	9.47901
327.437	9.41586
330.811	9.91895
334.186	9.65469
337.561	8.96413
340.936	7.40923
344.311	8.03824
347.685	6.6944
351.06	4.88101
354.435	5.77769
357.81	4.72375
361.185	3.75805
364.56	4.76202
367.934	3.7526
371.309	3.26203
374.684	3.1476
378.059	2.41664
381.434	2.9124
384.808	2.25237
388.183	1.97901
391.558	0.902252
394.933	0.530502
398.308	0.92514
401.683	0.165901
405.057	0.681335
408.432	0.712891
411.807	0.001709
415.182	0.093689
418.557	0.746872
421.931	0.18412
425.306	0.306175
428.681	0.284012
432.056	0.427551
435.431	1.30192
438.805	3.09968
442.18	5.8116
445.555	8.55213
448.93	11.2956
452.305	15.6926
455.68	18.96
459.054	20.079
462.429	17.9305
465.804	12.6855
469.179	9.88139
472.554	7.01589
475.928	6.14255
479.303	5.09988
482.678	4.76629
486.053	4.26979
489.428	3.52273
492.803	3.36116
496.177	3.24604
499.552	2.58002
502.927	3.70917
506.302	4.1595
509.677	4.39109
513.051	4.84792
516.426	4.66462
519.801	4.57942
523.176	4.85841
526.551	4.31379
529.926	5.66581
533.3	4.56908
536.675	5.55865
540.05	4.16937
543.425	3.99946
546.799	4.26785
550.174	3.47073
553.549	3.05672
556.924	3.15679
560.299	2.5355
563.674	2.52472
567.048	1.05684
570.423	2.06987
573.798	0.861496
577.173	1.31316
580.548	1.19623
583.923	1.39113
587.297	1.23327
590.672	0.3265
594.047	0.749199
597.422	0.510201
600.797	0.498009
604.171	0.324013
607.546	0.367252
610.921	0.736889
614.296	0.646408
617.671	0.699379
621.045	0.771595
624.42	1.97
627.795	1.95477
631.17	2.60129
634.545	1.6878
637.919	3.28878
641.294	3.3284
644.669	3.60729
648.044	3.04531
651.419	2.90971
654.794	2.00693
658.168	2.47159
661.543	1.56289
664.918	0.878681
668.293	0.709702
671.668	0.79874
675.043	1.05199
678.417	0.594894
681.792	0.396103
685.167	0.973282
688.542	1.45412
691.917	0.52475
695.291	1.37733
698.666	0.786003
702.041	0.121956
705.416	0.96666
708.791	1.94115
712.165	2.63996
715.54	4.41972
718.915	7.70435
722.29	10.1388
725.665	13.3381
729.039	16.0265
732.414	21.0879
735.789	25.006
739.164	30.5016
742.539	35.5967
745.914	41.4556
749.288	46.1563
752.663	51.3301
756.038	54.0144
759.413	58.5805
762.788	60.373
766.163	62.0066
769.537	63.8013
772.912	62.0669
776.287	62.8824
779.662	61.6671
783.037	59.5328
786.411	57.6576
789.786	55.9031
793.161	52.2983
796.536	48.2162
799.911	43.9442
803.285	40.4426
806.66	38.3323
810.035	35.74
813.41	31.5306
816.785	30.9087
820.159	28.6255
823.534	26.4206
826.909	23.3852
830.284	20.6619
833.659	17.492
837.034	15.6177
840.408	11.4713
843.783	10.9694
847.158	8.41737
850.533	6.10535
853.908	4.42144
857.283	3.30397
860.657	0.980907
864.032	0.859894
867.407	0.447182
870.782	0.976818
874.157	0.66436
877.531	2.01144
880.906	1.05953
884.281	0.961044
887.656	0.773529
891.031	0.311337
894.405	0.215691
897.78	0.212376
901.155	0.658958
904.53	0.347118
907.905	1.66267
911.279	1.70046
914.654	2.69669
918.029	3.45993
921.404	2.91538
924.779	3.46165
928.154	3.91951
931.528	4.345
934.903	3.60536
938.278	3.95316
941.653	4.27969
945.028	3.09834
948.403	3.34252
951.777	3.54001
955.152	3.03264
958.527	2.72047
961.902	2.2747
965.277	2.62162
968.651	2.70437
972.026	2.2881
975.401	2.05275
978.776	2.15826
982.151	2.26899
985.525	1.97611
988.9	1.39593
992.275	1.70101
995.65	1.48686
999.025	1.0203
1002.4	0.98394
1005.77	1.91816
1009.15	1.62281
1012.52	1.13053
1015.9	1.37933
1019.27	1.32966
1022.65	1.47801
1026.02	0.654854
1029.4	1.34172
1032.77	0.679764
1036.15	0.58926
1039.52	1.22894
1042.9	1.22751
1046.27	0.323372
1049.65	1.14751
1053.02	0.709404
1056.4	0.678089
1059.77	1.32676
1063.15	0.769466
1066.52	0.015968
1069.9	0.488945
1073.27	0.918129
1076.64	0.166222
1080.02	0.540466
1083.39	0.894539
1086.77	0.655926
1090.14	0.498699
1093.52	0.531933
1096.89	0.395733
1100.27	0.01585
1103.64	0.312851
1107.02	1.06528
1110.39	0.596355
1113.77	0.876179
1117.14	0.261978
1120.52	0.181274
1123.89	0.117283
1127.27	0.165028
1130.64	1.06489
1134.02	0.217155
1137.39	0.656773
1140.77	0.316036
1144.14	0.622189
1147.52	0.348335
1150.89	0.020901
1154.27	0.397381
1157.64	0.485182
1161.02	0.293764
1164.39	0.814568
1167.77	0.961678
1171.14	1.38946
1174.52	1.68628
1177.89	0.492254
1181.27	0.833488
1184.64	0.660069
1188.01	0.680552
1191.39	0.861397
1194.76	1.0762
1198.14	0.733725
1201.51	0.741482
1204.89	1.20664
1208.26	0.754402
1211.64	0.190161
1215.01	1.27186
1218.39	0.574755
1221.76	0.066109
1225.14	0.401903
1228.51	0.65378
1231.89	0.814478
1235.26	0.509106
1238.64	0.251244
1242.01	0.254734
1245.39	1.23615
1248.76	0.711355
1252.14	0.534401
1255.51	0.463327
1258.88	0.981401
1262.26	0.535482
1265.63	0.443645
1269.01	0.994213
1272.38	0.063038
1275.76	0.634159
1279.13	0.155304
1282.51	0.386616
