Measurement: Raman, 532 nm, unoriented, Raman Data Processed
Mineral: Perovskite
Rruff sample: R050456
Ideal chemistry: CaTiO_3_
Locality: Magnet Cove, Arkansas, USA
Source: University of Arizona Mineral Museum
Description: Groups of black cubo-octahedral crystals
Measured chemistry: darker phase: (Ca_0.82_Fe^2+^_0.09_Na_0.07_Ce_0.01_La_0.01_)_Σ=1_(Ti_0.95_Nb^5+^_0.05_)_Σ=1_O_3_ ; gray phase: (Ca_0.89_Fe^2+^_0.05_Na_0.04_Ce_0.01_La_0.01_)_Σ=1_(Ti_0.98_Nb^5+^_0.02_)_Σ=1_O_3_
Raman shift (cm-1)	intensity
163.807	0
166.7	2.02853
169.593	4.91612
172.486	9.73645
175.378	13.6052
178.271	17.2301
181.164	13.8524
184.056	9.26184
186.949	6.43617
189.842	3.0081
192.734	1.47435
195.627	0.703384
198.52	0.613388
201.412	0.325455
204.305	1.94124
207.198	0.660721
210.091	2.9015
212.983	6.6853
215.876	10.4239
218.769	15.42
221.661	17.0923
224.554	19.3815
227.447	18.4068
230.339	22.9954
233.232	25.1143
236.125	32.8954
239.018	39.9784
241.91	46.5695
244.803	42.3121
247.696	29.5343
250.588	16.8422
253.481	7.85161
256.374	2.8663
259.267	3.09868
262.159	3.59578
265.052	2.11146
267.945	0.67334
270.837	3.49268
273.73	11.6137
276.623	17.5521
279.515	23.2929
282.408	24.9361
285.301	24.1456
288.193	23.7057
291.086	22.0117
293.979	21.5101
296.872	18.5243
299.764	17.5098
302.657	16.6774
305.55	16.9668
308.442	16.2156
311.335	16.4309
314.228	16.3529
317.12	18.6287
320.013	21.028
322.906	23.0049
325.799	28.5234
328.691	34.0377
331.584	36.9511
334.477	39.8313
337.369	38.9144
340.262	37.0944
343.155	34.2799
346.048	30.9642
348.94	29.0708
351.833	26.8713
354.726	25.7188
357.618	23.8209
360.511	22.3206
363.404	21.6306
366.296	19.2305
369.189	18.1381
372.082	18.9925
374.974	19.9716
377.867	18.8592
380.76	19.1101
383.653	20.777
386.545	20.4057
389.438	18.6863
392.331	17.6264
395.223	16.6661
398.116	15.3718
401.009	13.7506
403.901	10.3274
406.794	10.2702
409.687	9.32582
412.58	6.09361
415.472	4.7915
418.365	2.42192
421.258	0.592209
424.15	0.390762
427.043	0.566528
429.936	1.31773
432.829	2.63107
435.721	1.40544
438.614	1.36118
441.507	1.27225
444.399	1.66461
447.292	3.28928
450.185	6.85115
453.077	9.48785
455.97	14.9988
458.863	19.3489
461.755	24.6279
464.648	25.8896
467.541	23.964
470.434	21.1045
473.326	18.2947
476.219	18.9583
479.112	20.642
482.004	23.5832
484.897	26.045
487.79	28.5904
490.683	28.4828
493.575	28.5259
496.468	28.8932
499.361	28.6264
502.253	30.1001
505.146	30.5167
508.039	30.6013
510.931	31.767
513.824	32.2379
516.717	31.4373
519.61	32.0897
522.502	32.8167
525.395	32.5099
528.288	32.609
531.18	31.3035
534.073	29.7383
536.966	27.5394
539.859	26.3436
542.751	24.8464
545.644	21.3067
548.537	18.0886
551.429	15.9042
554.322	13.3602
557.215	11.3489
560.107	9.9021
563	7.50185
565.893	5.88157
568.785	3.4446
571.678	2.82807
574.571	1.74993
577.464	1.63246
580.356	0.297333
583.249	0.190491
586.142	0.52877
589.034	0.132347
591.927	0.008614
594.82	0.355026
597.712	0.972115
600.605	0.784561
603.498	1.80987
606.39	1.50363
609.283	3.60561
612.176	5.2607
615.069	6.0887
617.961	5.84753
620.854	6.70204
623.747	9.4401
626.639	10.5266
629.532	11.3433
632.425	11.741
635.317	13.0945
638.21	12.6539
641.103	14.3091
643.996	14.1643
646.888	13.7712
649.781	13.9071
652.674	13.6421
655.566	12.993
658.459	11.2744
661.352	9.63202
664.245	9.55812
667.137	8.36723
670.03	7.74662
672.923	6.17522
675.815	4.80308
678.708	4.60406
681.601	3.19846
684.493	2.87864
687.386	1.27275
690.279	1.36447
693.172	0.44133
696.064	0.281548
698.957	1.42254
701.85	1.48233
704.742	1.13766
707.635	1.82533
710.528	0.275085
713.42	0.632576
716.313	0.524681
719.206	1.88752
722.098	2.29082
724.991	4.84316
727.884	6.30715
730.777	9.31308
733.669	11.1093
736.562	18.2573
739.455	18.089
742.347	23.4092
745.24	29.1058
748.133	34.932
751.025	41.7155
753.918	47.4099
756.811	54.7558
759.704	61.3458
762.596	69.7441
765.489	75.2113
768.382	80.7067
771.274	86.111
774.167	91.5644
777.06	95.9823
779.952	100.439
782.845	101.295
785.738	104.217
788.631	103.583
791.523	102.611
794.416	98.7781
797.309	95.4472
800.201	89.1494
803.094	82.5887
805.987	75.5623
808.88	67.7262
811.772	61.0692
814.665	55.8125
817.558	49.8874
820.45	46.2063
823.343	41.972
826.236	39.6418
829.128	37.1455
832.021	35.3398
834.914	33.5352
837.807	31.4401
840.699	28.7943
843.592	24.6917
846.485	21.0776
849.377	16.1582
852.27	12.1691
855.163	9.24062
858.055	7.01597
860.948	5.35515
863.841	3.63267
866.734	1.5025
869.626	0.011631
872.519	0.641479
875.412	0.692841
878.304	1.73466
881.197	0.665867
884.09	1.16591
886.982	1.59438
889.875	0.785603
892.768	0.765415
895.66	0.446239
898.553	0.222462
901.446	0.766838
904.339	0.904224
907.231	1.60811
910.124	1.47123
913.017	1.49384
915.909	1.98066
918.802	2.4777
921.695	2.78057
924.587	3.46916
927.48	3.23225
930.373	3.54627
933.266	3.54628
936.158	3.15666
939.051	3.19886
941.944	3.07269
944.836	2.98152
947.729	2.59864
950.622	2.66964
953.514	2.18629
956.407	2.2404
959.3	1.64132
962.193	2.32042
965.085	0.938301
967.978	1.3057
970.871	1.13789
973.763	1.10366
976.656	1.60336
979.549	1.45246
982.442	1.52676
985.334	1.6357
988.227	1.7373
991.12	1.62752
994.012	1.84895
996.905	1.04366
999.798	1.78091
1002.69	1.22065
1005.58	1.50425
1008.48	1.26163
1011.37	1.77246
1014.26	1.79317
1017.15	2.02971
1020.05	2.2803
1022.94	2.10896
1025.83	2.73992
1028.72	2.05997
1031.62	2.12524
1034.51	2.51152
1037.4	2.3596
1040.3	1.94676
1043.19	2.14383
1046.08	2.6253
1048.97	1.94113
1051.87	2.14956
1054.76	2.39622
1057.65	1.89097
1060.54	1.77693
1063.44	1.95178
1066.33	1.493
1069.22	1.20746
1072.12	1.3775
1075.01	1.55926
1077.9	1.27526
1080.79	0.961611
1083.69	1.06555
1086.58	0.515072
1089.47	0.016693
1092.36	0.072203
1095.26	0.308441
1098.15	0.224005
1101.04	0.321566
1103.93	0.36525
1106.83	0.1105
1109.72	0.009356
1112.61	0.354132
1115.51	0.236839
1118.4	0.177538
1121.29	0.137577
1124.18	0.0772
1127.08	0.520458
1129.97	0.209616
1132.86	0.279039
1135.76	0.185745
1138.65	0.084555
1141.54	0.289679
1144.43	0.07205
1147.33	0.341177
1150.22	0.234257
1153.11	0.092367
1156	0.478432
1158.9	0.266287
1161.79	0.434961
1164.68	0.185415
1167.57	0.651918
1170.47	0.587229
1173.36	0.469746
1176.25	0.240217
1179.14	0.68017
1182.04	0.664728
1184.93	0.378727
1187.82	0.660963
1190.72	0.353828
1193.61	0.445467
1196.5	0.330599
1199.39	0.595959
1202.29	0.192825
1205.18	0.658321
1208.07	0.752748
1210.96	0.708612
1213.86	0.619728
1216.75	0.178299
1219.64	0.139286
1222.54	0.743834
1225.43	0.475622
1228.32	0.637402
1231.21	0.681618
1234.11	0.255882
1237	0.271441
1239.89	0.722939
1242.79	0.373409
1245.68	0.158249
1248.57	0.641316
1251.46	0.274819
1254.36	0.094927
1257.25	0.26526
1260.14	0.541222
1263.03	0.615827
1265.93	0.04925
1268.82	0.421797
1271.71	0.317581
1274.6	0.427988
1277.5	0.350939
1280.39	0.036745
1283.28	0.096668
