Measurement: Raman, 780 nm, unoriented, Raman Data Processed
Mineral: Perraultite
Rruff sample: R130031
Ideal chemistry: NaBaMn^2+^_4_Ti_2_(Si_2_O_7_)_2_O_2_(OH)_2_F
Locality: Dmitrievka village, Mariupol' Massif, Azov Sea Region, Donets'k Oblast', Ukraine
Source: Don Doell
Description: Reddish brown massive, exhibiting good cleavage
Raman shift (cm-1)	intensity
122.055	0
125.43	3.42981
128.805	28.509
132.179	54.8876
135.554	53.2264
138.929	13.7113
142.304	11.3469
145.679	37.7799
149.054	67.7745
152.428	118.864
155.803	153.468
159.178	188.744
162.553	229.929
165.928	226.411
169.302	130.618
172.677	40.7129
176.052	9.68713
179.427	8.64807
182.802	4.96631
186.177	4.88794
189.551	21.6834
192.926	32.7144
196.301	40.4202
199.676	42.7513
203.051	49.1592
206.425	49.0742
209.8	39.137
213.175	22.415
216.55	16.8308
219.925	26.8566
223.299	38.6
226.674	65.9838
230.049	92.572
233.424	125.351
236.799	146.44
240.173	159.334
243.548	175.726
246.923	192.104
250.298	209.408
253.673	211.088
257.048	184.573
260.422	134.974
263.797	84.5515
267.172	36.0889
270.547	2.1438
273.922	7.76575
277.296	3.98498
280.671	4.75488
284.046	22.9692
287.421	45.0874
290.796	65.0607
294.171	84.4952
297.545	119.21
300.92	179.999
304.295	249.735
307.67	329.608
311.045	385.943
314.42	430.844
317.794	423.986
321.169	388.176
324.544	341.22
327.919	304.484
331.293	276.334
334.668	248.732
338.043	214.084
341.418	172.512
344.793	135.569
348.168	97.7119
351.542	67.6224
354.917	30.9244
358.292	4.5719
361.667	7.69238
365.042	1.21314
368.416	27.568
371.791	51.1429
375.166	83.8939
378.541	106.843
381.916	112.64
385.291	111.732
388.665	105.567
392.04	109.543
395.415	103.158
398.79	101.174
402.165	96.2587
405.539	94.9819
408.914	87.7531
412.289	84.604
415.664	77.1802
419.039	72.8667
422.413	61.2938
425.788	55.2466
429.163	50.7856
432.538	36.4703
435.913	20.7501
439.288	7.33215
442.662	0.953857
446.037	6.98498
449.412	6.45911
452.787	3.32263
456.162	4.78882
459.536	15.6104
462.911	21.3712
466.286	35.1043
469.661	40.2277
473.036	41.6033
476.411	39.6758
479.785	38.1332
483.16	36.5913
486.535	33.0676
489.91	28.2242
493.285	26.3303
496.659	24.7526
500.034	24.5352
503.409	17.7159
506.784	13.2678
510.159	11.3966
513.534	12.6013
516.908	8.79883
520.283	6.90564
523.658	8.46912
527.033	6.10229
530.408	6.30273
533.782	7.32275
537.157	7.86853
540.532	11.5597
543.907	20.462
547.282	28.2584
550.656	40.6466
554.031	55.0922
557.406	72.4243
560.781	100.277
564.156	134.817
567.53	176.49
570.905	236.145
574.28	313.554
577.655	401.314
581.03	462.848
584.405	448.634
587.779	361.767
591.154	259.383
594.529	168.646
597.904	111.237
601.279	80.2755
604.654	55.7557
608.028	29.8643
611.403	17.9529
614.778	1.23792
618.153	5.38354
621.528	2.11438
624.902	6.823
628.277	7.36401
631.652	4.51221
635.027	5.35181
638.402	2.60425
641.776	0.30957
645.151	10.3579
648.526	14.5053
651.901	21.033
655.276	32.4266
658.65	51.4344
662.025	62.1362
665.4	87.9238
668.775	111.675
672.15	141.87
675.525	176.281
678.899	212.732
682.274	250.938
685.649	298.924
689.024	350.345
692.399	405.018
695.774	462.014
699.148	513.366
702.523	547.158
705.898	580.125
709.273	590.994
712.648	565.179
716.022	547.928
719.397	547.677
722.772	546.293
726.147	531.144
729.522	513.938
732.896	479.959
736.271	441.677
739.646	390.325
743.021	344.567
746.396	298.613
749.77	254.796
753.145	210.395
756.52	177.403
759.895	147.199
763.27	118.234
766.645	93.7245
770.019	75.3474
773.394	55.7865
776.769	38.1581
780.144	26.4703
783.519	16.66
786.894	12.4243
790.268	6.53284
793.643	2.09839
797.018	1.16956
800.393	1.2677
803.768	4.13257
807.142	5.53113
810.517	7.62891
813.892	6.99439
817.267	1.58581
820.642	2.26965
824.016	2.61755
827.391	0.846436
830.766	1.4801
834.141	0.348755
837.516	0.166504
840.89	4.33789
844.265	0.475098
847.64	7.16101
851.015	13.3563
854.39	17.2727
857.765	27.0177
861.139	28.8321
864.514	36.9171
867.889	34.5836
871.264	41.9039
874.639	38.7534
878.013	44.5311
881.388	52.547
884.763	71.9283
888.138	100.584
891.513	136.917
894.888	180.549
898.262	232.989
901.637	292.527
905.012	347.822
908.387	405.001
911.762	446.306
915.136	448.3
918.511	426.007
921.886	373.47
925.261	309.118
928.636	244.833
932.01	199.22
935.385	151.764
938.76	117.864
942.135	98.2373
945.51	86.912
948.885	88.6519
952.259	100.322
955.634	130.347
959.009	159.075
962.384	170.421
965.759	145.698
969.133	98.3569
972.508	60.4781
975.883	26.5135
979.258	11.8867
982.633	0.407166
986.008	8.66827
989.382	6.6814
992.757	2.81305
996.132	6.01623
999.507	25.0246
1002.88	45.9731
1006.26	76.1105
1009.63	118.294
1013.01	182.087
1016.38	259.71
1019.76	340.636
1023.13	394.84
1026.51	373.503
1029.88	296.932
1033.26	202.814
1036.63	135.955
1040.01	93.7542
1043.38	65.7643
1046.75	42.5873
1050.13	28.3943
1053.5	23.7206
1056.88	18.3415
1060.25	13.1977
1063.63	2.72369
1067	5.2608
1070.38	4.49396
1073.75	3.6803
1077.13	4.38825
1080.5	2.36505
1083.88	0.687195
1087.25	3.59778
1090.63	0.570862
1094	3.91827
1097.38	0.594727
1100.75	1.50348
1104.13	1.62732
1107.5	1.7323
1110.88	1.43805
1114.25	0.705383
1117.62	1.35498
1121	3.40527
1124.38	4.39038
1127.75	4.6947
1131.12	3.65637
1134.5	6.01117
1137.87	8.18018
1141.25	7.59558
1144.62	9.38471
1148	10.5369
1151.37	10.4348
1154.75	11.9707
1158.12	10.628
1161.5	11.2766
1164.87	11.0997
1168.25	9.89539
1171.62	9.83307
1175	10.0669
1178.37	9.12524
1181.75	9.14484
1185.12	10.1769
1188.5	9.30512
1191.87	9.29926
1195.25	9.48895
1198.62	8.138
1202	8.84729
1205.37	7.3902
1208.74	7.48675
1212.12	6.79144
1215.49	6.08667
1218.87	5.43189
1222.24	4.03644
1225.62	3.74652
1228.99	2.27618
1232.37	1.69403
1235.74	0.651611
1239.12	1.90082
1242.49	0.072205
1245.87	0.845459
1249.24	0.096069
1252.62	2.68817
1255.99	2.43512
1259.37	1.6308
1262.74	3.08038
1266.12	2.70783
1269.49	2.5481
1272.87	2.40265
1276.24	2.23865
1279.62	1.81702
1282.99	1.55701
