Measurement: Raman, 532 nm, unoriented, Raman Data Processed
Mineral: Perraultite
Rruff sample: R130031
Ideal chemistry: NaBaMn^2+^_4_Ti_2_(Si_2_O_7_)_2_O_2_(OH)_2_F
Locality: Dmitrievka village, Mariupol' Massif, Azov Sea Region, Donets'k Oblast', Ukraine
Source: Don Doell
Description: Reddish brown massive, exhibiting good cleavage
Raman shift (cm-1)	intensity
170.839	0
173.732	1.41827
176.625	0.896011
179.518	4.49841
182.41	8.17908
185.303	8.07767
188.196	13.3017
191.088	24.3622
193.981	34.7803
196.874	38.7091
199.766	42.2738
202.659	42.2874
205.552	42.476
208.445	43.0209
211.337	40.9226
214.23	36.6573
217.123	32.7188
220.015	32.2602
222.908	32.6915
225.801	34.1484
228.693	39.721
231.586	43.6529
234.479	47.708
237.371	52.2473
240.264	52.1426
243.157	52.1885
246.05	52.2598
248.942	54.0016
251.835	56.807
254.728	58.8196
257.62	53.7495
260.513	46.0876
263.406	34.3217
266.298	24.4048
269.191	8.61914
272.084	0.950546
274.977	3.44156
277.869	3.07816
280.762	2.0081
283.655	1.57312
286.547	9.81802
289.44	14.6821
292.333	19.0408
295.226	22.1683
298.118	32.2803
301.011	45.1461
303.904	67.7647
306.796	91.4189
309.689	115.693
312.582	138.871
315.474	152.914
318.367	156.391
321.26	146.536
324.152	131.788
327.045	113.747
329.938	104.794
332.831	97.4078
335.723	89.5202
338.616	79.4838
341.509	66.1579
344.401	52.8462
347.294	36.5654
350.187	26.7871
353.079	14.2214
355.972	5.10893
358.865	1.14902
361.758	2.09786
364.65	0.376587
367.543	4.87704
370.436	12.9916
373.328	25.6129
376.221	38.4143
379.114	49.3692
382.007	52.5437
384.899	49.8723
387.792	46.9476
390.685	44.6221
393.577	45.2852
396.47	45.2946
399.363	42.7747
402.255	40.4254
405.148	41.2387
408.041	40.3555
410.933	42.1446
413.826	42.8057
416.719	42.6408
419.612	41.3006
422.504	39.5369
425.397	34.4276
428.29	31.2342
431.182	26.1035
434.075	20.0043
436.968	12.1189
439.861	5.0386
442.753	1.28993
445.646	0.880463
448.539	2.99405
451.431	3.52007
454.324	0.90197
457.217	2.61935
460.109	6.49721
463.002	12.1554
465.895	17.6101
468.788	23.8322
471.68	25.0914
474.573	26.497
477.466	24.3654
480.358	22.1123
483.251	20.4169
486.144	17.6682
489.036	15.5007
491.929	13.6738
494.822	12.4531
497.714	10.9089
500.607	11.066
503.5	8.68566
506.393	6.45557
509.285	4.76016
512.178	4.73399
515.071	5.32965
517.963	6.16415
520.856	5.54246
523.749	5.43602
526.641	4.84122
529.534	5.23881
532.427	4.47152
535.32	5.44129
538.212	6.00059
541.105	7.20921
543.998	10.3284
546.89	12.2768
549.783	16.1177
552.676	21.6584
555.568	28.5458
558.461	37.4134
561.354	49.5757
564.247	63.5207
567.139	82.2479
570.032	107.722
572.925	142.73
575.817	184.482
578.71	228.263
581.603	262.977
584.495	269.861
587.388	240.427
590.281	186.958
593.174	134.234
596.066	94.4002
598.959	66.5401
601.852	47.2389
604.744	33.8028
607.637	22.7928
610.53	14.3823
613.423	7.17505
616.315	0.414932
619.208	2.26547
622.101	4.16125
624.993	3.84325
627.886	5.77177
630.779	5.92133
633.671	4.78482
636.564	2.96936
639.457	2.62485
642.35	0.731079
645.242	2.01469
648.135	7.47034
651.028	11.5432
653.92	19.0775
656.813	26.6725
659.706	36.3572
662.598	46.4555
665.491	61.6979
668.384	77.125
671.277	96.7048
674.169	118.412
677.062	140.585
679.955	166.623
682.847	192.965
685.74	226.26
688.633	261.095
691.525	297.701
694.418	338.462
697.311	379.17
700.203	422.193
703.096	456.106
705.989	489.972
708.882	509.845
711.774	521.296
714.667	523.146
717.56	530.209
720.452	537.691
723.345	542.625
726.238	539.494
729.13	529.844
732.023	512.504
734.916	481.273
737.809	445.761
740.701	408.385
743.594	364.636
746.487	325.066
749.379	283.666
752.272	246.394
755.165	209.607
758.058	177.161
760.95	151.963
763.843	128.412
766.736	104.264
769.628	85.6275
772.521	68.3322
775.414	54.2568
778.306	41.3703
781.199	32.2166
784.092	22.2367
786.985	16.2989
789.877	11.8224
792.77	9.9837
795.663	5.53381
798.555	2.78429
801.448	1.34216
804.341	1.54629
807.233	3.13538
810.126	3.84904
813.019	4.35201
815.912	5.0358
818.804	3.64005
821.697	3.90974
824.59	2.33243
827.482	3.5511
830.375	3.12404
833.268	2.69232
836.16	1.34492
839.053	1.97267
841.946	1.63773
844.838	1.69945
847.731	4.29817
850.624	4.05995
853.517	7.82512
856.409	11.1746
859.302	12.8246
862.195	15.9497
865.087	18.6656
867.98	21.2181
870.873	24.5409
873.765	23.7918
876.658	25.5029
879.551	25.1984
882.444	29.8289
885.336	35.8258
888.229	48.5675
891.122	65.1835
894.014	86.4732
896.907	114.106
899.8	142.817
902.692	180
905.585	215.141
908.478	249.819
911.371	279.892
914.263	296.75
917.156	300.901
920.049	287.888
922.941	257.56
925.834	223.436
928.727	187.521
931.62	148.174
934.512	117.877
937.405	92.3997
940.298	74.4243
943.19	62.1313
946.083	56.2452
948.976	57.196
951.868	67.4497
954.761	88.819
957.654	120.163
960.547	155.13
963.439	179.369
966.332	171.101
969.225	136.944
972.117	92.1489
975.01	56.0285
977.903	26.4898
980.795	6.96698
983.688	5.24866
986.581	7.38274
989.473	5.62386
992.366	0.376373
995.259	8.07806
998.152	23.3112
1001.04	47.6112
1003.94	77.8934
1006.83	119.46
1009.72	180.959
1012.62	264.228
1015.51	373.125
1018.4	510.089
1021.29	654.856
1024.19	770.375
1027.08	803.19
1029.97	716.575
1032.86	560.422
1035.76	409.091
1038.65	287.92
1041.54	205.397
1044.43	148.824
1047.33	109.9
1050.22	78.3462
1053.11	60.8455
1056.01	45.3715
1058.9	35.6853
1061.79	28.7092
1064.68	23.0272
1067.58	17.804
1070.47	14.0289
1073.36	10.2495
1076.26	10.4506
1079.15	6.8093
1082.04	3.7765
1084.93	3.53838
1087.83	1.07257
1090.72	0.263756
1093.61	1.86462
1096.5	1.07977
1099.4	1.7012
1102.29	1.18661
1105.18	0.85038
1108.07	0.272438
1110.97	0.397972
1113.86	1.03396
1116.75	2.69486
1119.64	3.64204
1122.54	3.37923
1125.43	3.14209
1128.32	5.63158
1131.22	6.05157
1134.11	7.4668
1137	7.79209
1139.89	6.71983
1142.79	7.60378
1145.68	8.36931
1148.57	7.70578
1151.46	7.18459
1154.36	6.63384
1157.25	6.33342
1160.14	6.6705
1163.04	6.07327
1165.93	5.74145
1168.82	5.13224
1171.71	4.2928
1174.61	4.11709
1177.5	3.72005
1180.39	4.43771
1183.28	3.62518
1186.18	3.17779
1189.07	3.05942
1191.96	2.69593
1194.86	2.90693
1197.75	2.57595
1200.64	2.5772
1203.53	2.5162
1206.43	2.85517
1209.32	2.19053
1212.21	2.01202
1215.1	1.44756
1218	1.86661
1220.89	0.405388
1223.78	1.27972
1226.67	1.0369
1229.57	0.740273
1232.46	1.22428
1235.35	1.04876
1238.25	0.761749
1241.14	0.923195
1244.03	1.30405
1246.92	2.1391
1249.82	0.368721
1252.71	0.940643
1255.6	0.656166
1258.49	1.17422
1261.39	0.430702
1264.28	0.283974
1267.17	0.543434
1270.07	0.908226
1272.96	0.596695
1275.85	0.18782
1278.74	0.396698
1281.64	0.940414
1284.53	0.906799
1287.42	0.784912
1290.31	0.949059
1293.21	0.624184
1296.1	0.727684
1298.99	0.969643
1301.88	0
