Measurement: Raman, 785 nm, unoriented, Raman Data Processed
Mineral: Perroudite
Rruff sample: R070484
Ideal chemistry: Ag_4_Hg_5_S_5_(I,Br)_2_Cl_2_
Locality: Cap Garonne Mine, Pradet, Var, Provence-Alpes-CÃ´te d'Azur, France
Source: Michael Scott
Description: Reddish brown acicular crystals associated with green or pale-green  cornwallite, light-yellow barite and quartz
Raman shift (cm-1)	intensity
137.31	0
140.202	9.9408
143.095	251.454
145.988	546.534
148.88	1000.87
151.773	1168.73
154.666	1085.04
157.558	1144.27
160.451	1282.05
163.344	1515.24
166.237	1588.26
169.129	1589.48
172.022	1643.14
174.915	1692.59
177.807	1802.4
180.7	1915.73
183.593	1929.32
186.485	1760.57
189.378	1511.74
192.271	1231.19
195.163	898.186
198.056	707.322
200.949	603.035
203.842	583.025
206.734	550.405
209.627	522.58
212.52	534.789
215.412	527.717
218.305	415.462
221.198	337.427
224.09	209.474
226.983	63.6702
229.876	23.0261
232.769	41.3975
235.661	96.8816
238.554	64.4722
241.447	97.8655
244.339	31.4116
247.232	33.5732
250.125	207.391
253.018	392.612
255.91	842.748
258.803	1485.63
261.696	2391.88
264.588	3458.03
267.481	4664
270.374	6121.13
273.266	7826.61
276.159	8997.02
279.052	8097.74
281.945	5779.36
284.837	3731.14
287.73	2711.32
290.623	2345.85
293.515	2575.43
296.408	3194.12
299.301	4543.34
302.193	6174.81
305.086	7800.12
307.979	9395.07
310.872	11488.5
313.764	13627.3
316.657	13297.1
319.55	9749.8
322.442	6199.01
325.335	4310.58
328.228	3397.18
331.12	2617.28
334.013	1838.2
336.906	1348.6
339.798	1217.82
342.691	1309.3
345.584	1314.88
348.476	1239.17
351.369	1251.93
354.262	1183.16
357.155	933.93
360.047	520.097
362.94	155.545
365.833	53.9893
368.725	28.8982
371.618	0.869141
374.511	76.2441
377.404	51.5664
380.296	43.0774
383.189	11.7927
386.082	5.00781
388.974	21.2278
391.867	58.583
394.76	62.0288
397.652	28.792
400.545	78.5041
403.438	119.329
406.33	97.0574
409.223	102.215
412.116	128.675
415.009	146.183
417.901	136.475
420.794	164.174
423.687	151.669
426.579	140.834
429.472	141.07
432.365	132.522
435.257	142.883
438.15	71.5544
441.043	60.5725
443.936	79.981
446.828	71.282
449.721	58.3511
452.614	37.3479
455.506	23.4858
458.399	81.4636
461.292	41.7134
464.185	52.7263
467.077	75.7012
469.97	65.8455
472.863	61.8694
475.755	32.3332
478.648	44.8057
481.541	15.7852
484.433	50.0071
487.326	22.2278
490.219	10.7476
493.111	41.166
496.004	17.1416
498.897	21.3191
501.79	1.49927
504.682	55.0955
507.575	6.40332
510.468	4.51514
513.36	20.2422
516.253	7.92285
519.146	4.19385
522.038	12.4231
524.931	17.2419
527.824	7.33765
530.717	13.2678
533.609	34.394
536.502	11.2637
539.395	36.3594
542.287	0.979248
545.18	36.6292
548.073	18.9214
550.966	6.66968
553.858	4.35571
556.751	45.6406
559.644	24.9631
562.536	22.2427
565.429	13
568.322	24.4231
571.214	6.89258
574.107	11.967
577	22.0256
579.893	16.5549
582.785	12.554
585.678	8.26611
588.571	5.85449
591.463	17.1013
594.356	15.4128
597.249	54.3567
600.141	23.4724
603.034	12.1997
605.927	60.2158
608.819	51.0869
611.712	35.2126
614.605	42.4412
617.498	80.3149
620.39	43.918
623.283	72.635
626.176	79.4941
629.068	75.3542
631.961	52.5374
634.854	76.2505
637.746	36.1838
640.639	10.6736
643.532	56.4702
646.425	66.0088
649.317	42.5125
652.21	47.9055
655.103	69.4656
657.995	16.9456
660.888	32.1182
663.781	54.554
666.673	46.1457
669.566	42.9058
672.459	35.4605
675.352	39.158
678.244	22.1797
681.137	52.1628
684.03	35.9678
686.922	33.0427
689.815	16.6531
692.708	42.4768
695.601	20.0215
698.493	4.0188
701.386	19.7419
704.279	58.6548
707.171	2.07666
710.064	6.29248
712.957	8.8811
715.849	35.3652
718.742	35.553
721.635	16.0964
724.528	44.5027
727.42	13.1999
730.313	17.25
733.206	24.2532
736.098	23.0698
738.991	52.655
741.884	43.1057
744.776	30.5239
747.669	24.8037
750.562	57.9832
753.455	24.5654
756.347	52.6743
759.24	58.4116
762.133	33.1101
765.025	45.4399
767.918	24.4439
770.811	51.0474
773.703	19.116
776.596	59.5195
779.489	17.898
782.381	15.8696
785.274	36.2293
788.167	24.438
791.059	23.4558
793.952	43.6262
796.845	29.9565
799.738	4.09863
802.63	11.2759
805.523	26.7331
808.416	44.7781
811.308	21.5083
814.201	14.251
817.094	20.8496
819.986	1.62671
822.879	29.8208
825.772	61.175
828.665	21.0925
831.557	31.5237
834.45	21.9934
837.343	14.3455
840.235	9.16797
843.128	18.9387
846.021	25.553
848.913	29.5164
851.806	40.1694
854.699	32.102
857.592	32.5405
860.484	20.9192
863.377	10.0986
866.27	25.7478
869.162	28.2134
872.055	21.3857
874.948	31.0664
877.841	61.531
880.733	34.8811
883.626	17.6516
886.519	64.9883
889.411	31.458
892.304	81.7854
895.197	59.9077
898.089	54.3589
900.982	18.3384
903.875	48.7769
906.768	23.4934
909.66	47.0244
912.553	8.96313
915.446	44.2859
918.338	6.41064
921.231	10.5059
924.124	8.19165
927.016	39.7563
929.909	66.8572
932.802	49.7371
935.694	15.7163
938.587	23.2014
941.48	20.0295
944.373	40.529
947.265	3.53906
950.158	32.6829
953.051	58.0786
955.943	62.8462
958.836	31.9377
961.729	47.1287
964.621	34.8062
967.514	60.6643
970.407	35.5681
973.3	11.7671
976.192	12.1931
979.085	32.1685
981.978	5.73071
984.87	44.6641
987.763	17.8484
990.656	43.2925
993.548	4.32983
996.441	10.9438
999.334	7.08716
1002.23	21.102
1005.12	0.880371
1008.01	39.0903
1010.9	22.6045
1013.8	16.6179
1016.69	64.7583
1019.58	66.835
1022.48	15.8767
1025.37	34.4136
1028.26	27.0598
1031.15	17.9341
1034.05	25.2864
1036.94	15.3018
1039.83	39.7227
1042.72	56.1118
1045.62	32.0278
1048.51	0.250732
1051.4	49.8398
1054.3	6.19922
1057.19	1.05371
1060.08	25.0234
1062.97	19.8113
1065.87	26.886
1068.76	15.4961
1071.65	13.8774
1074.54	203.114
1077.44	22.4402
1080.33	39.9793
1083.22	0.317627
1086.12	23.3989
1089.01	22.7602
1091.9	13.0142
1094.79	48.5969
1097.69	21.436
1100.58	49.0925
1103.47	5.99951
1106.36	24.8137
1109.26	13.5684
1112.15	17.4714
1115.04	7.69202
1117.93	33.7631
1120.83	39.5807
1123.72	1.25818
1126.61	32.2496
1129.51	14.4985
1132.4	4.10657
1135.29	30.542
1138.18	39.1242
1141.08	46.2836
1143.97	36.1018
1146.86	8.45801
1149.75	36.6277
1152.65	21.8496
1155.54	4.36328
1158.43	10.3895
1161.33	51.0875
1164.22	0.327881
1167.11	58.0746
1170	14.2024
1172.9	44.754
1175.79	21.2196
1178.68	46.6304
1181.57	44.2135
1184.47	4.32458
1187.36	25.1061
1190.25	15.6389
1193.14	31.49
1196.04	24.0867
1198.93	5.90479
1201.82	46.8243
1204.72	16.1096
1207.61	55.637
1210.5	30.0546
1213.39	9.48328
1216.29	38.373
1219.18	12.251
1222.07	2.85644
1224.96	1.81934
1227.86	41.9631
1230.75	20.4656
1233.64	13.2228
1236.54	53.8628
1239.43	48.3441
1242.32	10.103
1245.21	1.91028
1248.11	21.7789
1251	39.5908
1253.89	28.3281
1256.78	61.365
1259.68	27.8208
1262.57	0.979004
