Measurement: Raman, 785 nm, unoriented, Raman Data Processed
Mineral: Perroudite
Rruff sample: R060699
Ideal chemistry: Ag_4_Hg_5_S_5_(I,Br)_2_Cl_2_
Locality: Copiapo, Chile
Source: Bob Jenkins
Description: Reddish brown thin bladed crystals associated with white cerussite
Raman shift (cm-1)	intensity
157.205	0
160.097	312.621
162.99	1374.82
165.883	3079.05
168.775	3846.96
171.668	4424.69
174.561	5034.41
177.454	5612.6
180.346	6242.24
183.239	6335.84
186.132	5912.63
189.024	4819.46
191.917	3932.1
194.81	3332.83
197.702	2986.42
200.595	3002.63
203.488	3077.8
206.381	3048.43
209.273	3133.61
212.166	3386.68
215.059	3488.72
217.951	3572.8
220.844	3258.88
223.737	2962.27
226.629	2738.61
229.522	2446.48
232.415	2469.01
235.307	2452.78
238.2	2594.34
241.093	2711.61
243.986	2965.94
246.878	3289.74
249.771	3867.62
252.664	4585.9
255.556	5907.7
258.449	7654.59
261.342	10190.1
264.235	14135.1
267.127	20022.6
270.02	27850.3
272.913	35674
275.805	39564.3
278.698	36049
281.591	27794
284.483	20344
287.376	16063.6
290.269	14474.5
293.162	15079.4
296.054	17770.1
298.947	22628.8
301.84	29431
304.732	38461.5
307.625	49653.5
310.518	60151.7
313.41	61890.6
316.303	49409.1
319.196	33263.7
322.089	23719.6
324.981	18842
327.874	15235.7
330.767	11858
333.659	9172.85
336.552	7882.57
339.445	7421.83
342.337	7251.48
345.23	7332.61
348.123	7757.8
351.016	8020.61
353.908	7038.92
356.801	5380.91
359.694	3102.52
362.586	1945.89
365.479	1296.95
368.372	1043.87
371.264	890.812
374.157	902.197
377.05	747.785
379.943	669.969
382.835	517.168
385.728	425.893
388.621	282.982
391.513	372.949
394.406	403.635
397.299	441.855
400.191	383.051
403.084	181.148
405.977	119.842
408.87	39.809
411.762	163.652
414.655	181.463
417.548	187.74
420.44	134.027
423.333	80.355
426.226	73.934
429.118	136.217
432.011	60.82
434.904	6.033
437.797	4.107
440.689	39.316
443.582	40.922
446.475	61.564
449.367	68.773
452.26	85.098
455.153	43.994
458.045	62.191
460.938	19.578
463.831	60.756
466.724	155.887
469.616	196.096
472.509	171.119
475.402	111.605
478.294	0.438
481.187	59.529
484.08	127.232
486.972	96.244
489.865	128.965
492.758	17.9
495.651	12.537
498.543	27.561
501.436	42.422
504.329	22.559
507.221	103.893
510.114	131.242
513.007	122.045
515.899	202.078
518.792	74.844
521.685	140.047
524.578	106.793
527.47	184.096
530.363	139.775
533.256	127
536.148	214.852
539.041	150.98
541.934	217.744
544.826	237.662
547.719	175.896
550.612	266.521
553.505	242.115
556.397	262.436
559.29	364.566
562.183	270.188
565.075	294.736
567.968	244.141
570.861	157.088
573.753	201.562
576.646	285.314
579.539	325.623
582.432	316.4
585.324	347.793
588.217	274.08
591.11	318.859
594.002	346.631
596.895	310.93
599.788	392.727
602.68	368.561
605.573	365.098
608.466	339.402
611.359	447.402
614.251	492.211
617.144	484.529
620.037	486.988
622.929	548.686
625.822	477.516
628.715	439.449
631.607	529.023
634.5	482.787
637.393	504.043
640.286	441.613
643.178	564.307
646.071	400
648.964	379.801
651.856	371.947
654.749	420.395
657.642	432.438
660.534	438.318
663.427	387.311
666.32	358.643
669.213	273.83
672.105	291.975
674.998	367.422
677.891	263.479
680.783	317.637
683.676	296.326
686.569	232.188
689.461	296.891
692.354	282.754
695.247	373.316
698.14	383.43
701.032	284.344
703.925	252.77
706.818	267.668
709.71	267.543
712.603	176.66
715.496	276.887
718.388	368.361
721.281	238.139
724.174	325.453
727.067	203.07
729.959	263.686
732.852	182.465
735.745	134.061
738.637	127.332
741.53	242.635
744.423	246.783
747.315	263.844
750.208	358.748
753.101	129.463
755.994	184.117
758.886	105.078
761.779	130.299
764.672	203.266
767.564	316.227
770.457	297.617
773.35	232.441
776.242	178.654
779.135	97.533
782.028	170.002
784.92	141.734
787.813	298.381
790.706	240.09
793.599	305.561
796.491	178.438
799.384	232.174
802.277	180.324
805.169	134.49
808.062	124.457
810.955	256.059
813.847	212.938
816.74	171.066
819.633	104.221
822.526	68.248
825.418	135.76
828.311	189.283
831.204	152.918
834.096	129.135
836.989	140.828
839.882	143.049
842.774	173.904
845.667	156.512
848.56	203.852
851.453	120.416
854.345	148.377
857.238	69.184
860.131	88.469
863.023	167.576
865.916	130.08
868.809	153.518
871.701	34.582
874.594	38.502
877.487	69.623
880.38	54.891
883.272	162.449
886.165	63.77
889.058	95.791
891.95	34.188
894.843	87.434
897.736	131.201
900.628	104.539
903.521	95.082
906.414	78.662
909.307	130.037
912.199	130.236
915.092	124.383
917.985	121.879
920.877	41.807
923.77	78.457
926.663	101.584
929.555	60.547
932.448	187.252
935.341	166.162
938.234	104.59
941.126	105.211
944.019	39.143
946.912	59.438
949.804	71.982
952.697	167.787
955.59	105.785
958.482	137.484
961.375	61.053
964.268	144.057
967.161	141.682
970.053	103.357
972.946	175.658
975.839	16.74
978.731	142.33
981.624	77.73
984.517	43.514
987.409	78.555
990.302	29.377
993.195	63.391
996.088	55.803
998.98	106.26
1001.87	318.895
1004.77	123.432
1007.66	101.832
1010.55	18.883
1013.44	126.264
1016.34	98.471
1019.23	140.965
1022.12	100.766
1025.02	145.686
1027.91	28.588
1030.8	143.338
1033.69	188.983
1036.59	192.934
1039.48	74.149
1042.37	153.746
1045.26	170.638
1048.16	147.95
1051.05	150.095
1053.94	141.2
1056.83	151.346
1059.73	30.567
1062.62	70.673
1065.51	116.474
1068.4	22.694
1071.3	127.051
1074.19	95.627
1077.08	117.203
1079.98	125.936
1082.87	94.106
1085.76	49.188
1088.65	76.235
1091.55	67.309
1094.44	197.036
1097.33	104.56
1100.22	97.76
1103.12	71.973
1106.01	30.811
1108.9	142.688
1111.8	100.873
1114.69	124.921
1117.58	181.948
1120.47	100.866
1123.37	122.547
1126.26	130.709
1129.15	135.017
1132.05	75.613
1134.94	85.283
1137.83	81.311
1140.72	52.232
1143.62	61.889
1146.51	37.485
1149.4	61.762
1152.29	69.48
1155.19	16.343
1158.08	61.307
1160.97	75.142
1163.86	79.167
1166.76	64.716
1169.65	104.97
1172.54	20.593
1175.43	23.998
1178.33	5.013
1181.22	29.025
1184.11	16.78
1187.01	85.979
1189.9	138.889
1192.79	14.767
1195.68	17.794
1198.58	16.446
1201.47	43.795
1204.36	97.271
1207.26	105.857
1210.15	35.386
1213.04	44.607
1215.93	88.852
1218.83	109.114
1221.72	80.692
1224.61	116.595
1227.5	145.137
1230.4	28.931
1233.29	63.961
1236.18	68.88
1239.07	4.287
1241.97	93.414
1244.86	15.956
1247.75	63.269
1250.64	13.108
1253.54	11.468
1256.43	51.503
1259.32	3.652
1262.22	18.521
1265.11	19.157
1268	34.884
