Measurement: Raman, 780 nm, unoriented, Raman Data Processed
Mineral: Pertlikite
Rruff sample: R110209
Ideal chemistry: K_2_(Fe^2+^,Mg)_2_(Mg,Fe^3+^)_4_Fe^3+^_2_Al(SO_4_)_12_18H_2_O
Locality: Mina Alcaparrosa, Cerritos Bayos, Calama, Atacama, II Region, Chile
Source: Gunnar Farber
Description: Green transparent tetragonal prisms associated with coquimbite R110210 and krausite R110211
Raman shift (cm-1)	intensity
92.5678	0
95.9426	46.4511
99.3174	23.4297
102.692	0.684326
106.067	3.49445
109.442	1.27679
112.817	7.70709
116.192	10.0568
119.566	6.44757
122.941	5.23144
126.316	1.0769
129.691	0.920959
133.066	2.46374
136.44	2.4718
139.815	6.31836
143.19	12.2867
146.565	19.4971
149.94	22.3172
153.315	26.6339
156.689	26.5367
160.064	25.3054
163.439	29.8788
166.814	33.233
170.189	35.8384
173.563	39.9795
176.938	48.3614
180.313	54.8387
183.688	62.9304
187.063	67.2012
190.437	66.0945
193.812	64.7144
197.187	59.5416
200.562	49.2981
203.937	37.6906
207.311	32.2413
210.686	18.291
214.061	11.7576
217.436	6.80939
220.811	1.54309
224.186	0.749939
227.56	3.3443
230.935	1.90283
234.31	2.414
237.685	15.1824
241.06	29.7049
244.435	51.8323
247.809	77.1072
251.184	110.87
254.559	147.858
257.934	184.937
261.309	218.392
264.683	237.313
268.058	242.333
271.433	214.123
274.808	175.948
278.183	135.75
281.558	101.846
284.932	73.0308
288.307	49.4934
291.682	37.2162
295.057	24.6939
298.432	18.6049
301.806	12.5962
305.181	9.02753
308.556	5.70636
311.931	3.40942
315.306	1.26849
318.68	1.67456
322.055	0.887207
325.43	2.22235
328.805	1.34546
332.18	2.09576
335.555	4.9176
338.929	8.66077
342.304	7.13202
345.679	4.79981
349.054	4.77692
352.429	0.187012
355.803	1.81195
359.178	1.18042
362.553	2.34583
365.928	0.500183
369.303	2.71905
372.678	7.03388
376.052	9.89795
379.427	10.8961
382.802	17.2573
386.177	23.7911
389.552	29.1672
392.926	31.8845
396.301	33.8384
399.676	33.7543
403.051	28.7531
406.426	23.1677
409.8	16.2266
413.175	14.3734
416.55	17.295
419.925	23.2328
423.3	31.8136
426.675	46.9777
430.049	60.9675
433.424	65.681
436.799	63.2429
440.174	68.4061
443.549	69.9844
446.923	72.4484
450.298	75.4468
453.673	83.57
457.048	94.4904
460.423	108.89
463.798	117.933
467.172	119.08
470.547	108.81
473.922	92.8284
477.297	70.7692
480.672	47.164
484.046	34.028
487.421	21.6127
490.796	13.8511
494.171	8.15903
497.546	6.42404
500.921	1.75787
504.295	1.35263
507.67	0.064667
511.045	1.79205
514.42	1.45847
517.795	1.55337
521.169	0.197388
524.544	0.22934
527.919	1.57153
531.294	1.3913
534.669	0.542877
538.044	1.52212
541.418	2.67789
544.793	0.849426
548.168	1.63193
551.543	0.566589
554.918	1.78357
558.293	4.0246
561.667	4.87808
565.042	6.92831
568.417	7.04813
571.792	10.0469
575.167	14.8459
578.541	18.9432
581.916	24.8628
585.291	30.6052
588.666	35.4132
592.041	35.8126
595.415	33.7599
598.79	29.3912
602.165	24.2893
605.54	19.7407
608.915	15.9831
612.29	19.6427
615.664	20.3986
619.039	23.431
622.414	26.3873
625.789	28.6147
629.164	28.9301
632.538	26.3045
635.913	23.6905
639.288	23.002
642.663	21.5785
646.038	20.957
649.413	21.4567
652.787	17.6858
656.162	18.5289
659.537	19.0555
662.912	13.1241
666.287	12.6233
669.661	8.92664
673.036	8.49435
676.411	3.87262
679.786	3.29742
683.161	1.66556
686.535	0.276428
689.91	0.975128
693.285	0.040588
696.66	1.43607
700.035	0.448822
703.41	0.479889
706.784	1.68436
710.159	0.399963
713.534	0.258789
716.909	0.454529
720.284	1.27179
723.659	1.87732
727.033	1.26471
730.408	0.899567
733.783	0.835327
737.158	3.46713
740.533	2.91403
743.907	1.93616
747.282	0.744476
750.657	1.17311
754.032	1.27399
757.407	1.25269
760.782	1.21254
764.156	1.05116
767.531	0.796127
770.906	0.395401
774.281	0.215607
777.656	1.94878
781.03	2.14511
784.405	0.001907
787.78	1.37476
791.155	2.44492
794.53	2.27916
797.904	2.13577
801.279	2.27982
804.654	3.29536
808.029	2.80721
811.404	5.28363
814.779	5.1759
818.153	4.26071
821.528	3.7612
824.903	3.51155
828.278	4.75204
831.653	4.90718
835.028	4.71913
838.402	4.78642
841.777	7.27332
845.152	5.24271
848.527	6.88774
851.902	7.88936
855.276	6.72252
858.651	8.38953
862.026	8.20949
865.401	7.1973
868.776	5.88887
872.15	5.89377
875.525	7.06039
878.9	5.36293
882.275	4.63499
885.65	5.57152
889.024	5.93759
892.399	4.94267
895.774	3.57812
899.149	3.36485
902.524	2.5681
905.899	3.76123
909.273	1.49086
912.648	2.30954
916.023	0.037247
919.398	0.928055
922.773	0.830475
926.148	0.444931
929.522	0.199982
932.897	0.938324
936.272	0.655258
939.647	2.50287
943.022	3.12215
946.396	1.45976
949.771	1.32515
953.146	0.08075
956.521	2.41361
959.896	4.39786
963.27	8.75285
966.645	19.1011
970.02	27.5705
973.395	39.1202
976.77	53.8041
980.145	72.7338
983.519	91.8006
986.894	113.164
990.269	127.377
993.644	131.242
997.019	139.91
1000.39	161.988
1003.77	184.538
1007.14	203.315
1010.52	207.043
1013.89	206.567
1017.27	215.459
1020.64	239.997
1024.02	287.108
1027.39	354.481
1030.77	416.001
1034.14	416.74
1037.52	357.159
1040.89	289.768
1044.27	240.498
1047.64	211.487
1051.02	193.547
1054.39	172.26
1057.77	142.188
1061.14	108.094
1064.52	77.6297
1067.89	53.9352
1071.27	33.6108
1074.64	22.4413
1078.01	12.6936
1081.39	6.82179
1084.76	3.92177
1088.14	0.050812
1091.51	1.39209
1094.89	3.41286
1098.26	3.9257
1101.64	2.99187
1105.01	2.3028
1108.39	0.664185
1111.76	3.36238
1115.14	2.5452
1118.51	2.61784
1121.89	6.53735
1125.26	5.07639
1128.64	6.38119
1132.01	5.31883
1135.39	7.13702
1138.76	8.40707
1142.14	8.82301
1145.51	10.3533
1148.88	11.2747
1152.26	10.5285
1155.63	9.82132
1159.01	9.01036
1162.38	7.46596
1165.76	9.84981
1169.13	8.35191
1172.51	8.18935
1175.88	9.28862
1179.26	10.1865
1182.63	11.6682
1186.01	13.3133
1189.38	18.2676
1192.76	23.5272
1196.13	28.4808
1199.51	33.5113
1202.88	39.7242
1206.26	44.9325
1209.63	49.5946
1213.01	48.8138
1216.38	45.1576
1219.76	37.3869
1223.13	29.3143
1226.51	23.9481
1229.88	15.8123
1233.26	10.5488
1236.63	7.82587
1240.01	4.36118
1243.38	3.66933
1246.76	2.68526
1250.13	0.221329
1253.51	0.078537
1256.88	0.296738
1260.25	0.434738
1263.63	0.266541
1267	0.177597
1270.38	1.29486
1273.75	3.10416
1277.13	2.28358
1280.5	0.20079
1283.88	0.544403
