Measurement: Raman, 532 nm, unoriented, Raman Data Processed
Mineral: Pertlikite
Rruff sample: R110209
Ideal chemistry: K_2_(Fe^2+^,Mg)_2_(Mg,Fe^3+^)_4_Fe^3+^_2_Al(SO_4_)_12_18H_2_O
Locality: Mina Alcaparrosa, Cerritos Bayos, Calama, Atacama, II Region, Chile
Source: Gunnar Farber
Description: Green transparent tetragonal prisms associated with coquimbite R110210 and krausite R110211
Raman shift (cm-1)	intensity
184.505	0
187.398	3.13025
190.29	10.0038
193.183	22.7615
196.076	38.8413
198.968	52.8149
201.861	64.7067
204.754	72.7737
207.647	70.5236
210.539	60.1388
213.432	54.0376
216.325	50.3226
219.217	42.5243
222.11	48.9421
225.003	47.9032
227.895	46.3224
230.788	54.5839
233.681	54.7839
236.573	66.2109
239.466	81.283
242.359	98.9629
245.252	127.842
248.144	163.116
251.037	209.495
253.93	262.474
256.822	326.008
259.715	388.928
262.608	433.92
265.5	459.96
268.393	465.757
271.286	438.772
274.179	388.826
277.071	321.168
279.964	253.701
282.857	188.494
285.75	141.452
288.642	98.4369
291.535	75.02
294.428	55.3141
297.32	45.0004
300.213	32.6481
303.106	25.7561
305.998	23.7094
308.891	17.0823
311.784	9.55286
314.676	6.24866
317.569	6.25623
320.462	3.57752
323.355	5.32178
326.247	6.48328
329.14	4.48169
332.033	2.15381
334.925	4.13257
337.818	12.5923
340.711	8.40796
343.603	10.779
346.496	3.26782
349.389	0.435303
352.281	4.22815
355.174	0.276245
358.067	0.563477
360.96	2.10229
363.852	0.987183
366.745	2.20569
369.638	5.20068
372.53	12.3765
375.423	16.0715
378.316	25.2669
381.209	33.223
384.101	45.3535
386.994	55.8982
389.887	63.0156
392.779	69.8939
395.672	70.7548
398.565	73.596
401.457	66.5226
404.35	64.0588
407.243	55.4674
410.135	41.2512
413.028	35.7419
415.921	29.4858
418.814	25.7873
421.706	33.5691
424.599	45.1099
427.492	68.0636
430.384	81.9446
433.277	91.4512
436.17	92.3783
439.062	93.4775
441.955	99.546
444.848	107.121
447.741	115.747
450.633	120.754
453.526	128.564
456.419	139.196
459.311	160.602
462.204	177.379
465.097	179.552
467.99	183.613
470.882	166.434
473.775	148.63
476.668	124.104
479.56	90.4919
482.453	67.1827
485.346	51.3424
488.238	31.563
491.131	24.1248
494.024	14.3143
496.916	9.75488
499.809	6.78113
502.702	4.90002
505.595	1.92139
508.487	1.73584
511.38	1.17358
514.273	6.12
517.165	4.8678
520.058	3.35864
522.951	1.51147
525.844	1.6134
528.736	6.44568
531.629	6.15881
534.522	5.31091
537.414	5.33447
540.307	8.54688
543.2	6.89075
546.092	7.00867
548.985	9.35364
551.878	9.00415
554.771	6.8905
557.663	2.0647
560.556	0.356567
563.449	0.411377
566.341	6.36389
569.234	5.10986
572.127	1.68396
575.019	13.1554
577.912	15.0012
580.805	29.9708
583.697	29.2269
586.59	38.5505
589.483	49.5354
592.376	48.7994
595.268	46.1432
598.161	36.7721
601.054	26.8392
603.946	23.9544
606.839	16.884
609.732	19.1368
612.625	19.5402
615.517	26.1019
618.41	34.2741
621.303	37.3044
624.195	42.6617
627.088	43.2551
629.981	42.7029
632.873	42.118
635.766	36.6985
638.659	37.2551
641.552	30.1426
644.444	23.877
647.337	25.2845
650.23	20.8408
653.122	26.452
656.015	28.1924
658.908	26.1704
661.8	28.9586
664.693	22.213
667.586	16.6411
670.479	16.2408
673.371	9.57141
676.264	9.4209
679.157	8.80933
682.049	11.7621
684.942	9.36755
687.835	5.10034
690.727	5.88379
693.62	5.91687
696.513	1.02905
699.405	1.0697
702.298	0.525757
705.191	0.71582
708.084	2.52234
710.976	5.08167
713.869	3.46167
716.762	2.12915
719.654	4.11206
722.547	0.677368
725.44	4.95935
728.332	9.13867
731.225	10.5
734.118	10.8989
737.011	5.68457
739.903	7.55957
742.796	2.74744
745.689	3.43176
748.581	0.368774
751.474	6.47351
754.367	13.0895
757.26	15.803
760.152	9.63928
763.045	8.83691
765.938	5.84021
768.83	13.3088
771.723	5.78455
774.616	7.89551
777.508	5.36633
780.401	6.29358
783.294	8.43567
786.187	5.67993
789.079	0.498657
791.972	4.672
794.865	7.64087
797.757	8.01184
800.65	1.99231
803.543	1.11511
806.435	4.79675
809.328	11.0784
812.221	0.195435
815.114	8.96838
818.006	7.57019
820.899	16.9647
823.792	10.0144
826.684	6.73498
829.577	7.8042
832.47	10.5702
835.362	10.7328
838.255	5.23267
841.148	7.56702
844.04	7.96729
846.933	9.42114
849.826	4.16162
852.719	5.13
855.611	11.4293
858.504	13.9348
861.397	16.554
864.289	9.43262
867.182	6.25488
870.075	5.95459
872.967	9.42847
875.86	15.7521
878.753	9.44446
881.646	14.5072
884.538	13.1132
887.431	19.4338
890.324	16.0134
893.216	14.2175
896.109	9.96155
899.002	4.69836
901.894	6.1272
904.787	10.1477
907.68	9.28332
910.573	11.0486
913.465	10.0778
916.358	7.42444
919.251	7.40002
922.143	4.57397
925.036	2.16943
927.929	0.689453
930.822	1.05859
933.714	5.54394
936.607	8.5835
939.5	2.22534
942.392	1.16541
945.285	2.89941
948.178	4.19189
951.07	2.33606
953.963	5.44556
956.856	3.70642
959.749	4.35107
962.641	16.6437
965.534	36.5096
968.427	50.5797
971.319	72.0149
974.212	92.6381
977.105	125.64
979.997	176.236
982.89	211.151
985.783	251.423
988.676	292.163
991.568	314.421
994.461	320.089
997.354	324.758
1000.25	345.737
1003.14	384.247
1006.03	428.328
1008.92	446.004
1011.82	440.944
1014.71	412.629
1017.6	394.189
1020.5	410.362
1023.39	453.625
1026.28	521.533
1029.17	630.816
1032.07	711.616
1034.96	750.065
1037.85	717.349
1040.74	660.767
1043.64	603.916
1046.53	560.258
1049.42	531.104
1052.32	507.482
1055.21	463.987
1058.1	399.622
1060.99	321.819
1063.89	247.055
1066.78	181.664
1069.67	129.3
1072.56	83.7729
1075.46	54.4138
1078.35	32.4141
1081.24	23.5889
1084.13	11.9619
1087.03	4.48462
1089.92	1.53174
1092.81	5.25537
1095.7	2.67603
1098.6	2.78149
1101.49	0.180664
1104.38	5.73144
1107.28	5.24902
1110.17	1.26367
1113.06	11.0144
1115.95	9.99463
1118.85	9.5376
1121.74	9.74805
1124.63	5.64404
1127.53	11.3489
1130.42	2.0791
1133.31	4.21045
1136.2	14.8159
1139.1	18.0046
1141.99	18.957
1144.88	20.5222
1147.77	24.8562
1150.67	27.6826
1153.56	31.4519
1156.45	27.0549
1159.35	23.7256
1162.24	24.395
1165.13	25.1753
1168.02	19.7168
1170.92	16.7976
1173.81	22.05
1176.7	29.156
1179.59	30.0139
1182.49	36.9614
1185.38	47.8088
1188.27	56.9893
1191.16	63.9815
1194.06	81.175
1196.95	100.057
1199.84	117.846
1202.73	137.685
1205.63	156.91
1208.52	176.09
1211.41	184.784
1214.31	183.46
1217.2	162.294
1220.09	139.65
1222.98	113.906
1225.88	97.6619
1228.77	73.2993
1231.66	53.4937
1234.56	34.8716
1237.45	18.8533
1240.34	16.4844
1243.23	21.0388
1246.13	13.637
1249.02	5.74829
1251.91	6.13208
1254.8	2.05762
1257.7	2.55444
1260.59	0.619629
1263.48	3.28418
1266.38	0.219238
1269.27	1.55884
1272.16	1.01538
1275.05	5.58276
1277.95	3.06152
1280.84	1.96851
1283.73	5.74121
1286.62	2.15185
1289.52	5.88843
1292.41	5.95435
1295.3	5.83618
1298.19	4.86572
1301.09	8.55273
