Measurement: Raman, 780 nm, unoriented, Raman Data Processed
Mineral: Petalite
Rruff sample: R060365
Ideal chemistry: LiAlSi_4_O_10_
Locality: Paprok, near Kamdesh, Nuristan, Kunar Province, Afghanistan
Source: Herb Obodda
Description: Colorless fragment
Measured chemistry: Li_1.00_Al_1.00_Si_4.00_O_10_
Raman shift (cm-1)	intensity
169.154	0.200485
172.047	1.66908
174.939	9.23518
177.832	17.7659
180.725	25.7304
183.618	40.0468
186.51	42.5816
189.403	27.1489
192.296	11.0268
195.188	2.69889
198.081	1.29958
200.974	4.70501
203.866	7.22553
206.759	2.13191
209.652	14.1719
212.544	22.8066
215.437	21.1372
218.33	22.3832
221.223	22.2157
224.115	20.6067
227.008	19.0381
229.901	16.8827
232.793	16.3794
235.686	14.9634
238.579	16.9254
241.471	17.2194
244.364	17.844
247.257	21.7717
250.15	22.4759
253.042	30.7855
255.935	31.0323
258.828	26.1326
261.72	26.8677
264.613	35.0103
267.506	54.5444
270.399	86.2584
273.291	144.915
276.184	248.962
279.077	403.732
281.969	550.037
284.862	513.939
287.755	339.353
290.647	232.367
293.54	205.509
296.433	136.136
299.325	83.4728
302.218	63.7298
305.111	62.6421
308.004	80.8412
310.896	121.786
313.789	198.773
316.682	306.318
319.574	356.649
322.467	266.616
325.36	149.216
328.252	76.1461
331.145	37.3941
334.038	16.0835
336.931	1.82726
339.823	4.34227
342.716	4.80812
345.609	2.59187
348.501	11.2394
351.394	40.5651
354.287	99.9951
357.18	173.311
360.072	184.133
362.965	125.417
365.858	76.5647
368.75	52.9157
371.643	47.9614
374.536	56.1191
377.428	84.7418
380.321	141.475
383.214	188.502
386.106	148.588
388.999	81.0919
391.892	42.2842
394.785	24.7933
397.677	14.7399
400.57	8.98103
403.463	5.08014
406.355	2.71082
409.248	1.26107
412.141	0.888668
415.034	0.639053
417.926	1.8711
420.819	0.353519
423.712	0.910587
426.604	0.242386
429.497	0.122875
432.39	0.017395
435.282	0.831356
438.175	0.889374
441.068	1.69076
443.961	3.4747
446.853	4.14209
449.746	6.16964
452.639	7.66877
455.531	10.4571
458.424	15.994
461.317	27.3483
464.209	53.2652
467.102	91.8591
469.995	76.2498
472.887	52.4569
475.78	64.6437
478.673	95.24
481.566	160.014
484.458	285.868
487.351	542.154
490.244	892.356
493.136	871.841
496.029	487.135
498.922	250.628
501.815	144.903
504.707	94.6822
507.6	65.8883
510.493	48.6661
513.385	35.6492
516.278	28.0114
519.171	23.2698
522.063	17.0552
524.956	14.8484
527.849	12.143
530.741	10.1045
533.634	7.48303
536.527	7.16196
539.42	5.58168
542.312	3.60668
545.205	2.72653
548.098	3.97981
550.99	3.60378
553.883	0.416296
556.776	1.18339
559.668	0.67112
562.561	1.06444
565.454	0.294806
568.347	0.165611
571.239	0.072731
574.132	0.841265
577.025	0.519758
579.917	0.822052
582.81	0.055546
585.703	0.138535
588.596	0.89782
591.488	0.119637
594.381	0.148752
597.274	0.564661
600.166	0.359436
603.059	1.77989
605.952	0.150448
608.845	1.91991
611.737	0.531378
614.63	1.37404
617.523	2.2062
620.415	1.03699
623.308	0.772627
626.201	1.24962
629.093	1.99007
631.986	1.70123
634.879	2.11203
637.771	1.89199
640.664	1.64479
643.557	2.04443
646.45	1.65793
649.342	0.848398
652.235	0.300465
655.128	1.13086
658.02	1.40595
660.913	1.9744
663.806	0.0056
666.698	0.69487
669.591	1.60371
672.484	1.76294
675.377	1.02485
678.269	0.968233
681.162	1.36322
684.055	0.920027
686.947	0.558712
689.84	0.70158
692.733	1.54731
695.625	0.682961
698.518	0.07869
701.411	1.09697
704.304	0.097473
707.196	0.087641
710.089	0.041496
712.982	0.375397
715.874	0.064245
718.767	0.571138
721.66	0.495264
724.553	0.799398
727.445	0.984797
730.338	0.635139
733.231	0.070316
736.123	0.9979
739.016	3.17814
741.909	3.19591
744.801	6.99367
747.694	6.95981
750.587	9.24384
753.48	8.4098
756.372	6.71478
759.265	6.91113
762.158	5.01875
765.05	6.04697
767.943	7.01232
770.836	7.37187
773.728	10.6997
776.621	10.8914
779.514	7.7433
782.407	7.15307
785.299	7.4549
788.192	13.0543
791.085	22.4961
793.977	29.1309
796.87	18.3962
799.763	9.43098
802.655	4.3182
805.548	2.70442
808.441	2.71974
811.333	1.78252
814.226	1.1355
817.119	1.82246
820.012	1.30544
822.904	1.9706
825.797	2.25168
828.69	1.74221
831.582	1.78601
834.475	0.805344
837.368	0.961498
840.26	1.20091
843.153	0.231354
846.046	0.780256
848.939	0.729636
851.831	1.30562
854.724	0.524551
857.617	1.62808
860.509	1.38976
863.402	1.5203
866.295	0.042337
869.188	0.855959
872.08	0.355023
874.973	1.57331
877.866	0.353098
880.758	1.25218
883.651	0.53591
886.544	0.858055
889.436	1.41895
892.329	1.5593
895.222	1.57161
898.115	1.63434
901.007	2.54382
903.9	1.19811
906.793	1.44794
909.685	1.1138
912.578	1.30554
915.471	1.53441
918.363	1.37719
921.256	1.36398
924.149	0.818218
927.042	2.34003
929.934	1.7774
932.827	0.72424
935.72	0.579801
938.612	1.12539
941.505	1.42537
944.398	0.305764
947.29	1.80416
950.183	1.575
953.076	0.63693
955.968	1.19703
958.861	0.51366
961.754	0.540671
964.647	0.371706
967.539	0.752683
970.432	1.51306
973.325	0.768476
976.217	0.704463
979.11	0.603905
982.003	0.607077
984.895	1.02431
987.788	0.554641
990.681	1.13807
993.574	0.435539
996.466	0.08812
999.359	1.07466
1002.25	0.958896
1005.14	0.060899
1008.04	0.310912
1010.93	0.392716
1013.82	0.53504
1016.72	0.51468
1019.61	0.066438
1022.5	0.269511
1025.39	0.342995
1028.29	0.621485
1031.18	1.19368
1034.07	1.30855
1036.96	4.15344
1039.86	3.56972
1042.75	7.40876
1045.64	12.009
1048.54	22.3652
1051.43	30.2994
1054.32	35.8488
1057.21	44.2769
1060.11	65.0636
1063	71.7617
1065.89	37.1253
1068.78	17.6149
1071.68	9.00378
1074.57	3.559
1077.46	2.50069
1080.36	1.64783
1083.25	1.88923
1086.14	1.68579
1089.03	1.2762
1091.92	1.05376
1094.82	0.946743
1097.71	0.618307
1100.6	2.6581
1103.5	4.02234
1106.39	4.63895
1109.28	6.13081
1112.17	8.84533
1115.07	14.0283
1117.96	21.0986
1120.85	30.716
1123.74	50.3811
1126.64	76.493
1129.53	114.19
1132.42	140.877
1135.32	120.764
1138.21	78.2432
1141.1	48.9909
1143.99	29.1148
1146.89	19.3966
1149.78	14.2867
1152.67	10.9715
1155.57	8.95401
1158.46	6.06446
1161.35	3.80198
1164.24	3.76685
1167.14	2.73702
1170.03	1.24933
1172.92	0.069361
1175.81	1.04081
1178.71	0.466738
1181.6	0.13236
1184.49	0.446178
1187.38	1.07426
1190.28	1.13521
1193.17	1.65698
1196.06	0.71771
1198.95	0.984385
1201.85	0.405804
1204.74	0.605371
1207.63	0.71751
1210.53	1.4997
1213.42	0.30244
1216.31	0.964087
1219.2	0.547047
1222.1	2.01615
1224.99	1.47327
1227.88	0.259293
1230.78	1.53386
1233.67	0.664692
1236.56	0.754335
1239.45	1.38322
1242.35	1.47112
1245.24	0.347836
1248.13	1.34662
1251.02	0.464004
1253.92	1.79082
1256.81	1.70175
1259.7	0.449788
1262.6	0.353352
1265.49	1.70773
1268.38	0.356929
1271.27	1.87532
1274.17	1.23823
1277.06	0.42315
1279.95	1.26028
1282.84	0.33512
1285.74	0
