Measurement: Raman, 514 nm, unoriented, Raman Data Processed
Mineral: Petalite
Rruff sample: R040100
Ideal chemistry: LiAlSi_4_O_10_
Locality: Brazil
Source: Bob Downs
Description: Pale purple cut gemstone
Measured chemistry: Li_1.00_Al_1.00_Si_4.00_O_10_
Raman shift (cm-1)	intensity
114.254	0
118.424	51.615
122.592	1336.64
126.758	5091.75
130.922	11822.8
135.083	23584.6
139.243	35973.3
143.401	40232.3
147.557	33447.1
151.711	24447.1
155.863	17332.3
160.013	12041.7
164.161	8592.86
168.308	6430.03
172.452	4905.53
176.594	4132.24
180.734	3518.01
184.872	2806.91
189.008	2144.42
193.143	1758.83
197.275	1448.32
201.405	1285.49
205.534	1088.82
209.66	752.704
213.784	432.68
217.907	242.373
222.027	131.779
226.146	75.355
230.263	25.239
234.377	43.617
238.49	13.319
242.601	64.734
246.709	92.447
250.816	212.487
254.921	503.542
259.024	819.479
263.125	1554.93
267.224	3385.57
271.321	6888.83
275.416	15625.6
279.51	28487.4
283.601	27463.6
287.69	15476.5
291.778	11226.7
295.863	6556.64
299.947	3748.7
304.029	2660.22
308.108	2869.18
312.186	5166.53
316.262	6883.01
320.336	6440.26
324.408	3635.87
328.478	1949.84
332.546	1229.74
336.612	887.749
340.677	879.513
344.739	1580.46
348.799	2603.09
352.858	6544.54
356.915	10894.1
360.969	8665.67
365.022	5353.23
369.073	4237.85
373.122	5637.62
377.169	10745.1
381.215	17064
385.258	13225.1
389.299	6505.99
393.339	3492.49
397.376	1987.55
401.412	1386.54
405.446	1055.88
409.478	608.768
413.508	518.818
417.536	293.029
421.562	238.843
425.586	209.417
429.609	195.806
433.629	42.862
437.648	152.727
441.665	4.161
445.68	79.381
449.693	204.674
453.704	116.883
457.713	184.4
461.721	1027.42
465.726	2878.27
469.73	2025.82
473.731	1338.73
477.731	2233.98
481.729	5005.14
485.725	13723.9
489.72	26848.4
493.712	19351.9
497.703	8217.11
501.691	4238.54
505.678	2542.02
509.663	1688.56
513.646	1360.76
517.627	962.898
521.607	709.143
525.584	517.334
529.56	597.718
533.534	452.407
537.506	337.126
541.476	178.104
545.444	196.298
549.41	109.37
553.375	114.717
557.337	23.832
561.298	99.093
565.257	60.268
569.214	2.66
573.17	57.488
577.123	54.956
581.075	43.045
585.024	4.99
588.972	117.254
592.918	103.944
596.863	310.823
600.805	351.906
604.746	136.15
608.685	100.201
612.621	136.406
616.557	60.77
620.49	36.389
624.421	167.179
628.351	109.458
632.279	100.564
636.205	286.43
640.129	149.161
644.051	294.764
647.972	118.238
651.89	124.588
655.807	78.825
659.722	125.979
663.636	16.975
667.547	74.105
671.457	171.497
675.365	160.997
679.271	223.548
683.175	78.094
687.077	6.555
690.978	131.62
694.877	212.338
698.774	105.315
702.669	22.842
706.562	26.355
710.454	30.843
714.344	143.504
718.232	77.732
722.118	1.57
726.002	24.598
729.885	40.775
733.766	63.133
737.645	50.677
741.522	257.94
745.397	254.932
749.271	96.512
753.143	263.109
757.013	113.815
760.881	203.348
764.748	322.19
768.613	394.304
772.476	654.094
776.337	557.368
780.196	982.785
784.054	1545.02
787.91	3566.77
791.764	8212.03
795.616	7064.23
799.467	2723.4
803.316	1268.96
807.163	506.779
811.008	509.766
814.851	415.147
818.693	353.192
822.533	234.478
826.371	250.142
830.208	101.389
834.042	104.285
837.875	279.748
841.706	151.344
845.536	223.08
849.363	165.963
853.189	395.076
857.013	327.896
860.836	128.041
864.656	70.209
868.475	225.939
872.292	94.621
876.108	94.773
879.922	183.545
883.733	153.371
887.544	147.957
891.352	153.658
895.159	258.936
898.964	61.76
902.767	157.648
906.568	107.619
910.368	343.492
914.166	319.488
917.962	171.398
921.757	169.291
925.55	337.207
929.341	239.213
933.13	399.623
936.918	293.52
940.703	247.404
944.488	203.201
948.27	232.875
952.051	206.207
955.83	7.428
959.607	202.775
963.383	29.834
967.156	34.461
970.928	8.756
974.699	137.738
978.468	213.697
982.234	1.275
986	214.232
989.763	14.965
993.525	804.33
997.285	320.752
1001.04	137.693
1004.8	226.623
1008.55	313.125
1012.31	292.062
1016.06	5.809
1019.81	282.297
1023.56	180.631
1027.31	76.262
1031.05	477.02
1034.79	251.439
1038.53	254.729
1042.27	515.621
1046.01	381.469
1049.75	311.979
1053.48	602.105
1057.22	502.117
1060.95	861.428
1064.68	774.975
1068.4	448.943
1072.13	305.129
1075.86	441.48
1079.58	218.969
1083.3	464.676
1087.02	529.695
1090.74	280.344
1094.45	245.791
1098.17	87.025
1101.88	255.385
1105.59	71.414
1109.3	313.021
1113.01	181.006
1116.71	132.123
1120.42	109.537
1124.12	625.318
1127.82	397.166
1131.52	722.275
1135.22	587.652
1138.91	336.189
1142.61	234.732
1146.3	47.842
1149.99	105.191
1153.68	15.006
1157.37	1939.93
1161.06	41.488
1164.74	274.975
1168.42	269.783
1172.1	214.426
1175.78	13.889
1179.46	2.674
1183.14	162.979
1186.81	219.564
1190.48	93.309
1194.15	142.721
1197.83	98.906
1201.49	392.127
1205.16	71.916
1208.82	397.631
1212.49	256.602
1216.15	159.752
1219.81	229.734
1223.46	226.209
1227.12	229.965
1230.78	203.844
1234.43	58.754
1238.08	262.291
1241.73	131.271
1245.38	107.215
1249.03	198.234
1252.67	166.295
1256.31	283.336
1259.95	321.238
1263.6	49.008
1267.23	47.229
1270.87	214.551
1274.51	83.609
1278.14	87.139
1281.77	187.967
1285.4	93.203
1289.03	111.475
1292.66	155.355
1296.28	96.162
1299.91	8.533
1303.53	157.348
1307.15	36.471
1310.77	66.658
1314.38	38.465
1318	2.186
1321.61	221.928
1325.23	198.992
1328.84	24.441
1332.45	8.477
1336.06	34.689
1339.66	140.164
1343.27	222.836
1346.87	63.588
1350.47	180.721
1354.07	261.889
1357.67	87.551
1361.26	270.607
1364.86	305.932
1368.45	429.232
1372.04	290.25
1375.63	464.24
1379.22	260.52
1382.81	247.787
1386.39	430.195
1389.98	470.568
1393.56	395.133
1397.14	375.047
1400.72	547.58
1404.3	289.844
1407.87	650.758
1411.45	439.682
1415.02	312.695
1418.59	428.641
1422.16	502.945
1425.73	500.127
1429.29	476.982
1432.86	377.367
1436.42	494.736
1439.98	590.508
1443.54	647.42
1447.1	694.102
1450.66	630.307
1454.21	743.49
1457.77	1125.9
1461.32	601.576
1464.87	290.486
1468.42	531.658
1471.96	308.115
1475.51	308.254
1479.06	422.291
1482.6	881.297
1486.14	381.973
1489.68	255.174
1493.22	378.18
1496.75	456.244
1500.29	402.27
1503.82	58.885
1507.35	463.465
1510.88	344.234
1514.41	311.928
1517.94	732.051
1521.46	0
