Measurement: Raman, 785 nm, unoriented, Raman Data Processed
Mineral: Petalite
Rruff sample: R040100
Ideal chemistry: LiAlSi_4_O_10_
Locality: Brazil
Source: Bob Downs
Description: Pale purple cut gemstone
Measured chemistry: Li_1.00_Al_1.00_Si_4.00_O_10_
Raman shift (cm-1)	intensity
120.665	0
123.558	7.62299
126.451	5.6382
129.343	108.171
132.236	362.924
135.129	603.585
138.021	896.344
140.914	1230.97
143.807	1720.35
146.699	2337.48
149.592	2507.53
152.485	2324.41
155.377	1845.95
158.27	1382.94
161.163	1062.77
164.056	872.725
166.948	791.858
169.841	695.506
172.734	652.63
175.626	667.187
178.519	724.352
181.412	864.444
184.305	966.753
187.197	867.764
190.09	561.008
192.983	390.651
195.875	232.493
198.768	209.796
201.661	148.037
204.554	130.256
207.446	136.934
210.339	198.085
213.232	177.107
216.124	107.088
219.017	83.3666
221.91	53.9175
224.802	31.4533
227.695	12.0549
230.588	0.267761
233.48	2.49805
236.373	29.9646
239.266	21.9131
242.159	16.8321
245.051	20.573
247.944	9.03519
250.837	18.8593
253.729	32.4766
256.622	47.4441
259.515	72.2738
262.407	98.078
265.3	194.339
268.193	324.036
271.086	597.567
273.978	1078.21
276.871	1771.99
279.764	2590.44
282.656	2951.33
285.549	2259.72
288.442	1484.24
291.334	1282.91
294.227	986.79
297.12	564.312
300.012	382.471
302.905	327.127
305.798	395.705
308.691	570.018
311.583	940.24
314.476	1493.86
317.369	1960.73
320.261	1804.17
323.154	1153.23
326.047	626.027
328.94	343.404
331.832	176.617
334.725	79.8316
337.618	24.4647
340.51	4.54983
343.403	9.24667
346.296	56.6888
349.188	179.205
352.081	436.212
354.974	764.52
357.866	982.532
360.759	782.808
363.652	484.465
366.545	325.28
369.437	266.107
372.33	282.053
375.223	416.475
378.115	665.122
381.008	920.489
383.901	932.751
386.793	587.933
389.686	301.897
392.579	164.066
395.472	103.769
398.364	61.7078
401.257	23.0115
404.15	37.8888
407.042	10.6915
409.935	8.15613
412.828	9.00586
415.721	2.6344
418.613	15.4155
421.506	11.6414
424.399	1.52029
427.291	0.948517
430.184	5.7485
433.077	4.54239
435.969	9.21497
438.862	3.82214
441.755	1.93567
444.647	21.053
447.54	29.1739
450.433	38.3032
453.326	50.9389
456.218	82.1973
459.111	167.815
462.004	284.789
464.896	477.932
467.789	599.273
470.682	356.982
473.575	327.967
476.467	447.174
479.36	750.072
482.253	1363.39
485.145	2503.07
488.038	4287.1
490.931	5550.91
493.823	3735.86
496.716	1908.3
499.609	1045.13
502.502	654.283
505.394	437.638
508.287	315.058
511.18	246.414
514.072	199.519
516.965	156.944
519.858	110.293
522.75	93.4849
525.643	83.2555
528.536	52.0025
531.428	36.1398
534.321	28.9217
537.214	28.5166
540.107	19.7311
542.999	12.0969
545.892	14.083
548.785	7.3125
551.677	3.03516
554.57	9.62935
557.463	2.06274
560.356	6.35681
563.248	6.97334
566.141	8.52177
569.034	10.7121
571.926	11.3078
574.819	7.67946
577.712	0.290009
580.604	0.660995
583.497	2.70456
586.39	5.04541
589.283	4.54103
592.175	7.92664
595.068	5.69786
597.961	8.92514
600.853	4.13048
603.746	10.98
606.639	8.65149
609.531	19.9398
612.424	5.33467
615.317	8.14549
618.21	9.38847
621.102	9.8994
623.995	4.39891
626.888	0.993286
629.78	22.8549
632.673	15.9144
635.566	13.3756
638.458	21.4881
641.351	13.5791
644.244	23.1641
647.136	8.16083
650.029	10.7005
652.922	14.4846
655.815	1.935
658.707	18.8694
661.6	14.3001
664.493	6.78299
667.385	13.1867
670.278	19.4261
673.171	6.45879
676.063	0.466888
678.956	9.5861
681.849	15.1723
684.742	7.35432
687.634	8.74881
690.527	8.9991
693.42	4.11867
696.312	0.5009
699.205	14.5001
702.098	6.85123
704.99	6.94463
707.883	10.4038
710.776	0.472809
713.669	10.3595
716.561	15.2436
719.454	5.9859
722.347	8.75095
725.239	11.0282
728.132	13.236
731.025	12.4799
733.918	19.6287
736.81	41.6247
739.703	47.1453
742.596	67.2559
745.488	84.1897
748.381	98.1914
751.274	118.767
754.166	88.7632
757.059	80.588
759.952	62.691
762.845	49.2376
765.737	36.4288
768.63	54.0761
771.523	85.8337
774.415	90.4643
777.308	66.0876
780.201	51.3419
783.093	62.7439
785.986	77.0767
788.879	125.074
791.771	203.394
794.664	184.207
797.557	66.9583
800.45	30.5313
803.342	32.9163
806.235	26.3083
809.128	20.8381
812.02	18.8203
814.913	13.4349
817.806	4.90465
820.698	3.60925
823.591	1.37334
826.484	5.55267
829.377	5.05627
832.269	10.6141
835.162	16.0838
838.055	4.73186
840.947	10.417
843.84	3.9648
846.733	12.8177
849.625	1.06543
852.518	4.79741
855.411	2.38683
858.304	18.1489
861.196	11.1803
864.089	9.84575
866.982	15.8706
869.874	15.5302
872.767	25.3232
875.66	10.1289
878.553	14.3831
881.445	9.22604
884.338	14.0854
887.231	0.909042
890.123	10.0744
893.016	0.493774
895.909	14.0268
898.801	9.27025
901.694	7.80423
904.587	19.9964
907.48	18.0999
910.372	21.1033
913.265	4.9438
916.158	2.76828
919.05	1.08217
921.943	12.7535
924.836	8.02466
927.728	1.93388
930.621	10.4677
933.514	3.08189
936.406	15.9283
939.299	16.6431
942.192	19.2381
945.085	18.9662
947.977	20.2541
950.87	4.2704
953.763	12.5196
956.655	6.94835
959.548	12.5561
962.441	15.1992
965.333	21.1681
968.226	11.2078
971.119	11.5931
974.011	14.3926
976.904	10.4872
979.797	16.5177
982.69	6.73688
985.582	17.4557
988.475	8.08765
991.368	2.03536
994.26	3.51096
997.153	16.9329
1000.05	9.62621
1002.94	11.7372
1005.83	14.4177
1008.72	5.91124
1011.62	9.84419
1014.51	8.03517
1017.4	0.775436
1020.29	0.264114
1023.19	3.60564
1026.08	16.4551
1028.97	35.9759
1031.87	16.8037
1034.76	34.1072
1037.65	45.3572
1040.54	81.4931
1043.44	116.626
1046.33	185.391
1049.22	283.125
1052.12	347.831
1055.01	356.752
1057.9	453.444
1060.79	548.424
1063.68	395.637
1066.58	182.72
1069.47	84.4701
1072.36	48.4707
1075.26	32.848
1078.15	14.0867
1081.04	14.7045
1083.93	1.38827
1086.83	5.13765
1089.72	1.39015
1092.61	6.62291
1095.51	17.1289
1098.4	15.2569
1101.29	35.0929
1104.18	35.5692
1107.08	45.1117
1109.97	64.8983
1112.86	78.0705
1115.75	126.432
1118.65	169.443
1121.54	245.522
1124.43	389.581
1127.33	608.363
1130.22	864.992
1133.11	917.934
1136	670.915
1138.89	400.146
1141.79	252.557
1144.68	148.293
1147.57	113.793
1150.47	92.0409
1153.36	47.1555
1156.25	39.6394
1159.14	23.9801
1162.04	15.2398
1164.93	13.7771
1167.82	14.3003
1170.71	3.98924
1173.61	0.909164
1176.5	3.05544
1179.39	1.90439
1182.29	3.85858
1185.18	7.82323
1188.07	13.9108
1190.96	2.5437
1193.86	12.8795
1196.75	0.871323
1199.64	0.455307
1202.54	4.24649
1205.43	6.53087
1208.32	9.58105
1211.21	6.10913
1214.11	0.77356
1217	15.3918
1219.89	6.46085
1222.78	23.2286
1225.68	15.0074
1228.57	11.8053
1231.46	16.7462
1234.35	2.37541
1237.25	2.33542
1240.14	14.1991
1243.03	18.6462
1245.92	12.8617
1248.82	13.5824
1251.71	12.8004
1254.6	3.37892
1257.5	12.7988
1260.39	8.14152
1263.28	12.8409
1266.17	19.8346
1269.07	3.82439
