Measurement: Raman, 780 nm, unoriented, Raman Data Processed
Mineral: Petarasite
Rruff sample: R060220
Ideal chemistry: Na_5_Zr_2_Si_6_O_18_(Cl,OH)2H_2_O
Locality: Mont Saint-Hilaire, Rouville County, Quebec, Canada
Source: Rock Currier
Description: Pale yellowish brown massive associated with aegirine, albite, natrolite, astrophyllite and rhodochrosite
Measured chemistry: (Na_4.86_[box]_0.07_Ca_0.06_Mn_0.01_)_Σ=5_Zr_2.00_Si_6.00_O_18_(Cl_0.62_(OH)_0.38_)_Σ=1_·2H_2_O
Raman shift (cm-1)	intensity
91.8272	0
95.202	2.52238
98.5768	0.500839
101.952	5.28625
105.326	20.5644
108.701	36.1637
112.076	50.7634
115.451	76.5241
118.826	90.7943
122.201	111.043
125.575	111.916
128.95	100.468
132.325	78.5559
135.7	71.7936
139.075	71.7169
142.449	69.8911
145.824	78.6713
149.199	90.2304
152.574	105.281
155.949	108.115
159.323	80.7344
162.698	46.9677
166.073	23.2331
169.448	9.97897
172.823	1.52256
176.198	1.58289
179.572	3.544
182.947	3.0241
186.322	3.90847
189.697	0.690147
193.072	1.37363
196.446	6.92624
199.821	14.5375
203.196	23.3277
206.571	33.7725
209.946	46.8088
213.321	64.3785
216.695	84.0199
220.07	95.876
223.445	104.064
226.82	111.79
230.195	114.881
233.569	106.81
236.944	89.4263
240.319	74.9822
243.694	63.8107
247.069	58.5033
250.444	53.2966
253.818	51.9123
257.193	43.5523
260.568	35.0518
263.943	28.9407
267.318	31.3324
270.692	37.37
274.067	50.7903
277.442	66.0921
280.817	88.0839
284.192	114.267
287.567	139.88
290.941	146.186
294.316	142.744
297.691	126.584
301.066	93.134
304.441	60.9568
307.815	46.1849
311.19	39.5495
314.565	44.0431
317.94	47.4937
321.315	49.9279
324.69	46.8142
328.064	39.2676
331.439	29.5024
334.814	20.1968
338.189	10.4581
341.564	5.69392
344.938	2.08697
348.313	0.795448
351.688	2.22696
355.063	5.36491
358.438	3.11222
361.812	2.23492
365.187	0.743202
368.562	2.34412
371.937	7.04454
375.312	13.4247
378.687	21.6851
382.061	26.2382
385.436	29.0302
388.811	28.2168
392.186	24.5975
395.561	21.9153
398.935	20.4469
402.31	20.1405
405.685	16.8361
409.06	17.9542
412.435	17.3202
415.81	11.6511
419.184	7.99372
422.559	3.41486
425.934	1.19774
429.309	4.98521
432.684	12.1009
436.058	19.7083
439.433	33.3148
442.808	44.4276
446.183	40.0576
449.558	27.7469
452.933	18.5031
456.307	12.4238
459.682	10.9841
463.057	10.0567
466.432	12.1676
469.807	13.3157
473.181	13.802
476.556	19.7939
479.931	34.6621
483.306	68.3889
486.681	110.457
490.055	162.205
493.43	232.959
496.805	321.925
500.18	352.001
503.555	262.496
506.93	148.567
510.304	81.0852
513.679	44.2141
517.054	21.1259
520.429	9.4009
523.804	2.92638
527.178	2.45577
530.553	4.12076
533.928	5.98972
537.303	9.04166
540.678	14.5112
544.053	10.5324
547.427	3.46697
550.802	0.031425
554.177	1.76914
557.552	1.61729
560.927	3.12783
564.302	0.626076
567.676	4.91604
571.051	10.3764
574.426	17.8246
577.801	26.129
581.176	32.082
584.55	29.4789
587.925	17.0894
591.3	7.85896
594.675	3.37453
598.05	3.20794
601.424	3.25402
604.799	1.67745
608.174	2.54038
611.549	1.90237
614.924	1.73291
618.298	1.64879
621.673	0.584198
625.048	1.18229
628.423	1.30867
631.798	3.83147
635.173	5.44256
638.547	7.39741
641.922	10.4924
645.297	15.0408
648.672	20.7977
652.047	28.917
655.422	36.5269
658.796	46.7209
662.171	57.3578
665.546	64.1491
668.921	56.2718
672.296	36.9034
675.67	21.8499
679.045	10.0683
682.42	4.77302
685.795	1.95844
689.17	0.764111
692.544	0.423073
695.919	0.831078
699.294	0.988998
702.669	0.037968
706.044	2.29228
709.419	3.70053
712.793	4.837
716.168	8.20597
719.543	10.6613
722.918	9.8689
726.293	6.6511
729.668	3.41555
733.042	4.05528
736.417	3.48049
739.792	3.20173
743.167	5.47638
746.542	5.65366
749.916	7.72891
753.291	6.81094
756.666	4.26772
760.041	1.907
763.416	1.37753
766.79	1.08726
770.165	0.263493
773.54	1.20409
776.915	0.247341
780.29	1.21171
783.665	1.21036
787.039	0.319691
790.414	0.696182
793.789	0.247005
797.164	1.15883
800.539	0.12315
803.913	1.52425
807.288	1.56065
810.663	1.80328
814.038	3.78521
817.413	3.65118
820.788	4.59551
824.162	3.79445
827.537	3.41372
830.912	4.18226
834.287	3.44147
837.662	2.88452
841.036	2.89911
844.411	3.63989
847.786	3.21197
851.161	2.99484
854.536	1.40128
857.91	0.945507
861.285	0.879543
864.66	0.662842
868.035	0.227951
871.41	1.3065
874.784	1.3798
878.159	0.18441
881.534	0.843376
884.909	0.907509
888.284	4.27427
891.659	8.8067
895.033	15.5109
898.408	26.0733
901.783	41.0622
905.158	60.958
908.533	87.6135
911.908	121.316
915.282	154.336
918.657	160.799
922.032	111.403
925.407	57.436
928.782	31.8154
932.156	19.6723
935.531	16.3098
938.906	19.77
942.281	26.7623
945.656	42.1011
949.03	68.8443
952.405	115.957
955.78	186.669
959.155	279.378
962.53	372.877
965.905	433.595
969.279	382.53
972.654	265.861
976.029	192.845
979.404	159.466
982.779	137.456
986.154	100.94
989.528	59.5371
992.903	30.1437
996.278	13.1014
999.653	5.85753
1003.03	0.689892
1006.4	0.93232
1009.78	0.327305
1013.15	1.21964
1016.53	0.490829
1019.9	1.89577
1023.28	4.57225
1026.65	8.67491
1030.03	19.6867
1033.4	32.4978
1036.78	51.5787
1040.15	71.2756
1043.53	84.5678
1046.9	82.945
1050.28	71.8757
1053.65	57.2831
1057.03	41.9633
1060.4	32.9925
1063.77	26.1171
1067.15	19.4874
1070.52	15.4088
1073.9	12.2888
1077.27	12.4222
1080.65	13.5719
1084.02	11.1848
1087.4	8.64171
1090.77	5.83784
1094.15	3.10268
1097.52	2.11319
1100.9	0.863113
1104.27	1.3065
1107.65	1.19019
1111.02	0.404732
1114.4	0.962734
1117.77	0.157585
1121.15	0.136982
1124.52	0.787529
1127.9	0.575653
1131.27	0.464252
1134.64	1.16724
1138.02	0.637238
1141.39	1.10269
1144.77	0.718193
1148.14	1.903
1151.52	0.613876
1154.89	1.54093
1158.27	2.01864
1161.64	1.84436
1165.02	1.37018
1168.39	2.39284
1171.77	2.74188
1175.14	3.0345
1178.52	5.64367
1181.89	6.16082
1185.27	6.46638
1188.64	7.04889
1192.02	9.95803
1195.39	9.86212
1198.77	10.0802
1202.14	10.4734
1205.52	9.77192
1208.89	9.74764
1212.27	9.199
1215.64	9.87497
1219.02	8.39187
1222.39	8.93111
1225.77	6.40526
1229.14	5.61257
1232.52	1.8457
1235.89	1.00164
1239.27	0.326736
1242.64	0.124474
1246.01	0.469185
1249.39	1.25948
1252.76	3.4833
1256.14	3.29816
1259.51	2.71849
1262.89	5.74899
1266.26	3.51868
1269.64	4.47701
1273.01	4.27571
1276.39	2.7451
1279.76	1.00507
1283.14	0.708702
