Measurement: Raman, 532 nm, unoriented, Raman Data Processed
Mineral: Petalite
Rruff sample: R040100
Ideal chemistry: LiAlSi_4_O_10_
Locality: Brazil
Source: Bob Downs
Description: Pale purple cut gemstone
Measured chemistry: Li_1.00_Al_1.00_Si_4.00_O_10_
Raman shift (cm-1)	intensity
119.154	0
122.529	1.01172
125.904	202.325
129.279	632.598
132.654	1012.8
136.028	1500.88
139.403	2174.89
142.778	2707.18
146.153	2771.51
149.528	2285.76
152.902	1777.45
156.277	1349.8
159.652	1052.43
163.027	826.54
166.402	690.523
169.776	562.812
173.151	507.07
176.526	586.159
179.901	731.632
183.276	942.918
186.65	860.328
190.025	513.343
193.4	281.826
196.775	154.885
200.15	90.6116
203.525	92.2424
206.899	103.261
210.274	188.256
213.649	143.862
217.024	74.5597
220.399	6.159
223.774	12.3026
227.148	0.225586
230.523	15.7165
233.898	33.4122
237.273	24.1136
240.648	31.0189
244.022	23.3663
247.397	8.71851
250.772	17.1517
254.147	10.8259
257.522	26.0632
260.896	59.7538
264.271	150.859
267.646	305.815
271.021	616.098
274.396	1106.57
277.771	1904.84
281.145	2702.52
284.52	2444.03
287.895	1528.19
291.27	1148
294.645	839.051
298.019	382.294
301.394	199.698
304.769	162.112
308.144	237.774
311.519	455.557
314.893	793.608
318.268	1100.92
321.643	803.037
325.018	386.166
328.393	182.179
331.767	91.9584
335.142	83.9369
338.517	220.819
341.892	494.461
345.267	1039.65
348.642	2096.66
352.016	3639.32
355.391	5780.23
358.766	6279.47
362.141	3774.92
365.516	2004.28
368.89	1343.36
372.265	1312.52
375.64	1662.87
379.015	2504.24
382.39	3420.91
385.765	2538.19
389.139	1217.51
392.514	633.655
395.889	336.418
399.264	216.694
402.639	128.13
406.013	74.0623
409.388	28.6476
412.763	24.9168
416.138	16.341
419.513	19.7767
422.887	11.1842
426.262	12.8613
429.637	26.2228
433.012	3.59625
436.387	5.78961
439.762	7.74951
443.136	8.73132
446.511	20.2791
449.886	43.9558
453.261	63.8079
456.636	172.466
460.01	267.672
463.385	482.345
466.76	878.806
470.135	578.005
473.51	494.618
476.885	734.565
480.259	1272.85
483.634	2197.66
487.009	3909.32
490.384	6090.95
493.759	4459.52
497.133	2069.81
500.508	1079.44
503.883	659.096
507.258	414.945
510.633	294.161
514.008	231.106
517.382	180.275
520.757	137.484
524.132	103.734
527.507	76.832
530.882	52.5348
534.256	61.0389
537.631	40.7353
541.006	27.9138
544.381	32.834
547.756	42.353
551.13	26.1784
554.505	22.0576
557.88	0.962158
561.255	8.45904
564.63	3.96686
568.005	8.23334
571.379	18.8578
574.754	7.81366
578.129	5.14752
581.504	14.5691
584.879	24.8823
588.253	18.046
591.628	28.3711
595.003	17.4483
598.378	16.5124
601.753	27.7813
605.128	39.6644
608.502	25.2014
611.877	24.87
615.252	23.8887
618.627	17.9558
622.001	10.171
625.376	25.4853
628.751	4.39697
632.126	11.9966
635.501	19.4307
638.876	11.2752
642.25	0.700531
645.625	36.7908
649	6.16736
652.375	28.339
655.75	42.5297
659.125	28.7562
662.499	10.5783
665.874	3.22144
669.249	8.15067
672.624	28.1964
675.999	21.8572
679.373	9.52585
682.748	10.2485
686.123	7.09534
689.498	10.8406
692.873	26.2173
696.247	13.468
699.622	7.45343
702.997	14.2266
706.372	31.3176
709.747	18.918
713.121	20.0418
716.496	23.3776
719.871	9.47424
723.246	23.237
726.621	0.73877
729.996	17.2547
733.37	11.0704
736.745	47.8891
740.12	79.8804
743.495	97.4301
746.87	170.548
750.245	154.612
753.619	139.613
756.994	113.573
760.369	99.5115
763.744	81.3507
767.119	130.47
770.493	118.708
773.868	162.578
777.243	122.921
780.618	85.4892
783.993	97.3926
787.367	171.025
790.742	323.537
794.117	382.346
797.492	195.547
800.867	92.1663
804.241	54.8359
807.616	34.7491
810.991	71.2442
814.366	25.5511
817.741	30.9048
821.116	23.4377
824.49	6.08795
827.865	22.6083
831.24	22.9083
834.615	13.4565
837.99	34.1888
841.365	9.44769
844.739	21.175
848.114	26.949
851.489	8.97699
854.864	25.6249
858.239	5.06329
861.613	8.50299
864.988	0.598206
868.363	5.35767
871.738	1.69122
875.113	3.67194
878.487	9.72552
881.862	17.3785
885.237	17.2284
888.612	12.6306
891.987	0.079163
895.361	26.2279
898.736	6.22101
902.111	36.6173
905.486	19.3125
908.861	43.7255
912.236	31.956
915.61	41.3711
918.985	13.9335
922.36	11.7851
925.735	29.8493
929.11	24.0466
932.485	19.6626
935.859	7.58026
939.234	37.2656
942.609	14.4179
945.984	15.6325
949.359	44.6096
952.733	27.0768
956.108	34.781
959.483	25.6308
962.858	27.0903
966.233	52.0601
969.607	29.8638
972.982	26.1365
976.357	22.5305
979.732	22.4834
983.107	30.332
986.481	23.8414
989.856	47.8668
993.231	28.3268
996.606	35.3556
999.981	2.58899
1003.36	10.6165
1006.73	11.7909
1010.11	22.7578
1013.48	12.3906
1016.86	25.176
1020.23	15.0478
1023.6	6.5199
1026.98	14.0387
1030.35	59.5657
1033.73	41.6056
1037.1	64.8727
1040.48	135.8
1043.85	208.067
1047.23	377.697
1050.6	547.805
1053.98	553.695
1057.35	513.855
1060.73	512.858
1064.1	336.81
1067.48	144.165
1070.85	73.5368
1074.23	52.2638
1077.6	37.6062
1080.98	2.37616
1084.35	1.36188
1087.73	20.7705
1091.1	15.929
1094.48	10.2504
1097.85	28.3186
1101.22	49.2005
1104.6	69.3774
1107.97	127.576
1111.35	185.556
1114.72	245.898
1118.1	377.351
1121.47	579.237
1124.85	927.119
1128.22	1459.16
1131.6	1943.24
1134.97	1680.2
1138.35	990.326
1141.72	575.521
1145.1	345.244
1148.47	227.646
1151.85	166.079
1155.22	102.348
1158.6	76.7038
1161.97	49.0842
1165.35	28.4789
1168.72	26.0662
1172.1	16.2151
1175.47	34.6176
1178.85	6.60718
1182.22	32.9807
1185.6	4.69525
1188.97	35.4853
1192.35	28.1296
1195.72	3.39368
1199.1	7.10193
1202.47	4.29944
1205.84	3.22278
1209.22	5.99152
1212.59	22.1878
1215.97	0.642944
1219.34	14.0423
1222.72	22.7801
1226.09	5.66242
1229.47	10.3906
1232.84	47.5105
1236.22	13.3849
1239.59	15.6414
1242.97	46.5736
1246.34	27.9463
1249.72	28.3826
1253.09	43.528
1256.47	26.8079
1259.84	2.12128
1263.22	4.19977
1266.59	0.221558
1269.97	19.8875
1273.34	13.241
1276.72	22.1791
1280.09	31.1263
1283.46	17.0867
1286.84	52.9313
1290.21	34.0792
1293.59	2.08209
1296.96	18.7136
