Measurement: Raman, 532 nm, unoriented, Raman Data Processed
Mineral: Petalite
Rruff sample: R060365
Ideal chemistry: LiAlSi_4_O_10_
Locality: Paprok, near Kamdesh, Nuristan, Kunar Province, Afghanistan
Source: Herb Obodda
Description: Colorless fragment
Measured chemistry: Li_1.00_Al_1.00_Si_4.00_O_10_
Raman shift (cm-1)	intensity
145.936	0
149.31	12.3365
152.685	45.7107
156.06	61.5401
159.435	39.6389
162.81	30.4135
166.185	38.6465
169.559	39.2033
172.934	43.6243
176.309	44.1185
179.684	57.4796
183.059	88.9455
186.433	119.885
189.808	99.5197
193.183	73.2952
196.558	58.2356
199.933	49.3421
203.308	31.6568
206.682	28.1848
210.057	41.6314
213.432	37.0986
216.807	21.7187
220.182	8.77945
223.556	0.788879
226.931	2.99189
230.306	4.52116
233.681	4.15667
237.056	1.36605
240.43	1.05187
243.805	3.68121
247.18	6.34982
250.555	15.2491
253.93	25.454
257.305	20.3597
260.679	12.6364
264.054	19.3045
267.429	31.448
270.804	55.4631
274.179	92.7209
277.553	151.818
280.928	220.254
284.303	219.46
287.678	133.545
291.053	73.1943
294.428	49.2203
297.802	19.4618
301.177	5.59948
304.552	6.23161
307.927	12.4634
311.302	27.4733
314.676	52.3394
318.051	78.439
321.426	64.316
324.801	26.2309
328.176	6.71417
331.55	1.14535
334.925	0.044189
338.3	11.8024
341.675	38.5753
345.05	80.6868
348.425	148.424
351.799	265.363
355.174	443.759
358.549	550.976
361.924	395.309
365.299	225.932
368.673	158.463
372.048	156.858
375.423	195.028
378.798	297.911
382.173	424.882
385.548	372.259
388.922	192.84
392.297	98.7141
395.672	55.6875
399.047	34.5089
402.422	22.4204
405.796	16.1911
409.171	11.6354
412.546	6.35326
415.921	2.075
419.296	0.710579
422.671	1.31632
426.045	0.849945
429.42	1.26611
432.795	1.22691
436.17	0.233543
439.545	0.440422
442.92	1.02751
446.294	0.44548
449.669	0.968979
453.044	3.40413
456.419	5.38097
459.793	12.4639
463.168	20.9425
466.543	40.3723
469.918	40.2253
473.293	41.8293
476.668	71.6665
480.042	122.518
483.417	209.384
486.792	366.795
490.167	586.333
493.542	541.545
496.916	263.496
500.291	130.129
503.666	74.7228
507.041	48.6357
510.416	34.954
513.791	27.2459
517.165	22.2408
520.54	17.3385
523.915	14.9706
527.29	12.0476
530.665	9.24554
534.04	7.62417
537.414	5.92959
540.789	4.98134
544.164	4.13871
547.539	3.06801
550.914	2.27281
554.288	1.62678
557.663	1.12618
561.038	1.08546
564.413	0.01297
567.788	0.441658
571.163	0.858963
574.537	0.462433
577.912	0.278824
581.287	0.481361
584.662	0.164536
588.037	0.244576
591.411	1.24661
594.786	0.691414
598.161	0.414566
601.536	0.023415
604.911	2.40861
608.285	0.257843
611.66	1.02679
615.035	2.59768
618.41	2.51076
621.785	1.15247
625.159	0.789497
628.534	1.09299
631.909	1.51025
635.284	1.53734
638.659	0.971764
642.034	1.56483
645.408	1.54398
648.783	1.54829
652.158	0.932304
655.533	0.373909
658.908	1.57365
662.283	0.840805
665.657	0.690437
669.032	3.87749
672.407	5.22465
675.782	6.40765
679.157	6.01604
682.531	6.23243
685.906	2.97287
689.281	1.18857
692.656	0.724846
696.031	2.31155
699.405	0.338921
702.78	0.937752
706.155	0.602966
709.53	1.51402
712.905	0.66468
716.28	0.048126
719.654	1.29487
723.029	0.262329
726.404	1.32909
729.779	2.9584
733.154	2.09276
736.529	3.71744
739.903	7.62878
743.278	11.5572
746.653	15.3071
750.028	17.3254
753.403	16.1974
756.777	13.1891
760.152	10.172
763.527	9.05975
766.902	7.78648
770.277	12.0064
773.652	16.314
777.026	15.5025
780.401	8.20435
783.776	5.77379
787.151	7.39424
790.526	9.98875
793.9	14.595
797.275	8.84193
800.65	4.54635
804.025	2.26439
807.4	1.58138
810.774	0.582726
814.149	1.06531
817.524	2.30805
820.899	1.6596
824.274	2.37705
827.649	1.61797
831.023	1.75557
834.398	0.94532
837.773	1.45393
841.148	0.680756
844.523	1.08256
847.898	0.153503
851.272	1.38078
854.647	0.386116
858.022	1.28707
861.397	0.429947
864.771	0.218468
868.146	0.382973
871.521	1.29337
874.896	0.215904
878.271	0.045059
881.646	1.65923
885.02	0.860855
888.395	2.61729
891.77	2.35374
895.145	1.30038
898.52	2.63106
901.894	1.92215
905.269	2.16338
908.644	3.34747
912.019	2.24872
915.394	3.16357
918.769	1.68881
922.143	2.25588
925.518	2.48222
928.893	0.893898
932.268	2.6473
935.643	1.67115
939.018	1.1281
942.392	0.24765
945.767	1.35271
949.142	1.96174
952.517	2.38011
955.892	1.73901
959.266	1.53516
962.641	1.52865
966.016	1.07786
969.391	1.30627
972.766	0.117622
976.14	1.09089
979.515	1.65426
982.89	0.141541
986.265	1.5307
989.64	1.40285
993.015	1.19997
996.389	0.405281
999.764	0.320251
1003.14	0.51442
1006.51	0.014801
1009.89	1.22051
1013.26	0.949707
1016.64	1.99152
1020.01	2.18443
1023.39	2.30968
1026.76	1.48836
1030.14	1.77042
1033.51	3.49824
1036.89	6.95454
1040.26	8.92489
1043.64	12.6707
1047.01	22.6974
1050.39	34.9939
1053.76	40.6463
1057.14	33.0369
1060.51	35.671
1063.89	34.1929
1067.26	14.5672
1070.63	6.15738
1074.01	3.7014
1077.38	1.86169
1080.76	0.212166
1084.13	0.1679
1087.51	0.33062
1090.88	0.52887
1094.26	2.11341
1097.63	4.2309
1101.01	4.88629
1104.38	5.18166
1107.76	5.94189
1111.13	9.42169
1114.51	14.6799
1117.88	20.249
1121.26	33.0247
1124.63	55.1675
1128.01	91.2883
1131.38	130.593
1134.76	129.892
1138.13	84.0499
1141.51	46.0866
1144.88	27.3048
1148.26	15.6748
1151.63	12.5977
1155.01	9.13285
1158.38	5.28108
1161.76	2.24007
1165.13	1.86949
1168.51	2.34258
1171.88	0.624367
1175.26	0.304169
1178.63	0.193146
1182	1.40956
1185.38	2.51854
1188.75	3.24268
1192.13	1.82146
1195.5	1.41097
1198.88	0.201256
1202.25	1.1733
1205.63	0.419327
1209	0.394463
1212.38	0.945618
1215.75	1.31184
1219.13	0.780334
1222.5	0.022224
1225.88	0.788452
1229.25	0.777626
1232.63	0.318497
1236	0.664879
1239.38	1.72103
1242.75	0.653259
1246.13	2.24154
1249.5	2.48439
1252.88	0.751106
1256.25	2.55457
1259.62	1.11363
1263	0.600845
1266.38	1.37541
1269.75	1.62079
1273.12	1.3756
1276.5	0.133339
1279.87	0.592056
1283.25	0.009689
1286.62	0.98233
1290	0.120796
1293.37	0.924614
1296.75	0.744835
1300.12	0.932785
