Measurement: Raman, 780 nm, unoriented, Raman Data Processed
Mineral: Petarasite
Rruff sample: R060223
Ideal chemistry: Na_5_Zr_2_Si_6_O_18_(Cl,OH)2H_2_O
Locality: Demix Quarry, Mont Saint-Hilaire, Rouville County, Quebec, Canada
Source: Royal Ontario Museum
Description: Tan colored cleavage fragment associated with catapleiite
Measured chemistry: (Na_4.82_[box]_0.09_Ca_0.06_Mn_0.02_)_Σ=5_Zr_2.00_Si_6.00_O_18_(Cl_0.63_(OH)_0.37_)_Σ=1_·2H_2_O
Raman shift (cm-1)	intensity
100.023	0
103.398	0.394638
106.773	1.30042
110.148	7.62237
113.522	18.5631
116.897	33.1157
120.272	42.7567
123.647	51.0201
127.022	46.4465
130.397	42.445
133.771	42.5806
137.146	45.1238
140.521	51.059
143.896	66.2886
147.271	84.1435
150.645	103.112
154.02	116.424
157.395	110.929
160.77	80.7836
164.145	52.416
167.519	30.3157
170.894	14.2092
174.269	5.76663
177.644	0.047279
181.019	0.174652
184.393	4.76653
187.768	3.73646
191.143	2.11002
194.518	2.93329
197.893	12.7219
201.268	15.4004
204.642	24.5283
208.017	36.6225
211.392	49.2313
214.767	63.3987
218.142	77.1293
221.517	85.0282
224.891	93.1938
228.266	94.4422
231.641	90.137
235.016	73.8597
238.391	60.5916
241.765	49.9694
245.14	47.2369
248.515	45.6929
251.89	47.4971
255.265	43.8665
258.639	37.961
262.014	32.2532
265.389	27.3539
268.764	30.3182
272.139	39.1557
275.514	51.6678
278.888	70.3326
282.263	93.2768
285.638	119.622
289.013	131.986
292.388	132.262
295.762	127.59
299.137	113.06
302.512	76.6091
305.887	50.2451
309.262	36.3939
312.637	31.7907
316.011	32.1488
319.386	32.7122
322.761	32.6625
326.136	29.6946
329.511	23.4377
332.885	14.5092
336.26	6.78108
339.635	4.2202
343.01	1.10588
346.385	3.28436
349.76	3.55134
353.134	3.73372
356.509	3.2432
359.884	0.303696
363.259	2.67449
366.634	7.89648
370.009	13.9602
373.383	18.56
376.758	26.4292
380.133	33.0284
383.508	36.1798
386.882	34.8843
390.257	29.6154
393.632	23.4868
397.007	22.464
400.382	18.4195
403.757	16.8531
407.131	12.1463
410.506	9.71641
413.881	7.40942
417.256	6.22396
420.631	4.63066
424.005	10.4106
427.38	9.11348
430.755	14.4423
434.13	23.1041
437.505	39.1849
440.88	56.0844
444.254	59.9877
447.629	48.864
451.004	36.56
454.379	27.3117
457.754	24.1477
461.128	20.9963
464.503	18.8808
467.878	15.9308
471.253	13.4098
474.628	12.2017
478.003	12.2521
481.377	19.7262
484.752	32.3518
488.127	49.7651
491.502	75.935
494.877	112.368
498.252	145.13
501.626	133.984
505.001	91.3181
508.376	54.0196
511.751	32.0852
515.125	15.3251
518.5	6.03555
521.875	1.01473
525.25	1.29565
528.625	0.323658
532	1.15077
535.375	1.69411
538.749	1.40195
542.124	1.13677
545.499	0.228134
548.874	2.37146
552.249	0.386974
555.623	0.531826
558.998	4.86386
562.373	7.76347
565.748	16.1683
569.123	24.7574
572.497	36.5124
575.872	48.0742
579.247	63.5272
582.622	62.5262
585.997	44.604
589.371	26.1138
592.746	14.6864
596.121	9.97767
599.496	5.95583
602.871	3.44511
606.246	1.63775
609.62	0.121326
612.995	0.175991
616.37	0.839512
619.745	0.327862
623.12	1.65001
626.495	1.90979
629.869	1.03956
633.244	2.9732
636.619	5.41053
639.994	6.28611
643.369	10.3502
646.743	14.0043
650.118	18.6724
653.493	25.1167
656.868	31.4677
660.243	40.4609
663.617	45.5897
666.992	42.6118
670.367	30.1966
673.742	17.7065
677.117	8.04367
680.492	4.38838
683.866	1.60706
687.241	1.5238
690.616	1.10181
693.991	1.34927
697.366	2.1903
700.74	6.2514
704.115	11.1243
707.49	19.2393
710.865	27.0517
714.24	38.7268
717.615	47.7278
720.989	50.8567
724.364	41.0255
727.739	26.5127
731.114	16.2565
734.489	11.5718
737.864	10.7124
741.238	8.82163
744.613	9.07209
747.988	8.00924
751.363	8.14555
754.737	5.55039
758.112	2.49801
761.487	1.60396
764.862	1.43177
768.237	0.004337
771.612	0.355499
774.986	0.009773
778.361	0.191139
781.736	0.85429
785.111	0.115482
788.486	0.07082
791.861	0.222797
795.235	1.45627
798.61	0.861286
801.985	1.39105
805.36	1.30487
808.735	2.62303
812.109	2.85025
815.484	2.43335
818.859	2.37178
822.234	2.03725
825.609	2.45083
828.984	2.41248
832.358	1.86538
835.733	2.43778
839.108	1.17302
842.483	2.05539
845.857	1.2429
849.232	0.325184
852.607	0.091839
855.982	0.218311
859.357	0.415722
862.732	0.886898
866.106	0.574959
869.481	0.749924
872.856	0.664547
876.231	0.00103
879.606	1.22084
882.981	4.2184
886.355	8.51421
889.73	14.543
893.105	24.291
896.48	40.5469
899.855	67.9891
903.229	108.677
906.604	157.596
909.979	210.936
913.354	268.277
916.729	293.229
920.104	231.887
923.478	131.572
926.853	63.9045
930.228	32.0444
933.603	20.1161
936.978	15.6844
940.352	16.7694
943.727	21.2537
947.102	31.7952
950.477	52.4494
953.852	87.0107
957.226	130.897
960.601	184.828
963.976	235.722
967.351	247.911
970.726	198.323
974.101	138.582
977.475	111.517
980.85	98.9236
984.225	77.6155
987.6	48.4449
990.975	22.3492
994.35	8.86411
997.724	2.6834
1001.1	0.153172
1004.47	0.578964
1007.85	1.14886
1011.22	0.989063
1014.6	1.30584
1017.97	0.082687
1021.35	1.35994
1024.72	3.10967
1028.1	6.13511
1031.47	11.0477
1034.85	18.7855
1038.22	27.8753
1041.6	39.703
1044.97	47.4639
1048.35	54.527
1051.72	55.714
1055.1	57.3072
1058.47	57.7944
1061.85	53.0957
1065.22	41.0484
1068.6	29.4416
1071.97	20.297
1075.35	17.0762
1078.72	13.9039
1082.1	12.2384
1085.47	10.1964
1088.84	7.42628
1092.22	4.70467
1095.59	2.89149
1098.97	1.95878
1102.34	1.72899
1105.72	1.31187
1109.09	0.185524
1112.47	0.999969
1115.84	0.715858
1119.22	0.191051
1122.59	0.607178
1125.97	0.018818
1129.34	0.684254
1132.72	0.597122
1136.09	0.390671
1139.47	0.555172
1142.84	0.61684
1146.22	0.805687
1149.59	0.891254
1152.97	1.51997
1156.34	1.79451
1159.71	1.97233
1163.09	1.56538
1166.46	3.96135
1169.84	2.48898
1173.21	3.7644
1176.59	4.4365
1179.96	5.91306
1183.34	6.66142
1186.71	6.26887
1190.09	7.4576
1193.46	8.38625
1196.84	9.04385
1200.21	8.61963
1203.59	9.07293
1206.96	8.71521
1210.34	7.83318
1213.71	7.07865
1217.09	7.7288
1220.46	6.67775
1223.84	5.21435
1227.21	4.90754
1230.59	2.93189
1233.96	1.40793
1237.34	2.0334
1240.71	0.784447
1244.09	2.52164
1247.46	0.73188
1250.84	0.174271
1254.21	0.53759
1257.59	0.411015
1260.96	1.11934
1264.34	0.640705
1267.71	1.52679
1271.08	1.81842
1274.46	1.77827
1277.83	1.15183
1281.21	2.36754
1284.58	1.42834
