Measurement: Raman, 532 nm, unoriented, Raman Data Processed
Mineral: Petarasite
Rruff sample: R060223
Ideal chemistry: Na_5_Zr_2_Si_6_O_18_(Cl,OH)2H_2_O
Locality: Demix Quarry, Mont Saint-Hilaire, Rouville County, Quebec, Canada
Source: Royal Ontario Museum
Description: Tan colored cleavage fragment associated with catapleiite
Measured chemistry: (Na_4.82_[box]_0.09_Ca_0.06_Mn_0.02_)_Σ=5_Zr_2.00_Si_6.00_O_18_(Cl_0.63_(OH)_0.37_)_Σ=1_·2H_2_O
Raman shift (cm-1)	intensity
120.523	0
123.898	0.03685
127.273	30.0166
130.647	68.6582
134.022	85.7725
137.397	134.944
140.772	192.41
144.147	232.626
147.522	274.417
150.896	337.868
154.271	432.534
157.646	467.093
161.021	415.289
164.396	310.608
167.77	223.332
171.145	157.723
174.52	114.758
177.895	82.6299
181.27	54.0003
184.644	28.6436
188.019	14.7022
191.394	2.75613
194.769	5.96964
198.144	8.05279
201.519	4.76883
204.893	1.95138
208.268	12.3688
211.643	22.9293
215.018	44.4453
218.393	84.0965
221.768	99.5361
225.142	109.683
228.517	125.138
231.892	126.229
235.267	108.145
238.642	76.8948
242.016	51.1
245.391	44.2653
248.766	48.9859
252.141	59.8059
255.516	70.7775
258.89	64.4923
262.265	40.4068
265.64	13.715
269.015	1.74029
272.39	5.93985
275.764	24.7217
279.139	56.465
282.514	108.243
285.889	175.099
289.264	252.157
292.639	303.601
296.013	328.799
299.388	341.557
302.763	276.247
306.138	180.893
309.513	117.98
312.887	90.3841
316.262	84.6606
319.637	88.1119
323.012	91.2332
326.387	89.4803
329.762	86.2834
333.136	61.923
336.511	42.7521
339.886	26.2208
343.261	14.0979
346.636	4.77438
350.01	0.909912
353.385	5.06656
356.76	7.64731
360.135	5.49042
363.51	2.47601
366.885	4.29187
370.259	15.4882
373.634	28.1315
377.009	46.5324
380.384	69.7805
383.759	90.0479
387.134	98.1523
390.508	95.4718
393.883	82.9923
397.258	75.3065
400.633	71.3428
404.007	74.5885
407.382	70.8304
410.757	75.1124
414.132	74.4766
417.507	65.3536
420.882	45.1899
424.256	20.4134
427.631	4.4523
431.006	7.50269
434.381	15.8744
437.756	40.6096
441.13	83.1165
444.505	114.341
447.88	109.949
451.255	76.0946
454.63	55.759
458.005	44.9735
461.379	39.1066
464.754	36.1376
468.129	31.9375
471.504	24.0127
474.879	17.8026
478.253	17.7891
481.628	30.1813
485.003	65.8191
488.378	129.133
491.753	224.922
495.128	365.128
498.502	538.864
501.877	635.138
505.252	504.306
508.627	308.796
512.002	185.897
515.376	106.287
518.751	51.4541
522.126	23.6559
525.501	14.6371
528.876	0.762421
532.25	0.054901
535.625	2.7684
539	7.89661
542.375	12.1136
545.75	6.12662
549.125	0.471466
552.5	4.58011
555.874	5.07739
559.249	1.12378
562.624	3.88617
565.999	18.5239
569.374	43.1139
572.748	65.7146
576.123	99.5995
579.498	150.983
582.873	184.565
586.248	164.056
589.622	101.506
592.997	56.8903
596.372	33.2458
599.747	17.1671
603.122	12.1167
606.496	7.74283
609.871	3.45795
613.246	1.93689
616.621	1.29276
619.996	2.62021
623.37	0.718353
626.745	2.67361
630.12	1.67819
633.495	3.69821
636.87	9.1958
640.245	13.58
643.619	18.5867
646.994	26.1901
650.369	36.2859
653.744	49.8745
657.119	71.5849
660.494	98.3719
663.868	127.489
667.243	140.689
670.618	125.901
673.993	84.1462
677.368	49.2395
680.742	26.8436
684.117	13.1802
687.492	4.71674
690.867	4.62213
694.242	2.66251
697.616	3.6933
700.991	4.6651
704.366	11.7232
707.741	21.5748
711.116	40.9194
714.491	70.469
717.865	108.867
721.24	139.137
724.615	145.133
727.99	119.166
731.365	78.678
734.74	74.0547
738.114	81.7388
741.489	106.622
744.864	118.003
748.239	113.624
751.614	99.8099
754.988	76.6084
758.363	49.8253
761.738	33.9818
765.113	23.1362
768.488	12.4653
771.862	5.06018
775.237	3.10629
778.612	1.67007
781.987	0.504852
785.362	0.184998
788.736	0.918518
792.111	0.593384
795.486	0.719116
798.861	1.45843
802.236	3.44159
805.611	3.42737
808.985	1.73035
812.36	3.03229
815.735	4.37994
819.11	11.1163
822.485	5.62427
825.86	7.99127
829.234	5.61835
832.609	6.21991
835.984	13.5762
839.359	10.6065
842.734	8.93439
846.108	8.51202
849.483	9.74072
852.858	0.868164
856.233	0.941833
859.608	1.78607
862.982	0.246582
866.357	0.055969
869.732	3.27441
873.107	2.10718
876.482	1.06866
879.857	0.763245
883.231	6.76477
886.606	13.161
889.981	27.4235
893.356	45.998
896.731	77.8991
900.106	125.306
903.48	201.023
906.855	311.637
910.23	465.343
913.605	679.795
916.98	902.11
920.354	917.979
923.729	628.953
927.104	320.486
930.479	152.972
933.854	78.2686
937.229	48.827
940.603	39.8794
943.978	39.2331
947.353	48.0844
950.728	78.5333
954.102	137.839
957.477	239.18
960.852	398.933
964.227	576.719
967.602	706.213
970.977	654.971
974.351	469.276
977.726	363.666
981.101	319.842
984.476	287.269
987.851	201.468
991.226	107.866
994.6	39.8782
997.975	13.6315
1001.35	3.70587
1004.73	2.15741
1008.1	3.94446
1011.47	3.30975
1014.85	1.89593
1018.22	10.8074
1021.6	17.1932
1024.97	23.4489
1028.35	32.801
1031.72	44.7189
1035.1	66.3699
1038.47	100.58
1041.85	131.03
1045.22	175.59
1048.6	197.371
1051.97	207.048
1055.35	209.029
1058.72	210.8
1062.1	197.845
1065.47	169.537
1068.85	128.052
1072.22	83.5101
1075.6	58.3413
1078.97	51.6533
1082.35	45.7084
1085.72	42.7385
1089.1	38.4303
1092.47	33.443
1095.85	28.0963
1099.22	22.3668
1102.59	12.2212
1105.97	5.88428
1109.34	7.57752
1112.72	5.62109
1116.09	3.64221
1119.47	0.211792
1122.84	0.196533
1126.22	2.87866
1129.59	1.30127
1132.97	1.26697
1136.34	3.62353
1139.72	7.87305
1143.09	8.69031
1146.47	4.91614
1149.84	7.23645
1153.22	7.72229
1156.59	9.15051
1159.97	6.23047
1163.34	9.57739
1166.72	9.9895
1170.09	11.0931
1173.47	12.0448
1176.84	10.3671
1180.21	9.0592
1183.59	8.05371
1186.96	7.25879
1190.34	4.69263
1193.71	7.93042
1197.09	6.57349
1200.46	4.55347
1203.84	4.91687
1207.21	6.78674
1210.59	7.44702
1213.96	5.62439
1217.34	6.77393
1220.71	16.5112
1224.09	4.77368
1227.46	4.81152
1230.84	0.775024
1234.21	0.192139
1237.59	1.97974
1240.96	6.73181
1244.34	6.5636
1247.71	0.835449
1251.09	1.62976
1254.46	4.04517
1257.84	0.17627
1261.21	4.04639
1264.59	5.92481
1267.96	2.83594
1271.34	2.96277
1274.71	4.1626
1278.09	8.01672
1281.46	1.89746
1284.83	0.058472
1288.21	3.97217
1291.58	10.3806
1294.96	4.34485
1298.33	3.09876
1301.71	5.89185
