Measurement: Raman, 532 nm, unoriented, Raman Data Processed
Mineral: Petarasite
Rruff sample: R060220
Ideal chemistry: Na_5_Zr_2_Si_6_O_18_(Cl,OH)2H_2_O
Locality: Mont Saint-Hilaire, Rouville County, Quebec, Canada
Source: Rock Currier
Description: Pale yellowish brown massive associated with aegirine, albite, natrolite, astrophyllite and rhodochrosite
Measured chemistry: (Na_4.86_[box]_0.07_Ca_0.06_Mn_0.01_)_Σ=5_Zr_2.00_Si_6.00_O_18_(Cl_0.62_(OH)_0.38_)_Σ=1_·2H_2_O
Raman shift (cm-1)	intensity
120.523	0
123.898	6.63216
127.273	62.2886
130.647	98.8016
134.022	127.758
137.397	181.736
140.772	235.205
144.147	263.413
147.522	305.399
150.896	371.932
154.271	455.726
157.646	446.566
161.021	365.469
164.396	256.06
167.77	177.478
171.145	125.505
174.52	91.474
177.895	64.7481
181.27	37.755
184.644	15.2256
188.019	3.02017
191.394	7.55603
194.769	16.9389
198.144	12.593
201.519	1.44131
204.893	13.2826
208.268	35.9466
211.643	68.6747
215.018	113.615
218.393	167.308
221.768	201.204
225.142	218.39
228.517	241.669
231.892	245.731
235.267	209.412
238.642	167.764
242.016	135.772
245.391	113.613
248.766	103.827
252.141	107.757
255.516	111.648
258.89	99.526
262.265	65.5045
265.64	46.4821
269.015	41.4572
272.39	65.865
275.764	114.509
279.139	175.695
282.514	257.431
285.889	362.052
289.264	449.831
292.639	446.031
296.013	414.866
299.388	365.587
302.763	268.564
306.138	190.093
309.513	156.608
312.887	160.113
316.262	180.547
319.637	207.036
323.012	214.604
326.387	198.022
329.762	165.019
333.136	124.383
336.511	90.0649
339.886	57.611
343.261	37.9041
346.636	17.8514
350.01	7.35706
353.385	1.36179
356.76	8.94598
360.135	14.8563
363.51	9.93057
366.885	10.491
370.259	4.32339
373.634	2.40814
377.009	15.7145
380.384	34.9473
383.759	50.054
387.134	58.4437
390.508	57.8633
393.883	44.8346
397.258	40.899
400.633	39.8898
404.007	42.2348
407.382	46.3666
410.757	55.0842
414.132	61.9191
417.507	59.3331
420.882	48.7776
424.256	31.6386
427.631	13.5142
431.006	13.7152
434.381	36.9311
437.756	75.4424
441.13	134.298
444.505	177.073
447.88	159.323
451.255	107.589
454.63	75.5383
458.005	55.8758
461.379	47.5915
464.754	46.5083
468.129	46.5282
471.504	45.8513
474.879	50.1679
478.253	62.16
481.628	100.094
485.003	195.318
488.378	367.221
491.753	627.084
495.128	979.131
498.502	1360.82
501.877	1508.38
505.252	1125.02
508.627	634.901
512.002	346.623
515.376	189.079
518.751	102.363
522.126	50.8463
525.501	26.7418
528.876	18.0587
532.25	23.9395
535.625	38.7597
539	59.0098
542.375	71.0786
545.75	55.0042
549.125	25.3805
552.5	3.78513
555.874	5.73245
559.249	10.5694
562.624	12.3833
565.999	5.65472
569.374	11.4329
572.748	35.8317
576.123	67.099
579.498	105.606
582.873	131.037
586.248	113.679
589.622	66.4542
592.997	31.6104
596.372	14.492
599.747	6.12769
603.122	5.93884
606.496	2.33575
609.871	3.17865
613.246	5.45673
616.621	3.48142
619.996	2.83307
623.37	3.33475
626.745	7.4711
630.12	13.4598
633.495	20.2582
636.87	29.1207
640.245	39.5883
643.619	52.8366
646.994	66.637
650.369	89.061
653.744	120.332
657.119	162.026
660.494	209.479
663.868	257.963
667.243	276.289
670.618	244.467
673.993	165.409
677.368	89.8681
680.742	49.8826
684.117	24.8695
687.492	14.478
690.867	6.93372
694.242	5.73639
697.616	2.37231
700.991	0.147644
704.366	1.57486
707.741	0.119873
711.116	3.58392
714.491	8.46341
717.865	17.1249
721.24	21.7472
724.615	24.8046
727.99	18.6334
731.365	14.6522
734.74	17.8297
738.114	26.7652
741.489	42.1006
744.864	52.2425
748.239	61.9605
751.614	68.1008
754.988	61.4419
758.363	43.6619
761.738	21.6614
765.113	11.8523
768.488	4.76178
771.862	0.495941
775.237	0.02597
778.612	0.611084
781.987	1.56647
785.362	0.149231
788.736	1.25299
792.111	0.188751
795.486	1.14298
798.861	0.230286
802.236	2.09695
805.611	3.21606
808.985	6.22641
812.36	7.02689
815.735	7.53418
819.11	13.3276
822.485	16.8706
825.86	16.478
829.234	15.7323
832.609	16.7035
835.984	12.3662
839.359	12.4494
842.734	11.7318
846.108	11.1273
849.483	8.83704
852.858	9.20407
856.233	7.92407
859.608	5.95062
862.982	2.26157
866.357	2.6141
869.732	3.01379
873.107	3.48672
876.482	5.5968
879.857	3.38718
883.231	1.45578
886.606	2.74075
889.981	10.7374
893.356	24.9434
896.731	45.6223
900.106	78.3123
903.48	128.5
906.855	204.598
910.23	312.877
913.605	475.51
916.98	636.733
920.354	653.258
923.729	452.423
927.104	241.505
930.479	127.578
933.854	84.053
937.229	76.9082
940.603	87.4526
943.978	117.032
947.353	179.119
950.728	289.498
954.102	501.387
957.477	844
960.852	1332.21
964.227	1858.74
967.602	2170.92
970.977	1919.48
974.351	1330.98
977.726	961.134
981.101	813.797
984.476	701.251
987.851	518.391
991.226	306.319
994.6	151.118
997.975	67.8139
1001.35	26.6561
1004.73	3.93225
1008.1	2.0506
1011.47	6.9892
1014.85	6.83356
1018.22	5.04706
1021.6	8.99927
1024.97	19.0636
1028.35	39.7183
1031.72	78.8516
1035.1	140.49
1038.47	231.583
1041.85	326.92
1045.22	387.318
1048.6	390.867
1051.97	333.661
1055.35	257.098
1058.72	191.742
1062.1	147.608
1065.47	116.765
1068.85	80.1594
1072.22	59.2405
1075.6	50.783
1078.97	58.1326
1082.35	60.2216
1085.72	60.0897
1089.1	48.1431
1092.47	37.6334
1095.85	20.4421
1099.22	12.2913
1102.59	7.37231
1105.97	0.010559
1109.34	0.114807
1112.72	0.120361
1116.09	1.64368
1119.47	4.38513
1122.84	1.00848
1126.22	3.90259
1129.59	0.423889
1132.97	2.01044
1136.34	0.89502
1139.72	6.46875
1143.09	6.35431
1146.47	6.74085
1149.84	10.3768
1153.22	10.4951
1156.59	11.912
1159.97	10.8497
1163.34	12.1821
1166.72	10.0435
1170.09	13.7106
1173.47	13.7509
1176.84	16.0855
1180.21	12.5984
1183.59	11.1188
1186.96	12.3073
1190.34	8.59119
1193.71	9.20734
1197.09	8.65802
1200.46	8.7439
1203.84	2.95184
1207.21	8.73639
1210.59	6.7146
1213.96	5.78967
1217.34	6.66571
1220.71	6.52734
1224.09	4.70373
1227.46	5.8584
1230.84	3.01251
1234.21	4.43762
1237.59	0.332214
1240.96	3.51544
1244.34	5.03961
1247.71	3.03857
1251.09	2.83514
1254.46	1.1319
1257.84	1.69916
1261.21	3.8855
1264.59	4.33984
1267.96	4.96252
1271.34	2.96716
1274.71	2.82532
1278.09	1.22827
1281.46	1.33618
1284.83	0.604858
1288.21	5.08252
1291.58	6.84875
1294.96	3.04004
1298.33	0.783936
1301.71	2.60339
