Measurement: Raman, 532 nm, unoriented, Raman Data Processed
Mineral: Petersite-(Y)
Rruff sample: R050541
Ideal chemistry: Cu<sup>2+</sup>_6_Y(PO_4_)_3_(OH)_6_3H_2_O
Locality: Cherry Creek district, Yavapai County, Arizona, USA
Source: UAMM
Description: Spray of yellowish-green acicular crystals, this is Petersite-(Ce)
Measured chemistry: Cu_6.03_(Ce_0.18_Y_0.16_La_0.12_Nd_0.09_Gd_0.03_Pr_0.02_Sm_0.01_Dy_0.01_Ca_0.42_)_Σ=1.05_[(PO_4_)_0.95_(SiO_4_)_0.05_]_3_(OH)_6_·3.21H_2_O
Raman shift (cm-1)	intensity
95.685	0
99.06	21.327
102.435	117.385
105.81	316.828
109.185	604.537
112.56	941.686
115.934	1360.47
119.309	1869.53
122.684	2113.79
126.059	1509.38
129.434	831.058
132.808	433.675
136.183	225.33
139.558	90.023
142.933	47.542
146.308	18.097
149.682	26.987
153.057	21.141
156.432	49.436
159.807	72.695
163.182	182.008
166.557	322.667
169.931	402.177
173.306	535.703
176.681	606.439
180.056	600.507
183.431	551.223
186.805	466.937
190.18	419.038
193.555	396.341
196.93	386.729
200.305	423.821
203.68	459.805
207.054	530.848
210.429	587.089
213.804	604.181
217.179	559.531
220.554	369.102
223.928	232.168
227.303	102.172
230.678	28.611
234.053	3.519
237.428	27.927
240.803	22.886
244.177	21.683
247.552	10.638
250.927	68.303
254.302	95.843
257.677	120.241
261.052	81.689
264.426	69.345
267.801	64.925
271.176	68.917
274.551	102.807
277.926	131.845
281.3	102.976
284.675	98.734
288.05	96.72
291.425	112.853
294.8	124.719
298.174	126.985
301.549	112.888
304.924	127.639
308.299	102.258
311.674	88.583
315.049	61.484
318.423	42.017
321.798	42.138
325.173	38.541
328.548	46.345
331.923	82.786
335.297	95.167
338.672	112.13
342.047	86.844
345.422	70.512
348.797	43.111
352.172	23.103
355.546	10.8
358.921	2.424
362.296	14.622
365.671	3.78
369.046	2.1
372.421	19.581
375.795	19.278
379.17	27.451
382.545	68.717
385.92	109.179
389.295	220.014
392.669	313.046
396.044	359.075
399.419	299.935
402.794	177.281
406.169	108.919
409.543	86.223
412.918	63.36
416.293	58.461
419.668	21.731
423.043	9.024
426.418	0.046
429.792	17.869
433.167	1.763
436.542	27.031
439.917	38.547
443.292	73.099
446.667	112.347
450.041	124.323
453.416	215.161
456.791	328.147
460.166	439.953
463.541	675.18
466.915	978.219
470.29	1365.4
473.665	1646.94
477.04	1694.92
480.415	1419.42
483.789	1002.12
487.164	672.46
490.539	419.494
493.914	252.559
497.289	157.885
500.664	89.202
504.038	45.775
507.413	25.479
510.788	8.207
514.163	1.509
517.538	17.524
520.912	58.359
524.287	69.661
527.662	59.19
531.037	24.808
534.412	1.025
537.787	7.234
541.161	19.339
544.536	18.555
547.911	48.171
551.286	96.032
554.661	139.541
558.036	185.445
561.41	235.803
564.785	356.265
568.16	599.218
571.535	1041.88
574.909	1994.77
578.284	2476.49
581.659	1517.67
585.034	932.726
588.409	604.849
591.784	390.311
595.159	268.505
598.533	179.803
601.908	139.269
605.283	102.215
608.658	67.727
612.033	56.657
615.407	46.319
618.782	36.126
622.157	36.127
625.532	45.31
628.907	45.648
632.281	17.68
635.656	23.636
639.031	9.307
642.406	2.081
645.781	11.766
649.156	0.788
652.53	0.733
655.905	3.645
659.28	1.902
662.655	8.326
666.03	1.39
669.404	0.72
672.779	6.314
676.154	7.858
679.529	14.864
682.904	31.892
686.279	27.985
689.653	28.636
693.028	16.452
696.403	31.171
699.778	20.976
703.153	39
706.528	29.428
709.902	46.487
713.277	59.81
716.652	37.331
720.027	54.957
723.402	59.81
726.776	61.444
730.151	62.031
733.526	49.842
736.901	58.108
740.276	55.472
743.651	35.707
747.025	43.642
750.4	48.016
753.775	16.308
757.15	6.529
760.525	1.444
763.899	0.63
767.274	15.25
770.649	13.555
774.024	4.569
777.399	4.896
780.773	16.901
784.148	4.514
787.523	5.523
790.898	5.804
794.273	11.601
797.648	15.451
801.022	13.416
804.397	32.516
807.772	5.717
811.147	16.899
814.522	27.691
817.896	22.062
821.271	23.216
824.646	14.812
828.021	17.126
831.396	18.268
834.771	14.874
838.145	19.135
841.52	9.93
844.895	13.981
848.27	21.858
851.645	13.342
855.019	10.793
858.394	12.895
861.769	9.022
865.144	6.326
868.519	6.815
871.894	15.261
875.268	16.132
878.643	9.048
882.018	12.708
885.393	0.97
888.768	14.412
892.143	0.771
895.517	7.171
898.892	3.719
902.267	1.071
905.642	11.927
909.017	20.134
912.391	31.534
915.766	34.387
919.141	50.852
922.516	72.738
925.891	124.749
929.266	150.642
932.64	197.591
936.015	275.394
939.39	348.197
942.765	468.426
946.14	581.292
949.514	647.086
952.889	620.697
956.264	488.013
959.639	358.024
963.014	245.423
966.388	153.257
969.763	107.446
973.138	83.881
976.513	63.427
979.888	48.119
983.263	31.904
986.637	31.319
990.012	20.621
993.387	3.121
996.762	6.303
1000.14	5.431
1003.51	3.801
1006.89	20.264
1010.26	21.232
1013.64	28.7
1017.01	76.746
1020.39	120.283
1023.76	156.839
1027.13	216.59
1030.51	320.337
1033.88	540.38
1037.26	859.886
1040.63	1215.93
1044.01	1374.15
1047.38	1130.18
1050.76	728.429
1054.13	471.98
1057.51	270.622
1060.88	174.006
1064.26	123.41
1067.63	98.033
1071.01	132.76
1074.38	185.269
1077.76	218.787
1081.13	243.536
1084.51	185.643
1087.88	144.77
1091.26	73.08
1094.63	62.534
1098.01	75.693
1101.38	94.475
1104.76	97.93
1108.13	113.782
1111.51	65.847
1114.88	39.434
1118.26	16.494
1121.63	6.003
1125.01	5.583
1128.38	6.211
1131.76	5.143
1135.13	11
1138.5	2.618
1141.88	30.502
1145.25	15.509
1148.63	38.177
1152	59.699
1155.38	46.683
1158.75	26.782
1162.13	7.621
1165.5	1.644
1168.88	12.312
1172.25	7.528
1175.63	10.883
1179	3.63
1182.38	2.013
1185.75	0.586
1189.13	3.946
1192.5	4.032
1195.88	14.448
1199.25	6.894
1202.63	17.647
1206	25.84
1209.38	12.956
1212.75	23.516
1216.12	19.246
1219.5	20.726
1222.88	26.844
1226.25	35.722
1229.62	30.867
1233	39.112
1236.37	33.054
1239.75	40.358
1243.12	21.841
1246.5	44.652
1249.87	39.069
1253.25	31.446
1256.62	19.394
1260	26.603
1263.37	18.992
1266.75	20.897
1270.12	34.448
1273.5	20.351
1276.87	10.438
1280.25	29.304
1283.62	1.906
1287	15.021
1290.37	8.822
1293.75	4.242
1297.12	1.966
1300.49	0.139
