Measurement: Raman, 532 nm, unoriented, Raman Data Processed
Mineral: Petersenite-(Ce)
Rruff sample: R120035
Ideal chemistry: Na_4_Ce_2_(CO_3_)_5_
Locality: Mont Saint-Hilaire, Rouville RCM, Montérégie, Québec, Canada
Source: Donald Doell
Description: Pale yellow or pink (depending on light source) hexagonal prismatic crystals, associated with albite and aegirine.
Raman shift (cm-1)	intensity
173.416	0
176.309	1.45532
179.202	0.274155
182.094	1.21367
184.987	7.06766
187.88	14.5971
190.773	20.3303
193.665	21.7943
196.558	26.9217
199.451	28.1263
202.343	36.841
205.236	44.4647
208.129	48.9375
211.021	54.5393
213.914	61.7428
216.807	66.8936
219.699	73.3606
222.592	81.2469
225.485	86.847
228.377	93.8414
231.27	100.922
234.163	108.503
237.056	113.41
239.948	122.317
242.841	129.138
245.734	136.834
248.626	141.171
251.519	145.36
254.412	153.143
257.305	154.282
260.197	159.551
263.09	158.546
265.983	154.123
268.875	147.229
271.768	136.706
274.661	123.978
277.553	104.845
280.446	85.8954
283.339	70.9632
286.232	59.7505
289.124	56.4489
292.017	52.7502
294.91	51.654
297.802	48.895
300.695	44.3449
303.588	40.0877
306.481	35.0478
309.373	31.3044
312.266	25.0554
315.159	22.368
318.051	17.9965
320.944	11.9812
323.837	8.88542
326.729	4.0508
329.622	0.212509
332.515	0.479668
335.408	1.67254
338.3	2.34399
341.193	2.26546
344.086	2.6727
346.978	2.51583
349.871	2.19806
352.764	1.20459
355.656	0.31041
358.549	1.04765
361.442	2.24369
364.334	3.0394
367.227	3.35605
370.12	4.03795
373.012	4.61196
375.905	6.6379
378.798	6.3503
381.691	7.18547
384.583	9.09909
387.476	8.75205
390.369	9.81847
393.261	10.6747
396.154	9.19494
399.047	9.03552
401.94	8.38347
404.832	7.92002
407.725	9.1505
410.618	8.44579
413.51	6.95821
416.403	5.93854
419.296	6.26478
422.188	5.58617
425.081	5.58386
427.974	5.24067
430.866	4.42155
433.759	4.91021
436.652	4.63198
439.545	4.75696
442.437	4.37289
445.33	4.77187
448.223	5.34665
451.115	4.97708
454.008	3.92811
456.901	3.31673
459.793	4.32464
462.686	3.79962
465.579	5.15723
468.472	2.41191
471.364	2.14478
474.257	2.72891
477.15	4.04766
480.042	2.41193
482.935	1.84197
485.828	2.60805
488.721	2.26032
491.613	2.43806
494.506	1.72816
497.399	1.27821
500.291	1.12399
503.184	0.433113
506.077	1.21978
508.969	1.24357
511.862	0.73288
514.755	1.69041
517.648	0.376518
520.54	0.111832
523.433	0.530251
526.326	1.22302
529.218	0.972725
532.111	0.574005
535.004	1.15341
537.896	0.512878
540.789	1.66306
543.682	0.096779
546.575	0.282341
549.467	1.04266
552.36	1.21216
555.253	0.238083
558.145	0.999962
561.038	1.99597
563.931	0.79361
566.823	0.910927
569.716	0.766418
572.609	1.52724
575.502	1.53934
578.394	0.130981
581.287	1.79891
584.18	0.085693
587.072	0.961288
589.965	1.77836
592.858	1.83388
595.75	0.719185
598.643	1.0736
601.536	0.79747
604.428	0.263161
607.321	1.82346
610.214	0.559624
613.107	1.6232
615.999	0.7015
618.892	1.34253
621.785	0.41925
624.677	0.070229
627.57	0.984192
630.463	1.05557
633.356	0.402618
636.248	0.631752
639.141	0.384712
642.034	1.27892
644.926	0.299126
647.819	0.346642
650.712	0.095779
653.604	0.650917
656.497	0.528145
659.39	0.190964
662.283	0.097153
665.175	0.352272
668.068	1.33124
670.961	2.82421
673.853	4.60073
676.746	7.92211
679.639	10.574
682.531	14.6468
685.424	22.871
688.317	32.8692
691.21	40.1847
694.102	54.1756
696.995	60.0043
699.888	48.0651
702.78	42.2042
705.673	44.4995
708.566	49.9585
711.458	59.9796
714.351	66.1411
717.244	58.7903
720.136	35.984
723.029	20.7642
725.922	10.7832
728.815	9.2292
731.707	7.59641
734.6	9.11133
737.493	4.6097
740.385	5.30357
743.278	8.35745
746.171	8.45023
749.063	7.47809
751.956	7.05833
754.849	3.30412
757.742	3.77358
760.634	2.3974
763.527	3.72969
766.42	3.5083
769.312	3.26869
772.205	4.00833
775.098	4.98216
777.99	5.10262
780.883	6.8291
783.776	8.51889
786.669	8.16299
789.561	7.81311
792.454	7.49521
795.347	8.03473
798.239	7.46664
801.132	6.82744
804.025	5.30202
806.918	6.63309
809.81	6.14902
812.703	6.39204
815.596	4.38933
818.488	3.51533
821.381	3.82138
824.274	3.16664
827.166	3.65476
830.059	2.39023
832.952	1.32712
835.845	1.49412
838.737	0.920914
841.63	0.136856
844.523	1.95756
847.415	0.648926
850.308	1.0726
853.201	1.45479
856.093	4.80042
858.986	6.92598
861.879	6.65497
864.771	4.52718
867.664	3.61754
870.557	3.09151
873.45	6.62015
876.342	8.31631
879.235	2.39143
882.128	1.10329
885.02	1.53426
887.913	0.358109
890.806	0.562256
893.698	0.342285
896.591	0.560242
899.484	2.03503
902.377	2.25455
905.269	5.00134
908.162	6.27524
911.055	6.6398
913.947	11.5523
916.84	11.304
919.733	14.7389
922.625	15.3673
925.518	19.404
928.411	21.208
931.304	24.7866
934.196	29.049
937.089	32.3587
939.982	37.3907
942.875	42.4679
945.767	48.0749
948.66	53.1889
951.553	59.4351
954.445	64.2314
957.338	66.3029
960.231	69.4636
963.123	74.0094
966.016	78.0496
968.909	79.929
971.802	75.3538
974.694	74.3786
977.587	71.8713
980.48	71.1169
983.372	63.6699
986.265	59.5775
989.158	52.5277
992.05	48.9946
994.943	44.3529
997.836	37.9823
1000.73	32.2333
1003.62	29.9495
1006.51	24.2126
1009.41	21.5507
1012.3	16.7615
1015.19	13.0126
1018.09	9.72461
1020.98	7.74994
1023.87	6.52701
1026.76	3.64099
1029.66	1.87827
1032.55	1.16235
1035.44	1.71759
1038.33	2.31561
1041.23	0.444
1044.12	0.694183
1047.01	2.29245
1049.9	10.6675
1052.8	27.565
1055.69	53.359
1058.58	92.814
1061.47	160.016
1064.37	250.183
1067.26	362.871
1070.15	531.052
1073.05	720.045
1075.94	790.786
1078.83	666.188
1081.72	495.477
1084.62	353.503
1087.51	250.444
1090.4	177.28
1093.3	142.92
1096.19	107.318
1099.08	53.6459
1101.97	17.9551
1104.87	4.38431
1107.76	1.14288
1110.65	0.631332
1113.54	2.31473
1116.44	1.38376
1119.33	0.450241
1122.22	0.07811
1125.12	1.46123
1128.01	1.45869
1130.9	1.95956
1133.79	2.31688
1136.68	4.11873
1139.58	4.43709
1142.47	6.39188
1145.36	5.53288
1148.26	7.20714
1151.15	7.94037
1154.04	8.96761
1156.93	9.48651
1159.83	10.0963
1162.72	11.126
1165.61	10.2247
1168.51	10.3241
1171.4	9.60124
1174.29	9.32315
1177.18	7.59796
1180.08	10.0136
1182.97	9.62212
1185.86	8.52974
1188.75	9.00356
1191.65	8.47241
1194.54	6.72201
1197.43	7.56734
1200.33	8.4588
1203.22	8.29367
1206.11	8.41261
1209	8.35741
1211.9	7.82797
1214.79	7.74793
1217.68	6.7287
1220.57	8.58264
1223.47	7.42172
1226.36	7.65668
1229.25	6.78339
1232.14	5.62424
1235.04	5.56769
1237.93	5.08687
1240.82	4.37456
1243.71	4.84953
1246.61	4.63895
1249.5	3.34393
1252.39	4.24048
1255.29	2.75125
1258.18	2.0816
1261.07	2.89078
1263.96	3.18016
1266.86	4.2578
1269.75	1.06552
1272.64	2.87953
1275.54	0.799026
1278.43	1.10078
1281.32	0.413147
1284.21	1.18829
1287.11	0.496925
1290	0.147354
1292.89	3.92593
1295.78	2.54791
1298.68	0.155174
1301.57	1.3072
