Measurement: Raman, 780 nm, unoriented, Raman Data Processed
Mineral: Petterdite
Rruff sample: R110019
Ideal chemistry: PbCr_2_(CO_3_)_2_(OH)_4_H_2_O
Locality: Red Lead Mine, Dundas mineral field, Zeehan district, Tasmania, Australia
Source: Bob Jenkins
Description: Pale purple to mauve micro coating
Raman shift (cm-1)	intensity
172.077	0
174.97	0.100586
177.862	16.0837
180.755	32.1287
183.648	53.0807
186.541	76.5137
189.433	99.7113
192.326	146.926
195.219	173.49
198.111	183.415
201.004	201.824
203.897	227.36
206.789	234.622
209.682	213.385
212.575	163.587
215.468	106.019
218.36	67.3966
221.253	39.2317
224.146	20.7676
227.038	4.43738
229.931	1.01721
232.824	2.95373
235.716	5.43286
238.609	5.77722
241.502	4.77502
244.394	1.79468
247.287	11.7539
250.18	28.027
253.073	31.3153
255.965	37.6699
258.858	59.6539
261.751	67.9817
264.643	68.5123
267.536	67.6094
270.429	63.7882
273.322	60.0411
276.214	70.5048
279.107	77.1105
282	99.4354
284.892	126.378
287.785	151.91
290.678	184.469
293.57	219.487
296.463	230.894
299.356	218.725
302.248	167.413
305.141	115.593
308.034	64.955
310.927	38.4838
313.819	19.7701
316.712	19.3556
319.605	25.3535
322.497	39.9839
325.39	56.2261
328.283	46.6848
331.175	43.5478
334.068	64.8804
336.961	107.032
339.854	99.2168
342.746	81.007
345.639	100.399
348.532	118.935
351.424	131.566
354.317	189.26
357.21	243.55
360.103	216.561
362.995	125.992
365.888	69.765
368.781	60.4764
371.673	61.1977
374.566	92.6959
377.459	108.843
380.351	78.724
383.244	43.1469
386.137	30.1415
389.029	24.484
391.922	27.6541
394.815	35.3507
397.708	55.417
400.6	58.0958
403.493	27.4337
406.386	10.844
409.278	0.480713
412.171	2.13782
415.064	6.08435
417.957	6.11169
420.849	1.76929
423.742	0.009888
426.635	0.964844
429.527	4.11316
432.42	5.70435
435.313	5.55322
438.205	4.26856
441.098	0.032959
443.991	7.06982
446.884	10.0284
449.776	14.8261
452.669	22.5289
455.562	25.1761
458.454	32.5308
461.347	32.0431
464.24	25.0064
467.132	17.392
470.025	6.33911
472.918	2.91028
475.81	5.08337
478.703	1.4552
481.596	6.49683
484.489	11.8838
487.381	14.9772
490.274	29.5435
493.167	27.2915
496.059	45.2537
498.952	44.9951
501.845	52.4325
504.738	76.2481
507.63	102.211
510.523	142.597
513.416	184.949
516.308	239.098
519.201	280.495
522.094	335.187
524.986	376.532
527.879	396.245
530.772	365.183
533.664	298.657
536.557	236.375
539.45	171.021
542.343	134.114
545.235	96.0964
548.128	69.0746
551.021	52.6759
553.913	35.198
556.806	29.8019
559.699	28.3754
562.591	20.1427
565.484	6.29736
568.377	13.2699
571.27	12.3638
574.162	8.70801
577.055	16.7124
579.948	7.50513
582.84	7.0343
585.733	2.08075
588.626	0.92218
591.519	0.580994
594.411	0.729126
597.304	5.4577
600.197	12.6374
603.089	23.3762
605.982	25.3724
608.875	37.7315
611.768	49.487
614.66	47.4352
617.553	45.6187
620.446	44.645
623.338	40.1471
626.231	29.6122
629.124	21.0861
632.016	13.8587
634.909	12.3322
637.802	4.1488
640.694	10.8056
643.587	1.90179
646.48	4.68402
649.373	5.29199
652.265	3.89197
655.158	0.082764
658.051	4.04083
660.943	3.26422
663.836	2.76996
666.729	0.657043
669.621	1.56311
672.514	7.23822
675.407	3.54956
678.3	5.76135
681.192	6.42462
684.085	10.621
686.978	15.2195
689.87	13.7836
692.763	14.2358
695.656	22.9958
698.548	18.8646
701.441	34.3601
704.334	31.8802
707.227	37.4917
710.119	29.595
713.012	22.2906
715.905	21.8466
718.797	15.5059
721.69	15.4444
724.583	10.8524
727.476	6.73224
730.368	8.43671
733.261	7.75745
736.154	5.74725
739.046	4.40625
741.939	0.87854
744.832	5.89221
747.724	5.51428
750.617	5.60669
753.51	3.39319
756.403	2.44611
759.295	6.18835
762.188	7.08044
765.081	4.26599
767.973	4.12091
770.866	4.01569
773.759	6.84729
776.651	3.04071
779.544	1.07257
782.437	8.94617
785.33	5.33722
788.222	5.00433
791.115	18.6461
794.008	19.0606
796.9	25.2148
799.793	29.9824
802.686	33.4868
805.578	44.1212
808.471	57.0436
811.364	63.1984
814.256	83.8895
817.149	110.709
820.042	143.368
822.935	187.798
825.827	234.471
828.72	299.848
831.613	363.179
834.505	446.862
837.398	519.294
840.291	508.018
843.183	402.565
846.076	308.096
848.969	260.745
851.862	223.215
854.754	197.334
857.647	165.087
860.54	134.91
863.432	104.944
866.325	92.3947
869.218	69.6568
872.111	53.1643
875.003	42.9924
877.896	35.3079
880.789	25.8716
883.681	19.4368
886.574	12.4745
889.467	7.15289
892.359	5.28015
895.252	0.92218
898.145	0.246521
901.038	4.34314
903.93	3.21875
906.823	1.51599
909.716	0.230652
912.608	2.68402
915.501	0.157898
918.394	6.39728
921.286	0.903748
924.179	1.03449
927.072	10.9778
929.965	8.11322
932.857	11.464
935.75	16.6211
938.643	11.9294
941.535	6.48633
944.428	10.2731
947.321	11.0023
950.213	9.53046
953.106	10.1649
955.999	5.90527
958.891	0.079712
961.784	5.66785
964.677	0.255066
967.57	5.52423
970.462	3.37115
973.355	0.690491
976.248	1.18835
979.14	2.57599
982.033	0.909058
984.926	5.55042
987.818	0.736389
990.711	2.94897
993.604	6.23309
996.497	4.01672
999.389	2.20068
1002.28	2.53729
1005.17	3.71124
1008.07	0.68573
1010.96	4.2478
1013.85	7.90204
1016.75	8.19397
1019.64	5.19311
1022.53	5.7113
1025.42	3.32703
1028.32	6.78235
1031.21	4.91455
1034.1	9.17206
1036.99	5.77191
1039.89	6.4325
1042.78	12.9964
1045.67	9.86951
1048.57	15.1199
1051.46	19.1747
1054.35	19.1415
1057.24	24.1658
1060.14	28.0014
1063.03	33.8171
1065.92	39.3843
1068.81	51.2441
1071.71	71.3781
1074.6	82.0095
1077.49	111.92
1080.38	133.681
1083.28	154.83
1086.17	154.167
1089.06	137.127
1091.96	101.713
1094.85	78.7436
1097.74	51.9471
1100.63	32.6609
1103.53	22.8414
1106.42	20.6213
1109.31	16.7288
1112.2	10.4205
1115.1	9.12372
1117.99	9.24255
1120.88	3.39697
1123.78	4.75903
1126.67	0.72821
1129.56	4.45355
1132.45	0.794373
1135.35	3.6087
1138.24	2.58148
1141.13	4.45746
1144.02	1.4621
1146.92	0.929382
1149.81	2.78449
1152.7	2.52112
1155.6	0.186279
1158.49	0.878967
1161.38	0.266846
1164.27	4.25354
1167.17	6.815
1170.06	5.61554
1172.95	10.7498
1175.84	5.98419
1178.74	4.35407
1181.63	5.0603
1184.52	0.387146
1187.41	6.88452
1190.31	8.34277
1193.2	6.42731
1196.09	11.392
1198.99	5.94983
1201.88	6.12952
1204.77	6.21637
1207.66	8.43677
1210.56	2.80005
1213.45	0.317566
1216.34	2.80695
1219.23	2.2912
1222.13	2.03656
1225.02	0.548218
1227.91	9.09332
1230.81	4.73553
1233.7	4.06934
1236.59	3.28723
1239.48	0.323608
1242.38	2.7464
1245.27	0.836304
1248.16	2.92487
1251.05	9.4035
1253.95	2.37445
1256.84	5.58722
1259.73	1.53095
1262.62	2.57526
1265.52	4.17468
1268.41	4.05511
1271.3	3.26025
1274.2	7.14923
1277.09	3.6839
1279.98	3.01617
1282.87	4.58917
1285.77	0
