Measurement: Raman, 532 nm, unoriented, Raman Data Processed
Mineral: Petterdite
Rruff sample: R110019
Ideal chemistry: PbCr_2_(CO_3_)_2_(OH)_4_H_2_O
Locality: Red Lead Mine, Dundas mineral field, Zeehan district, Tasmania, Australia
Source: Bob Jenkins
Description: Pale purple to mauve micro coating
Raman shift (cm-1)	intensity
181.415	0
184.307	0.641296
187.2	0.088379
190.093	7.47955
192.986	8.83013
195.878	7.72246
198.771	11.9983
201.664	15.4054
204.556	11.8347
207.449	15.6151
210.342	16.7423
213.234	13.0252
216.127	11.5746
219.02	7.80647
221.912	6.63417
224.805	5.41162
227.698	3.16218
230.591	3.61936
233.483	0.339622
236.376	0.627998
239.269	0.519585
242.161	2.29149
245.054	0.849205
247.947	2.38235
250.839	1.07663
253.732	5.89681
256.625	4.44098
259.518	3.92001
262.41	5.49789
265.303	5.58086
268.196	4.08908
271.088	5.47951
273.981	3.25181
276.874	2.53552
279.767	2.69636
282.659	6.57207
285.552	7.17446
288.445	8.61144
291.337	14.7944
294.23	15.4104
297.123	19.0985
300.015	15.5346
302.908	12.4936
305.801	6.2088
308.693	5.17491
311.586	1.37264
314.479	2.37393
317.372	3.22134
320.264	1.62408
323.157	5.42497
326.05	8.56699
328.942	5.07517
331.835	7.86584
334.728	11.4305
337.62	15.8334
340.513	13.5941
343.406	12.6411
346.299	16.4541
349.191	19.0516
352.084	25.9975
354.977	32.5358
357.869	40.5149
360.762	33.0856
363.655	22.1968
366.548	18.3949
369.44	17.5914
372.333	26.5463
375.226	30.5354
378.118	26.0409
381.011	12.748
383.904	7.17738
386.796	6.44573
389.689	4.01783
392.582	5.1062
395.474	11.2341
398.367	8.90005
401.26	12.4895
404.153	4.58231
407.045	1.9125
409.938	0.930878
412.831	0.516708
415.723	1.34627
418.616	0.582138
421.509	0.794083
424.401	0.158394
427.294	1.26214
430.187	0.345596
433.08	0.071495
435.972	0.077682
438.865	0.287506
441.758	0.575974
444.65	1.56169
447.543	2.5729
450.436	1.64167
453.329	1.85482
456.221	4.57407
459.114	2.81235
462.007	6.50597
464.899	2.53813
467.792	4.02893
470.685	3.25716
473.577	0.687874
476.47	1.00591
479.363	1.59621
482.255	2.35333
485.148	3.01926
488.041	4.77717
490.934	3.21408
493.826	3.19148
496.719	4.26916
499.612	5.67696
502.504	6.19337
505.397	5.82458
508.29	8.01006
511.183	11.7408
514.075	17.3979
516.968	20.3371
519.861	24.9376
522.753	28.7939
525.646	35.637
528.539	35.4657
531.431	33.9225
534.324	24.3675
537.217	19.3044
540.11	16.7182
543.002	12.343
545.895	8.6805
548.788	8.04733
551.68	4.39546
554.573	4.00407
557.466	6.06234
560.358	3.16575
563.251	2.17827
566.144	1.05242
569.037	4.14942
571.929	1.87341
574.822	3.12784
577.715	3.42493
580.607	1.45738
583.5	1.92316
586.393	0.904839
589.285	0.59687
592.178	0.197975
595.071	1.60695
597.963	0.754784
600.856	1.22734
603.749	3.39442
606.642	2.56304
609.534	3.709
612.427	6.18201
615.32	4.51803
618.212	3.36807
621.105	4.30248
623.998	3.13363
626.89	3.99185
629.783	2.41715
632.676	1.5809
635.569	1.87991
638.461	3.29195
641.354	3.0162
644.247	1.80466
647.139	1.4296
650.032	2.55799
652.925	0.61953
655.817	1.20154
658.71	0.613922
661.603	2.90685
664.496	0.288956
667.388	2.01867
670.281	0.324249
673.174	1.86079
676.066	2.94251
678.959	3.59176
681.852	2.49737
684.745	4.65797
687.637	3.64618
690.53	6.136
693.423	7.00777
696.315	6.41521
699.208	4.93541
702.101	3.82877
704.993	6.02825
707.886	7.71765
710.779	6.29436
713.672	4.22003
716.564	2.73584
719.457	3.02999
722.35	1.40475
725.242	1.39803
728.135	3.28216
731.028	0.935974
733.92	2.14711
736.813	0.814095
739.706	1.07814
742.598	0.082649
745.491	1.41373
748.384	2.28909
751.277	1.67853
754.169	0.280975
757.062	2.22481
759.955	2.12752
762.847	0.973877
765.74	1.20931
768.633	0.052956
771.525	1.93809
774.418	1.76331
777.311	0.657257
780.204	3.17246
783.096	4.11192
785.989	7.50485
788.882	9.45674
791.774	11.0679
794.667	17.2432
797.56	17.7927
800.452	22.9504
803.345	26.4905
806.238	32.5266
809.131	40.5219
812.023	49.2305
814.916	63.5303
817.809	85.2532
820.701	116.519
823.594	158.876
826.487	225.898
829.38	309.904
832.272	417.103
835.165	521.872
838.058	570.19
840.95	490.944
843.843	352.645
846.736	259.506
849.628	201.017
852.521	164.428
855.414	131.213
858.307	99.8195
861.199	72.1876
864.092	52.6111
866.985	38.5282
869.877	28.6991
872.77	25.5313
875.663	17.3681
878.555	14.7699
881.448	9.72957
884.341	11.5348
887.234	7.42693
890.126	4.32628
893.019	1.16415
895.912	1.94698
898.804	0.228058
901.697	1.15752
904.59	2.19632
907.482	2.74507
910.375	0.462418
913.268	0.059006
916.16	0.319199
919.053	1.61536
921.946	0.9216
924.839	0.361267
927.731	1.54546
930.624	0.15274
933.517	1.05252
936.409	0.538811
939.302	0.709404
942.195	3.12074
945.087	2.29409
947.98	0.340416
950.873	1.22739
953.766	1.50792
956.658	0.262054
959.551	1.22543
962.444	3.58639
965.336	0.90979
968.229	4.64607
971.122	2.53333
974.014	4.16444
976.907	3.71896
979.8	4.146
982.693	4.73504
985.585	4.66768
988.478	2.29453
991.371	5.27249
994.263	3.92837
997.156	2.2745
1000.05	3.51229
1002.94	3.88695
1005.83	4.27489
1008.73	0.274078
1011.62	3.60855
1014.51	2.88883
1017.4	0.895737
1020.3	3.12287
1023.19	2.94183
1026.08	3.32281
1028.98	3.40666
1031.87	0.176506
1034.76	2.15326
1037.65	2.89465
1040.55	0.259048
1043.44	1.2105
1046.33	0.4533
1049.22	4.22845
1052.12	5.45936
1055.01	5.96359
1057.9	7.11311
1060.8	6.33486
1063.69	9.44373
1066.58	7.74847
1069.47	11.1923
1072.37	14.4291
1075.26	15.2275
1078.15	19.4003
1081.04	21.3985
1083.94	22.042
1086.83	23.6581
1089.72	20.3168
1092.62	14.815
1095.51	13.6258
1098.4	9.71574
1101.29	8.9043
1104.19	8.07442
1107.08	5.50436
1109.97	5.06487
1112.86	2.55582
1115.76	4.35358
1118.65	5.06799
1121.54	4.99556
1124.43	1.62966
1127.33	0.778229
1130.22	3.93132
1133.11	1.30608
1136.01	1.77313
1138.9	0.44416
1141.79	0.477425
1144.68	1.44951
1147.58	0.142921
1150.47	1.24316
1153.36	2.08237
1156.26	0.932602
1159.15	1.25597
1162.04	2.65394
1164.93	2.51546
1167.83	0.4207
1170.72	1.73952
1173.61	2.34975
1176.5	4.18265
1179.4	2.15171
1182.29	4.34512
1185.18	5.52733
1188.07	3.10195
1190.97	5.36554
1193.86	4.39924
1196.75	1.27844
1199.64	5.97508
1202.54	5.27036
1205.43	2.46883
1208.32	4.60726
1211.22	3.77731
1214.11	5.56935
1217	1.57274
1219.89	5.40034
1222.79	4.45671
1225.68	0.876495
1228.57	0.746758
1231.46	0.162865
1234.36	0.251877
1237.25	0.655746
1240.14	0.9963
1243.04	2.29224
1245.93	1.83368
1248.82	0.287422
1251.71	0.135185
1254.61	1.24199
1257.5	3.39517
1260.39	1.20979
1263.29	1.59583
1266.18	3.0829
1269.07	1.50208
1271.96	3.14039
1274.86	2.14248
1277.75	2.34154
1280.64	0.336571
1283.53	0.511078
1286.43	0.460526
1289.32	1.91779
1292.21	3.24711
1295.1	1.8461
1298	1.27867
1300.89	0.211891
