Measurement: Raman, 532 nm, unoriented, Raman Data Processed
Mineral: Pezzottaite
Rruff sample: R060583
Ideal chemistry: CsLiBe_2_Al_2_Si_6_O_18_
Locality: Ambatovita, Mandrosonoro area, Fianarantsoa Province, Madagascar
Source: Michael Scott
Description: Pink thin tabular hexagonal plate
Raman shift (cm-1)	intensity
89.7832	0
93.158	75.0056
96.5328	68.3237
99.9077	110.569
103.282	219.402
106.657	529.322
110.032	1393.72
113.407	2878.95
116.782	2167.41
120.157	809.618
123.531	365.944
126.906	225.38
130.281	168.412
133.656	175.859
137.031	185.049
140.405	180.554
143.78	137.614
147.155	94.5784
150.53	43.0767
153.905	0.276855
157.28	28.0991
160.654	31.1814
164.029	26.0252
167.404	119.395
170.779	189.429
174.154	218.497
177.528	96.8347
180.903	23.1802
184.278	21.3818
187.653	39.7402
191.028	128.591
194.403	219.247
197.777	107.843
201.152	66.9634
204.527	120.339
207.902	72.5129
211.277	96.1248
214.651	235.556
218.026	241.67
221.401	87.0315
224.776	101.222
228.151	237.464
231.525	427.496
234.9	237.39
238.275	134.686
241.65	202.12
245.025	478.752
248.4	490.142
251.774	178.636
255.149	38.0005
258.524	23.7429
261.899	99.2205
265.274	277.305
268.649	154.713
272.023	41.6467
275.398	23.9277
278.773	9.52954
282.148	9.40308
285.523	9.83447
288.897	25.1108
292.272	73.3457
295.647	69.8728
299.022	39.8049
302.397	81.9375
305.772	172.763
309.146	187.503
312.521	146.282
315.896	152.828
319.271	218.768
322.646	376.047
326.02	671.232
329.395	593.162
332.77	191.747
336.145	61.7449
339.52	17.637
342.894	22.5623
346.269	11.0686
349.644	2.40894
353.019	3.06616
356.394	27.3435
359.769	62.2827
363.143	60.5571
366.518	63.0857
369.893	71.5276
373.268	58.6606
376.643	28.7922
380.017	12.2146
383.392	20.0332
386.767	51.8044
390.142	82.8804
393.517	114.25
396.892	116.576
400.266	124.753
403.641	167.16
407.016	105.431
410.391	18.2363
413.766	0.470947
417.14	35.324
420.515	4.71802
423.89	15.1992
427.265	15.6597
430.64	3.00732
434.014	35.8135
437.389	48.0051
440.764	48.1194
444.139	66.8076
447.514	124.439
450.889	232.385
454.263	362.141
457.638	450.199
461.013	282.105
464.388	98.6013
467.763	26.6873
471.137	24.5176
474.512	32.4768
477.887	42.2666
481.262	67.7669
484.637	126.512
488.012	117.739
491.386	107.557
494.761	125.137
498.136	125.134
501.511	48.3901
504.886	12.3401
508.26	20.0879
511.635	33.5559
515.01	52.2378
518.385	93.1404
521.76	156.776
525.135	202.734
528.509	142.542
531.884	85.7505
535.259	64.6284
538.634	68.0347
542.009	83.0381
545.384	114.5
548.758	116.951
552.133	87.0439
555.508	93.5454
558.883	133.1
562.258	157.156
565.632	142.647
569.007	109.647
572.382	86.7717
575.757	85.6977
579.132	78.1919
582.506	65.5325
585.881	48.0139
589.256	36.3511
592.631	35.625
596.006	28.0383
599.381	26.6148
602.755	21.0337
606.13	22.9861
609.505	25.8374
612.88	11.9477
616.255	1.04688
619.63	6.43604
623.004	13.1174
626.379	13.5442
629.754	6.42896
633.129	3.75024
636.504	4.39624
639.878	13.9668
643.253	28.0525
646.628	43.0554
650.003	60.4766
653.378	80.3269
656.752	95.2803
660.127	134.097
663.502	200.95
666.877	321.192
670.252	551.064
673.626	973.439
677.001	1627.08
680.376	2819.2
683.751	4562.42
687.126	4495.44
690.501	2202.88
693.875	1035.58
697.25	573.504
700.625	357.099
704	238.868
707.375	173.923
710.75	128.577
714.124	98.1404
717.499	80.7351
720.874	62.1248
724.249	46.698
727.624	48.062
730.998	25.7625
734.373	19.5813
737.748	18.8357
741.123	20.6177
744.498	16.3501
747.872	20.7886
751.247	25.9002
754.622	9.56177
757.997	10.366
761.372	9.1919
764.747	1.74341
768.121	3.68042
771.496	10.0181
774.871	4.36987
778.246	8.04932
781.621	2.08447
784.995	4.85229
788.37	3.17456
791.745	2.73706
795.12	2.71265
798.495	4.21021
801.87	14.2705
805.244	23.4302
808.619	31.7012
811.994	35.0059
815.369	40.8679
818.744	50.9133
822.119	51.4236
825.493	39.8706
828.868	36.3179
832.243	24.2485
835.618	14.3604
838.993	21.5095
842.367	24.3655
845.742	28.7188
849.117	18.1118
852.492	19.3181
855.867	25.6897
859.241	30.144
862.616	29.9839
865.991	23.0523
869.366	19.1497
872.741	25.822
876.115	19.2605
879.49	18.5
882.865	15.2104
886.24	12.0017
889.615	15.137
892.99	17.459
896.364	13.4705
899.739	13.0727
903.114	22.1807
906.489	24.9414
909.864	27.5505
913.239	41.103
916.613	40.3665
919.988	42.9082
923.363	51.3845
926.738	55.9033
930.113	51.6504
933.487	41.5073
936.862	21.6157
940.237	9.36426
943.612	19.3003
946.987	13.1445
950.361	25.1843
953.736	21.5972
957.111	3.63208
960.486	16.5117
963.861	10.2642
967.236	16.6226
970.61	10.8574
973.985	8.24829
977.36	6.33862
980.735	31.6572
984.11	85.7083
987.485	172.074
990.859	251.779
994.234	288.812
997.609	234.496
1000.98	164.952
1004.36	103.365
1007.73	67.2935
1011.11	40.9463
1014.48	26.9995
1017.86	43.3315
1021.23	67.3335
1024.61	90.4814
1027.98	89.1538
1031.36	69.3023
1034.73	130.122
1038.11	213.872
1041.48	306.754
1044.86	347.194
1048.23	361.856
1051.61	465.165
1054.98	626.384
1058.36	766.596
1061.73	729.572
1065.11	532.709
1068.48	334.782
1071.86	201.342
1075.23	143.894
1078.6	141.404
1081.98	193.846
1085.35	338.648
1088.73	604.492
1092.1	1037.66
1095.48	1688.09
1098.85	2450.37
1102.23	2697.2
1105.6	2174.57
1108.98	1477.73
1112.35	915.002
1115.73	539.038
1119.1	319.654
1122.48	190.075
1125.85	111.532
1129.23	71.1401
1132.6	62.1065
1135.98	71.2788
1139.35	71.8872
1142.73	55.4194
1146.1	20.1455
1149.48	3.521
1152.85	3.01074
1156.22	5.00977
1159.6	11.3281
1162.97	14.8066
1166.35	12.4517
1169.72	5.61035
1173.1	18.3667
1176.47	45.5293
1179.85	64.1148
1183.22	65.7583
1186.6	64.2022
1189.97	52.9839
1193.35	54.0684
1196.72	52.0308
1200.1	37.4858
1203.47	29.9292
1206.85	34.8125
1210.22	36.9307
1213.6	27.9595
1216.97	29.9165
1220.35	24.6836
1223.72	18.6113
1227.1	3.56494
1230.47	3.07519
1233.85	6.55762
1237.22	11.4639
1240.6	19.4009
1243.97	22.3462
1247.35	24.3154
1250.72	35.3423
1254.1	33.2378
1257.47	35.001
1260.85	33.4551
1264.22	21.8887
1267.59	12.8252
1270.97	10.4898
1274.34	20.6729
1277.72	12.4038
1281.09	11.021
1284.47	13.71
1287.84	11.332
1291.22	8.3794
1294.59	17.0591
1297.97	8.81055
1301.34	0.080078
