Measurement: Raman, 780 nm, unoriented, Raman Data Processed
Mineral: Pezzottaite
Rruff sample: R060583
Ideal chemistry: CsLiBe_2_Al_2_Si_6_O_18_
Locality: Ambatovita, Mandrosonoro area, Fianarantsoa Province, Madagascar
Source: Michael Scott
Description: Pink thin tabular hexagonal plate
Raman shift (cm-1)	intensity
91.5599	0
94.9347	35.2526
98.3096	0.098694
101.684	10.0496
105.059	40.3732
108.434	154.471
111.809	388.088
115.184	522.839
118.558	216.222
121.933	52.7371
125.308	24.7339
128.683	13.5653
132.058	14.9191
135.433	22.5418
138.807	19.4352
142.182	17.5213
145.557	6.74167
148.932	2.28333
152.307	3.40888
155.681	3.32941
159.056	1.87463
162.431	9.064
165.806	26.2821
169.181	49.4464
172.555	63.8783
175.93	62.8862
179.305	43.7606
182.68	39.8017
186.055	40.841
189.43	46.7364
192.804	66.1988
196.179	70.3492
199.554	48.8107
202.929	51.2487
206.304	56.2441
209.678	46.574
213.053	62.3781
216.428	79.8399
219.803	60.4411
223.178	39.1425
226.553	51.0676
229.927	84.9834
233.302	102.148
236.677	52.681
240.052	43.3864
243.427	63.3063
246.801	112.107
250.176	75.2665
253.551	33.0701
256.926	17.1558
260.301	20.1275
263.675	43.2623
267.05	63.0676
270.425	24.4434
273.8	12.2489
277.175	2.87895
280.55	2.2484
283.924	2.08675
287.299	0.725815
290.674	7.79257
294.049	15.0735
297.424	8.16226
300.798	7.33211
304.173	16.494
307.548	29.0267
310.923	28.4273
314.298	24.8484
317.673	32.0252
321.047	53.6749
324.422	96.7488
327.797	147.857
331.172	80.8747
334.547	23.4713
337.921	6.99174
341.296	0.671143
344.671	0.816849
348.046	0.566116
351.421	2.39665
354.796	0.266388
358.17	4.76398
361.545	8.16418
364.92	5.9055
368.295	8.9921
371.67	13.0095
375.044	7.80129
378.419	3.83046
381.794	2.43649
385.169	4.53224
388.544	11.9593
391.918	15.4288
395.293	19.8599
398.668	19.9507
402.043	28.6929
405.418	31.3595
408.793	19.8323
412.167	5.63921
415.542	4.08441
418.917	6.6138
422.292	0.50531
425.667	2.56445
429.041	1.32381
432.416	2.08162
435.791	8.40865
439.166	10.511
442.541	10.0691
445.915	16.1245
449.29	28.9718
452.665	51.4974
456.04	79.5444
459.415	85.7866
462.789	42.8391
466.164	16.7573
469.539	8.30246
472.914	8.7289
476.289	12.0382
479.664	14.5292
483.038	22.121
486.413	26.9878
489.788	23.4459
493.163	23.8829
496.538	29.0995
499.913	21.1346
503.287	7.10396
506.662	0.824188
510.037	1.12341
513.412	1.33574
516.787	4.01094
520.161	10.1986
523.536	17.4513
526.911	18.7166
530.286	11.0984
533.661	4.42688
537.035	4.48509
540.41	7.30597
543.785	7.52979
547.16	11.753
550.535	11.2092
553.909	9.75671
557.284	14.5098
560.659	20.4857
564.034	23.1215
567.409	20.7522
570.784	15.2592
574.158	13.2707
577.533	13.8243
580.908	12.3012
584.283	8.41313
587.658	4.31404
591.033	2.91238
594.407	2.5038
597.782	2.92448
601.157	3.07791
604.532	3.89323
607.907	5.36667
611.281	2.07172
614.656	0.12204
618.031	1.31305
621.406	0.742599
624.781	1.21133
628.155	0.556458
631.53	1.0801
634.905	0.959404
638.28	0.929016
641.655	5.25866
645.029	6.31468
648.404	8.97028
651.779	10.8984
655.154	14.0625
658.529	18.529
661.904	25.9152
665.278	37.2679
668.653	64.0088
672.028	108.642
675.403	176.532
678.778	298.013
682.153	534.153
685.527	798.508
688.902	590.817
692.277	268.011
695.652	132.651
699.027	78.5409
702.401	49.3809
705.776	32.8897
709.151	24.6036
712.526	18.5874
715.901	15.03
719.275	12.1275
722.65	8.51591
726.025	6.21485
729.4	4.10631
732.775	2.90752
736.149	2.64561
739.524	2.22409
742.899	1.48932
746.274	0.661438
749.649	0.318153
753.024	0.410843
756.398	0.810204
759.773	0.661552
763.148	0.745682
766.523	0.912704
769.898	1.29732
773.273	1.06373
776.647	0.307671
780.022	0.563866
783.397	0.504913
786.772	1.08083
790.146	1.15792
793.521	1.10371
796.896	1.14187
800.271	2.25802
803.646	2.56262
807.021	2.82016
810.395	3.0895
813.77	4.01415
817.145	4.443
820.52	5.52018
823.895	5.29793
827.269	5.03477
830.644	4.64231
834.019	2.52644
837.394	3.57519
840.769	3.25468
844.144	3.47317
847.518	3.13625
850.893	2.70722
854.268	3.36513
857.643	3.73823
861.018	2.58684
864.393	3.71156
867.767	3.06924
871.142	1.98682
874.517	2.7455
877.892	2.21861
881.266	2.26762
884.641	2.50248
888.016	1.69577
891.391	1.05356
894.766	0.996033
898.141	0.673515
901.515	1.53391
904.89	1.67143
908.265	2.77535
911.64	3.53707
915.015	4.29872
918.389	5.7961
921.764	7.2186
925.139	6.5658
928.514	6.19816
931.889	6.19337
935.264	4.91705
938.638	4.65534
942.013	2.82596
945.388	3.19147
948.763	3.04227
952.138	2.41261
955.512	1.71239
958.887	0.895943
962.262	0.457581
965.637	1.48445
969.012	1.91959
972.386	2.32404
975.761	1.62898
979.136	0.23465
982.511	2.19309
985.886	8.34385
989.261	15.6822
992.635	21.7281
996.01	22.3621
999.385	16.2824
1002.76	10.3727
1006.13	6.38053
1009.51	3.59646
1012.88	1.88015
1016.26	2.862
1019.63	5.99178
1023.01	8.4251
1026.38	9.97627
1029.76	9.13433
1033.13	10.6039
1036.51	19.1228
1039.88	33.0455
1043.26	42.8993
1046.63	46.4915
1050.01	53.8589
1053.38	68.9392
1056.76	92.2794
1060.13	106.049
1063.51	90.9775
1066.88	64.338
1070.26	40.0242
1073.63	27.4114
1077.01	22.9051
1080.38	23.765
1083.76	36.1842
1087.13	58.4267
1090.51	99.0656
1093.88	163.1
1097.26	257.813
1100.63	339.868
1104	330.596
1107.38	246.64
1110.75	159.712
1114.13	96.6933
1117.5	57.3308
1120.88	32.8047
1124.25	19.4529
1127.63	13.1418
1131	10.1148
1134.38	10.0668
1137.75	10.1744
1141.13	8.24122
1144.5	4.46433
1147.88	2.16128
1151.25	0.704002
1154.63	1.00925
1158	1.07085
1161.38	2.44884
1164.75	1.99158
1168.13	1.1426
1171.5	0.332588
1174.88	1.4482
1178.25	3.36037
1181.62	4.41852
1185	4.75936
1188.38	4.02885
1191.75	3.08224
1195.12	3.74521
1198.5	3.21568
1201.87	3.39175
1205.25	2.75995
1208.62	3.40884
1212	2.75727
1215.37	2.5849
1218.75	2.2476
1222.12	1.73498
1225.5	1.60851
1228.87	1.4255
1232.25	2.23914
1235.62	2.21669
1239	2.5004
1242.37	3.25647
1245.75	3.47572
1249.12	3.68957
1252.5	3.09306
1255.87	2.75311
1259.25	1.66122
1262.62	2.68462
1265.99	1.74972
1269.37	1.85807
1272.74	1.40278
1276.12	0.659782
1279.49	1.46005
1282.87	0.629684
