Measurement: Raman, 532 nm, unoriented, Raman Data Processed
Mineral: Pharmacolite
Rruff sample: R050537
Ideal chemistry: Ca(As^5+^O_3_OH)2H_2_O
Locality: Bohemia Region, Svornost mine, Jachymov, Czech Republic
Source: University of Arizona Mineral Museum
Description: Colorless acicular crystals
Measured chemistry: (Ca_0.97_Al_0.02_[box]_0.01_)_Σ=1_((As_0.99_P_0.01_)_Σ=1_O_3_OH)·2H_2_O
Raman shift (cm-1)	intensity
126.603	0
129.977	7.33777
133.352	149.843
136.727	361.313
140.102	422.689
143.477	578.767
146.852	773.999
150.226	1061.38
153.601	1333.22
156.976	1448.75
160.351	1360.85
163.726	1152.49
167.101	1017.15
170.475	1043.06
173.85	1278.24
177.225	1722.48
180.6	2104.66
183.975	2299.55
187.349	2518.79
190.724	3027.09
194.099	3097.08
197.474	2024.3
200.849	1068.99
204.224	597.835
207.598	378.744
210.973	250.742
214.348	140.227
217.723	55.2551
221.097	0.581787
224.472	36.1868
227.847	32.4238
231.222	19.6653
234.597	3.33911
237.972	54.1379
241.346	66.6081
244.721	45.7585
248.096	3.89307
251.471	41.7644
254.846	18.6746
258.221	41.0427
261.595	110.779
264.97	230.515
268.345	446.592
271.72	774.666
275.095	1172.98
278.469	1687.93
281.844	2491.75
285.219	3526.93
288.594	4048.47
291.969	3076.07
295.344	1918.65
298.718	1330.58
302.093	1131.19
305.468	1097.43
308.843	974.142
312.218	673.498
315.592	372.709
318.967	205.851
322.342	175.925
325.717	251.5
329.092	423.89
332.466	648.532
335.841	852.951
339.216	960.399
342.591	983.949
345.966	964.674
349.341	938.265
352.715	920.468
356.09	954.224
359.465	920.126
362.84	690.906
366.215	421.307
369.589	281.048
372.964	171.755
376.339	94.1672
379.714	43.0852
383.089	32.1143
386.464	69.7236
389.838	156.726
393.213	247.01
396.588	296.869
399.963	290.552
403.338	220.809
406.712	139.18
410.087	85.9307
413.462	58.658
416.837	12.1233
420.212	32.6379
423.587	52.4763
426.961	33.1316
430.336	68.0478
433.711	238.111
437.086	486.742
440.461	826.304
443.835	1319.33
447.21	1804.12
450.585	1795.21
453.96	1156.87
457.335	609.012
460.709	304.295
464.084	166.829
467.459	87.5977
470.834	52.45
474.209	32.2825
477.584	20.4028
480.958	17.7278
484.333	3.24438
487.708	7.26245
491.083	4.56323
494.458	19.8071
497.832	25.9883
501.207	22.1406
504.582	29.0818
507.957	46.3276
511.332	64.5991
514.707	73.3638
518.081	91.0884
521.456	99.7444
524.831	135.153
528.206	151.826
531.581	152.899
534.955	160.104
538.33	167.5
541.705	161.507
545.08	147.08
548.455	142.159
551.83	126.725
555.204	108.15
558.579	83.3308
561.954	62.4155
565.329	59.0564
568.704	51.4827
572.078	45.6728
575.453	21.8369
578.828	14.1912
582.203	14.8415
585.578	6.11743
588.952	1.11523
592.327	4.94678
595.702	4.73462
599.077	2.25073
602.452	14.8169
605.827	11.5505
609.201	4.52246
612.576	7.72046
615.951	5.18555
619.326	4.06445
622.701	2.58106
626.075	18.4238
629.45	19.3084
632.825	29.2358
636.2	31.8025
639.575	64.4939
642.949	64.5222
646.324	79.2954
649.699	99.958
653.074	132.715
656.449	178.126
659.824	230.358
663.198	279.276
666.573	331.212
669.948	412.226
673.323	480.022
676.698	560.817
680.072	666.82
683.447	834.705
686.822	1099.37
690.197	1513.77
693.572	2145.45
696.947	3011.19
700.321	4146.22
703.696	5302.89
707.071	5842.85
710.446	4967.3
713.821	3383.87
717.196	2161.85
720.57	1418.41
723.945	947.738
727.32	630.537
730.695	419.14
734.07	279.129
737.444	175.52
740.819	113.841
744.194	63.7864
747.569	33.3689
750.944	5.70264
754.318	10.478
757.693	14.2129
761.068	20.616
764.443	27.1855
767.818	22.7422
771.193	10.1687
774.567	12.1726
777.942	3.53589
781.317	25.8286
784.692	69.4287
788.067	120.377
791.441	194.74
794.816	294.649
798.191	380.39
801.566	487.491
804.941	600.957
808.316	737.068
811.69	866.948
815.065	1002.7
818.44	1187.84
821.815	1448.82
825.19	1778.53
828.564	2227.58
831.939	2825.96
835.314	3596.09
838.689	4593.27
842.064	5767.12
845.438	6775.07
848.813	7949.78
852.188	9718.22
855.563	10369.2
858.938	9341.69
862.313	9886.46
865.687	11872
869.062	12504.6
872.437	7169.47
875.812	2958.22
879.187	1517.22
882.562	1072.47
885.936	1064.42
889.311	919.775
892.686	424.6
896.061	174.597
899.436	76.425
902.81	27.7778
906.185	0.255859
909.56	20.0576
912.935	21.8916
916.31	3.49097
919.684	27.3916
923.059	45.4412
926.434	34.7429
929.809	21.8711
933.184	4.28174
936.558	6.34302
939.933	9.34839
943.308	7.5105
946.683	2.94141
950.058	6.04004
953.433	2.31592
956.807	13.5149
960.182	21.8765
963.557	30.1284
966.932	17.8227
970.307	25.4727
973.682	38.2808
977.056	54.3145
980.431	72.5288
983.806	78.0811
987.181	97.7507
990.556	108.421
993.93	97.0208
997.305	68.3728
1000.68	74.6963
1004.05	55.4355
1007.43	43.9924
1010.8	44.166
1014.18	30.2473
1017.55	24.6306
1020.93	32.7668
1024.3	28.6594
1027.68	28.6457
1031.05	28.165
1034.43	36.7642
1037.8	34.1487
1041.18	42.0774
1044.55	35.0029
1047.93	18.4475
1051.3	30.8081
1054.68	27.0166
1058.05	28.033
1061.43	21.2715
1064.8	32.9282
1068.18	18.4114
1071.55	15.6963
1074.93	11.4031
1078.3	17.2297
1081.68	11.7017
1085.05	10.0373
1088.42	0.555176
1091.8	5.58667
1095.17	2.14941
1098.55	3.44946
1101.92	0.625488
1105.3	19.616
1108.67	16.2839
1112.05	20.9844
1115.42	20.5239
1118.8	12.688
1122.17	19.3401
1125.55	12.665
1128.92	13.1211
1132.3	18.9412
1135.67	19.2771
1139.05	20.2822
1142.42	16.3757
1145.8	19.9365
1149.17	21.0972
1152.55	30.9463
1155.92	39.9775
1159.3	50.397
1162.67	53.3188
1166.05	73.54
1169.42	80.1416
1172.8	86.6946
1176.17	101.81
1179.55	113.062
1182.92	133.562
1186.3	130.894
1189.67	118.253
1193.05	112.528
1196.42	86.5396
1199.79	67.5456
1203.17	45.1768
1206.54	41.4597
1209.92	26.9631
1213.29	36.7876
1216.67	32.1582
1220.04	24.6838
1223.42	18.9521
1226.79	16.374
1230.17	4.60059
1233.54	2.84033
1236.92	5.19873
1240.29	1.38818
1243.67	6.14551
1247.04	15.7368
1250.42	1.21436
1253.79	2.72363
1257.17	2.79492
1260.54	8.74512
1263.92	3.30029
1267.29	0.995117
1270.66	3.6709
1274.04	2.91309
1277.41	8.04541
1280.79	9.69629
1284.16	18.1157
1287.54	15.7202
1290.91	4.18652
1294.29	5.70606
1297.66	13.707
1301.04	7.95361
