Measurement: Raman, 785 nm, unoriented, Raman Data Processed
Mineral: Pharmacolite
Rruff sample: R070517
Ideal chemistry: Ca(As^5+^O_3_OH)2H_2_O
Locality: Getchell mine, Adam Peak, Potosi District, Humboldt County, Nevada, USA
Source: James Shigley
Description: Spherical aggregates of white acicular crystals
Raman shift (cm-1)	intensity
146.952	0
149.845	106.781
152.738	209.08
155.63	199.723
158.523	157.488
161.416	186.721
164.308	231.168
167.201	318.635
170.094	418.9
172.987	416.545
175.879	512.42
178.772	820.446
181.665	1397.65
184.557	1263.15
187.45	1000.14
190.343	1297.93
193.235	1370.52
196.128	606.14
199.021	275.629
201.913	233.992
204.806	98.7773
207.699	164.126
210.591	173.773
213.484	279.739
216.377	407.151
219.27	910.55
222.162	848.008
225.055	469.772
227.948	432.167
230.84	516.813
233.733	523.101
236.626	388.863
239.518	181.825
242.411	26.5979
245.304	80.4319
248.197	72.9368
251.089	81.1595
253.982	74.4955
256.875	8.35962
259.767	52.6951
262.66	118.861
265.553	254.983
268.445	370.6
271.338	586.164
274.231	773.626
277.124	744.021
280.016	803.844
282.909	997.456
285.802	1220.84
288.694	1290.8
291.587	1075.46
294.48	855.916
297.373	715.331
300.265	794.088
303.158	819.611
306.051	875.484
308.943	822.027
311.836	642.837
314.729	436.201
317.621	391.514
320.514	419.588
323.407	537.445
326.3	713.644
329.192	914.977
332.085	1110.86
334.978	1299.23
337.87	1544.35
340.763	1848.8
343.656	1963.39
346.548	1838.51
349.441	1854.16
352.334	2268.32
355.226	2308.19
358.119	1575.92
361.012	1285.79
363.904	1111.65
366.797	1040.58
369.69	975.648
372.583	865.024
375.475	665.112
378.368	455.907
381.261	323.93
384.153	217.222
387.046	169.165
389.939	108.462
392.832	92.6124
395.724	109.176
398.617	128.687
401.51	139.586
404.402	136.736
407.295	116.738
410.188	154.408
413.08	222.494
415.973	164.697
418.866	76.8226
421.759	11.6417
424.651	64.778
427.544	93.6095
430.437	57.874
433.329	19.2186
436.222	73.1099
439.115	168.381
442.007	248.008
444.9	382.478
447.793	520.308
450.685	501.297
453.578	414.617
456.471	279.887
459.364	131.774
462.256	94.7599
465.149	41.3934
468.042	45.9119
470.934	7.80908
473.827	40.83
476.72	31.4812
479.613	54.602
482.505	90.2823
485.398	105.874
488.291	152.485
491.183	190.624
494.076	141.326
496.969	98.7767
499.861	47.5264
502.754	35.2019
505.647	22.4415
508.539	9.09705
511.432	15.4655
514.325	21.2643
517.218	12.6489
520.11	14.5601
523.003	47.1589
525.896	33.5781
528.788	80.4885
531.681	70.9042
534.574	52.6508
537.466	89.7365
540.359	72.6121
543.252	77.5439
546.144	92.4383
549.037	95.7631
551.93	21.9724
554.823	69.4356
557.715	30.075
560.608	22.3781
563.501	29.6139
566.393	11.6223
569.286	25.0334
572.179	32.9777
575.072	9.8894
577.964	10.4373
580.857	5.7406
583.75	16.4111
586.642	20.166
589.535	0.364502
592.428	33.741
595.32	0.582397
598.213	38.9786
601.106	29.9396
603.999	41.0087
606.891	73.5234
609.784	94.3946
612.677	79.0701
615.569	101.248
618.462	102.943
621.355	99.3949
624.247	75.9086
627.14	42.8999
630.033	40.7221
632.926	3.83093
635.818	11.1659
638.711	4.64233
641.604	12.262
644.496	2.1272
647.389	44.7584
650.282	26.5212
653.174	50.6798
656.067	95.5657
658.96	120.658
661.852	181.684
664.745	242.279
667.638	283.51
670.531	334.058
673.423	305.149
676.316	307.112
679.209	323.156
682.101	344.821
684.994	443.354
687.887	521.993
690.779	663.08
693.672	935.239
696.565	1242.12
699.458	1658.28
702.35	2114.53
705.243	2473.31
708.136	2639.22
711.028	2396.65
713.921	2002.46
716.814	1586.37
719.707	1238.55
722.599	973.241
725.492	721.443
728.385	506.162
731.277	347.92
734.17	269.666
737.063	161.559
739.955	130.98
742.848	108.226
745.741	102.493
748.633	54.0722
751.526	29.154
754.419	21.0674
757.312	10.2607
760.204	13.1806
763.097	9.77509
765.99	32.7266
768.882	27.3024
771.775	12.8805
774.668	6.51489
777.56	9.96112
780.453	3.89185
783.346	1.3866
786.239	12.0028
789.131	56.9597
792.024	40.2133
794.917	92.2084
797.809	118.521
800.702	169.199
803.595	168.085
806.487	195.976
809.38	259.912
812.273	283.055
815.165	342.769
818.058	422.812
820.951	504.811
823.844	572.474
826.736	666.992
829.629	775.293
832.522	920.158
835.414	1004.22
838.307	1125.81
841.2	1262.22
844.092	1469.69
846.985	1782.87
849.878	2217.75
852.771	2916.73
855.663	3544.74
858.556	4212.17
861.449	4767.21
864.341	4531.76
867.234	3318.27
870.127	2285.32
873.019	1590.3
875.912	1180
878.805	847.116
881.698	609.256
884.59	579.412
887.483	563.329
890.376	520.458
893.268	406.144
896.161	341.902
899.054	236.603
901.947	187.285
904.839	172.7
907.732	105.486
910.625	85.4138
913.517	62.3375
916.41	56.3563
919.303	53.3036
922.195	27.4849
925.088	28.7554
927.981	2.53723
930.873	21.6329
933.766	11.8195
936.659	18.1842
939.552	6.24316
942.444	9.59076
945.337	17.1791
948.23	9.8269
951.122	5.98578
954.015	7.69897
956.908	11.2845
959.8	20.327
962.693	6.79816
965.586	17.3569
968.479	21.4563
971.371	17.6929
974.264	50.942
977.157	55.1023
980.049	66.25
982.942	92.0986
985.835	122.323
988.727	129.323
991.62	176.593
994.513	226.481
997.405	398.985
1000.3	672.609
1003.19	1012.97
1006.08	1476.23
1008.98	1364.88
1011.87	683.521
1014.76	270.064
1017.65	119.628
1020.55	92.921
1023.44	35.6853
1026.33	26.6199
1029.22	38.5125
1032.12	32.1652
1035.01	37.5981
1037.9	34.6403
1040.8	14.9421
1043.69	15.4681
1046.58	13.8541
1049.47	17.0108
1052.37	8.6098
1055.26	21.3746
1058.15	25.988
1061.05	10.4048
1063.94	1.20252
1066.83	23.2841
1069.72	4.20612
1072.62	5.04291
1075.51	16.1351
1078.4	17.7504
1081.29	6.62274
1084.19	11.9113
1087.08	14.8612
1089.97	15.4627
1092.87	11.8176
1095.76	27.9394
1098.65	1.56384
1101.54	26.5909
1104.43	17.6756
1107.33	23.4838
1110.22	29.5997
1113.11	33.3167
1116.01	51.4896
1118.9	47.2775
1121.79	71.3897
1124.68	91.7494
1127.58	127.969
1130.47	180.805
1133.36	203.283
1136.26	185.663
1139.15	150.861
1142.04	115.201
1144.93	72.6529
1147.83	63.807
1150.72	19.8114
1153.61	22.4569
1156.5	21.8942
1159.4	29.6794
1162.29	9.33661
1165.18	14.1867
1168.08	34.6209
1170.97	9.66534
1173.86	21.5403
1176.75	22.9793
1179.65	42.3582
1182.54	30.3889
1185.43	33.1788
1188.32	36.7185
1191.22	35.8499
1194.11	34.9618
1197	27.9
1199.89	39.0812
1202.79	20.4268
1205.68	15.3322
1208.57	23.3846
1211.46	6.09405
1214.36	26.9681
1217.25	4.89923
1220.14	3.02069
1223.04	4.33606
1225.93	37.0058
1228.82	9.04974
1231.71	16.9893
1234.61	28.8237
1237.5	23.593
1240.39	15.8101
1243.29	26.7494
1246.18	13.119
1249.07	3.02374
1251.96	18.8389
1254.86	30.418
1257.75	4.22736
1260.64	1.3576
1263.53	7.69861
1266.43	3.82196
1269.32	4.19171
