Measurement: Raman, 785 nm, unoriented, Raman Data Processed
Mineral: Pharmacosiderite
Rruff sample: R050574
Ideal chemistry: KFe^3+^_4_(As^5+^O_4_)_3_(OH)_4_6-7H_2_O
Locality: Cornwall, England
Source: University of Arizona Mineral Museum
Description: Druse of bluish-green cubes
Measured chemistry: K_1.27_(Fe^3+^_3.73_Fe^2+^_0.27_)_Σ=4_(As_1.00_O_4_)_3_(OH)_4_·6H_2_O
Raman shift (cm-1)	intensity
132.881	0
135.774	60.7198
138.666	6.02927
141.559	1.8399
144.452	54.4954
147.344	159.739
150.237	263.775
153.13	286.025
156.022	255.687
158.915	191.116
161.808	151.053
164.701	171.562
167.593	148.698
170.486	138.32
173.379	104.386
176.271	139.442
179.164	172.245
182.057	227.881
184.949	362.21
187.842	481.406
190.735	571.883
193.627	535.197
196.52	380.993
199.413	241.622
202.306	154.288
205.198	41.4738
208.091	39.8313
210.984	33.4452
213.876	9.85877
216.769	60.6921
219.662	211.669
222.554	455.988
225.447	688.072
228.34	1096.98
231.233	1471.54
234.125	1911.65
237.018	2281.32
239.911	2379.91
242.803	2074.2
245.696	1651.19
248.589	1248.66
251.482	1021.6
254.374	916.2
257.267	856.092
260.16	898.5
263.052	920.994
265.945	862.484
268.838	915.116
271.73	886.533
274.623	898.414
277.516	927.697
280.409	1064.3
283.301	1153.69
286.194	1192.17
289.087	1021.85
291.979	953.064
294.872	1044.35
297.765	1187.87
300.657	1367.35
303.55	1478.11
306.443	1356.38
309.336	1042.92
312.228	749.835
315.121	476.493
318.014	292.924
320.906	205.399
323.799	139.578
326.692	108.584
329.584	102.429
332.477	60.3081
335.37	49.0674
338.262	35.9515
341.155	35.3242
344.048	16.5503
346.941	34.7457
349.833	42.4181
352.726	41.7523
355.619	56.5433
358.511	55.3655
361.404	53.2433
364.297	40.5142
367.19	17.6882
370.082	100.251
372.975	218.325
375.868	358.389
378.76	507.108
381.653	695.681
384.546	839.665
387.438	974.734
390.331	1023.33
393.224	1053.86
396.116	1001.72
399.009	906.186
401.902	766.251
404.795	628.508
407.687	511.69
410.58	375.05
413.473	282.447
416.365	232.318
419.258	158.564
422.151	158.584
425.043	172.594
427.936	189.251
430.829	243.236
433.722	319.672
436.614	445.545
439.507	552.023
442.4	739.111
445.292	992.212
448.185	1260.98
451.078	1694.19
453.971	2199.86
456.863	3019.59
459.756	4198.2
462.649	5954.4
465.541	8321.97
468.434	11250.5
471.327	14889.7
474.219	18454.5
477.112	19425.7
480.005	16066.9
482.897	11195.1
485.79	7455.48
488.683	5201.24
491.576	3686.02
494.468	2708.24
497.361	1999.28
500.254	1517.61
503.146	1177.46
506.039	887.093
508.932	709.758
511.825	548.692
514.717	451.357
517.61	297.619
520.503	211.589
523.395	147.311
526.288	97.8107
529.181	41.7561
532.073	28.8398
534.966	10.8195
537.859	2.20581
540.751	13.1726
543.644	23.7646
546.537	24.0806
549.43	26.746
552.322	24.1096
555.215	20.6329
558.108	29.1677
561	8.57123
563.893	14.6787
566.786	1.08289
569.678	5.81671
572.571	36.1855
575.464	56.9163
578.357	66.4013
581.249	75.1134
584.142	102.07
587.035	117.457
589.927	148.909
592.82	150.422
595.713	150.768
598.606	155.369
601.498	163.57
604.391	180.987
607.284	166.912
610.176	150.133
613.069	144.128
615.962	121.701
618.854	113.998
621.747	100.448
624.64	88.7128
627.533	86.3125
630.425	85.2606
633.318	82.7159
636.211	62.8335
639.103	78.3998
641.996	80.6901
644.889	53.4433
647.781	65.0713
650.674	63.3718
653.567	60.7615
656.46	65.0714
659.352	47.7955
662.245	37.8476
665.138	58.7127
668.03	50.3098
670.923	50.0602
673.816	45.1142
676.708	39.6258
679.601	36.6181
682.494	48.3289
685.386	54.8571
688.279	44.3251
691.172	72.5219
694.065	62.109
696.957	59.9528
699.85	86.5204
702.743	73.369
705.635	72.0199
708.528	81.6526
711.421	86.6451
714.313	88.0769
717.206	71.7158
720.099	70.7281
722.992	67.2013
725.884	44.8126
728.777	17.4081
731.67	23.8842
734.562	18.0701
737.455	15.2006
740.348	7.04883
743.24	19.0516
746.133	2.82611
749.026	10.1843
751.919	13.7706
754.811	24.0123
757.704	17.9807
760.597	13.1459
763.489	2.93542
766.382	15.9542
769.275	39.6944
772.168	102.755
775.06	178.944
777.953	312.512
780.846	458.596
783.738	594.471
786.631	719.846
789.524	815.309
792.416	769.777
795.309	642.785
798.202	488.168
801.095	329.491
803.987	251.125
806.88	145.257
809.773	78.2557
812.665	56.2836
815.558	51.16
818.451	69.0586
821.343	83.9262
824.236	91.3314
827.129	146.618
830.021	193.027
832.914	244.416
835.807	334.203
838.7	440.89
841.592	636.722
844.485	877.475
847.378	1178.75
850.27	1563.78
853.163	1993.68
856.056	2549.76
858.948	3064.36
861.841	3546.99
864.734	3845.39
867.627	4051.48
870.519	4199.51
873.412	4361.85
876.305	4755.37
879.197	5088.13
882.09	5095.01
884.983	4654.3
887.875	3821.57
890.768	2811.6
893.661	1992.59
896.554	1355.43
899.446	940.492
902.339	608.225
905.232	432.541
908.125	293.946
911.017	170.857
913.91	112.775
916.803	78.7243
919.695	38.0016
922.588	24.767
925.481	0.046143
928.373	15.3876
931.266	18.9039
934.159	12.9196
937.052	15.6209
939.944	7.04333
942.837	20.2006
945.73	9.16193
948.622	19.8394
951.515	26.8017
954.408	23.9864
957.3	45.8676
960.193	60.8376
963.086	59.0815
965.979	74.9586
968.871	88.2245
971.764	113.503
974.657	110.083
977.549	123.697
980.442	145.448
983.335	166.258
986.227	154.612
989.12	169.56
992.013	161.01
994.905	170.75
997.798	160.649
1000.69	181.471
1003.58	167.417
1006.48	165.383
1009.37	159.632
1012.26	178.656
1015.15	190.609
1018.05	162.939
1020.94	186.341
1023.83	195.31
1026.72	185.019
1029.62	198.504
1032.51	207.054
1035.4	186.527
1038.3	172.72
1041.19	165.621
1044.08	154.195
1046.97	149.381
1049.87	128.893
1052.76	112.686
1055.65	100.996
1058.55	105.777
1061.44	92.035
1064.33	81.7367
1067.22	60.7147
1070.12	61.6473
1073.01	47.7067
1075.9	34.8732
1078.79	31.641
1081.69	38.3902
1084.58	23.6337
1087.47	19.2105
1090.37	23.1827
1093.26	24.597
1096.15	14.6977
1099.04	0.686401
1101.93	10.2849
1104.83	17.4792
1107.72	0.248444
1110.61	8.2887
1113.51	12.1956
1116.4	2.93323
1119.29	1.45831
1122.18	4.70853
1125.08	12.5653
1127.97	7.35225
1130.86	10.2105
1133.76	6.21275
1136.65	3.41771
1139.54	11.1228
1142.43	4.58731
1145.33	8.37213
1148.22	12.5756
1151.11	2.5404
1154	7.98059
1156.9	9.23418
1159.79	4.70624
1162.68	13.2629
1165.58	12.1385
1168.47	9.91927
1171.36	14.7382
1174.25	16.3463
1177.15	13.1637
1180.04	8.43654
1182.93	15.6733
1185.82	10.2774
1188.72	14.7171
1191.61	9.77036
1194.5	6.53999
1197.39	6.03526
1200.29	16.3516
1203.18	15.1905
1206.07	5.34216
1208.96	9.1693
1211.86	12.8151
1214.75	11.4158
1217.64	15.2184
1220.54	0.164581
1223.43	0.016342
1226.32	12.5515
1229.21	9.5981
1232.11	4.7554
