Measurement: Raman, 780 nm, unoriented, Raman Data Processed
Mineral: Pharmacosiderite
Rruff sample: R070587
Ideal chemistry: KFe^3+^_4_(As^5+^O_4_)_3_(OH)_4_6-7H_2_O
Locality: Mylar mine, Majuba Hill, Antelope District, Pershing County, Nevada, USA
Source: James Shigley
Description: Aggregates of green and brown cubic crystals associated with gypsum
Raman shift (cm-1)	intensity
112.035	0
115.409	62.8408
118.784	10.1562
122.159	35.353
125.534	296.057
128.909	181.251
132.283	337.609
135.658	356.172
139.033	398.798
142.408	690.036
145.783	755.771
149.157	841.855
152.532	800.409
155.907	725.855
159.282	554.429
162.657	359.822
166.032	118.655
169.406	195.171
172.781	159.164
176.156	65.0942
179.531	192.946
182.906	643.075
186.28	1243.71
189.655	1844.69
193.03	1824.5
196.405	1272.33
199.78	655.382
203.155	304.791
206.529	196.228
209.904	20.9106
213.279	87.9136
216.654	469.433
220.029	978.404
223.404	1914.21
226.778	3115.43
230.153	4433.43
233.528	5568.81
236.903	6193.52
240.278	5778.73
243.652	4707.4
247.027	3869.48
250.402	3520.34
253.777	3581.37
257.152	3739.83
260.526	3959.01
263.901	4141.73
267.276	4069.15
270.651	3763.33
274.026	3571.04
277.401	3454.95
280.775	3541.27
284.15	3375.76
287.525	3133.52
290.9	3217.16
294.275	3820.73
297.649	4668
301.024	5412.26
304.399	5291.2
307.774	4199.86
311.149	2727.49
314.524	1706.71
317.898	988.973
321.273	616.619
324.648	345.885
328.023	222.321
331.398	136.745
334.772	167.002
338.147	78.4797
341.522	123.089
344.897	40.0806
348.272	64.4814
351.647	93.1091
355.021	151.657
358.396	207.196
361.771	128.594
365.146	86.6841
368.521	73.2153
371.896	277.608
375.27	635.938
378.645	1104.38
382.02	1637.85
385.395	1992.14
388.77	2327.18
392.144	2415.7
395.519	2315.29
398.894	2023.57
402.269	1670.63
405.644	1357.36
409.019	1011.29
412.393	657.022
415.768	414.368
419.143	252.252
422.518	222.491
425.892	207.122
429.267	347.831
432.642	575.547
436.017	883.87
439.392	1368.43
442.767	1898.7
446.142	2802.75
449.516	3960.92
452.891	5538.18
456.266	8176.68
459.641	11909
463.016	18005.2
466.39	26570
469.765	38211.4
473.14	52159.1
476.515	58569.8
479.89	47212.4
483.264	30866.7
486.639	19802.7
490.014	13529.9
493.389	9784.02
496.764	7242.86
500.139	5590.06
503.513	4293.61
506.888	3254.28
510.263	2378.09
513.638	1765.21
517.013	1245.59
520.388	856.525
523.762	576.235
527.137	430.563
530.512	260.342
533.887	226.686
537.261	197.957
540.636	138.701
544.011	2.01269
547.386	24.303
550.761	61.7051
554.136	154.004
557.51	102.861
560.885	101.473
564.26	110.699
567.635	39.9507
571.01	31.6352
574.385	98.6719
577.759	136.198
581.134	182.738
584.509	264.396
587.884	290.821
591.259	360.236
594.633	403.342
598.008	452.963
601.383	452.783
604.758	446.585
608.133	465.029
611.508	414.486
614.882	341.676
618.257	331.395
621.632	285.162
625.007	275.046
628.382	256.832
631.756	183.749
635.131	208.553
638.506	200.095
641.881	241.803
645.256	228.365
648.63	233.772
652.005	217.105
655.38	217.073
658.755	206.07
662.13	226.143
665.505	213.618
668.879	158.477
672.254	143.751
675.629	159.51
679.004	153.194
682.379	153.315
685.754	180.021
689.128	200.643
692.503	172.41
695.878	212.377
699.253	190.902
702.628	224.502
706.002	168.271
709.377	167.431
712.752	145.332
716.127	167.978
719.502	325.615
722.876	88.5911
726.251	61.1443
729.626	64.4994
733.001	50.0231
736.376	28.5315
739.75	2.49805
743.125	57.9562
746.5	33.3025
749.875	70.6981
753.25	34.3435
756.625	81.4922
760	1.21802
763.374	89.4939
766.749	278.928
770.124	586.208
773.499	1004
776.874	1778.11
780.248	2715.15
783.623	3849.83
786.998	4845.85
790.373	5177.13
793.748	4638.68
797.122	3559.73
800.497	2510.51
803.872	1809.81
807.247	1296.13
810.622	854.61
813.996	578.534
817.371	586.537
820.746	561.621
824.121	382.822
827.496	336.324
830.871	304.174
834.245	359.248
837.62	694.98
840.995	1077.99
844.37	1799.69
847.745	2667.58
851.12	3916.79
854.494	5402.08
857.869	7050.52
861.244	8519.6
864.619	9506.33
867.994	10307.4
871.369	11148.3
874.743	12600.3
878.118	14583.1
881.493	15644
884.868	14459.7
888.243	11417.9
891.617	7903.94
894.992	5167.37
898.367	3309.13
901.742	2188.39
905.117	1413.11
908.491	962.361
911.866	672.851
915.241	389.808
918.616	262.518
921.991	140.288
925.365	40.8694
928.74	46.1306
932.115	74.3389
935.49	82.2433
938.865	72.4625
942.24	51.9363
945.614	11.3994
948.989	8.62732
952.364	10.2802
955.739	56.5066
959.114	104.693
962.489	166.265
965.863	193.953
969.238	253.298
972.613	277.616
975.988	323.309
979.363	373.586
982.737	400.766
986.112	416.145
989.487	458.386
992.862	470.702
996.237	413.35
999.611	403.153
1002.99	396.783
1006.36	410.912
1009.74	412.411
1013.11	393.734
1016.49	397.347
1019.86	364.035
1023.24	384.736
1026.61	387.461
1029.98	412.18
1033.36	377.265
1036.73	377.482
1040.11	348.757
1043.48	352.204
1046.86	378.397
1050.23	338.412
1053.61	324.852
1056.98	279.847
1060.36	284.431
1063.73	200.499
1067.11	194.67
1070.48	177.085
1073.86	166.546
1077.23	153.258
1080.61	135.521
1083.98	111.368
1087.36	97.5072
1090.73	75.9547
1094.11	75.5815
1097.48	68.7092
1100.86	60.5756
1104.23	29.2983
1107.61	7.54803
1110.98	11.3836
1114.36	18.7888
1117.73	9.79688
1121.11	6.05396
1124.48	16.4001
1127.86	13.9115
1131.23	7.73694
1134.6	6.30396
1137.98	9.9613
1141.35	9.7392
1144.73	0.304565
1148.1	24.7643
1151.48	10.3599
1154.85	11.6887
1158.23	6.29614
1161.6	18.4077
1164.98	17.181
1168.35	36.801
1171.73	31.8652
1175.1	43.3757
1178.48	35.0831
1181.85	31.1994
1185.23	34.8532
1188.6	35.0505
1191.98	28.1212
1195.35	43.9323
1198.73	32.0597
1202.1	43.3422
1205.47	53.0335
1208.85	32.9592
1212.22	19.7415
1215.6	24.6872
1218.97	37.0656
1222.35	29.8657
1225.72	5.23645
1229.1	36.3282
1232.47	13.1889
1235.85	13.7775
1239.22	18.3438
1242.6	7.97858
1245.97	39.6821
1249.35	24.3264
1252.72	17.025
1256.1	32.6289
1259.47	25.1628
1262.85	12.9547
1266.22	21.9026
1269.6	24.637
1272.97	20.0446
1276.35	18.1367
