Measurement: Raman, 532 nm, unoriented, Raman Data Processed
Mineral: Pharmacosiderite
Rruff sample: R070587
Ideal chemistry: KFe^3+^_4_(As^5+^O_4_)_3_(OH)_4_6-7H_2_O
Locality: Mylar mine, Majuba Hill, Antelope District, Pershing County, Nevada, USA
Source: James Shigley
Description: Aggregates of green and brown cubic crystals associated with gypsum
Raman shift (cm-1)	intensity
133.46	0
136.352	153.379
139.245	392.831
142.138	528.358
145.03	621.578
147.923	663.955
150.816	688.455
153.709	700.125
156.601	668.296
159.494	474.36
162.387	376.966
165.279	216.899
168.172	110.444
171.065	42.7051
173.958	86.4907
176.85	62.6467
179.743	22.9482
182.636	150.789
185.528	337.096
188.421	541.619
191.314	660.665
194.206	520.339
197.099	334.622
199.992	157.195
202.885	36.3682
205.777	158.584
208.67	19.3506
211.563	97.1797
214.455	436.878
217.348	821.829
220.241	1479.77
223.133	2187.16
226.026	3043.09
228.919	3896.92
231.811	4709.55
234.704	5335.44
237.597	5598.37
240.49	5284.06
243.382	4557.58
246.275	3800.91
249.168	3345.71
252.06	3136.29
254.953	3049.33
257.846	3091.76
260.738	3189.12
263.631	3144.97
266.524	3093.49
269.417	2826.86
272.309	2623.73
275.202	2397.75
278.095	2264.53
280.987	2309.03
283.88	2259.46
286.773	2209.62
289.665	2160.01
292.558	2341.99
295.451	2598.49
298.344	2889.87
301.236	3058.66
304.129	2988.22
307.022	2434.82
309.914	1772.29
312.807	1198.34
315.7	798.111
318.592	511.633
321.485	354.198
324.378	212.949
327.271	188.582
330.163	153.546
333.056	124.793
335.949	90.9824
338.841	54.3442
341.734	21.8274
344.627	27.0134
347.519	101.501
350.412	122.969
353.305	153.943
356.197	150.054
359.09	116.888
361.983	71.6021
364.876	83.4211
367.768	291.116
370.661	530.465
373.554	902.727
376.446	1318.63
379.339	1788.59
382.232	2198.51
385.125	2528.73
388.017	2756.98
390.91	2844.56
393.803	2628.32
396.695	2393.63
399.588	2032.57
402.481	1695.28
405.373	1264.21
408.266	965.135
411.159	662.03
414.051	436.018
416.944	338.148
419.837	200.853
422.73	195.829
425.622	190.231
428.515	313.02
431.408	481.05
434.3	707.022
437.193	1025.6
440.086	1481.85
442.978	2166.58
445.871	2944.52
448.764	3979.63
451.657	5606.6
454.549	7827.32
457.442	11357.7
460.335	16299.6
463.227	22311.3
466.12	28908.9
469.013	36002.9
471.905	43396.7
474.798	49030.7
477.691	46677.3
480.584	36011.6
483.476	24979.1
486.369	17085
489.262	12345.1
492.154	9126
495.047	7106.1
497.94	5611.42
500.832	4469.71
503.725	3555.3
506.618	2773.87
509.51	2042.57
512.403	1597.97
515.296	1160.49
518.189	815.651
521.081	577.717
523.974	436.178
526.867	318.191
529.759	220.294
532.652	159.121
535.545	92.1367
538.438	56.52
541.33	7.22803
544.223	27.1946
547.116	25.7148
550.008	78.1397
552.901	69.4426
555.794	76.0713
558.686	97.2424
561.579	15.2981
564.472	44.1135
567.365	31.0549
570.257	55.0449
573.15	128.676
576.043	146.012
578.935	214.232
581.828	249.605
584.721	299.43
587.613	301.173
590.506	386.548
593.399	417.065
596.291	434.6
599.184	429.236
602.077	460.102
604.97	457.438
607.862	438.035
610.755	402.24
613.648	390.752
616.54	349.211
619.433	279.033
622.326	247.42
625.218	248.301
628.111	218.013
631.004	201.071
633.896	231.94
636.789	218.29
639.682	217.538
642.575	233.522
645.467	195.816
648.36	214.736
651.253	196.472
654.145	183.352
657.038	163.875
659.931	183.687
662.823	188.657
665.716	117.97
668.609	163.207
671.502	124.721
674.394	121.79
677.287	138.772
680.18	100.502
683.072	113.055
685.965	156.669
688.858	115.157
691.75	158.183
694.643	166.694
697.536	173.796
700.429	167.373
703.321	159.504
706.214	144.288
709.107	150.635
711.999	148.544
714.892	116.014
717.785	92.3168
720.678	146.756
723.57	70.2617
726.463	57.9551
729.356	49.8934
732.248	26.4429
735.141	24.4676
738.034	15.11
740.926	24.9552
743.819	18.785
746.712	57.3295
749.604	81.2731
752.497	45.323
755.39	39.1787
758.283	33.2507
761.175	102.1
764.068	158.728
766.961	363.931
769.853	553.273
772.746	891.593
775.639	1311.39
778.531	1846
781.424	2417.7
784.317	2947.93
787.21	3232.26
790.102	3240.97
792.995	2976.96
795.888	2407.96
798.78	1862.49
801.673	1422.64
804.566	1127.62
807.458	815.59
810.351	606.25
813.244	494.462
816.136	496.663
819.029	456.183
821.922	416.369
824.815	359.913
827.707	269.078
830.6	303.698
833.493	392.929
836.385	586.705
839.278	850.031
842.171	1291.79
845.063	1817.79
847.956	2467.92
850.849	3240.71
853.742	4060.82
856.634	4928.01
859.527	5831.77
862.42	6408.64
865.312	6845
868.205	7328.47
871.098	7781.39
873.99	8310.2
876.883	8872.51
879.776	9305.13
882.669	8930.07
885.561	7923.57
888.454	6141.29
891.347	4476.28
894.239	3093.18
897.132	2068.09
900.025	1426.12
902.918	974.003
905.81	692.814
908.703	439.419
911.596	276.492
914.488	210.728
917.381	111.477
920.274	61.1128
923.166	11.0396
926.059	31.2522
928.952	72.7544
931.844	73.8456
934.737	41.1996
937.63	57.382
940.523	18.1637
943.415	23.97
946.308	7.42371
949.201	29.9795
952.093	74.6365
954.986	95.9885
957.879	107.09
960.771	186.164
963.664	193.047
966.557	238.287
969.449	259.637
972.342	272.914
975.235	321.019
978.128	333.934
981.02	381.103
983.913	399.903
986.806	432.634
989.698	438.464
992.591	428.043
995.484	406.993
998.376	400.877
1001.27	378.466
1004.16	424.799
1007.05	400.798
1009.95	438.441
1012.84	409.017
1015.73	416.885
1018.62	398.449
1021.52	438.447
1024.41	426.453
1027.3	434.042
1030.2	407.907
1033.09	432.499
1035.98	431.006
1038.87	444.969
1041.77	458.434
1044.66	402.793
1047.55	374.88
1050.44	392.609
1053.34	361.587
1056.23	373.114
1059.12	343.177
1062.02	297.406
1064.91	273.085
1067.8	242.843
1070.69	241.953
1073.59	220.34
1076.48	185.804
1079.37	181.19
1082.27	131.232
1085.16	141.358
1088.05	109.898
1090.94	113.558
1093.84	118.566
1096.73	69.0526
1099.62	74.5618
1102.51	55.676
1105.41	38.8488
1108.3	15.3561
1111.19	50.2043
1114.08	25.3213
1116.98	18.2996
1119.87	19.917
1122.76	2.48254
1125.65	13.9622
1128.55	32.1152
1131.44	17.1757
1134.33	11.0754
1137.23	6.73975
1140.12	14.4428
1143.01	2.573
1145.9	21.0762
1148.8	27.9065
1151.69	7.7721
1154.58	0.238586
1157.47	11.6228
1160.37	13.079
1163.26	14.4507
1166.15	20.909
1169.05	16.8842
1171.94	9.26361
1174.83	38.0114
1177.72	52.2305
1180.62	41.7614
1183.51	74.7041
1186.4	25.9968
1189.3	64.8346
1192.19	46.605
1195.08	43.2356
1197.97	24.3948
1200.87	39.7495
1203.76	32.4601
1206.65	23.361
1209.54	54.8203
1212.44	45.3339
1215.33	50.3186
1218.22	9.11804
1221.11	40.2897
1224.01	40.4816
1226.9	36.3693
1229.79	21.1885
1232.68	15.4864
1235.58	24.3299
1238.47	32.3661
1241.36	27.6472
1244.26	24.4835
1247.15	25.7396
1250.04	4.69507
1252.93	17.4104
1255.83	39.0361
1258.72	17.8591
1261.61	7.65253
1264.51	4.24146
1267.4	22.1026
1270.29	16.6785
1273.18	28.2433
1276.08	10.7499
1278.97	4.45758
1281.86	17.7826
1284.75	0
