Measurement: Raman, 532 nm, unoriented, Raman Data Processed
Mineral: Pharmacoalumite
Rruff sample: R060411
Ideal chemistry: KAl_4_(As^5+^O_4_)_3_(OH)_4_6.5H_2_O
Locality: Maria Josefa, Rodalquilar, Almeria Province, Spain
Source: Bob Jenkins
Description: Pale green, yellow and colorless transparent single cubes associated with quartz
Measured chemistry: (K_0.75_Na_0.25_)_Σ=1_(Al_3.94_Fe^3+^_0.06_)_Σ=4_(As_1.00_O_4_)_3_(OH)_4_·6.5H_2_O ; H not measured but estimated by difference and stoichiometry
Raman shift (cm-1)	intensity
174.924	0
177.816	3.62622
180.709	12.5491
183.602	2.56824
186.494	17.8757
189.387	16.838
192.28	21.9813
195.173	14.2019
198.065	7.56592
200.958	7.60998
203.851	11.1305
206.743	17.8528
209.636	12.9608
212.529	7.47119
215.421	15.3198
218.314	5.65686
221.207	10.446
224.1	5.74597
226.992	8.06567
229.885	2.21069
232.778	1.99768
235.67	0.006348
238.563	3.05103
241.456	3.79468
244.348	4.91284
247.241	6.22571
250.134	0.653198
253.026	0.849365
255.919	1.92847
258.812	1.4884
261.705	7.45569
264.597	2.19739
267.49	4.06152
270.383	1.02722
273.276	5.18884
276.168	2.60461
279.061	2.90393
281.954	6.38232
284.846	5.86145
287.739	13.6708
290.632	22.0078
293.524	24.6422
296.417	40.2057
299.31	55.6471
302.202	84.6462
305.095	114.825
307.988	149.295
310.881	202.204
313.773	249.034
316.666	293.391
319.559	321.61
322.451	321.874
325.344	297.903
328.237	252.02
331.13	200.347
334.022	144.579
336.915	109.193
339.808	81.1624
342.7	70.0356
345.593	57.0241
348.486	57.2025
351.378	54.8566
354.271	60.1773
357.164	56.8755
360.057	53.9172
362.949	57.4153
365.842	68.5229
368.735	94.0768
371.627	118.446
374.52	144.061
377.413	184.669
380.305	216.575
383.198	238.468
386.091	219.782
388.984	180.301
391.876	134.752
394.769	95.1514
397.662	83.4542
400.554	59.2249
403.447	55.0326
406.34	31.3846
409.233	18.6912
412.125	12.473
415.018	6.49329
417.911	2.19324
420.803	5.92261
423.696	3.16663
426.589	1.95288
429.481	2.48303
432.374	2.98767
435.267	7.61987
438.159	0.736938
441.052	0.208862
443.945	0.655762
446.838	0.611328
449.73	0.623291
452.623	3.58215
455.516	2.8363
458.409	3.93506
461.301	6.3894
464.194	7.76733
467.087	8.66101
469.979	19.6807
472.872	20.3133
475.765	23.0527
478.657	33.0603
481.55	21.1202
484.443	18.297
487.336	19.3312
490.228	21.9808
493.121	20.0312
496.014	19.3234
498.906	21.5381
501.799	22.2994
504.692	13.6132
507.584	9.27502
510.477	7.65369
513.37	3.854
516.263	1.39417
519.155	5.12122
522.048	1.8772
524.941	0.685547
527.833	1.552
530.726	2.53272
533.619	0.612061
536.511	0.702271
539.404	2.17017
542.297	0.901855
545.19	1.10474
548.082	3.27393
550.975	9.97522
553.868	20.2666
556.76	21.0863
559.653	31.1284
562.546	43.4799
565.438	61.3035
568.331	88.7095
571.224	115.037
574.117	145.995
577.009	197.782
579.902	261.409
582.795	354.79
585.687	467.877
588.58	595.136
591.473	657.503
594.365	564.795
597.258	400.328
600.151	267.384
603.044	183.416
605.936	143.17
608.829	122.255
611.722	115.888
614.614	109.846
617.507	112.797
620.4	109.955
623.293	101.086
626.185	93.5452
629.078	76.3757
631.971	64.4039
634.863	48.4646
637.756	42.271
640.649	43.3539
643.542	47.5325
646.434	41.7118
649.327	30.9932
652.22	28.4622
655.112	30.6753
658.005	31.0504
660.898	23.7201
663.79	17.0544
666.683	9.18298
669.576	4.32739
672.468	3.52661
675.361	3.98242
678.254	2.34509
681.147	1.3291
684.039	0.653687
686.932	2.79712
689.825	1.26245
692.717	0.235474
695.61	1.08337
698.503	2.16382
701.396	2.61621
704.288	1.3844
707.181	6.15015
710.074	1.26282
712.966	6.02954
715.859	2.30322
718.752	6.13513
721.644	3.51331
724.537	2.84033
727.43	3.66687
730.323	5.60107
733.215	4.24817
736.108	12.8712
739.001	12.5172
741.893	6.53821
744.786	6.36902
747.679	5.604
750.572	4.42407
753.464	4.24402
756.357	9.93896
759.25	4.5238
762.142	4.12903
765.035	4.7417
767.928	4.0802
770.82	3.21313
773.713	2.61169
776.606	0.918213
779.499	4.93408
782.391	2.90503
785.284	0.812378
788.177	1.85608
791.069	5.67627
793.962	0.619629
796.855	0.28833
799.747	5.87231
802.64	7.72522
805.533	5.65881
808.426	8.79517
811.318	7.98755
814.211	10.1377
817.104	8.95435
819.996	10.5192
822.889	8.46875
825.782	7.10583
828.674	5.38257
831.567	6.21362
834.46	1.68726
837.353	6.13403
840.245	6.42053
843.138	1.4679
846.031	4.26404
848.923	8.97876
851.816	19.9353
854.709	23.8397
857.601	31.0949
860.494	29.5868
863.387	25.3793
866.28	24.2286
869.172	40.9836
872.065	38.4723
874.958	52.4286
877.851	72.1962
880.743	92.6072
883.636	118.396
886.529	151.143
889.421	193.044
892.314	237.318
895.207	284.24
898.099	344.135
900.992	417.575
903.885	481.736
906.778	542.675
909.67	586.072
912.563	598.992
915.456	580.263
918.348	537.321
921.241	478.544
924.134	407.951
927.026	327.543
929.919	257.7
932.812	195.376
935.705	146.002
938.597	99.471
941.49	65.4527
944.383	48.4059
947.275	34.5372
950.168	19.8409
953.061	11.7949
955.953	6.02167
958.846	3.86646
961.739	0.201538
964.631	1.25952
967.524	0.292114
970.417	1.66199
973.31	0.420532
976.202	0.407043
979.095	2.87085
981.988	3.08868
984.88	1.40271
987.773	2.83026
990.666	3.33997
993.559	4.39746
996.451	3.77551
999.344	5.15369
1002.24	12.6318
1005.13	11.1016
1008.02	7.34729
1010.91	10.7227
1013.81	14.5618
1016.7	13.9351
1019.59	15.4831
1022.49	14.18
1025.38	11.919
1028.27	14.8851
1031.16	19.371
1034.06	10.2557
1036.95	15.7592
1039.84	6.07697
1042.73	8.44214
1045.63	5.00641
1048.52	12.2425
1051.41	5.94116
1054.31	0.929443
1057.2	4.07465
1060.09	2.10492
1062.98	0.740112
1065.88	0.801819
1068.77	2.67438
1071.66	7.5152
1074.55	7.48041
1077.45	3.39081
1080.34	2.67542
1083.23	4.13971
1086.12	6.81952
1089.02	7.00092
1091.91	8.01935
1094.8	9.06128
1097.7	10.8259
1100.59	15.2635
1103.48	16.4261
1106.37	16.1675
1109.27	19.934
1112.16	21.5044
1115.05	25.4772
1117.94	20.5588
1120.84	11.7241
1123.73	7.96252
1126.62	11.956
1129.52	9.66864
1132.41	8.72528
1135.3	8.27112
1138.19	1.41864
1141.09	4.75519
1143.98	6.24567
1146.87	6.28851
1149.77	9.26562
1152.66	7.10541
1155.55	6.44293
1158.44	9.47272
1161.34	10.4192
1164.23	8.51916
1167.12	5.46503
1170.01	4.96112
1172.91	7.78314
1175.8	6.10809
1178.69	7.76123
1181.58	4.01886
1184.48	0.766296
1187.37	3.90063
1190.26	1.31329
1193.15	1.70172
1196.05	0.172607
1198.94	2.16504
1201.83	1.9696
1204.73	1.92828
1207.62	0.205383
1210.51	0.019958
1213.4	4.65668
1216.3	4.72333
1219.19	0.547058
1222.08	3.21625
1224.97	2.65521
1227.87	2.5249
1230.76	7.34949
1233.65	1.11615
1236.55	0.514648
1239.44	3.32281
1242.33	2.31226
1245.22	0.734741
1248.12	5.6853
1251.01	4.18091
1253.9	3.19665
1256.8	5.51502
1259.69	4.38605
1262.58	6.59369
1265.47	4.02539
1268.37	8.50501
1271.26	8.01251
1274.15	8.38733
1277.04	7.47076
1279.94	7.88165
1282.83	1.47852
1285.72	0.226807
1288.61	5.26935
1291.51	5.40088
1294.4	4.82526
1297.29	11.6887
1300.18	5.49896
