Measurement: Raman, 532 nm, unoriented, Raman Data Processed
Mineral: Pharmacosiderite
Rruff sample: R050574
Ideal chemistry: KFe^3+^_4_(As^5+^O_4_)_3_(OH)_4_6-7H_2_O
Locality: Cornwall, England
Source: University of Arizona Mineral Museum
Description: Druse of bluish-green cubes
Measured chemistry: K_1.27_(Fe^3+^_3.73_Fe^2+^_0.27_)_Σ=4_(As_1.00_O_4_)_3_(OH)_4_·6H_2_O
Raman shift (cm-1)	intensity
124.147	0
127.522	21.6091
130.897	111.612
134.272	331.436
137.647	522.052
141.021	576.466
144.396	564.11
147.771	725.462
151.146	853.238
154.521	831.122
157.895	648.248
161.27	518.392
164.645	270.47
168.02	165.867
171.395	50.064
174.769	62.1296
178.144	193.001
181.519	503.916
184.894	863.941
188.269	1199.99
191.644	1180.54
195.018	789.459
198.393	363.612
201.768	1.10815
205.143	147.092
208.518	137.573
211.893	37.2495
215.267	413.275
218.642	1108.63
222.017	2216.39
225.392	3549.79
228.767	5288.58
232.141	7217.23
235.516	8739.34
238.891	8873.23
242.266	7349.34
245.641	5643.24
249.015	4488.92
252.39	3922.22
255.765	3730.05
259.14	3684.58
262.515	3682.9
265.889	3501.28
269.264	3264.76
272.639	2980.74
276.014	2983.95
279.389	3121.89
282.764	3226.14
286.138	2843.12
289.513	2519.04
292.888	2584.15
296.263	2923.94
299.638	3385.31
303.012	3495.34
306.387	2947.66
309.762	2087.1
313.137	1345.36
316.512	862.253
319.887	519.358
323.261	384.073
326.636	219.273
330.011	202.257
333.386	77.5425
336.761	2.33496
340.135	24.7615
343.51	63.9885
346.885	136.573
350.26	174.935
353.635	201.874
357.01	112.241
360.384	3.50586
363.759	236.47
367.134	618.233
370.509	1311.78
373.884	2071.8
377.258	3026.25
380.633	3941.56
384.008	4858.2
387.383	5269.98
390.758	5209.4
394.132	4664.55
397.507	3826.99
400.882	2970.8
404.257	2259.55
407.632	1551.17
411.007	946.882
414.381	627.551
417.756	357.081
421.131	213.349
424.506	254.385
427.881	382.321
431.255	623.624
434.63	1071.84
438.005	1562.05
441.38	2345.5
444.755	3349.9
448.13	4661.19
451.504	6688.98
454.879	9775.38
458.254	14663.8
461.629	22518.2
465.003	34308.8
468.378	49480.6
471.753	65105.6
475.128	74440.2
478.503	67195.1
481.878	45210.3
485.252	27981.2
488.627	18177.5
492.002	12227.8
495.377	8674.44
498.752	6238.07
502.127	4572.15
505.501	3333.71
508.876	2484.4
512.251	1863.71
515.626	1299.24
519	877.708
522.375	568.987
525.75	385.115
529.125	217.881
532.5	141.299
535.875	48.0786
539.249	21.1152
542.624	11.9453
545.999	70.999
549.374	69.417
552.749	162.618
556.124	128.808
559.498	48.5176
562.873	8.69067
566.248	43.5418
569.623	140.54
572.998	152.841
576.372	220.571
579.747	305.34
583.122	387.021
586.497	482.94
589.872	558.759
593.246	588.902
596.621	621.236
599.996	673.693
603.371	654.767
606.746	624.423
610.12	581.917
613.495	482.357
616.87	418.588
620.245	376.166
623.62	304.836
626.995	279.112
630.369	274.289
633.744	225.554
637.119	215.156
640.494	202.591
643.869	219.681
647.244	198.081
650.618	181.202
653.993	172.081
657.368	188.419
660.743	144.905
664.117	127.448
667.492	116.784
670.867	144.613
674.242	127.705
677.617	123.981
680.992	114.658
684.366	143.603
687.741	130.642
691.116	161.239
694.491	205.757
697.866	252.008
701.24	272.692
704.615	263.162
707.99	295.167
711.365	241.066
714.74	272.624
718.115	227.719
721.489	226.018
724.864	183.898
728.239	151.019
731.614	109.073
734.989	57.9177
738.363	11.9729
741.738	30.699
745.113	16.0076
748.488	70.4172
751.863	76.946
755.237	99.5518
758.612	49.529
761.987	49.7165
765.362	44.4553
768.737	307.425
772.112	661.26
775.486	1248.23
778.861	2007.12
782.236	2992.61
785.611	3937.99
788.986	4536.34
792.361	4338.63
795.735	3385.49
799.11	2429.66
802.485	1653.23
805.86	1115.47
809.235	700.354
812.609	442.863
815.984	324.511
819.359	374.647
822.734	477.677
826.109	631.451
829.483	704.293
832.858	903.759
836.233	1275.18
839.608	1872.24
842.983	2644.63
846.357	3763.74
849.732	5379.32
853.107	7229.83
856.482	9315.76
859.857	11212.8
863.231	12620.1
866.606	13211
869.981	13449.2
873.356	13851.5
876.731	14798.9
880.106	15557
883.48	14927.8
886.855	12660.5
890.23	9277.4
893.605	6198.21
896.98	3954.16
900.355	2449.27
903.729	1568.25
907.104	995.557
910.479	584.284
913.854	309.589
917.229	168.96
920.603	3.82178
923.978	94.0557
927.353	82.5759
930.728	89.2998
934.103	88.1455
937.477	37.5659
940.852	4.26416
944.227	17.5874
947.602	95.5977
950.977	152.754
954.351	239.244
957.726	319.278
961.101	400.957
964.476	451.855
967.851	540.339
971.226	617.647
974.6	661.224
977.975	823.358
981.35	859.371
984.725	880.839
988.1	875.567
991.475	966.397
994.849	960.906
998.224	1021.45
1001.6	952.82
1004.97	992.712
1008.35	979.996
1011.72	1060.84
1015.1	1041.76
1018.47	1080.7
1021.85	1060.68
1025.22	1049.53
1028.6	1089.69
1031.97	1041.38
1035.35	1004.84
1038.72	963.258
1042.1	897.669
1045.47	858.463
1048.85	751.093
1052.22	675.261
1055.6	622.85
1058.97	505.661
1062.35	434.652
1065.72	358.875
1069.1	284.511
1072.47	238.031
1075.85	198.683
1079.22	180.503
1082.59	138.961
1085.97	128.098
1089.34	112.4
1092.72	62.0991
1096.09	66.3904
1099.47	61.7054
1102.84	37.4238
1106.22	12.3665
1109.59	12.2933
1112.97	7.02307
1116.34	17.514
1119.72	36.0452
1123.09	32.9811
1126.47	11.5879
1129.84	0.360352
1133.22	13.5384
1136.59	2.76636
1139.97	22.6085
1143.34	18.4111
1146.72	2.75867
1150.09	39.6327
1153.47	33.3793
1156.84	29.0428
1160.21	42.541
1163.59	71.0572
1166.96	74.8257
1170.34	81.7969
1173.71	91.4085
1177.09	83.3232
1180.46	77.0968
1183.84	86.7745
1187.21	80.1459
1190.59	67.0894
1193.96	80.7639
1197.34	62.3886
1200.71	74.2689
1204.09	67.5952
1207.46	39.7165
1210.84	39.7471
1214.21	41.6049
1217.59	47.3379
1220.96	49.0497
1224.34	41.8297
1227.71	46.2929
1231.09	24.9453
1234.46	79.0619
1237.84	44.2176
1241.21	33.4047
1244.59	44.8882
1247.96	67.7334
1251.34	36.7955
1254.71	40.8234
1258.09	36.6603
1261.46	35.3644
1264.83	11.0358
1268.21	4.23248
1271.58	23.5798
1274.96	22.8506
1278.33	25.1049
1281.71	25.1691
1285.08	41.0977
1288.46	0.01416
1291.83	15.0975
1295.21	25.2419
1298.58	13.2393
1301.96	8.95386
