Measurement: Raman, 780 nm, unoriented, Raman Data Processed
Mineral: Pharmacoalumite
Rruff sample: R060411
Ideal chemistry: KAl_4_(As^5+^O_4_)_3_(OH)_4_6.5H_2_O
Locality: Maria Josefa, Rodalquilar, Almeria Province, Spain
Source: Bob Jenkins
Description: Pale green, yellow and colorless transparent single cubes associated with quartz
Measured chemistry: (K_0.75_Na_0.25_)_Σ=1_(Al_3.94_Fe^3+^_0.06_)_Σ=4_(As_1.00_O_4_)_3_(OH)_4_·6.5H_2_O ; H not measured but estimated by difference and stoichiometry
Raman shift (cm-1)	intensity
205.349	0
208.242	2.89172
211.135	1.06196
214.027	1.2375
216.92	1.22112
219.813	0.286518
222.705	0.258644
225.598	0.64476
228.491	2.21548
231.383	1.18971
234.276	0.657841
237.169	2.61792
240.061	3.90556
242.954	0.577961
245.847	2.98642
248.74	0.526142
251.632	2.07735
254.525	0.791355
257.418	0.903336
260.31	0.664227
263.203	0.59549
266.096	0.93988
268.988	1.37735
271.881	1.76057
274.774	0.347256
277.667	0.061153
280.559	1.73271
283.452	3.71018
286.345	6.20385
289.237	8.32171
292.13	14.5112
295.023	18.7168
297.916	27.4766
300.808	37.21
303.701	47.8735
306.594	58.6408
309.486	73.2724
312.379	86.8335
315.272	101.035
318.164	106.054
321.057	101.851
323.95	91.9897
326.842	71.5776
329.735	53.89
332.628	42.1794
335.521	26.1754
338.413	22.8777
341.306	17.1895
344.199	17.3167
347.091	17.2602
349.984	19.0396
352.877	21.0451
355.769	25.3714
358.662	26.0485
361.555	28.8736
364.447	28.8716
367.34	34.5561
370.233	40.9057
373.126	47.5241
376.018	55.6836
378.911	62.9199
381.804	68.495
384.696	63.7897
387.589	53.4749
390.482	39.6289
393.375	27.1582
396.267	19.9679
399.16	13.363
402.053	10.555
404.945	8.06932
407.838	5.9344
410.731	2.30139
413.623	1.43296
416.516	1.31333
419.409	2.29154
422.301	0.677864
425.194	0.182453
428.087	0.72287
430.98	0.05455
433.872	0.998055
436.765	1.4944
439.658	0.032364
442.55	1.61761
445.443	0.294296
448.336	1.07587
451.228	2.30983
454.121	2.01584
457.014	2.31475
459.907	4.23436
462.799	6.84522
465.692	6.02856
468.585	7.68988
471.477	9.90646
474.37	9.35846
477.263	10.2038
480.156	9.28133
483.048	11.2535
485.941	13.7254
488.834	13.2225
491.726	14.606
494.619	15.4888
497.512	16.5332
500.404	17.9091
503.297	15.7357
506.19	13.0935
509.082	11.166
511.975	6.40665
514.868	3.49087
517.761	0.827244
520.653	0.368828
523.546	1.03085
526.439	0.739304
529.331	0.197311
532.224	0.317863
535.117	0.117554
538.01	0.874149
540.902	1.15583
543.795	1.9341
546.688	1.68227
549.58	1.18161
552.473	2.47171
555.366	6.46109
558.258	7.76599
561.151	9.3554
564.044	13.8348
566.936	20.0313
569.829	26.7744
572.722	39.6244
575.615	56.6268
578.507	77.2943
581.4	97.4823
584.293	120.624
587.185	151.074
590.078	168.531
592.971	153.761
595.863	114.489
598.756	78.0379
601.649	56.5796
604.542	44.7424
607.434	40.6141
610.327	38.2284
613.22	35.3932
616.112	36.0712
619.005	32.0144
621.898	32.9008
624.79	28.2315
627.683	25.1449
630.576	19.8582
633.468	15.7681
636.361	14.5779
639.254	12.6001
642.146	12.7762
645.039	12.4186
647.932	11.6106
650.825	10.9667
653.717	10.9324
656.61	9.48543
659.503	8.27097
662.395	7.81134
665.288	6.1676
668.181	4.65054
671.073	4.49807
673.966	3.24446
676.859	1.52946
679.752	2.49464
682.644	1.09082
685.537	0.823404
688.43	2.01099
691.322	0.6621
694.215	4.69494
697.108	0.307936
700	0.086605
702.893	0.336864
705.786	0.211292
708.679	1.03264
711.571	0.179054
714.464	0.600597
717.357	0.481174
720.249	1.2658
723.142	2.19831
726.035	3.46123
728.928	2.85241
731.82	1.92002
734.713	3.30663
737.606	2.16079
740.498	3.60927
743.391	4.10021
746.284	3.61688
749.176	2.45095
752.069	3.79875
754.962	4.51985
757.855	2.91026
760.747	4.19422
763.64	1.24799
766.533	2.13387
769.425	2.45424
772.318	1.98511
775.211	1.91835
778.103	1.01694
780.996	0.627676
783.889	0.904728
786.782	0.235424
789.674	0.66419
792.567	0.124569
795.46	0.524883
798.352	1.10944
801.245	0.626194
804.138	2.56654
807.03	3.14621
809.923	4.19217
812.816	4.87698
815.708	2.61642
818.601	3.71048
821.494	3.98047
824.386	5.07855
827.279	3.89494
830.172	4.63105
833.065	4.90852
835.957	4.64608
838.85	4.89383
841.743	4.28777
844.635	8.1016
847.528	9.13783
850.421	16.3472
853.313	20.4253
856.206	25.4667
859.099	24.8106
861.992	20.2533
864.884	13.3075
867.777	10.3046
870.67	9.60218
873.562	12.5067
876.455	13.525
879.348	18.4806
882.24	25.7402
885.133	33.0493
888.026	39.5136
890.919	49.673
893.811	61.1258
896.704	72.8591
899.597	88.3356
902.489	100.441
905.382	115.311
908.275	124.873
911.168	127.606
914.06	121.641
916.953	114.224
919.846	98.796
922.738	84.6934
925.631	68.6839
928.524	53.1252
931.416	39.6904
934.309	28.3248
937.202	21.7365
940.095	11.6842
942.987	7.52824
945.88	3.76432
948.773	1.95824
951.665	1.61992
954.558	0.887405
957.451	0.957201
960.343	1.90363
963.236	0.260876
966.129	1.41436
969.021	1.48278
971.914	0.836332
974.807	0.985294
977.699	1.15928
980.592	1.27212
983.485	1.36816
986.378	2.68018
989.27	1.77337
992.163	2.02903
995.056	3.34214
997.948	4.9955
1000.84	5.29009
1003.73	6.03812
1006.63	7.57233
1009.52	5.45093
1012.41	7.35428
1015.3	7.17508
1018.2	8.03279
1021.09	5.92335
1023.98	6.48399
1026.88	7.74553
1029.77	7.79752
1032.66	7.79093
1035.55	7.19398
1038.45	7.48049
1041.34	4.94371
1044.23	4.68765
1047.12	4.76906
1050.02	4.10465
1052.91	1.97859
1055.8	1.06715
1058.69	2.19418
1061.59	1.33305
1064.48	1.67989
1067.37	0.101133
1070.27	1.08745
1073.16	0.675282
1076.05	0.20175
1078.94	0.337862
1081.84	1.49686
1084.73	2.65317
1087.62	1.46567
1090.52	4.16584
1093.41	5.37546
1096.3	7.30063
1099.19	8.18389
1102.09	7.36417
1104.98	8.19399
1107.87	11.9644
1110.76	14.0106
1113.66	12.884
1116.55	12.6034
1119.44	8.51001
1122.33	7.08388
1125.23	3.59443
1128.12	5.32752
1131.01	3.23195
1133.9	3.14236
1136.8	2.44198
1139.69	3.31831
1142.58	4.65429
1145.48	3.59888
1148.37	3.86656
1151.26	3.90074
1154.15	4.97937
1157.05	7.20157
1159.94	6.8308
1162.83	6.46714
1165.72	3.74487
1168.62	3.98101
1171.51	4.15768
1174.4	3.07788
1177.3	2.43374
1180.19	1.83349
1183.08	2.33443
1185.97	0.807463
1188.87	0.552256
1191.76	0.78812
1194.65	0.135298
1197.55	0.689148
1200.44	0.096415
1203.33	0.35677
1206.22	0.556179
1209.12	0.84856
1212.01	0.148308
1214.9	1.92163
1217.79	0.331736
1220.69	0.33906
1223.58	1.03929
1226.47	1.16882
1229.36	1.45786
1232.26	0.209986
1235.15	2.72511
1238.04	3.70507
1240.93	2.53377
1243.83	2.93434
1246.72	2.53723
1249.61	0.093904
1252.51	1.2805
1255.4	2.12862
1258.29	2.29194
1261.18	2.24835
1264.08	1.82264
1266.97	1.71894
1269.86	2.2255
1272.76	3.74289
1275.65	1.60574
1278.54	1.78908
1281.43	1.44807
1284.33	0.857843
