Measurement: Raman, 532 nm, unoriented, Raman Data Processed
Mineral: Phenakite
Rruff sample: R050137
Ideal chemistry: Be_2_SiO_4_
Locality: Mount Antero area, Chaffee County, Colorado, USA
Source: Dave Bunk Minerals
Description: Colorless tabular hexagonal crystal
Measured chemistry: Be_2.00_Si_1.00_O_4_
Raman shift (cm-1)	intensity
153.667	0
156.56	35.0754
159.453	221.177
162.345	682.106
165.238	21.2624
168.131	0.592941
171.023	1.7616
173.916	1.88419
176.809	0.37532
179.702	2.2137
182.594	1.1678
185.487	0.713959
188.38	0.056549
191.272	0.099304
194.165	1.20737
197.058	0.995392
199.95	5.12826
202.843	33.4738
205.736	62.7874
208.629	70.9191
211.521	111.221
214.414	166.243
217.307	271.896
220.199	812.558
223.092	1846.72
225.985	145.903
228.877	277.112
231.77	621.964
234.663	31.9251
237.555	15.7922
240.448	8.37961
243.341	10.1068
246.234	12.4059
249.126	19.8279
252.019	51.2319
254.912	156.803
257.804	66.9798
260.697	14.2609
263.59	19.9872
266.483	24.6985
269.375	36.8133
272.268	57.206
275.161	139.112
278.053	273.239
280.946	327.243
283.839	19.8998
286.731	6.65959
289.624	6.05737
292.517	8.50755
295.409	20.3222
298.302	30.8957
301.195	2.32207
304.088	0.531723
306.98	0.811371
309.873	0.993973
312.766	2.58487
315.658	0.728073
318.551	0.848373
321.444	2.42813
324.337	3.11383
327.229	1.99266
330.122	8.80185
333.015	17.1261
335.907	22.0707
338.8	27.1915
341.693	45.699
344.585	122.071
347.478	335.782
350.371	187.631
353.264	13.2938
356.156	6.84801
359.049	5.93858
361.942	5.25862
364.834	8.76059
367.727	36.7672
370.62	42.3525
373.512	58.3956
376.405	91.9102
379.298	186.417
382.19	525.373
385.083	933.665
387.976	82.306
390.869	16.7277
393.761	6.80562
396.654	0.549789
399.547	1.32207
402.439	0.995407
405.332	0.703659
408.225	1.80177
411.118	3.56915
414.01	6.48689
416.903	0.817261
419.796	2.14832
422.688	6.68964
425.581	19.2113
428.474	73.2902
431.366	80.353
434.259	89.0791
437.152	142.535
440.045	318.846
442.937	827.574
445.83	1534.14
448.723	191.46
451.615	49.1727
454.508	27.8789
457.401	25.3533
460.293	40.0722
463.186	87.8
466.079	155.235
468.971	26.0183
471.864	10.8127
474.757	12.1656
477.65	21.8601
480.542	48.0633
483.435	50.7087
486.328	25.7533
489.22	3.60725
492.113	1.95224
495.006	1.17423
497.899	2.10687
500.791	0.911652
503.684	2.40027
506.577	6.1763
509.469	27.7956
512.362	41.2661
515.255	61.9558
518.147	99.6436
521.04	230.207
523.933	518.283
526.825	713.28
529.718	110.528
532.611	28.5301
535.504	16.1942
538.396	9.27011
541.289	7.44437
544.182	4.51944
547.074	6.16357
549.967	1.9743
552.86	0.053314
555.752	0.177795
558.645	0.474731
561.538	1.41296
564.431	3.97818
567.323	5.82297
570.216	10.7307
573.109	31.3393
576.001	67.606
578.894	79.7697
581.787	18.7708
584.679	11.604
587.572	9.83725
590.465	12.1658
593.357	22.0731
596.25	52.707
599.143	121.058
602.036	111.97
604.928	32.0973
607.821	38.5326
610.714	76.9393
613.606	154.86
616.499	267.66
619.392	106.112
622.284	21.2343
625.177	6.83661
628.07	0.530853
630.963	1.09692
633.855	2.36539
636.748	1.63162
639.641	0.895905
642.533	2.68182
645.426	0.206116
648.319	1.65958
651.212	5.58322
654.104	9.5069
656.997	19.8611
659.89	32.7826
662.782	48.2631
665.675	61.8347
668.568	94.1442
671.46	61.961
674.353	31.3747
677.246	27.3446
680.139	41.7277
683.031	76.0704
685.924	130.861
688.817	105.737
691.709	50.8318
694.602	47.5277
697.495	69.2111
700.388	120.268
703.28	195.407
706.173	156.838
709.066	48.5048
711.958	15.5915
714.851	8.33054
717.744	8.01446
720.636	10.2387
723.529	17.1612
726.422	41.2622
729.314	84.6776
732.207	71.1255
735.1	17.902
737.992	2.89743
740.885	0.080536
743.778	1.37512
746.671	1.11005
749.563	0.029419
752.456	6.27154
755.349	13.5723
758.241	24.1691
761.134	51.9289
764.027	111.708
766.919	158.559
769.812	124.804
772.705	181.732
775.598	342.665
778.49	458.546
781.383	231.453
784.276	199.767
787.168	269.354
790.061	156.571
792.954	67.9276
795.846	44.1973
798.739	42.9177
801.632	60.6132
804.525	102.738
807.417	113.812
810.31	42.9239
813.203	14.9871
816.095	3.91003
818.988	0.384216
821.881	4.00134
824.774	4.55579
827.666	3.49472
830.559	4.17194
833.452	3.43756
836.344	2.69321
839.237	0.13736
842.13	2.1366
845.022	6.37897
847.915	13.8364
850.808	19.751
853.701	32.6451
856.593	57.2921
859.486	101.893
862.379	194.73
865.271	496.566
868.164	974.895
871.057	1553.23
873.949	2973.28
876.842	7216.49
879.735	13055
882.628	4919.26
885.52	1426.31
888.413	652.556
891.306	382.5
894.198	256.683
897.091	187.677
899.984	148.335
902.876	136.774
905.769	154.643
908.662	197.896
911.554	308.976
914.447	591.351
917.34	981.867
920.233	720.883
923.125	623.947
926.018	619.279
928.911	260.569
931.803	211.399
934.696	332.058
937.589	605.621
940.481	592.145
943.374	336.146
946.267	362.93
949.16	693.494
952.052	972.158
954.945	377.586
957.838	122.515
960.73	49.8846
963.623	19.2253
966.516	5.8418
969.408	3.27466
972.301	6.84634
975.194	9.13657
978.087	10.1222
980.979	3.08521
983.872	6.93762
986.765	16.4336
989.657	41.1613
992.55	78.3429
995.443	103.046
998.335	92.9566
1001.23	64.1301
1004.12	75.5415
1007.01	96.6449
1009.91	165.454
1012.8	237.743
1015.69	276.574
1018.58	389.055
1021.48	438.588
1024.37	274.66
1027.26	132.581
1030.15	71.5222
1033.05	41.0161
1035.94	20.1895
1038.83	10.309
1041.73	7.34018
1044.62	2.36758
1047.51	5.30722
1050.4	4.36703
1053.3	1.52383
1056.19	0.148163
1059.08	3.08887
1061.97	1.52817
1064.87	1.50366
1067.76	0.504425
1070.65	0.265503
1073.55	0.97113
1076.44	2.31143
1079.33	4.30911
1082.22	1.30621
1085.12	2.43011
1088.01	1.27753
1090.9	2.12546
1093.8	0.384705
1096.69	3.54172
1099.58	3.19687
1102.47	3.61636
1105.37	5.14475
1108.26	6.89456
1111.15	7.24878
1114.04	9.28323
1116.94	7.51807
1119.83	7.50619
1122.72	6.33319
1125.61	7.53296
1128.51	4.07184
1131.4	3.76718
1134.29	3.01782
1137.18	2.22952
1140.08	4.8385
1142.97	2.06473
1145.86	1.45969
1148.76	0.407013
1151.65	1.73181
1154.54	2.48386
1157.43	0.243225
1160.33	0.105286
1163.22	1.92435
1166.11	1.19574
1169.01	0.357727
1171.9	0.542023
1174.79	2.52972
1177.68	2.08511
1180.58	3.44693
1183.47	1.72235
1186.36	4.54764
1189.25	1.88129
1192.15	4.67523
1195.04	4.84045
1197.93	6.22922
1200.82	8.51364
1203.72	6.38943
1206.61	9.32178
1209.5	8.21387
1212.39	11.6119
1215.29	8.01465
1218.18	6.59515
1221.07	5.95361
1223.97	4.93057
1226.86	7.32922
1229.75	6.04211
1232.64	4.75354
1235.54	3.32129
1238.43	1.927
1241.32	4.00223
1244.21	1.48978
1247.11	3.81061
1250	2.92819
1252.89	1.41504
1255.79	2.29761
1258.68	2.95233
1261.57	0.40625
1264.46	0.773499
1267.36	4.29111
1270.25	1.55316
1273.14	0.825287
1276.04	0.030762
1278.93	2.66257
1281.82	2.12125
1284.71	0.569244
1287.61	3.90234
1290.5	1.23764
1293.39	1.48032
1296.28	0.858826
1299.18	6.07236
1302.07	0.740662
1304.96	0.574921
