Measurement: Raman, 532 nm, unoriented, Raman Data Processed
Mineral: Phenakite
Rruff sample: R040046
Ideal chemistry: Be_2_SiO_4_
Locality: San Miguel de Piracicaba, Minas Gerais, Brazil
Source: University of Arizona Mineral Museum
Description: Colorless crystal fragments
Measured chemistry: Be_2.02_Si_0.99_O_4_
Raman shift (cm-1)	intensity
127.79	0
131.165	3.44437
134.539	1.33524
137.914	49.0121
141.289	37.176
144.664	57.5692
148.038	59.8172
151.413	70.8745
154.788	130.531
158.163	191.829
161.538	274.813
164.913	65.6451
168.287	32.5352
171.662	48.0547
175.037	48.657
178.412	54.3575
181.787	40.5001
185.161	46.4582
188.536	11.6338
191.911	23.8505
195.286	27.5415
198.661	34.5915
202.036	2.70514
205.41	20.5992
208.785	25.7224
212.16	263.053
215.535	456.337
218.91	753.334
222.284	1284.36
225.659	331.346
229.034	641.873
232.409	163.656
235.784	12.0516
239.159	4.40918
242.533	4.06476
245.908	48.2762
249.283	57.4766
252.658	93.5802
256.033	98.9569
259.407	1.74225
262.782	19.9459
266.157	40.8451
269.532	100.894
272.907	145.075
276.281	249.782
279.656	308.507
283.031	15.1809
286.406	12.4877
289.781	20.3393
293.156	20.0447
296.53	90.9375
299.905	6.02686
303.28	25.7789
306.655	14.0212
310.03	28.4145
313.404	1.77612
316.779	8.24493
320.154	1.80206
323.529	1.73267
326.904	10.1318
330.279	4.72607
333.653	15.4608
337.028	50.3188
340.403	152.992
343.778	234.28
347.153	525.145
350.527	68.9116
353.902	17.4447
357.277	20.8151
360.652	32.8133
364.027	11.0892
367.401	38.1162
370.776	49.9899
374.151	128.439
377.526	192.919
380.901	351.968
384.276	487.795
387.65	39.4075
391.025	7.69721
394.4	8.89441
397.775	6.62952
401.15	0.629944
404.524	23.792
407.899	27.8422
411.274	21.3884
414.649	5.84735
418.024	4.31811
421.399	26.9024
424.773	17.6918
428.148	49.9857
431.523	121.278
434.898	329.007
438.273	504.183
441.647	891.141
445.022	1387.29
448.397	120.526
451.772	68.6677
455.147	59.0845
458.522	72.924
461.896	92.5286
465.271	117.763
468.646	52.0528
472.021	34.4429
475.396	53.3062
478.77	70.2972
482.145	61.8261
485.52	38.2706
488.895	6.78534
492.27	4.65375
495.644	3.53595
499.019	11.9616
502.394	9.42114
505.769	15.792
509.144	57.0657
512.519	114.082
515.893	216.452
519.268	721.546
522.643	611.691
526.018	729.13
529.393	107.647
532.767	45.1553
536.142	17.913
539.517	33.6092
542.892	25.8705
546.267	0.776978
549.641	15.7416
553.016	25.718
556.391	5.93066
559.766	21.2781
563.141	41.7117
566.515	37.6476
569.89	67.1463
573.265	124.357
576.64	183.388
580.015	89.4282
583.39	26.097
586.764	71.7695
590.139	95.0068
593.514	152.808
596.889	253.406
600.264	386.709
603.639	114.89
607.013	127.851
610.388	175.153
613.763	256.944
617.138	257.526
620.513	87.5529
623.887	69.227
627.262	74.3656
630.637	57.6939
634.012	62.7839
637.387	12.8503
640.761	25.3602
644.136	4.57745
647.511	5.13367
650.886	23.2095
654.261	2.31574
657.635	31.2871
661.01	20.0776
664.385	38.8582
667.76	218.034
671.135	41.9476
674.51	6.05817
677.884	22.1749
681.259	78.6395
684.634	156.584
688.009	133.701
691.384	91.9368
694.759	94.109
698.133	180.494
701.508	259.247
704.883	221.481
708.258	59.6733
711.633	47.0627
715.007	21.032
718.382	31.6409
721.757	66.8143
725.132	103.876
728.507	196.461
731.881	89.3433
735.256	12.1269
738.631	9.22186
742.006	10.347
745.381	31.5605
748.755	28.2295
752.13	29.9226
755.505	36.6996
758.88	67.241
762.255	140.082
765.63	237.02
769.004	242.74
772.379	353.166
775.754	585.4
779.129	447.722
782.504	199.121
785.878	246.501
789.253	111.375
792.628	36.6946
796.003	22.9255
799.378	7.32422
802.753	22.2621
806.127	70.506
809.502	2.61401
812.877	35.041
816.252	23.5425
819.627	7.51953
823.001	15.7685
826.376	24.3242
829.751	29.7929
833.126	61.3923
836.501	109.1
839.875	101.247
843.25	37.8505
846.625	23.1079
850	18.5049
853.375	13.9862
856.75	61.6979
860.124	211.371
863.499	612.697
866.874	1821.5
870.249	3602.87
873.624	6567.78
876.998	11285
880.373	9063.98
883.748	1873.64
887.123	691.119
890.498	369.149
893.872	221.287
897.247	173.379
900.622	135.393
903.997	195.188
907.372	486.95
910.747	696.814
914.121	1187.97
917.496	1517.79
920.871	811.243
924.246	762.201
927.621	419.426
930.995	486.192
934.37	793.741
937.745	1214.38
941.12	804.582
944.495	776.683
947.87	1086.3
951.244	1252.88
954.619	349.096
957.994	104.36
961.369	16.9768
964.744	3.21326
968.118	23.3092
971.493	16.7687
974.868	6.80029
978.243	7.06152
981.618	15.5409
984.992	42.4449
988.367	79.2274
991.742	97.582
995.117	124.74
998.492	102.913
1001.87	92.5232
1005.24	125.996
1008.62	183.203
1011.99	235.213
1015.37	269.902
1018.74	317.635
1022.12	266.677
1025.49	140.149
1028.87	88.3772
1032.24	52.776
1035.62	25.406
1038.99	6.52844
1042.36	31.7683
1045.74	34.0421
1049.11	46.3197
1052.49	10.1504
1055.86	20.9298
1059.24	16.731
1062.61	8.09338
1065.99	7.7605
1069.36	9.40942
1072.74	14.9026
1076.11	1.97388
1079.49	26.6517
1082.86	18.7045
1086.24	27.1909
1089.61	23.8543
1092.99	9.74768
1096.36	28.1692
1099.74	4.0542
1103.11	8.87646
1106.49	36.8054
1109.86	28.0811
1113.23	0.356079
1116.61	18.5286
1119.98	10.6799
1123.36	13.9383
1126.73	29.8881
1130.11	13.5625
1133.48	2.77624
1136.86	18.6775
1140.23	34.4343
1143.61	15.5093
1146.98	22.937
1150.36	13.4086
1153.73	6.37476
1157.11	8.85632
1160.48	10.3071
1163.86	5.94336
1167.23	11.1055
1170.61	3.6626
1173.98	23.2648
1177.36	0.032959
1180.73	21.4351
1184.11	15.0247
1187.48	31.0861
1190.86	0.772583
1194.23	24.894
1197.61	6.11621
1200.98	43.6072
1204.36	36.2006
1207.73	27.5841
1211.11	52.7696
1214.48	57.9064
1217.86	52.2602
1221.23	15.9005
1224.6	4.42468
1227.98	40.2281
1231.35	29.3768
1234.73	14.5148
1238.1	17.6865
1241.48	52.9397
1244.85	47.5126
1248.23	58.7188
1251.6	35.5624
1254.98	33.494
1258.35	27.8086
1261.73	11.7462
1265.1	29.4631
1268.48	44.2266
1271.85	36.5196
1275.23	46.537
1278.6	36.2638
1281.98	42.2277
1285.35	9.3313
