Measurement: Raman, 780 nm, unoriented, Raman Data Processed
Mineral: Phenakite
Rruff sample: R050137
Ideal chemistry: Be_2_SiO_4_
Locality: Mount Antero area, Chaffee County, Colorado, USA
Source: Dave Bunk Minerals
Description: Colorless tabular hexagonal crystal
Measured chemistry: Be_2.00_Si_1.00_O_4_
Raman shift (cm-1)	intensity
143.225	0
146.118	1.04846
149.011	4.18502
151.904	11.5906
154.796	18.6867
157.689	37.9089
160.582	179.956
163.474	56.3064
166.367	5.07982
169.26	0.916676
172.152	1.3953
175.045	0.486198
177.938	0.692947
180.831	0.519142
183.723	0.063652
186.616	0.448143
189.509	1.26503
192.401	1.00622
195.294	2.97399
198.187	6.83038
201.079	46.6467
203.972	50.7338
206.865	53.3186
209.757	83.222
212.65	105.227
215.543	127.9
218.436	228.955
221.328	958.904
224.221	217.317
227.114	106.965
230.006	433.543
232.899	99.1074
235.792	10.0238
238.685	6.09705
241.577	3.99258
244.47	4.19669
247.363	4.42076
250.255	8.45054
253.148	31.1019
256.041	63.0693
258.933	6.9313
261.826	7.14017
264.719	4.8096
267.611	7.51442
270.504	13.0087
273.397	22.3903
276.29	60.9541
279.182	163.173
282.075	25.9494
284.968	0.684433
287.86	0.318279
290.753	0.178429
293.646	5.46957
296.538	30.9451
299.431	2.29845
302.324	1.42217
305.217	4.39648
308.109	0.230865
311.002	0.916225
313.895	3.02048
316.787	4.95298
319.68	6.78732
322.573	10.3579
325.466	14.7654
328.358	29.1359
331.251	31.0176
334.144	31.7447
337.036	33.1399
339.929	35.9782
342.822	46.5094
345.714	119.774
348.607	204.081
351.5	25.7127
354.392	9.42624
357.285	6.54921
360.178	7.01397
363.071	8.52091
365.963	23.3651
368.856	17.5982
371.749	22.2705
374.641	29.6961
377.534	41.7931
380.427	93.3832
383.32	264.144
386.212	69.6348
389.105	8.0486
391.998	3.39492
394.89	1.54785
397.783	0.251099
400.676	0.18668
403.568	1.21047
406.461	1.13436
409.354	0.630352
412.247	3.9752
415.139	0.198219
418.032	0.996986
420.925	2.3603
423.817	12.393
426.71	43.6835
429.603	43.6726
432.495	48.3871
435.388	69.1874
438.281	99.245
441.173	228.435
444.066	617.452
446.959	225.938
449.852	41.5669
452.744	13.7992
455.637	11.4687
458.53	12.5847
461.422	21.2811
464.315	49.768
467.208	19.3978
470.101	6.22502
472.993	3.6195
475.886	5.68142
478.779	21.8451
481.671	19.4303
484.564	3.80108
487.457	0.134956
490.349	0.620155
493.242	0.563141
496.135	0.664619
499.027	0.625839
501.92	1.06632
504.813	3.80087
507.706	23.4369
510.598	26.9559
513.491	30.805
516.384	42.7793
519.276	62.7107
522.169	151.012
525.062	331.837
527.955	97.3424
530.847	18.1007
533.74	6.51403
536.633	4.63316
539.525	2.79294
542.418	4.26257
545.311	3.96467
548.203	0.821682
551.096	1.46019
553.989	1.17749
556.881	0.625923
559.774	3.68186
562.667	6.14789
565.56	8.07654
568.452	11.4204
571.345	17.5023
574.238	35.1847
577.13	63.2312
580.023	22.7147
582.916	10.6226
585.808	8.83825
588.701	8.28037
591.594	11.6207
594.487	19.6195
597.379	58.7835
600.272	99.5021
603.165	21.497
606.057	15.42
608.95	21.1217
611.843	37.7621
614.736	89.2617
617.628	67.5688
620.521	13.8576
623.414	4.13773
626.306	1.31232
629.199	0.278564
632.092	0.254288
634.984	0.520554
637.877	0.730644
640.77	0.211147
643.663	0.656895
646.555	0.609264
649.448	0.511623
652.341	3.14326
655.233	3.36826
658.126	4.25658
661.019	8.65561
663.911	9.53078
666.804	21.0469
669.697	19.1086
672.59	7.99943
675.482	4.86008
678.375	5.66036
681.268	9.46674
684.16	18.266
687.053	28.9004
689.946	21.9516
692.838	21.9395
695.731	28.9835
698.624	43.1752
701.516	73.8785
704.409	89.2191
707.302	31.3285
710.195	9.9724
713.087	6.89377
715.98	6.32348
718.873	7.43584
721.765	8.58779
724.658	15.5748
727.551	37.2103
730.443	54.8152
733.336	14.6981
736.229	1.85426
739.122	0.409531
742.014	0.228485
744.907	0.250942
747.8	1.55247
750.692	5.31125
753.585	8.56193
756.478	12.3962
759.37	25.6026
762.263	57.6967
765.156	93.6887
768.049	76.1258
770.941	77.5982
773.834	128.611
776.727	226.148
779.619	144.637
782.512	81.5544
785.405	108.929
788.298	90.1725
791.19	35.6231
794.083	20.3467
796.976	13.9557
799.868	12.9992
802.761	18.8389
805.654	25.7173
808.546	11.2746
811.439	4.90373
814.332	0.326538
817.225	1.1847
820.117	0.671921
823.01	3.20921
825.903	2.45424
828.795	2.58441
831.688	1.1742
834.581	0.187126
837.473	1.79801
840.366	1.62277
843.259	5.04905
846.151	7.55386
849.044	12.5585
851.937	21.4102
854.83	37.9305
857.722	65.5306
860.615	136.582
863.508	397.832
866.4	654.439
869.293	829.056
872.186	1243.89
875.078	2234.72
877.971	5491.29
880.864	3459.94
883.756	891.786
886.649	362.259
889.542	201.028
892.435	135.751
895.327	98.8418
898.22	80.2866
901.113	76.6453
904.005	89.7476
906.898	98.2585
909.791	131.156
912.683	205.249
915.576	378.408
918.469	352.772
921.362	161.457
924.254	144.915
927.147	97.3455
930.04	91.8051
932.932	130.83
935.825	235.293
938.718	301.006
941.611	139.54
944.503	62.7357
947.396	48.1811
950.289	63.1322
953.181	33.4507
956.074	9.87785
958.967	2.64887
961.859	0.186249
964.752	1.43975
967.645	2.08894
970.538	0.883247
973.43	3.22623
976.323	2.79079
979.216	1.63707
982.108	5.26542
985.001	9.03377
987.894	15.5066
990.786	26.8558
993.679	40.0076
996.572	35.2735
999.465	28.0904
1002.36	25.64
1005.25	34.2781
1008.14	49.1662
1011.03	73.155
1013.93	75.1799
1016.82	85.5684
1019.71	104.183
1022.61	79.6685
1025.5	40.0016
1028.39	22.0955
1031.28	12.6016
1034.18	7.38234
1037.07	3.52969
1039.96	3.55244
1042.86	2.47031
1045.75	1.50577
1048.64	2.22343
1051.53	0.035053
1054.43	0.96043
1057.32	0.684216
1060.21	0.356781
1063.1	0.898506
1066	0.333439
1068.89	0.291286
1071.78	1.19698
1074.67	1.38831
1077.57	0.222595
1080.46	0.840191
1083.35	2.61776
1086.24	2.96588
1089.14	4.33
1092.03	8.39272
1094.92	13.2046
1097.82	17.6391
1100.71	20.6557
1103.6	28.2771
1106.49	35.3385
1109.39	46.2227
1112.28	57.4019
1115.17	74.199
1118.07	94.3333
1120.96	116.582
1123.85	133.637
1126.74	126.328
1129.64	110.847
1132.53	92.3384
1135.42	72.1943
1138.31	54.6025
1141.21	40.1808
1144.1	30.2256
1146.99	24.8519
1149.88	18.8814
1152.78	15.7955
1155.67	11.5129
1158.56	11.4916
1161.46	7.895
1164.35	4.35822
1167.24	0.800209
1170.13	1.43917
1173.03	0.437637
1175.92	0.505684
1178.81	1.21779
1181.7	0.26046
1184.6	2.24558
1187.49	4.69495
1190.38	9.08925
1193.28	11.0505
1196.17	17.1014
1199.06	21.7779
1201.95	26.3067
1204.85	30.3652
1207.74	29.8619
1210.63	31.194
1213.52	30.0317
1216.42	28.6922
1219.31	25.5794
1222.2	24.7158
1225.1	23.6207
1227.99	19.2688
1230.88	21.3282
1233.77	20.5549
1236.67	20.1533
1239.56	17.8953
1242.45	12.6113
1245.34	7.89755
1248.24	3.93806
1251.13	4.30527
1254.02	2.08044
1256.91	2.27573
1259.81	0.964043
1262.7	0.231483
1265.59	0.043167
1268.49	0.768959
1271.38	0.616844
1274.27	1.38115
1277.16	1.56333
1280.06	4.54271
1282.95	0.718697
1285.84	0.151138
