Measurement: Raman, 785 nm, unoriented, Raman Data Processed
Mineral: Phenakite
Rruff sample: R040046
Ideal chemistry: Be_2_SiO_4_
Locality: San Miguel de Piracicaba, Minas Gerais, Brazil
Source: University of Arizona Mineral Museum
Description: Colorless crystal fragments
Measured chemistry: Be_2.02_Si_0.99_O_4_
Raman shift (cm-1)	intensity
105.136	0
108.029	7.30483
110.922	16.7061
113.814	16.8946
116.707	7.58568
119.6	4.57799
122.492	3.14761
125.385	2.49323
128.278	15.9656
131.171	40.13
134.063	48.3361
136.956	7.09842
139.849	0.323639
142.741	30.6098
145.634	49.4091
148.527	71.4539
151.419	80.1431
154.312	91.9993
157.205	89.1607
160.097	169.781
162.99	94.0182
165.883	52.5411
168.776	74.3483
171.668	56.7168
174.561	49.4491
177.454	57.6851
180.346	44.7515
183.239	36.0003
186.132	29.3669
189.024	38.2094
191.917	23.8815
194.81	23.697
197.703	32.4231
200.595	27.3475
203.488	30.2667
206.381	29.0262
209.273	27.1932
212.166	83.4509
215.059	227.98
217.952	459.74
220.844	1138.52
223.737	318.599
226.63	199.504
229.522	391.17
232.415	106.272
235.308	21.8136
238.2	15.0277
241.093	14.1198
243.986	7.84778
246.879	16.1346
249.771	34.004
252.664	38.8687
255.557	56.8045
258.449	4.81879
261.342	3.84828
264.235	0.646042
267.127	3.57649
270.02	28.3122
272.913	73.4928
275.805	137.167
278.698	213.62
281.591	42.5262
284.484	1.29402
287.376	18.6625
290.269	19.4295
293.162	58.6526
296.054	96.2887
298.947	36.4243
301.84	24.9896
304.733	42.4836
307.625	29.0716
310.518	32.0133
313.411	22.5984
316.303	5.19841
319.196	2.43425
322.089	0.992584
324.981	18.8499
327.874	9.76425
330.767	5.02196
333.659	3.35788
336.552	7.94098
339.445	27.4111
342.338	82.7102
345.23	137.712
348.123	204.28
351.016	20.1934
353.908	7.60909
356.801	13.535
359.694	2.72678
362.587	7.51656
365.479	5.12656
368.372	21.2034
371.265	11.8887
374.157	23.932
377.05	102.404
379.943	149.897
382.835	314.683
385.728	80.5228
388.621	11.9424
391.514	1.46728
394.406	8.41727
397.299	12.8027
400.192	9.72819
403.084	6.35233
405.977	7.3423
408.87	1.1129
411.762	19.3009
414.655	2.47298
417.548	6.26572
420.44	25.8635
423.333	16.9168
426.226	32.2766
429.119	28.2849
432.011	12.4822
434.904	45.4622
437.797	167.492
440.689	321.29
443.582	677.504
446.475	249.635
449.368	33.9547
452.26	19.2787
455.153	12.3448
458.046	17.1148
460.938	39.1488
463.831	63.757
466.724	9.71806
469.616	6.49474
472.509	8.41568
475.402	37.6654
478.294	59.3154
481.187	62.6408
484.08	45.8184
486.973	17.7393
489.865	20.5854
492.758	6.42714
495.651	2.14076
498.543	17.4042
501.436	4.76952
504.329	0.503998
507.221	18.6907
510.114	11.5642
513.007	19.9461
515.899	46.8347
518.792	133.724
521.685	241.184
524.578	451.77
527.47	143.924
530.363	20.9922
533.256	8.66106
536.148	0.959396
539.041	24.4213
541.934	15.7527
544.827	21.7065
547.719	2.19525
550.612	4.37466
553.505	1.315
556.397	8.98544
559.29	12.0019
562.183	3.82463
565.075	7.10634
567.968	9.87204
570.861	24.1238
573.754	39.8964
576.646	78.0919
579.539	39.7099
582.432	17.6304
585.324	9.2869
588.217	5.22545
591.11	48.8211
594.002	124.499
596.895	252.623
599.788	405.505
602.681	68.0505
605.573	40.2671
608.466	40.2612
611.359	55.7151
614.251	102.184
617.144	76.7645
620.037	23.4338
622.929	19.9338
625.822	11.592
628.715	4.01569
631.607	26.4999
634.5	5.83316
637.393	11.9958
640.286	11.9649
643.178	14.314
646.071	3.01869
648.964	14.2945
651.856	7.40836
654.749	3.54372
657.642	4.58919
660.534	24.7851
663.427	22.3051
666.32	32.052
669.213	22.8841
672.105	16.0145
674.998	23.3445
677.891	23.4932
680.783	50.6852
683.676	71.5415
686.569	98.4936
689.462	33.9434
692.354	28.1352
695.247	42.0514
698.14	73.5328
701.032	100.868
703.925	90.0957
706.818	30.2888
709.71	3.90483
712.603	13.7869
715.496	1.19743
718.389	0.243896
721.281	16.3947
724.174	36.0485
727.067	56.9922
729.959	57.5777
732.852	21.419
735.745	8.51022
738.638	7.11845
741.53	6.55498
744.423	1.03006
747.316	3.5437
750.208	6.78233
753.101	1.06363
755.994	12.3207
758.886	44.3756
761.779	90.2054
764.672	121.746
767.564	89.7059
770.457	77.562
773.35	151.924
776.243	230.098
779.135	167.054
782.028	125.938
784.921	178.291
787.813	148.166
790.706	58.1102
793.599	45.1844
796.491	17.735
799.384	13.8437
802.277	44.8922
805.17	46.5138
808.062	28.5214
810.955	16.757
813.848	2.48665
816.74	7.14664
819.633	8.33792
822.526	2.71368
825.418	3.41768
828.311	9.22752
831.204	2.06122
834.096	8.31973
836.989	10.5709
839.882	1.45828
842.775	13.5636
845.667	1.04956
848.56	24.2132
851.453	15.8545
854.345	36.5891
857.238	52.7381
860.131	88.649
863.024	136.693
865.916	269.095
868.809	656.551
871.702	1828.47
874.594	4430.64
877.487	8562.87
880.38	6056.39
883.272	1564.93
886.165	620.089
889.058	347.529
891.951	219.937
894.843	160.315
897.736	111.654
900.629	84.9048
903.521	82.7703
906.414	86.1136
909.307	150.957
912.199	258.731
915.092	465.659
917.985	456.444
920.878	254.196
923.77	264.77
926.663	147.194
929.556	86.8674
932.448	178.43
935.341	273.788
938.234	349.132
941.126	224.05
944.019	243.895
946.912	448.994
949.804	746.86
952.697	409.469
955.59	120.889
958.483	39.6503
961.375	20.4589
964.268	16
967.161	13.1941
970.053	0.825668
972.946	6.5862
975.839	0.760391
978.731	9.89073
981.624	9.60091
984.517	14.3754
987.41	15.2836
990.302	20.2885
993.195	21.2575
996.088	20.5654
998.98	21.966
1001.87	25.4071
1004.77	32.2347
1007.66	38.2291
1010.55	84.9707
1013.44	93.3463
1016.34	106.932
1019.23	107.238
1022.12	79.5811
1025.02	29.9965
1027.91	19.8379
1030.8	30.265
1033.69	9.16804
1036.59	13.3946
1039.48	15.0994
1042.37	22.1822
1045.26	4.47008
1048.16	17.8951
1051.05	8.5195
1053.94	2.05302
1056.83	5.72661
1059.73	6.77098
1062.62	6.42979
1065.51	2.87065
1068.4	4.30037
1071.3	1.02592
1074.19	19.6847
1077.08	15.9981
1079.98	12.7275
1082.87	7.76317
1085.76	10.987
1088.65	7.01906
1091.55	7.59908
1094.44	1.32953
1097.33	12.3435
1100.22	10.1199
1103.12	10.4704
1106.01	0.309738
1108.9	7.8269
1111.8	16.4714
1114.69	7.40494
1117.58	21.3401
1120.47	12.7443
1123.37	15.401
1126.26	9.0159
1129.15	12.1303
1132.05	13.4343
1134.94	14.3719
1137.83	12.9671
1140.72	24.3533
1143.62	21.4127
1146.51	16.7007
1149.4	7.42279
1152.29	0.067169
1155.19	14.3063
1158.08	5.35086
1160.97	0.99408
1163.86	11.5374
1166.76	4.95734
1169.65	13.9496
1172.54	20.1271
1175.43	6.06305
1178.33	19.102
1181.22	11.8257
1184.11	14.9514
1187.01	15.2149
1189.9	26.6044
1192.79	11.7351
1195.68	13.5553
1198.58	12.7622
1201.47	14.3435
1204.36	3.82976
1207.26	20.2877
1210.15	23.6039
1213.04	8.4485
1215.93	19.4447
1218.83	21.1385
1221.72	1.48593
1224.61	5.88976
1227.5	14.7903
1230.4	3.70357
1233.29	11.0718
1236.18	5.02672
1239.07	9.4982
1241.97	21.5524
1244.86	12.9429
1247.75	24.2582
1250.64	13.2691
1253.54	2.22034
1256.43	16.3389
