Measurement: Raman, 514 nm, unoriented, Raman Data Processed
Mineral: Phenakite
Rruff sample: R040132
Ideal chemistry: Be_2_SiO_4_
Locality: Krager√∏, Telemark, Norway
Source: University of Arizona Mineral Museum
Description: Colorless fragments
Measured chemistry: Be_2.02_Si_0.99_O_4_
Raman shift (cm-1)	intensity
128.146	0
132.309	169.574
136.47	378.76
140.63	828.992
144.787	558.282
148.942	220.842
153.096	301.125
157.247	1190.78
161.396	1487.44
165.544	222.142
169.689	17.207
173.833	16.051
177.974	38.286
182.114	11.845
186.251	73.89
190.387	36.523
194.52	101.472
198.652	129.652
202.782	91.942
206.909	209.026
211.035	163.867
215.159	1251.02
219.281	2609.15
223.4	2018.04
227.518	675.542
231.634	575.917
235.748	59.775
239.86	6.693
243.97	92.775
248.079	106.444
252.185	169.546
256.289	129.973
260.391	125.455
264.492	53.941
268.59	70.729
272.687	429.336
276.781	731.192
280.874	367.392
284.964	114.474
289.053	153.5
293.14	93.186
297.225	10.724
301.308	53.613
305.389	11.997
309.468	14.592
313.545	54.255
317.62	38.382
321.693	27.258
325.765	91.956
329.834	59.537
333.902	88.174
337.967	86.376
342.031	259.687
346.093	558.761
350.153	246.151
354.21	71.61
358.267	72.003
362.321	105.204
366.373	101.27
370.423	155.263
374.471	131.467
378.518	1686.74
382.563	3173.59
386.605	833.15
390.646	200.41
394.685	116.035
398.722	99.67
402.757	78.662
406.79	186.042
410.821	101.971
414.851	31.846
418.878	93.642
422.904	207.308
426.927	281.574
430.949	122.632
434.969	401.51
438.987	1462.39
443.003	3927.09
447.018	1662
451.03	283.359
455.041	273.231
459.049	236.952
463.056	398.563
467.061	246.151
471.064	156.056
475.065	205.613
479.064	181.545
483.062	147.356
487.057	96.398
491.051	140.301
495.043	22.322
499.032	85.604
503.02	60.577
507.007	133.581
510.991	136.5
514.973	137.238
518.954	725.37
522.933	2366.24
526.91	1547.61
530.885	180.695
534.858	39.205
538.829	16.064
542.799	50.924
546.766	58.793
550.732	19.483
554.696	16.223
558.658	11.733
562.618	67.286
566.576	40.266
570.533	132.167
574.488	288.03
578.44	219.969
582.391	115.982
586.341	158.505
590.288	169.221
594.233	11.417
598.177	274.604
602.119	127.602
606.059	83.141
609.997	242.063
613.933	844.892
617.868	609.538
621.801	230.191
625.731	127.751
629.66	147.955
633.588	231.886
637.513	99.167
641.437	142.413
645.358	92.463
649.278	129.62
653.196	32.957
657.113	141.727
661.027	152.84
664.94	400.336
668.851	538.239
672.76	85.9
676.667	186.599
680.572	230.171
684.476	549.675
688.378	334.118
692.278	120.776
696.176	198.062
700.072	381.921
703.967	557.088
707.86	212.157
711.751	164.738
715.64	60.428
719.527	112.677
723.413	42.205
727.297	448.449
731.179	273.051
735.059	36.363
738.937	102.025
742.814	17.689
746.689	10.574
750.562	53.479
754.433	60.863
758.303	8.189
762.17	318.053
766.036	306.687
769.901	247.319
773.763	910.954
777.624	1785.59
781.482	653.964
785.339	855.533
789.195	488.107
793.048	216.757
796.9	259.312
800.75	218.029
804.598	531.854
808.445	441.416
812.289	23.562
816.132	78.664
819.973	8.182
823.813	56.997
827.65	4.82
831.486	183.423
835.32	92.713
839.152	150.04
842.983	261.464
846.812	324.03
850.639	116.71
854.464	213.503
858.288	441.5
862.11	653.717
865.93	1125.82
869.748	2484.54
873.564	8498.19
877.379	38027.3
881.192	26185
885.004	5261.95
888.813	2138.46
892.621	1284.49
896.427	1017.29
900.232	895.451
904.034	723.8
907.835	849.774
911.634	1292.31
915.432	3500.72
919.227	3273.34
923.021	3182.89
926.813	2065.64
930.604	937.348
934.393	1476.06
938.18	3219.84
941.965	1819.67
945.749	1385.1
949.53	3989.45
953.311	3023.14
957.089	956.151
960.866	389.885
964.641	257.689
968.414	230.971
972.185	239.676
975.955	101.955
979.723	24.625
983.49	116.928
987.254	347.869
991.017	559.243
994.779	726.394
998.538	554.651
1002.3	668.897
1006.05	536.554
1009.81	807.712
1013.56	1368.2
1017.31	2123.29
1021.06	3089.63
1024.81	1662.88
1028.55	734.091
1032.3	466.911
1036.04	439.074
1039.78	360.46
1043.52	232.664
1047.26	383.505
1050.99	349.294
1054.73	238.034
1058.46	220.216
1062.19	209.316
1065.92	174.249
1069.65	362.242
1073.37	294.659
1077.1	195.978
1080.82	255.064
1084.54	172.297
1088.26	308.489
1091.97	114.47
1095.69	35.225
1099.4	59.019
1103.12	68.839
1106.83	151.582
1110.54	6.898
1114.24	83.599
1117.95	88.889
1121.65	148.429
1125.35	283.167
1129.06	53.672
1132.75	119.896
1136.45	129.143
1140.15	297.499
1143.84	29.702
1147.53	51.731
1151.22	154.751
1154.91	100.699
1158.6	107.292
1162.28	105.21
1165.97	161.905
1169.65	221.823
1173.33	86.759
1177.01	69.696
1180.69	182.841
1184.36	155.203
1188.04	156.896
1191.71	232.693
1195.38	210.854
1199.05	262.819
1202.71	297.461
1206.38	285.789
1210.04	114.805
1213.71	175.492
1217.37	248.736
1221.03	274.817
1224.68	207.426
1228.34	151.807
1231.99	192.917
1235.65	333.732
1239.3	328.21
1242.95	378.525
1246.59	143.201
1250.24	192.448
1253.88	148.438
1257.53	9.362
1261.17	167.97
1264.81	97.327
1268.45	108.061
1272.08	142.432
1275.72	144.149
1279.35	118.348
1282.98	151.256
1286.61	99.619
1290.24	112.266
1293.87	4.625
1297.49	112.326
1301.11	77.586
1304.73	64.713
1308.36	129.396
1311.97	183.738
1315.59	27.549
1319.2	194.326
1322.82	94.352
1326.43	8.178
1330.04	55.316
1333.65	13.213
1337.26	111.191
1340.86	168.689
1344.47	184.584
1348.07	237.549
1351.67	248.039
1355.27	188.896
1358.87	340.689
1362.46	270.812
1366.06	443.988
1369.65	453.729
1373.24	293.529
1376.83	291.898
1380.42	206.592
1384	295.588
1387.59	323.686
1391.17	214.338
1394.75	281.957
1398.33	273.852
1401.91	286.072
1405.49	266.209
1409.06	166.199
1412.64	286.793
1416.21	268.742
1419.78	310.191
1423.35	484.336
1426.91	419.76
1430.48	342.166
1434.05	418.305
1437.61	462.127
1441.17	366.488
1444.73	449.498
1448.29	496.971
1451.84	449.916
1455.4	491.207
1458.95	445.875
1462.5	547.191
1466.05	493.084
1469.6	388.816
1473.15	546.473
1476.69	382.555
1480.24	262.352
1483.78	261.35
1487.32	117.207
1490.86	199.232
1494.39	449.631
1497.93	250.244
1501.46	35.525
1505	193.254
1508.53	320.346
1512.06	103.066
