Measurement: Raman, 514 nm, unoriented, Raman Data Processed
Mineral: Phenakite
Rruff sample: R040046
Ideal chemistry: Be_2_SiO_4_
Locality: San Miguel de Piracicaba, Minas Gerais, Brazil
Source: University of Arizona Mineral Museum
Description: Colorless crystal fragments
Measured chemistry: Be_2.02_Si_0.99_O_4_
Raman shift (cm-1)	intensity
97.554	0
101.732	16.635
105.908	33.992
110.082	59.986
114.254	45.14
118.424	99.575
122.592	23.462
126.758	29.64
130.922	32.179
135.083	28.813
139.243	41.893
143.401	34.47
147.557	3.763
151.711	11.801
155.863	22.794
160.013	40.742
164.161	45.346
168.308	64.046
172.452	47.424
176.594	57.393
180.734	70.792
184.872	75.909
189.008	91.638
193.143	109.905
197.275	129.567
201.405	163.736
205.534	199.596
209.66	192.568
213.784	285.28
217.907	1399.62
222.027	2263.79
226.146	786.791
230.263	621.952
234.377	146.871
238.49	18.028
242.601	6.203
246.709	12.461
250.816	86.019
254.921	88.792
259.024	43.585
263.125	6.08
267.224	11.015
271.321	38.646
275.416	106.344
279.51	149.008
283.601	62.627
287.69	27.189
291.778	141.674
295.863	256.127
299.947	85.534
304.029	8.837
308.108	14.078
312.186	11.264
316.262	39.386
320.336	43.095
324.408	21.127
328.478	9.121
332.546	10.401
336.612	27.353
340.677	55.198
344.739	231.212
348.799	256.796
352.858	75.538
356.915	17.834
360.969	0.731
365.022	0.662
369.073	15.983
373.122	28.228
377.169	80.417
381.215	139.564
385.258	121.63
389.299	60.663
393.339	40.657
397.376	5.606
401.412	48.408
405.446	22.903
409.478	22.141
413.508	61.61
417.536	20.4
421.562	5.154
425.586	19.877
429.609	90.519
433.629	75.496
437.648	214.119
441.665	904.707
445.68	1094.25
449.693	177.265
453.704	44.673
457.713	22.454
461.721	68.451
465.726	61.461
469.73	35.891
473.731	48.229
477.731	191.379
481.729	242.196
485.725	83.925
489.72	33.896
493.712	41.529
497.703	36.239
501.691	48.058
505.678	37.185
509.663	63.025
513.646	49.824
517.627	88.313
521.607	366.015
525.584	544.12
529.56	130.483
533.534	41.892
537.506	25.367
541.476	33.897
545.444	35.391
549.41	42.851
553.375	59.261
557.337	23.041
561.298	30.086
565.257	44.942
569.214	56.156
573.17	108.408
577.123	222.396
581.075	78.103
585.024	49.925
588.972	89.485
592.918	147.768
596.863	988.104
600.805	1314.24
604.746	172.348
608.685	58.439
612.621	131.51
616.557	201.469
620.49	49.487
624.421	2.522
628.351	20.587
632.279	39.234
636.205	14.027
640.129	19.781
644.051	9.501
647.972	26.177
651.89	44.498
655.807	11.041
659.722	0.395
663.636	18.609
667.547	38.082
671.457	18.543
675.365	15.961
679.271	27.37
683.175	74.772
687.077	126.174
690.978	84.574
694.877	92.942
698.774	194.321
702.669	284.712
706.562	122.103
710.454	29.495
714.344	40.854
718.232	10.764
722.118	32.9
726.002	53.251
729.885	149.61
733.766	80.981
737.645	17.635
741.522	0.294
745.397	3.96
749.271	16.375
753.143	2.704
757.013	58.037
760.881	228.387
764.748	611.755
768.613	391.142
772.476	342.554
776.337	729.987
780.196	546.736
784.054	606.806
787.91	771.567
791.764	247.736
795.616	60.298
799.467	75.828
803.316	78.344
807.163	105.272
811.008	38.151
814.851	21.704
818.693	9.544
822.533	15.422
826.371	6.342
830.208	64.346
834.042	43.646
837.875	102.711
841.706	92.837
845.536	99.022
849.363	167.257
853.189	241.545
857.013	328.902
860.836	504.316
864.656	897.786
868.475	1727.49
872.292	5072.56
876.108	27217.1
879.922	47443.8
883.733	11134.7
887.544	3417.56
891.352	1729.75
895.159	1140.72
898.964	801.295
902.767	656.428
906.568	580.448
910.368	624.693
914.166	1204.99
917.962	1718.35
921.757	692.086
925.55	445.552
929.341	383.172
933.13	595.756
936.918	1419.44
940.703	1106.2
944.488	609.031
948.27	1113.25
952.051	1454.67
955.83	374.695
959.607	162.097
963.383	62.289
967.156	68.539
970.928	21.839
974.699	59.185
978.468	61.576
982.234	8.474
986	57.711
989.763	72.419
993.525	179.622
997.285	207.147
1001.04	87.908
1004.8	101.759
1008.55	265.864
1012.31	404.029
1016.06	226.543
1019.81	183.741
1023.56	164.742
1027.31	124.69
1031.05	77.394
1034.79	36.871
1038.53	35.268
1042.27	47.431
1046.01	56.296
1049.75	22.887
1053.48	73.517
1057.22	25.798
1060.95	32.088
1064.68	46.474
1068.4	3.222
1072.13	1.083
1075.86	46.387
1079.58	21.12
1083.3	28.424
1087.02	39.727
1090.74	37.067
1094.45	27.565
1098.17	0.7
1101.88	2.088
1105.59	18.268
1109.3	54.783
1113.01	20.019
1116.71	55.181
1120.42	56.284
1124.12	290.397
1127.82	7.482
1131.52	24.842
1135.22	5.984
1138.91	24.006
1142.61	11.698
1146.3	47.204
1149.99	7.248
1153.68	15.908
1157.37	1.237
1161.06	3.005
1164.74	16.38
1168.42	5.269
1172.1	13.076
1175.78	25.824
1179.46	25.845
1183.14	29.305
1186.81	40.57
1190.48	57.658
1194.15	26.969
1197.83	9.16
1201.49	101.992
1205.16	72.729
1208.82	76.555
1212.49	111.227
1216.15	62.872
1219.81	87.288
1223.46	68.797
1227.12	96.198
1230.78	91.711
1234.43	54.044
1238.08	36.318
1241.73	95.221
1245.38	24.376
1249.03	72.014
1252.67	39.063
1256.31	52.752
1259.95	62.693
1263.6	64.595
1267.23	56.412
1270.87	41.259
1274.51	37.509
1278.14	34.082
1281.77	42.788
1285.4	15.372
1289.03	9.222
1292.66	57.977
1296.28	35.105
1299.91	47.799
1303.53	25.517
1307.15	26.187
1310.77	10.548
1314.38	33.262
1318	20.678
1321.61	46.309
1325.23	54.213
1328.84	48.629
1332.45	75.842
1336.06	71.22
1339.66	31.824
1343.27	62.434
1346.87	29.668
1350.47	79.859
1354.07	64.007
1357.67	34.024
1361.26	36.257
1364.86	46.351
1368.45	59.49
1372.04	22.088
1375.63	61.147
1379.22	65.022
1382.81	114.77
1386.39	87.342
1389.98	87.71
1393.56	48.82
1397.14	44.083
1400.72	45.298
1404.3	50.085
1407.87	46.755
1411.45	73.271
1415.02	23.585
1418.59	70.591
1422.16	72.7
1425.73	59.607
1429.29	48.5
1432.86	74.485
1436.42	7.117
1439.98	29.557
1443.54	71.966
1447.1	67.286
1450.66	81.14
1454.21	65.288
1457.77	45.423
1461.32	1.482
1464.87	77.402
1468.42	108.141
1471.96	100.548
1475.51	64.439
1479.06	21.802
1482.6	95.02
1486.14	50.275
1489.68	91.68
1493.22	56.125
1496.75	61.292
1500.29	48.905
1503.82	1.725
1507.35	23.588
1510.88	10.714
1514.41	3.145
1517.94	37.815
1521.46	69.596
1524.99	21.206
