Measurement: Raman, 785 nm, unoriented, Raman Data Processed
Mineral: Phenakite
Rruff sample: R040132
Ideal chemistry: Be_2_SiO_4_
Locality: Krager√∏, Telemark, Norway
Source: University of Arizona Mineral Museum
Description: Colorless fragments
Measured chemistry: Be_2.02_Si_0.99_O_4_
Raman shift (cm-1)	intensity
107.52	0
110.413	0.397686
113.305	0.490448
116.198	22.0033
119.091	61.2284
121.984	26.4332
124.876	14.3722
127.769	52.8204
130.662	170.207
133.554	402.947
136.447	355.242
139.34	159.465
142.232	97.532
145.125	186.43
148.018	304.157
150.911	447.02
153.803	401.897
156.696	412.14
159.589	860.742
162.481	936.888
165.374	169.144
168.267	108.439
171.16	78.0488
174.052	67.6403
176.945	63.9327
179.838	55.2087
182.73	44.1476
185.623	33.8632
188.516	35.709
191.408	32.3864
194.301	31.9907
197.194	23.6259
200.087	15.5039
202.979	19.5945
205.872	85.3449
208.765	173.647
211.657	223.166
214.55	336.617
217.443	658.428
220.335	2017.56
223.228	1649.48
226.121	116.838
229.013	88.087
231.906	79.008
234.799	5.48698
237.692	10.6483
240.584	8.98048
243.477	3.2639
246.37	16.0544
249.262	28.4721
252.155	109.46
255.048	191.416
257.941	43.0394
260.833	9.46028
263.726	38.8333
266.619	43.9686
269.511	75.143
272.404	128.457
275.297	309.228
278.19	371.833
281.082	183.711
283.975	12.2848
286.868	14.8166
289.76	6.44324
292.653	1.68037
295.546	5.90862
298.438	1.05534
301.331	5.80161
304.224	9.34821
307.116	8.55762
310.009	6.11595
312.902	3.77237
315.795	12.2485
318.687	6.12061
321.58	4.51071
324.473	10.845
327.365	16.5799
330.258	13.6391
333.151	17.175
336.043	28.1704
338.936	29.1167
341.829	39.2229
344.721	75.5563
347.614	185.409
350.507	46.4235
353.4	6.86334
356.292	10.0788
359.185	3.63927
362.078	7.98402
364.97	8.96835
367.863	52.0955
370.756	170.268
373.649	264.204
376.541	376.725
379.434	819.216
382.327	2215.1
385.219	1582.23
388.112	152.931
391.005	36.0637
393.897	7.70418
396.79	5.43684
399.683	3.93127
402.575	1.64067
405.468	2.07149
408.361	7.49681
411.254	10.4362
414.146	0.050476
417.039	10.9098
419.932	14.8507
422.824	4.4238
425.717	53.0378
428.61	116.683
431.502	163.483
434.395	242.2
437.288	385.592
440.181	832.528
443.073	2053.05
445.966	1657.82
448.859	218.99
451.751	76.1072
454.644	57.9604
457.537	61.3633
460.43	80.5452
463.322	221.888
466.215	179.022
469.108	23.5167
472	21.0902
474.893	23.0954
477.786	31.6085
480.678	66.3788
483.571	92.912
486.464	49.1702
489.356	7.50594
492.249	1.04802
495.142	2.26216
498.035	11.6537
500.927	3.26872
503.82	6.8203
506.713	7.2383
509.605	32.4538
512.498	88.3526
515.391	168.412
518.284	263.326
521.176	568.348
524.069	1253.05
526.962	823.857
529.854	134.128
532.747	53.195
535.64	28.7193
538.533	21.808
541.425	30.3904
544.318	19.5498
547.211	19.1005
550.103	14.4249
552.996	12.7765
555.889	10.5526
558.781	9.50067
561.674	9.48831
564.567	5.96722
567.459	6.91489
570.352	11.0843
573.245	18.2924
576.138	52.1269
579.03	28.7253
581.923	20.2285
584.816	15.2884
587.708	4.43944
590.601	27.3266
593.494	47.5253
596.386	79.0392
599.279	171.072
602.172	72.7189
605.064	60.78
607.957	105.819
610.85	166.744
613.743	290.492
616.635	329.212
619.528	96.6684
622.421	36.8569
625.313	0.398285
628.206	6.1787
631.099	11.6945
633.991	1.89078
636.884	6.70435
639.777	14.0759
642.67	14.67
645.562	3.16887
648.455	21.373
651.348	18.362
654.24	37.8223
657.133	61.6625
660.026	108.118
662.918	142.266
665.811	213.759
668.704	242.822
671.597	114.011
674.489	62.6065
677.382	82.3499
680.275	125.492
683.167	211.449
686.06	274.273
688.953	143.299
691.846	57.9338
694.738	48.7525
697.631	54.6439
700.524	93.7099
703.416	110.467
706.309	64.4385
709.202	23.5408
712.094	9.31081
714.987	2.58864
717.88	1.5798
720.773	7.60658
723.665	9.57149
726.558	28.4919
729.451	12.1893
732.343	29.4624
735.236	1.24881
738.129	1.52286
741.021	2.28229
743.914	4.44794
746.807	3.45802
749.699	11.4069
752.592	4.60205
755.485	9.97719
758.378	34.0851
761.27	70.4284
764.163	135.826
767.056	149.202
769.948	161.159
772.841	248.554
775.734	431.264
778.626	381.316
781.519	262.064
784.412	321.012
787.305	337.214
790.197	159.157
793.09	78.9697
795.983	82.6958
798.875	106.054
801.768	158.397
804.661	240.227
807.553	175.673
810.446	49.3935
813.339	41.2115
816.232	15.1874
819.124	9.57263
822.017	6.2829
824.91	0.451767
827.802	5.91792
830.695	0.356903
833.588	3.11441
836.481	8.97571
839.373	2.9875
842.266	10.8667
845.159	2.74693
848.051	21.6571
850.944	18.1754
853.837	42.9185
856.729	63.4239
859.622	141.2
862.515	267.75
865.408	579.1
868.3	1541.06
871.193	3129.7
874.086	6335.3
876.978	13508.4
879.871	12812.2
882.764	4074.67
885.656	1374.73
888.549	686.294
891.442	412.602
894.335	282.178
897.227	215.172
900.12	177.202
903.013	129.05
905.905	183.563
908.798	266.041
911.691	445.254
914.583	844.338
917.476	1078.15
920.369	967.94
923.261	1341.92
926.154	797.487
929.047	353.342
931.94	314.802
934.832	497.377
937.725	706.544
940.618	603.196
943.51	662.157
946.403	1131.19
949.296	2141.96
952.188	1689.72
955.081	591.232
957.974	211.23
960.867	96.4777
963.759	39.1936
966.652	0.999481
969.545	12.0435
972.437	3.88974
975.33	13.6442
978.223	22.144
981.115	15.1088
984.008	15.0334
986.901	30.612
989.794	66.1311
992.686	120.228
995.579	139.1
998.472	106.433
1001.36	114.704
1004.26	136.984
1007.15	239.852
1010.04	396.99
1012.93	548.83
1015.83	779.72
1018.72	1053.25
1021.61	916.039
1024.51	506.371
1027.4	244.352
1030.29	140.359
1033.18	78.2577
1036.08	41.9653
1038.97	30.4579
1041.86	0.343399
1044.76	21.0425
1047.65	1.22382
1050.54	2.85072
1053.43	8.81186
1056.33	5.45975
1059.22	7.93513
1062.11	4.69612
1065	12.7988
1067.9	15.8602
1070.79	8.13928
1073.68	12.8918
1076.58	6.88234
1079.47	8.99762
1082.36	6.77838
1085.25	5.91714
1088.14	10.4928
1091.04	13.9514
1093.93	6.6649
1096.82	16.063
1099.72	14.3941
1102.61	19.415
1105.5	14.7902
1108.39	23.8001
1111.29	17.7839
1114.18	34.8702
1117.07	23.8594
1119.96	30.9783
1122.86	26.5917
1125.75	11.8973
1128.64	5.97777
1131.54	14.8328
1134.43	11.7992
1137.32	17.7083
1140.21	4.68044
1143.11	1.76485
1146	12.1839
1148.89	3.63158
1151.79	17.7089
1154.68	12.5414
1157.57	6.88568
1160.46	9.819
1163.36	17.2806
1166.25	14.0905
1169.14	9.90561
1172.03	18.6998
1174.93	16.3414
1177.82	5.67676
1180.71	1.92618
1183.6	2.60342
1186.5	4.26614
1189.39	11.5
1192.28	10.6173
1195.17	9.93012
1198.07	10.3572
1200.96	26.8589
1203.85	5.30838
1206.75	20.8447
1209.64	17.4449
1212.53	9.17935
1215.42	19.3919
1218.32	25.9724
1221.21	1.19737
1224.1	12.3519
1226.99	10.8536
1229.89	8.35968
1232.78	2.27183
1235.67	0.248718
1238.57	0
