Measurement: Raman, 514 nm, unoriented, Raman Data Processed
Mineral: Phenakite
Rruff sample: R050137
Ideal chemistry: Be_2_SiO_4_
Locality: Mount Antero area, Chaffee County, Colorado, USA
Source: Dave Bunk Minerals
Description: Colorless tabular hexagonal crystal
Measured chemistry: Be_2.00_Si_1.00_O_4_
Raman shift (cm-1)	intensity
100.34	0
104.516	24.372
108.691	29.929
112.864	25.698
117.034	40.372
121.203	43.736
125.369	42.402
129.534	22.973
133.696	14.413
137.857	30.579
142.016	53.544
146.172	50.174
150.327	49.027
154.48	211.237
158.63	674.9
162.779	437.905
166.926	97.92
171.07	57.99
175.213	29.053
179.354	28.186
183.493	42.328
187.63	38.616
191.765	38.56
195.898	47.549
200.029	60.631
204.158	76.432
208.285	49.637
212.41	152.477
216.533	1261.89
220.654	4346.3
224.773	1319.22
228.891	1733.18
233.006	507.408
237.119	89.423
241.231	27.473
245.34	37.551
249.448	60.677
253.553	232.035
257.657	55.202
261.758	24.482
265.858	29.433
269.956	62.879
274.052	381.678
278.146	901.653
282.237	228.752
286.327	47.947
290.416	54.896
294.502	74.545
298.586	18.923
302.668	7.339
306.749	33.208
310.827	15.721
314.903	0.833
318.978	12.441
323.051	3.091
327.121	20.954
331.19	4.622
335.257	15.7
339.322	36.17
343.385	418.885
347.446	965.601
351.505	174.32
355.563	53.041
359.618	16.763
363.672	29.482
367.723	24.181
371.773	41.845
375.821	133.473
379.866	975.086
383.91	1659.65
387.952	292.211
391.992	63.527
396.031	4.081
400.067	10.619
404.101	25.81
408.134	35.685
412.165	41.555
416.193	29.074
420.22	1.582
424.245	11.082
428.268	69.64
432.289	81.238
436.309	145.095
440.326	922.693
444.342	2406.29
448.355	441.914
452.367	108.496
456.377	47.065
460.385	137.621
464.391	332.14
468.395	68.79
472.398	51.303
476.398	99.671
480.397	120.469
484.394	48.99
488.389	40.66
492.382	29.439
496.373	23.252
500.362	37.773
504.349	33.091
508.335	33.383
512.319	79.647
516.3	167.884
520.28	1029.09
524.259	3410.29
528.235	890.448
532.209	213.576
536.182	79.677
540.152	41.752
544.121	25.802
548.088	3.175
552.053	31.802
556.017	54.754
559.978	42.055
563.938	4.212
567.895	4.062
571.851	120.876
575.805	407.663
579.758	125.337
583.708	70.076
587.657	11.67
591.603	7.302
595.548	95.915
599.491	217.042
603.432	45.895
607.372	32.462
611.309	141.002
615.245	392.515
619.179	126.003
623.111	12.61
627.041	28.104
630.97	34.763
634.896	31.536
638.821	9.415
642.744	5.63
646.665	13.445
650.584	38.439
654.502	11.364
658.418	57.062
662.331	78.899
666.244	168.721
670.154	171.529
674.062	28.325
677.969	67.11
681.874	127.651
685.777	170.672
689.678	152.443
693.577	95.208
697.475	246.969
701.371	681.726
705.265	565.724
709.157	160.48
713.047	27.237
716.936	13.996
720.823	25.758
724.708	113.166
728.591	367.913
732.472	159.67
736.352	6.438
740.23	1.22
744.106	25.133
747.98	12.709
751.853	17.949
755.723	9.429
759.592	98.201
763.459	467.822
767.325	444.496
771.188	365.193
775.05	1121.91
778.91	1010.55
782.768	670.225
786.625	1052.86
790.479	389.06
794.332	95.972
798.183	87.917
802.033	230.904
805.88	382.866
809.726	115.698
813.57	23.686
817.413	34.878
821.253	39.117
825.092	67.065
828.929	63.74
832.764	63.166
836.598	54.644
840.429	76.183
844.259	123.785
848.088	196.444
851.914	288.17
855.739	375.01
859.562	504.932
863.383	831.931
867.203	1671.03
871.02	4080.48
874.836	19525.7
878.65	57167
882.463	17646.5
886.274	4966.96
890.083	2213.51
893.89	1402.14
897.695	1061.82
901.499	850.314
905.301	816.603
909.102	1073.72
912.9	2575.95
916.697	5661.95
920.492	2875.03
924.285	2256.22
928.077	1078.52
931.867	901.778
935.655	1998.17
939.442	2121.85
943.226	888.578
947.009	709.208
950.791	1161.81
954.57	578.079
958.348	277.351
962.124	144.324
965.899	125.425
969.671	100.043
973.442	79.675
977.211	101.879
980.979	79.244
984.745	67.543
988.509	124.438
992.271	313.844
996.032	334.591
999.791	234.156
1003.55	194.295
1007.3	380.463
1011.06	731.645
1014.81	753.414
1018.56	1322.29
1022.31	1202.62
1026.06	514.574
1029.8	302.609
1033.55	138.825
1037.29	82.707
1041.03	80.76
1044.77	101.808
1048.5	13.787
1052.24	63.807
1055.97	18.013
1059.7	11.856
1063.43	57.199
1067.16	5.253
1070.89	46.305
1074.61	50.396
1078.34	14.523
1082.06	36.084
1085.78	51.109
1089.5	4.889
1093.21	3.774
1096.93	16.704
1100.64	33.169
1104.35	7.849
1108.06	51.952
1111.77	15.887
1115.48	73.897
1119.18	49.743
1122.89	67.828
1126.59	5.568
1130.29	58.203
1133.99	66.604
1137.68	8.624
1141.38	34.177
1145.07	59.37
1148.76	53.162
1152.45	13.201
1156.14	30.736
1159.83	5.333
1163.51	34.501
1167.19	11.973
1170.88	23.372
1174.56	4.514
1178.23	21.792
1181.91	55.871
1185.59	49.257
1189.26	23.531
1192.93	70.404
1196.6	55.498
1200.27	65.678
1203.94	39.674
1207.6	86.309
1211.27	79.154
1214.93	80.905
1218.59	98.61
1222.25	92.282
1225.9	110.621
1229.56	107.077
1233.21	86.331
1236.86	93.193
1240.51	65.221
1244.16	63.678
1247.81	53.723
1251.45	72.909
1255.1	76.272
1258.74	33.079
1262.38	79.733
1266.02	18.377
1269.66	83.904
1273.29	58.353
1276.93	66.613
1280.56	56.822
1284.19	38.408
1287.82	81.492
1291.45	44.507
1295.07	53.296
1298.7	0.153
1302.32	28.58
1305.94	1.257
1309.56	4.306
1313.18	28.933
1316.8	44.104
1320.41	42.278
1324.02	36.153
1327.63	24.078
1331.24	49.582
1334.85	14.808
1338.46	55.708
1342.06	25.473
1345.67	40.194
1349.27	35.637
1352.87	25.269
1356.47	46.997
1360.07	55.765
1363.66	24.31
1367.25	76.715
1370.85	48.257
1374.44	71.83
1378.03	92.135
1381.61	42.164
1385.2	71.662
1388.78	78.604
1392.37	71.531
1395.95	18.005
1399.53	96.206
1403.1	48.75
1406.68	73.72
1410.26	93.867
1413.83	64.221
1417.4	56.217
1420.97	97.594
1424.54	33.212
1428.1	72.554
1431.67	16.596
1435.23	63.492
1438.8	70.194
1442.36	52.031
1445.91	83.576
1449.47	81.358
1453.03	86.116
1456.58	56.913
1460.13	78.375
1463.68	83.418
1467.23	132.728
1470.78	82.079
1474.33	74.474
1477.87	93.083
1481.42	105.665
1484.96	40.192
1488.5	126.666
1492.04	70.061
1495.57	79.511
1499.11	67.248
1502.64	12.04
1506.17	47.431
1509.71	36.26
1513.23	93.159
1516.76	90.798
1520.29	86.752
1523.81	15.623
