Measurement: Raman, 532 nm, unoriented, Raman Data Processed
Mineral: Phenakite
Rruff sample: R040132
Ideal chemistry: Be_2_SiO_4_
Locality: Krager√∏, Telemark, Norway
Source: University of Arizona Mineral Museum
Description: Colorless fragments
Measured chemistry: Be_2.02_Si_0.99_O_4_
Raman shift (cm-1)	intensity
131.823	0
135.198	6.32867
138.573	21.7807
141.948	3.54062
145.323	99.0224
148.698	211.72
152.072	314.777
155.447	629.052
158.822	1376.41
162.197	2352.28
165.572	86.7408
168.946	55.0446
172.321	49.1409
175.696	36.3827
179.071	30.468
182.446	20.8102
185.821	33.1897
189.195	11.9457
192.57	16.1201
195.945	15.8799
199.32	10.6103
202.695	9.18811
206.07	176.049
209.444	283.453
212.819	506.905
216.194	1133.06
219.569	2575.21
222.944	2975.86
226.318	221.242
229.693	594.588
233.068	44.9789
236.443	6.5061
239.818	0.149536
243.192	4.84723
246.567	18.2737
249.942	105.795
253.317	244.744
256.692	159.204
260.067	5.5899
263.441	55.6304
266.816	90.3722
270.191	204.867
273.566	425.355
276.941	857.923
280.315	613.338
283.69	23.9112
287.065	8.698
290.44	6.19934
293.815	3.43298
297.19	9.95862
300.564	0.548706
303.939	5.39294
307.314	11.1418
310.689	11.8094
314.064	1.89105
317.438	33.7894
320.813	6.06689
324.188	9.61517
327.563	22.387
330.938	14.4403
334.313	57.6951
337.687	52.3353
341.062	155.906
344.437	218.141
347.812	641.009
351.187	60.4781
354.562	2.87073
357.936	16.592
361.311	14.782
364.686	42.41
368.061	163.294
371.436	392.746
374.81	855.742
378.185	1741.55
381.56	4166.4
384.935	3493.75
388.31	216.982
391.685	54.7344
395.059	34.9628
398.434	34.77
401.809	9.7984
405.184	5.42731
408.559	13.5252
411.933	41.8831
415.308	5.2486
418.683	12.3924
422.058	40.1362
425.433	85.6765
428.808	251.108
432.182	359.657
435.557	850.37
438.932	1625.78
442.307	3574.31
445.682	3527.82
449.056	301.862
452.431	121.863
455.806	158.636
459.181	193.518
462.556	449.889
465.93	422.121
469.305	58.484
472.68	31.4841
476.055	58.1121
479.43	93.1919
482.805	204.508
486.179	59.5565
489.554	3.37274
492.929	14.097
496.304	5.28662
499.679	12.3557
503.053	18.8098
506.428	33.184
509.803	136.739
513.178	379.726
516.553	873.847
519.928	1441.43
523.302	3586.92
526.677	2308.13
530.052	246.543
533.427	84.9354
536.802	54.5429
540.177	40.9631
543.551	21.3813
546.926	12.3585
550.301	3.24109
553.676	9.26483
557.051	0.052979
560.425	3.59992
563.8	11.2631
567.175	35.8292
570.55	51.9237
573.925	106.785
577.299	192.577
580.674	44.3727
584.049	23.3749
587.424	30.9583
590.799	35.9925
594.174	78.0224
597.548	180.01
600.923	167.751
604.298	146.749
607.673	268.359
611.048	416.555
614.423	922.515
617.797	452.04
621.172	73.718
624.547	11.3953
627.922	13.1405
631.297	17.7476
634.671	29.8756
638.046	21.9557
641.421	8.72363
644.796	26.1186
648.171	29.4894
651.545	56.4534
654.92	133.918
658.295	230.876
661.67	366.187
665.045	556.539
668.42	702.151
671.794	288.471
675.169	279.722
678.544	218.107
681.919	369.887
685.294	649.544
688.668	300.627
692.043	139.894
695.418	170.879
698.793	269.848
702.168	441.973
705.543	263.987
708.917	64.5831
712.292	6.83582
715.667	12.6226
719.042	15.2454
722.417	41.7262
725.792	60.5828
729.166	172.698
732.541	20.3783
735.916	1.7428
739.291	11.3607
742.666	7.45105
746.04	30.1647
749.415	13.2664
752.79	22.6246
756.165	79.4066
759.54	139.271
762.915	319.053
766.289	452.969
769.664	484.158
773.039	796.982
776.414	1374.96
779.789	791.667
783.163	682.333
786.538	915.847
789.913	397.095
793.288	200.676
796.663	223.253
800.038	325.947
803.412	527.373
806.787	442.624
810.162	117.851
813.537	47.317
816.912	2.96179
820.286	11.9005
823.661	4.62744
827.036	6.76379
830.411	5.78638
833.786	11.0399
837.16	16.7483
840.535	10.7069
843.91	17.4556
847.285	35.4811
850.66	72.6987
854.035	145.793
857.409	269.805
860.784	498.35
864.159	1159.66
867.534	3815.57
870.909	9288.48
874.284	18430.2
877.658	40909.8
881.033	18181.4
884.408	4313.97
887.783	1804.5
891.158	1027.72
894.533	680.691
897.907	544.939
901.282	459.675
904.657	609.904
908.032	1144.87
911.407	2036.28
914.781	3809.96
918.156	3827.04
921.531	2836.09
924.906	2703.5
928.281	1024
931.655	1075.75
935.03	1705.85
938.405	2172.37
941.78	1569.32
945.155	2175.62
948.529	4188.78
951.904	3719.34
955.279	973.207
958.654	321.056
962.029	109.3
965.404	23.2877
968.778	28.9294
972.153	20.1112
975.528	23.5519
978.903	32.632
982.278	11.5955
985.653	90.9827
989.027	227.502
992.402	424.762
995.777	459.726
999.152	365.565
1002.53	435.642
1005.9	679.813
1009.28	1258.3
1012.65	2003.31
1016.03	2920.31
1019.4	3658.93
1022.78	2335.22
1026.15	1013.88
1029.53	494.584
1032.9	242.728
1036.28	141.956
1039.65	76.4277
1043.02	49.6466
1046.4	21.6572
1049.77	8.87158
1053.15	5.48206
1056.52	3.57434
1059.9	2.53711
1063.27	18.2002
1066.65	6.55737
1070.02	33.4503
1073.4	2.29492
1076.77	15.5295
1080.15	17.6901
1083.52	28.6959
1086.9	10.724
1090.27	22.3496
1093.65	7.03735
1097.02	33.0352
1100.4	29.2278
1103.77	50.8331
1107.15	31.6438
1110.52	48.8191
1113.9	50.8184
1117.27	29.7218
1120.64	49.8234
1124.02	33.8661
1127.39	36.406
1130.77	29.1603
1134.14	8.74658
1137.52	32.0203
1140.89	5.45227
1144.27	16.701
1147.64	10.5891
1151.02	16.5002
1154.39	5.25427
1157.77	2.64563
1161.14	27.3294
1164.52	19.3568
1167.89	15.2008
1171.27	20.9783
1174.64	22.916
1178.02	17.6935
1181.39	3.51868
1184.77	27.6574
1188.14	20.5794
1191.52	25.5941
1194.89	23.6063
1198.27	24.5373
1201.64	53.2064
1205.02	32.8083
1208.39	25.4863
1211.77	86.0263
1215.14	33.3987
1218.52	41.7583
1221.89	38.8677
1225.27	35.6078
1228.64	41.5649
1232.01	22.8654
1235.39	31.5575
1238.76	27.0403
1242.14	32.6046
1245.51	24.882
1248.89	7.27161
1252.26	33.5238
1255.64	25.1595
1259.01	3.59937
1262.39	19.8121
1265.76	0.966309
1269.14	5.99146
1272.51	0.407715
1275.89	16.5226
1279.26	11.3562
1282.64	12.2992
1286.01	7.32752
1289.39	19.3739
1292.76	10.5834
1296.14	7.07812
1299.51	1.71704
