Measurement: Raman, 785 nm, unoriented, Raman Data Processed
Mineral: Philipsbornite
Rruff sample: R070065
Ideal chemistry: Pb^2+^Al_3_(As^5+^O_4_)(As^5+^O_3_OH)(OH)_6_
Locality: Hat Yai Province, Thailand
Source: Bob Jenkins
Description: Colorless pyramidal crystals, associated with yellow mimetite
Raman shift (cm-1)	intensity
149.273	0
152.166	166.462
155.058	311.707
157.951	382.75
160.844	385.978
163.736	250.206
166.629	97.9829
169.522	2.36621
172.414	61.2148
175.307	23.2581
178.2	62.9749
181.093	174.67
183.985	393.876
186.878	655.712
189.771	984.578
192.663	1395.35
195.556	1776.58
198.449	2175.39
201.341	2473.36
204.234	2327.06
207.127	2026.23
210.019	1644.78
212.912	1257.7
215.805	1012.95
218.698	794.851
221.59	680.562
224.483	612.519
227.376	669.01
230.268	613.353
233.161	658.231
236.054	692.152
238.946	567.592
241.839	500.654
244.732	497.095
247.625	449.642
250.517	621.222
253.41	728.957
256.303	946.785
259.195	1053.84
262.088	1208.25
264.981	1202.61
267.873	1080.94
270.766	778.549
273.659	488.472
276.552	314.998
279.444	136.722
282.337	59.0254
285.23	0.790039
288.122	36.3696
291.015	23.4854
293.908	54.5259
296.8	181.902
299.693	212.029
302.586	348.062
305.478	517.369
308.371	637.472
311.264	848.901
314.157	1101.08
317.049	1291.53
319.942	1414.2
322.835	1584.16
325.727	1564
328.62	1554.54
331.513	1452.08
334.406	1287.73
337.298	1100.28
340.191	958.985
343.084	754.211
345.976	627.757
348.869	397.402
351.762	372.307
354.654	257.628
357.547	150.69
360.44	59.5535
363.333	28.0796
366.225	9.26636
369.118	79.9199
372.011	63.6643
374.903	18.0227
377.796	26.4956
380.689	20.0969
383.582	10.1702
386.474	5.58838
389.367	23.9209
392.26	80.491
395.152	103.44
398.045	148.523
400.938	207.297
403.83	317.583
406.723	440.219
409.616	551.633
412.508	699.427
415.401	896.624
418.294	1127.51
421.187	1203.49
424.079	1310.86
426.972	1412.3
429.865	1401.83
432.757	1371.32
435.65	1255.21
438.543	1100.5
441.435	947.433
444.328	831.477
447.221	718.84
450.113	595.89
453.006	484.368
455.899	407.124
458.792	360.046
461.684	373.693
464.577	395.016
467.47	432.074
470.362	502.994
473.255	595.32
476.148	622.804
479.041	693.859
481.933	690.106
484.826	586.017
487.719	579.815
490.611	488.248
493.504	398.837
496.397	400.393
499.289	403.325
502.182	433.475
505.075	481.91
507.967	591.616
510.86	828.748
513.753	1076.14
516.646	1401.42
519.538	1723.22
522.431	1896.38
525.324	2086.39
528.216	1972.32
531.109	1564.88
534.002	1076.47
536.894	645.647
539.787	367.803
542.68	155.029
545.573	96.5295
548.465	0.690186
551.358	42.5667
554.251	36.0435
557.143	43.0093
560.036	3.87891
562.929	21.7539
565.822	6.22436
568.714	5.46729
571.607	4.96387
574.5	26.7837
577.392	59.4871
580.285	113.766
583.178	112.793
586.07	133.137
588.963	84.3257
591.856	160.508
594.749	162.407
597.641	141.506
600.534	164.201
603.427	181.546
606.319	145.081
609.212	211.995
612.105	183.586
614.997	163.091
617.89	189.765
620.783	186.588
623.676	125.644
626.568	218.825
629.461	224.339
632.354	175.762
635.246	189.493
638.139	217.922
641.032	218.57
643.924	198.618
646.817	222.068
649.71	217.409
652.602	207.249
655.495	161.737
658.388	115.022
661.281	63.1411
664.173	67.8057
667.066	2.04785
669.959	6.88623
672.851	46.0283
675.744	15.6443
678.637	71.0464
681.529	91.3352
684.422	89.3396
687.315	34.8054
690.208	93.3152
693.1	80.2944
695.993	113.705
698.886	100.229
701.778	128.628
704.671	100.59
707.564	80.2197
710.457	60.6589
713.349	57.9885
716.242	48.2197
719.135	39.885
722.027	26.8809
724.92	50.3494
727.813	31.0007
730.705	4.47803
733.598	0.826416
736.491	1.75366
739.384	24.0207
742.276	30.5337
745.169	74.3635
748.062	116.25
750.954	146.364
753.847	199.233
756.74	251.459
759.632	263.06
762.525	266.092
765.418	225.866
768.31	193.376
771.203	132.984
774.096	58.7795
776.989	43.6572
779.881	29.3503
782.774	23.6394
785.667	40.8567
788.559	14.4719
791.452	21.1902
794.345	27
797.237	15.0527
800.13	36.4006
803.023	91.9768
805.915	254.778
808.808	302.719
811.701	386.581
814.594	499.669
817.486	577.096
820.379	732.457
823.272	896.182
826.164	1091.66
829.057	1317.69
831.95	1605.36
834.842	1857.3
837.735	2162.64
840.628	2483.02
843.521	2827.81
846.413	3147.58
849.306	3515.69
852.199	3899.92
855.091	4272.81
857.984	4608.27
860.877	4960.85
863.769	5294.09
866.662	5536.68
869.555	5756.28
872.448	5837.68
875.34	5743.83
878.233	5591.49
881.126	5120.23
884.018	4559.1
886.911	3939.54
889.804	3337.61
892.697	2788.96
895.589	2333.36
898.482	1938.36
901.375	1595.79
904.267	1319.11
907.16	1055.3
910.053	834.178
912.945	634.099
915.838	512.342
918.731	410.383
921.624	288.712
924.516	183.519
927.409	189.835
930.302	66.4004
933.194	2.33887
936.087	1.24707
938.98	35.852
941.872	62.2332
944.765	67.8862
947.658	57.7659
950.551	9.55664
953.443	16.7141
956.336	33.5488
959.229	28.7905
962.121	129.884
965.014	177.778
967.907	308.032
970.799	367.019
973.692	423.643
976.585	485.396
979.477	520.669
982.37	529.808
985.263	545.305
988.156	567.604
991.048	538.221
993.941	619.515
996.834	698.956
999.726	757.21
1002.62	863.009
1005.51	966.526
1008.4	1111.29
1011.3	1316.01
1014.19	1126.42
1017.08	898.943
1019.98	656.654
1022.87	431.557
1025.76	238.02
1028.65	98.321
1031.55	78.7214
1034.44	23.3025
1037.33	29.3591
1040.22	15.0896
1043.12	15.1025
1046.01	2.70312
1048.9	15.7622
1051.8	11.4214
1054.69	7.80054
1057.58	20.4927
1060.47	11.894
1063.37	5.23267
1066.26	39.4124
1069.15	9.89355
1072.04	39.7685
1074.94	16.23
1077.83	48.1707
1080.72	60.0232
1083.62	37.4148
1086.51	45.408
1089.4	77.656
1092.29	86.425
1095.18	95.2493
1098.08	56.1003
1100.97	77.4163
1103.86	54.3904
1106.76	34.2305
1109.65	39.6921
1112.54	31.572
1115.43	15.7112
1118.33	60.991
1121.22	4.83325
1124.11	2.02148
1127.01	18.5459
1129.9	12.168
1132.79	50.5652
1135.68	5.22632
1138.58	6.04419
1141.47	16.4675
1144.36	83.1721
1147.25	20.2283
1150.15	31.6826
1153.04	53.9634
1155.93	39.772
1158.83	51.4421
1161.72	26.0896
1164.61	73.0378
1167.5	75.5193
1170.4	104.577
1173.29	114.616
1176.18	53.6453
1179.07	67.6787
1181.97	108.097
1184.86	83.8428
1187.75	77.0981
1190.64	64.5735
1193.54	69.9575
1196.43	46.1184
1199.32	54.6018
1202.21	32.3535
1205.11	22.2605
1208	48.0293
1210.89	29.0991
1213.79	15.9878
1216.68	17.9094
1219.57	13.4502
1222.46	38.1868
1225.36	35.1855
1228.25	3.91089
1231.14	18.5566
1234.04	29.9627
