Measurement: Raman, 785 nm, unoriented, Raman Data Processed
Mineral: Phillipsite-Na
Rruff sample: R061094
Ideal chemistry: Na_6_(Si_10_Al_6_)O_32_12H_2_O
Locality: Faraglione dei Ciccopi, Aci Castello, Catania Province, Sicily, Italy
Source: Michael Scott
Description: Spherical aggregates of translucent white blocky, pseudotetragonal crystals, associated with chabazite-Na, R070440
Measured chemistry: (Na_2.76_K_1.26_[box]_1.14_Ca_0.84_)_Σ=6_(Si_10.30_Al_5.70_)O_32_·7.58H_2_O
Raman shift (cm-1)	intensity
150.556	0
153.449	77.9741
156.342	179.164
159.234	5.04736
162.127	138.92
165.02	194.757
167.913	305.522
170.805	416.2
173.698	294.012
176.591	308.169
179.483	250.015
182.376	180.622
185.269	229.083
188.161	212.221
191.054	137.504
193.947	139.108
196.84	75.9106
199.732	113.903
202.625	100.603
205.518	110.941
208.41	0.024902
211.303	25.3814
214.196	28.8428
217.088	34.8057
219.981	15.6768
222.874	90.2959
225.767	30.4521
228.659	23.4629
231.552	40.9253
234.445	24.4336
237.337	44.2842
240.23	64.6812
243.123	60.145
246.015	40.564
248.908	64.5478
251.801	64.5957
254.694	93.6235
257.586	83.7471
260.479	68.3447
263.372	125.644
266.264	119.712
269.157	139.226
272.05	118.299
274.942	108.291
277.835	149.614
280.728	124.719
283.62	106.499
286.513	135.853
289.406	125.326
292.299	85.6274
295.191	137.017
298.084	122.55
300.977	156.143
303.869	126.783
306.762	182.312
309.655	223.994
312.548	192.089
315.44	287.039
318.333	307.53
321.226	387.459
324.118	480.827
327.011	546.72
329.904	527.99
332.796	508.513
335.689	497.956
338.582	429.648
341.474	331
344.367	294.621
347.26	248.17
350.153	210.438
353.045	176.926
355.938	137.598
358.831	155.666
361.723	128.805
364.616	81.5161
367.509	85.2734
370.401	70.7808
373.294	22.959
376.187	36.0303
379.08	33.1426
381.972	10.728
384.865	19.7925
387.758	6.81982
390.65	37.9853
393.543	19.7349
396.436	35.2412
399.329	20.8994
402.221	49.165
405.114	109.216
408.007	45.0762
410.899	121.597
413.792	82.8867
416.685	70.3638
419.577	86.4326
422.47	64.0342
425.363	137.764
428.255	189.724
431.148	283.213
434.041	462.268
436.934	529.52
439.826	673.028
442.719	858.972
445.612	987.135
448.504	1145.03
451.397	1360.06
454.29	1474.12
457.183	1609.66
460.075	1608.08
462.968	1698.53
465.861	1805.35
468.753	1961.23
471.646	2210.05
474.539	2506.23
477.431	2769.26
480.324	2977.43
483.217	3038.51
486.109	3161.63
489.002	2960.29
491.895	2801.64
494.788	2484.77
497.68	2198.45
500.573	1846.56
503.466	1468.29
506.358	1148.56
509.251	902.698
512.144	644.823
515.036	509.164
517.929	385.494
520.822	240.686
523.715	186.993
526.607	135.812
529.5	46.9099
532.393	40.3125
535.285	34.5159
538.178	1.86084
541.071	28.4778
543.963	13.8232
546.856	19.1428
549.749	13.9109
552.641	26.7825
555.534	14.1499
558.427	22.7039
561.32	15.084
564.212	0.438477
567.105	24.3284
569.998	62.0837
572.89	29.8645
575.783	17.4666
578.676	50.8289
581.568	57.3389
584.461	66.9165
587.354	11.4131
590.247	93.5647
593.139	14.823
596.032	66.3806
598.925	76.8721
601.817	45.0664
604.71	52.3096
607.603	39.2598
610.495	55.1948
613.388	72.6682
616.281	57.5046
619.174	55.2947
622.066	118.396
624.959	52.228
627.852	43.5242
630.744	79.3115
633.637	68.3291
636.53	50.2444
639.423	86.2314
642.315	89.8518
645.208	55.7283
648.101	53.1672
650.993	28.9936
653.886	68.217
656.779	79.9951
659.671	41.7922
662.564	23.5169
665.457	55.8
668.35	55.1397
671.242	42.8198
674.135	6.52881
677.028	3.86841
679.92	4.41797
682.813	26.2239
685.706	43.5261
688.598	3.55225
691.491	15.1274
694.384	33.3743
697.277	31.2429
700.169	67.1077
703.062	36.417
705.955	25.0181
708.847	10.9902
711.74	6.59668
714.633	33.7417
717.525	36.2217
720.418	80.9309
723.311	9.11938
726.203	48.0701
729.096	42.1565
731.989	14.8098
734.881	30.3831
737.774	77.4197
740.667	52.4719
743.56	21.8135
746.452	51.7024
749.345	90.8272
752.238	78.8567
755.13	121.731
758.023	133.765
760.916	83.9019
763.808	66.334
766.701	36.2891
769.594	39.408
772.487	75.1521
775.379	42.0308
778.272	55.749
781.165	72.3215
784.057	61.5667
786.95	87.4275
789.843	72.7456
792.736	37.9966
795.628	19.9324
798.521	11.0527
801.414	43.1973
804.306	29.727
807.199	27.8757
810.092	23.6387
812.984	35.5317
815.877	14.8584
818.77	17.6973
821.663	6.26269
824.555	9.69604
827.448	35.3367
830.341	15.4312
833.233	39.7266
836.126	17.553
839.019	38.7554
841.911	20.5959
844.804	23.574
847.697	36.3018
850.59	54.1694
853.482	23.4883
856.375	6.93994
859.268	13.3723
862.16	33.7212
865.053	46.0442
867.946	31.9709
870.838	18.2827
873.731	35.6919
876.624	15.844
879.516	24.1343
882.409	26.1074
885.302	22.8232
888.195	51.4844
891.087	18.6431
893.98	70.6401
896.873	72.9348
899.765	34.8428
902.658	49.8479
905.551	26.2156
908.443	37.7786
911.336	51.9172
914.229	33.5955
917.122	13.6602
920.014	56.5725
922.907	20.802
925.8	4.6792
928.692	62.863
931.585	99.0618
934.478	40.7573
937.37	43.8411
940.263	4.49072
943.156	20.8279
946.049	0.61792
948.941	29.4043
951.834	24.2261
954.727	13.9495
957.619	80.9341
960.512	39.2856
963.405	7.4519
966.298	10.0418
969.19	51.2456
972.083	36.1626
974.976	30.5203
977.868	75.1365
980.761	61.4517
983.654	45.7874
986.546	68.4067
989.439	55.061
992.332	28.4812
995.225	59.4688
998.117	0.628662
1001.01	76.2437
1003.9	51.7507
1006.79	62.76
1009.69	28.7105
1012.58	92.2385
1015.47	56.0674
1018.37	47.1599
1021.26	43.5442
1024.15	8.26318
1027.04	35.3083
1029.94	29.9814
1032.83	33.9473
1035.72	34.0418
1038.62	4.4231
1041.51	43.6738
1044.4	21.2336
1047.29	28.469
1050.19	12.5032
1053.08	87.7068
1055.97	119.046
1058.86	84.6221
1061.76	24.4446
1064.65	83.759
1067.54	105.695
1070.43	163.602
1073.33	135.835
1076.22	140.988
1079.11	205.571
1082.01	173.211
1084.9	272.811
1087.79	220.249
1090.68	250.427
1093.58	228.447
1096.47	223.216
1099.36	201.812
1102.25	180
1105.15	216.199
1108.04	216.945
1110.93	194.103
1113.83	209.236
1116.72	163.457
1119.61	172.992
1122.5	166.461
1125.4	128.857
1128.29	138.862
1131.18	141.788
1134.07	156.392
1136.97	86.8015
1139.86	36.0259
1142.75	83.1663
1145.64	110.55
1148.54	58.3728
1151.43	48.3003
1154.32	149.243
1157.22	37.6522
1160.11	78.7288
1163	78.583
1165.89	13.9153
1168.79	6.75537
1171.68	20.3363
1174.57	22.1749
1177.46	9.38306
1180.36	14.5308
1183.25	29.5007
1186.14	63.6228
1189.04	40.7492
1191.93	6.84534
1194.82	43.1114
1197.71	10.7242
1200.61	29.3435
1203.5	26.2971
1206.39	12.1664
1209.28	51.9867
1212.18	70.5907
1215.07	33.7299
1217.96	58.7006
1220.86	19.9714
1223.75	56.307
1226.64	101.956
1229.53	58.6934
1232.43	65.8079
1235.32	17.1715
1238.21	43.8242
1241.1	28.8189
1244	2.67188
1246.89	27.8984
1249.78	30.9094
1252.67	5.28015
1255.57	25.8057
1258.46	27.0575
1261.35	0.597412
