Measurement: Raman, 532 nm, unoriented, Raman Data Processed
Mineral: Phillipsite-Na
Rruff sample: R070271
Ideal chemistry: Na_6_(Si_10_Al_6_)O_32_12H_2_O
Locality: Etsumi, Ogi, Sado Island, Niigata Prefecture, Chubu Region, Honshu Island, Japan
Source: Michael Scott
Description: Spherical radiating aggregates of clear colorless prismatic crystals with pyramidal terminations; sample is from the Tiba et al (1995) study, co-type specimen
Measured chemistry: (Na_2.97_K_1.64_[box]_1.23_Ca_0.16_)_Σ=6_(Si_11.07_Al_4.93_)O_32_·6.23H_2_O
Raman shift (cm-1)	intensity
136.163	0
139.537	113.7
142.912	12.2112
146.287	29.3447
149.662	126.425
153.037	255.746
156.411	226.15
159.786	151.869
163.161	112.799
166.536	103.167
169.911	117.962
173.286	130.886
176.66	108.866
180.035	92.3025
183.41	94.2622
186.785	125.179
190.16	84.0215
193.535	101.582
196.909	130.143
200.284	114.575
203.659	88.1155
207.034	67.7297
210.409	77.8181
213.783	9.34644
217.158	30.3084
220.533	11.0286
223.908	2.73364
227.283	6.48853
230.657	0.350342
234.032	46.0903
237.407	18.4065
240.782	25.3232
244.157	9.31396
247.532	20.3579
250.906	4.09131
254.281	5.51392
257.656	39.6082
261.031	19.0662
264.406	44.3232
267.781	26.1252
271.155	2.51929
274.53	6.04646
277.905	15.3458
281.28	24.4488
284.655	4.9984
288.029	13.2782
291.404	15.406
294.779	5.20493
298.154	18.233
301.529	4.23459
304.904	10.7735
308.278	1.59664
311.653	2.57562
315.028	5.83132
318.403	9.08472
321.778	22.2341
325.152	-0.57904
328.527	15.8981
331.902	8.41695
335.277	11.6178
338.652	17.5124
342.026	5.6164
345.401	17.4514
348.776	5.50913
352.151	12.5915
355.526	14.6514
358.901	2.34228
362.275	15.9558
365.65	19.0523
369.025	23.9031
372.4	17.4504
375.775	13.8901
379.149	18.5564
382.524	2.86523
385.899	79.0444
389.274	105.844
392.649	116.273
396.024	153.075
399.398	144.562
402.773	236.038
406.148	323.373
409.523	420.234
412.898	532.57
416.272	655.372
419.647	717.231
423.022	695.222
426.397	616.177
429.772	531.488
433.147	342.38
436.521	341.797
439.896	348.826
443.271	394.328
446.646	506.993
450.021	743.854
453.396	1019.24
456.77	1355.39
460.145	1723.46
463.52	2060.67
466.895	2446.41
470.27	2774.2
473.644	3130.69
477.019	3415.72
480.394	3552.81
483.769	3390.8
487.144	2986.05
490.519	2372.58
493.893	1717.54
497.268	1163.47
500.643	770.852
504.018	560.192
507.393	316.159
510.767	253.345
514.142	153.227
517.517	153.069
520.892	90.6685
524.267	120.931
527.641	63.8833
531.016	62.2163
534.391	12.0229
537.766	8.95703
541.141	14.0352
544.516	17.0674
547.89	9.85791
551.265	11.0727
554.64	33.1777
558.015	22.2974
561.39	30.4609
564.764	11.2617
568.139	45.6118
571.514	46.6201
574.889	37.0337
578.264	30.8169
581.639	59.6606
585.013	45.2007
588.388	69.7739
591.763	93.1846
595.138	90.7339
598.513	80.2353
601.888	103.756
605.262	113.589
608.637	104.912
612.012	115.073
615.387	143.065
618.762	102.764
622.136	160.445
625.511	112.726
628.886	142.349
632.261	123.191
635.636	111.099
639.01	159.128
642.385	120.122
645.76	112.526
649.135	191.277
652.51	151.353
655.885	165.66
659.259	169.637
662.634	134.424
666.009	132.164
669.384	61.8032
672.759	78.4321
676.134	60.4629
679.508	83.2427
682.883	20.6177
686.258	46.0327
689.633	20.5869
693.008	70.1284
696.382	24.584
699.757	46.5947
703.132	1.65723
706.507	17.6431
709.882	66.4873
713.256	31.2168
716.631	21.3066
720.006	32.1338
723.381	36.8076
726.756	41.8848
730.131	40.5537
733.505	23.0493
736.88	4.33203
740.255	0.48584
743.63	17.3457
747.005	64.8945
750.38	25.9634
753.754	109.744
757.129	135.547
760.504	87.8652
763.879	116.852
767.254	106.416
770.628	33.8086
774.003	101.835
777.378	50.9438
780.753	64.0669
784.128	15.0024
787.503	14.9658
790.877	37.7485
794.252	3.6543
797.627	30.0381
801.002	7.81543
804.377	40.8652
807.751	5.01807
811.126	6.48144
814.501	56.6333
817.876	0.913574
821.251	14.3032
824.625	66.7788
828	21.7227
831.375	73.6021
834.75	33.7573
838.125	35.9971
841.5	57.4502
844.874	59.9033
848.249	9.00537
851.624	70.1582
854.999	73.7681
858.374	47.9126
861.749	27.1758
865.123	24.2051
868.498	18.1274
871.873	35.4995
875.248	24.9141
878.623	11.7739
881.997	64.2485
885.372	92.6987
888.747	27.1118
892.122	64.25
895.497	86.8013
898.871	52.7876
902.246	76.0005
905.621	45.9688
908.996	58.1074
912.371	70.4165
915.746	96.1333
919.12	48.2398
922.495	46.9209
925.87	46.2324
929.245	43.4048
932.62	23.9399
935.995	0.098633
939.369	25.0107
942.744	30.938
946.119	73.5352
949.494	80.917
952.869	24.9863
956.243	12.2456
959.618	11.0615
962.993	7.04004
966.368	26.7197
969.743	3.54346
973.117	49.081
976.492	42.9399
979.867	32.4238
983.242	44.7744
986.617	22.7622
989.992	79.853
993.366	58.7188
996.741	57.8408
1000.12	8.83594
1003.49	46.5459
1006.87	17.4248
1010.24	8.22754
1013.62	11.1855
1016.99	52.1826
1020.37	10.731
1023.74	37.6997
1027.12	31.2798
1030.49	36.6079
1033.86	16.8315
1037.24	36.9228
1040.61	4.87354
1043.99	30.833
1047.36	82.5552
1050.74	42.6484
1054.11	24.6621
1057.49	88.583
1060.86	94.2393
1064.24	123.483
1067.61	144.344
1070.99	137.436
1074.36	239.399
1077.74	211.25
1081.11	238.01
1084.49	281.757
1087.86	278.036
1091.24	276.771
1094.61	233.838
1097.99	283.371
1101.36	222.926
1104.73	232.743
1108.11	231.977
1111.48	241.887
1114.86	230.709
1118.23	215.16
1121.61	207.264
1124.98	217.518
1128.36	195.96
1131.73	144.136
1135.11	173.881
1138.48	99.7808
1141.86	114.456
1145.23	155.924
1148.61	101.502
1151.98	79.5493
1155.36	49.9644
1158.73	72.7241
1162.11	37.1455
1165.48	20.998
1168.86	14.0757
1172.23	37.1045
1175.61	78.1548
1178.98	4.75635
1182.36	3.50049
1185.73	10.6567
1189.11	57.0757
1192.48	47.602
1195.86	4.9082
1199.23	48.834
1202.61	16.8203
1205.98	6.79053
1209.36	50.2656
1212.73	2.06836
1216.1	34.4414
1219.48	75.5254
1222.85	46.3096
1226.23	47.2383
1229.6	58.3897
1232.98	57.3023
1236.35	102.135
1239.73	31.9692
1243.1	107.948
1246.48	95.792
1249.85	48.769
1253.23	72.4805
1256.6	123.433
1259.98	23.9399
1263.35	32.0259
1266.73	66.5606
1270.1	59.9609
1273.48	104.083
1276.85	55.2993
1280.23	90.2915
1283.6	74.6055
1286.98	73.8809
1290.35	94.6269
1293.72	72.3945
1297.1	25.2969
1300.47	71.8486
1303.85	4.21191
1307.22	40.668
