Measurement: Raman, 785 nm, unoriented, Raman Data Processed
Mineral: Phillipsite-Na
Rruff sample: R070271
Ideal chemistry: Na_6_(Si_10_Al_6_)O_32_12H_2_O
Locality: Etsumi, Ogi, Sado Island, Niigata Prefecture, Chubu Region, Honshu Island, Japan
Source: Michael Scott
Description: Spherical radiating aggregates of clear colorless prismatic crystals with pyramidal terminations; sample is from the Tiba et al (1995) study, co-type specimen
Measured chemistry: (Na_2.97_K_1.64_[box]_1.23_Ca_0.16_)_Σ=6_(Si_11.07_Al_4.93_)O_32_·6.23H_2_O
Raman shift (cm-1)	intensity
146.572	0
149.464	94.3494
152.357	177.067
155.25	162.746
158.142	58.7026
161.035	12.6815
163.928	6.98999
166.821	62.9099
169.713	98.5848
172.606	108.189
175.499	87.5794
178.391	81.0005
181.284	62.8842
184.177	74.4924
187.069	61.3368
189.962	65.5637
192.855	92.0153
195.748	105.075
198.64	102.637
201.533	117.563
204.426	137.53
207.318	119.079
210.211	103.775
213.104	64.1526
215.996	71.8195
218.889	42.0707
221.782	55.8444
224.674	42.2027
227.567	15.4496
230.46	5.86047
233.353	14.6705
236.245	0.633362
239.138	4.94074
242.031	4.44159
244.923	8.58563
247.816	15.4551
250.709	9.06244
253.601	0.750427
256.494	34.3544
259.387	2.01025
262.28	18.5338
265.172	2.36523
268.065	1.45252
270.958	8.77722
273.85	12.6213
276.743	16.0824
279.636	13.4049
282.529	9.23651
285.421	7.67118
288.314	15.3256
291.207	9.17475
294.099	1.6315
296.992	13.6906
299.885	3.11496
302.777	7.1838
305.67	5.77034
308.563	0.430766
311.455	0.915045
314.348	17.3362
317.241	10.1165
320.134	4.44851
323.026	10.8365
325.919	0.288427
328.812	3.45407
331.704	11.8838
334.597	12.7972
337.49	5.05474
340.382	13.4509
343.275	-0.539698
346.168	9.22684
349.061	16.716
351.953	4.58066
354.846	16.6591
357.739	0.960328
360.631	4.93367
363.524	7.48193
366.417	7.07843
369.31	9.35706
372.202	6.18549
375.095	13.4111
377.988	15.6396
380.88	20.0153
383.773	10.7382
386.666	22.9874
389.558	33.7719
392.451	43.0423
395.344	81.322
398.236	95.1369
401.129	111.442
404.022	115.785
406.915	177.094
409.807	238.018
412.7	262.071
415.593	324.605
418.485	367.751
421.378	378.445
424.271	339.758
427.163	259.658
430.056	240.945
432.949	220.272
435.842	172.371
438.734	167.518
441.627	206.231
444.52	251.763
447.412	336.32
450.305	453.522
453.198	628.08
456.091	799.531
458.983	988.702
461.876	1254.83
464.769	1461.17
467.661	1674.4
470.554	1919.04
473.447	2124.73
476.339	2238.33
479.232	2366.15
482.125	2322.97
485.017	2183.6
487.91	1935.04
490.803	1597.4
493.696	1227.79
496.588	879.95
499.481	624.229
502.374	411.947
505.266	305.498
508.159	225.563
511.052	153.897
513.944	125.107
516.837	84.6791
519.73	54.8525
522.623	70.1805
525.515	47.0443
528.408	30.2402
531.301	57.0688
534.193	31.9601
537.086	24.7684
539.979	7.92725
542.871	4.49518
545.764	7.6087
548.657	22.1013
551.55	22.2761
554.442	9.76965
557.335	8.77582
560.228	12.2247
563.12	6.49579
566.013	6.63117
568.906	20.6292
571.798	1.34589
574.691	23.4144
577.584	6.6745
580.477	45.4624
583.369	27.3736
586.262	21.773
589.155	36.4454
592.047	30.0674
594.94	36.5452
597.833	47.1323
600.726	43.4147
603.618	45.9124
606.511	54.1035
609.404	57.6215
612.296	66.7688
615.189	44.8765
618.082	47.0237
620.974	62.8048
623.867	37.0451
626.76	56.7615
629.653	34.8322
632.545	62.5704
635.438	38.6171
638.331	43.4058
641.223	27.9822
644.116	48.332
647.009	48.1964
649.901	21.065
652.794	22.2012
655.687	41.212
658.58	11.933
661.472	31.4217
664.365	22.5998
667.258	29.3023
670.15	9.34485
673.043	15.191
675.936	3.36285
678.828	2.78601
681.721	24.6517
684.614	2.02954
687.506	5.51971
690.399	11.3261
693.292	11.2908
696.185	16.9043
699.077	5.66852
701.97	3.98676
704.863	9.94891
707.755	10.3488
710.648	17.2468
713.541	20.8149
716.433	26.8224
719.326	23.7501
722.219	41.9394
725.112	25.1776
728.004	30.2333
730.897	17.6832
733.79	35.1999
736.682	39.0834
739.575	20.7808
742.468	55.4854
745.361	23.7173
748.253	48.6366
751.146	47.5334
754.039	52.4172
756.931	37.4438
759.824	44.1619
762.717	32.6631
765.609	44.7978
768.502	42.5463
771.395	33.8755
774.288	35.9395
777.18	28.1291
780.073	7.16486
782.966	13.2967
785.858	21.6857
788.751	15.4185
791.644	7.42389
794.536	9.34112
797.429	12.6335
800.322	2.18353
803.215	6.73743
806.107	11.0135
809	1.88071
811.893	0.181976
814.785	8.04724
817.678	1.61349
820.571	8.8158
823.463	5.09824
826.356	14.1648
829.249	2.95569
832.141	22.1759
835.034	21.0861
837.927	11.5878
840.82	13.1289
843.712	11.2777
846.605	33.0225
849.498	14.9541
852.39	15.525
855.283	21.1407
858.176	25.063
861.068	30.4727
863.961	18.8395
866.854	6.95435
869.747	21.4492
872.639	26.3653
875.532	25.1026
878.425	17.9306
881.317	17.6054
884.21	5.34067
887.103	17.4632
889.995	12.4286
892.888	14.2894
895.781	13.9935
898.674	18.3359
901.566	17.4998
904.459	17.046
907.352	20.3179
910.244	11.2781
913.137	29.1392
916.03	11.856
918.923	32.5187
921.815	12.766
924.708	13.8564
927.601	10.2125
930.493	12.4343
933.386	20.3641
936.279	9.6983
939.171	9.67792
942.064	9.81967
944.957	1.11835
947.85	3.45679
950.742	25.1971
953.635	2.41354
956.528	0.047546
959.42	2.88846
962.313	1.28674
965.206	5.06375
968.098	19.0589
970.991	4.90149
973.884	13.7843
976.777	2.37439
979.669	14.5208
982.562	9.63879
985.455	23.0219
988.347	13.2355
991.24	35.2129
994.133	18.5312
997.025	9.73584
999.918	4.74225
1002.81	2.6286
1005.7	9.64453
1008.6	3.23456
1011.49	7.29413
1014.38	11.8164
1017.27	10.5034
1020.17	18.3507
1023.06	27.379
1025.95	30.0833
1028.85	19.7065
1031.74	22.158
1034.63	12.9023
1037.52	45.0133
1040.42	19.2559
1043.31	1.43665
1046.2	4.78876
1049.09	10.8479
1051.99	8.8833
1054.88	13.2822
1057.77	41.8104
1060.66	54.2571
1063.56	71.4373
1066.45	80.683
1069.34	68.7467
1072.24	83.9308
1075.13	105.819
1078.02	144.271
1080.91	136.749
1083.81	122.488
1086.7	145.341
1089.59	154.852
1092.48	142.565
1095.38	174.018
1098.27	169.662
1101.16	171.537
1104.06	153.091
1106.95	137.043
1109.84	135.204
1112.73	123.354
1115.63	133.829
1118.52	106.703
1121.41	111.864
1124.3	99.4119
1127.2	106.062
1130.09	106.693
1132.98	91.2358
1135.88	93.2227
1138.77	79.1025
1141.66	81.0029
1144.55	71.353
1147.45	50.301
1150.34	67.7003
1153.23	47.9417
1156.12	46.1074
1159.02	27.8415
1161.91	9.38867
1164.8	17.2761
1167.69	1.82645
1170.59	12.9064
1173.48	5.0445
1176.37	3.39832
1179.27	5.10785
1182.16	9.30124
1185.05	0.136566
1187.94	7.00626
1190.84	13.7873
1193.73	14.0053
1196.62	4.98965
1199.51	14.4541
1202.41	37.0463
1205.3	21.0356
1208.19	46.1175
1211.09	48.867
1213.98	22.7323
1216.87	21.088
1219.76	23.4092
1222.66	18.4355
1225.55	1.9176
1228.44	0.576813
1231.33	14.4903
1234.23	9.82089
