Measurement: Raman, 532 nm, unoriented, Raman Data Processed
Mineral: Phillipsite-Ca
Rruff sample: R060161
Ideal chemistry: Ca_3_(Si_10_Al_6_)O_32_12H_2_O
Locality: Sasback on Rhine, Germany
Source: Marcus Origlieri
Description: Coating of colorless pseudo-octahedral shaped crystals
Measured chemistry: (K_0.72_Ca_0.50_Na_0.17_Ba_0.03_)_Σ=1.42_(Si_5.65_Al_2.35_)_Σ=8_O_16_·6H_2_O
Raman shift (cm-1)	intensity
152.457	0
155.35	8.2716
158.242	4.00427
161.135	2.88568
164.028	1.44586
166.92	0.785776
169.813	1.20353
172.706	1.08282
175.598	1.86016
178.491	0.063255
181.384	0.778007
184.277	4.06084
187.169	7.05466
190.062	13.4667
192.955	19.4035
195.847	21.0721
198.74	22.8072
201.633	23.9245
204.525	21.548
207.418	19.0818
210.311	15.5508
213.204	11.5261
216.096	7.24334
218.989	3.8442
221.882	2.64683
224.774	2.19518
227.667	1.6792
230.56	0.453299
233.452	0.372962
236.345	0.049182
239.238	0.800707
242.131	0.44536
245.023	0.152983
247.916	0.144454
250.809	2.19963
253.701	3.83359
256.594	5.53929
259.487	7.65433
262.38	6.29903
265.272	7.2479
268.165	11.2452
271.058	9.52652
273.95	12.1811
276.843	11.0463
279.736	13.3529
282.628	11.9112
285.521	16.1187
288.414	16.6144
291.307	15.611
294.199	12.8372
297.092	14.048
299.985	13.3261
302.877	15.0587
305.77	14.3549
308.663	15.9839
311.555	14.8372
314.448	16.2889
317.341	17.9055
320.234	12.5818
323.126	12.7659
326.019	15.5253
328.912	11.6881
331.804	10.5146
334.697	9.94017
337.59	10.5254
340.483	4.18128
343.375	5.18853
346.268	5.567
349.161	4.81535
352.053	2.60999
354.946	0.140883
357.839	0.559191
360.731	0.092924
363.624	0.058719
366.517	0.725346
369.41	0.39741
372.302	0.776104
375.195	0.540439
378.088	1.37098
380.98	0.009715
383.873	1.91679
386.766	0.503499
389.659	3.12012
392.551	1.26455
395.444	4.16939
398.337	6.06676
401.229	11.9328
404.122	13.3733
407.015	18.684
409.908	22.6243
412.8	29.1613
415.693	30.8903
418.586	30.6769
421.478	30.6718
424.371	28.9155
427.264	24.3159
430.156	21.7198
433.049	19.5964
435.942	20.0357
438.834	27.1365
441.727	40.0432
444.62	50.6869
447.513	70.791
450.405	91.3113
453.298	119.518
456.191	144.873
459.083	174.489
461.976	201.613
464.869	223.479
467.762	240.939
470.654	254.595
473.547	257.988
476.44	259.625
479.332	248.784
482.225	233.061
485.118	206.35
488.01	174.01
490.903	137.691
493.796	110.42
496.689	75.2184
499.581	53.8145
502.474	37.7962
505.367	23.8795
508.259	19.2229
511.152	8.76172
514.045	5.73899
516.938	1.58723
519.83	0.163336
522.723	2.2914
525.616	1.40908
528.508	0.931245
531.401	0.154545
534.294	2.06156
537.187	1.75531
540.079	1.52336
542.972	1.12702
545.865	0.510832
548.757	0.43599
551.65	2.09971
554.543	0.732489
557.435	1.17588
560.328	1.906
563.221	2.40782
566.114	0.629945
569.006	3.09051
571.899	1.76975
574.792	1.71545
577.684	5.52345
580.577	5.51172
583.47	5.29911
586.362	5.49016
589.255	7.92299
592.148	7.24561
595.04	7.90269
597.933	4.91431
600.826	6.07438
603.719	5.79422
606.611	7.58338
609.504	7.60258
612.397	6.3272
615.289	2.79124
618.182	3.40212
621.075	5.79652
623.967	5.71242
626.86	5.03505
629.753	6.04893
632.646	6.57648
635.538	6.47611
638.431	5.62594
641.324	2.98064
644.216	3.12808
647.109	3.10649
650.002	0.764195
652.895	1.30971
655.787	3.65171
658.68	0.220138
661.573	2.53637
664.465	1.77259
667.358	0.740759
670.251	0.527747
673.144	2.32967
676.036	0.914581
678.929	0.51996
681.822	0.536948
684.714	0.306067
687.607	0.508193
690.5	2.40163
693.393	2.83852
696.285	3.46836
699.178	2.33649
702.071	2.92491
704.963	2.09372
707.856	2.83915
710.749	2.97897
713.641	4.2993
716.534	3.34455
719.427	4.32861
722.319	4.52423
725.212	5.28061
728.105	3.54238
730.998	0.518624
733.89	2.58758
736.783	1.64709
739.676	4.30906
742.568	3.28498
745.461	4.21855
748.354	1.3377
751.246	1.16485
754.139	1.48866
757.032	4.44997
759.925	6.30428
762.817	7.25114
765.71	5.37094
768.603	4.56252
771.495	6.10658
774.388	6.46512
777.281	3.91478
780.174	3.86908
783.066	1.70852
785.959	3.74731
788.852	2.53289
791.744	1.09224
794.637	0.306236
797.53	1.6701
800.423	0.078491
803.315	0.108605
806.208	0.393854
809.101	1.3799
811.993	1.15265
814.886	1.61543
817.779	0.259653
820.671	0.159444
823.564	0.943918
826.457	0.149054
829.35	1.77082
832.242	2.08371
835.135	1.95712
838.028	2.18007
840.92	2.60025
843.813	1.95006
846.706	1.94164
849.598	1.4113
852.491	3.15101
855.384	2.5405
858.277	0.943347
861.169	2.2123
864.062	0.916813
866.955	3.01676
869.847	3.04398
872.74	2.28763
875.633	1.08076
878.525	1.35512
881.418	0.244851
884.311	4.5008
887.204	2.64242
890.096	0.337182
892.989	0.061886
895.882	2.04859
898.774	1.85752
901.667	4.0431
904.56	2.59929
907.452	2.60779
910.345	6.1197
913.238	4.37221
916.131	5.0699
919.023	4.23465
921.916	4.31021
924.809	2.10672
927.702	1.57191
930.594	2.13391
933.487	2.37382
936.38	3.25186
939.272	3.48181
942.165	4.28085
945.058	3.17948
947.95	0.714392
950.843	0.414198
953.736	1.00012
956.629	0.9916
959.521	0.121808
962.414	0.397103
965.307	0.355632
968.199	0.643953
971.092	3.36026
973.985	2.64722
976.877	4.05066
979.77	4.90355
982.663	3.24609
985.556	2.42329
988.448	3.11497
991.341	3.84305
994.234	2.71967
997.126	4.11875
1000.02	4.79478
1002.91	1.51405
1005.8	2.6309
1008.7	3.69167
1011.59	3.01839
1014.48	0.902036
1017.38	3.26236
1020.27	4.01853
1023.16	0.172865
1026.05	2.18274
1028.95	0.649769
1031.84	1.64805
1034.73	2.40814
1037.62	0.424553
1040.52	0.328099
1043.41	0.055113
1046.3	3.08938
1049.19	2.82885
1052.09	0.580097
1054.98	0.809024
1057.87	4.50382
1060.77	5.72158
1063.66	6.49742
1066.55	5.56028
1069.44	9.70303
1072.34	6.41615
1075.23	6.55519
1078.12	8.39766
1081.02	7.54249
1083.91	6.50628
1086.8	7.93606
1089.69	9.95641
1092.59	9.0297
1095.48	9.50337
1098.37	8.676
1101.26	11.2999
1104.16	11.1192
1107.05	9.56847
1109.94	9.56297
1112.83	9.57852
1115.73	12.48
1118.62	11.2255
1121.51	9.64118
1124.4	9.69526
1127.3	10.8891
1130.19	11.1022
1133.08	10.6362
1135.98	8.15756
1138.87	9.07547
1141.76	8.38885
1144.65	6.89845
1147.55	8.29953
1150.44	6.91832
1153.33	6.27794
1156.22	6.09719
1159.12	3.73699
1162.01	2.58892
1164.9	1.32424
1167.8	2.82722
1170.69	1.94267
1173.58	0.028571
1176.47	0.544896
1179.37	0.289294
1182.26	0.193937
1185.15	0.708428
1188.05	0.277488
1190.94	1.15989
1193.83	0.320931
1196.72	2.9527
1199.62	0.618902
1202.51	1.66789
1205.4	4.25733
1208.29	1.39036
1211.19	0.494842
1214.08	0.280842
1216.97	5.24683
1219.87	3.04109
1222.76	3.76305
1225.65	3.52982
1228.54	2.20546
1231.43	3.95455
1234.33	3.67107
1237.22	3.31374
1240.11	2.93871
1243.01	6.05721
1245.9	7.70988
1248.79	4.38167
1251.68	2.30301
1254.58	2.2015
1257.47	2.38411
1260.36	0.06132
1263.26	5.22964
1266.15	3.45607
1269.04	5.50546
1271.93	5.20598
1274.83	3.59322
1277.72	3.25703
1280.61	1.78187
1283.5	0.207952
1286.4	2.61653
1289.29	4.27271
1292.18	2.48689
1295.08	3.22731
1297.97	1.7812
1300.86	1.49216
