Measurement: Raman, 532 nm, unoriented, Raman Data Processed
Mineral: Phillipsite-Na
Rruff sample: R061094
Ideal chemistry: Na_6_(Si_10_Al_6_)O_32_12H_2_O
Locality: Faraglione dei Ciccopi, Aci Castello, Catania Province, Sicily, Italy
Source: Michael Scott
Description: Spherical aggregates of translucent white blocky, pseudotetragonal crystals, associated with chabazite-Na, R070440
Measured chemistry: (Na_2.76_K_1.26_[box]_1.14_Ca_0.84_)_Σ=6_(Si_10.30_Al_5.70_)O_32_·7.58H_2_O
Raman shift (cm-1)	intensity
121.083	0
123.975	541.266
126.868	1457.81
129.761	1224.77
132.654	1043.68
135.546	904.98
138.439	897.025
141.332	772.341
144.224	601.75
147.117	498.247
150.01	438.645
152.902	332.499
155.795	287.528
158.688	218.101
161.58	188.117
164.473	165.359
167.366	149.606
170.258	141.792
173.151	109.117
176.044	91.9224
178.937	58.7368
181.829	6.26318
184.722	29.562
187.615	16.5386
190.507	3.12744
193.4	27.4502
196.293	0.296875
199.185	1.98535
202.078	11.4414
204.971	4.57715
207.864	22.9165
210.756	5.33398
213.649	58.6545
216.542	33.0215
219.434	34.447
222.327	29.6758
225.22	21.5403
228.113	28.7202
231.005	55.4751
233.898	49.1257
236.791	30.8498
239.683	60.1318
242.576	29.4851
245.469	62.2883
248.361	111.517
251.254	106.806
254.147	139.423
257.039	243.235
259.932	188.465
262.825	181.603
265.718	217.834
268.61	224.64
271.503	223.58
274.396	203.26
277.288	229.843
280.181	245.863
283.074	228.882
285.966	219.697
288.859	262.571
291.752	171.428
294.645	169.599
297.537	216.614
300.43	187.851
303.323	194.748
306.215	153.413
309.108	173.883
312.001	246.195
314.893	306.805
317.786	285.613
320.679	364.759
323.572	364.604
326.464	424.474
329.357	365.728
332.25	371.615
335.142	357.599
338.035	247.79
340.928	289.128
343.82	269.553
346.713	177.694
349.606	160.844
352.498	137.255
355.391	103.188
358.284	94.0215
361.177	78.9722
364.069	51.8037
366.962	33.7358
369.855	61.3438
372.747	31.2114
375.64	21.5137
378.533	27.4302
381.425	47.3696
384.318	16.7441
387.211	0.489258
390.104	45.1807
392.996	39.5894
395.889	41.6362
398.782	41.7432
401.674	99.8838
404.567	215.604
407.46	202.359
410.353	192.008
413.245	143.154
416.138	108.88
419.031	77.9082
421.923	70.4155
424.816	90.3169
427.709	44.7168
430.601	115.124
433.494	178.157
436.387	231.95
439.279	394.227
442.172	510.95
445.065	561.19
447.958	719.023
450.85	895.192
453.743	1044.23
456.636	1140.78
459.528	1340.08
462.421	1519.56
465.314	1677.34
468.207	1881.04
471.099	2137.44
473.992	2277.87
476.885	2572.24
479.777	2824.88
482.67	2950.3
485.563	3047.04
488.455	3001
491.348	2796.08
494.241	2678.04
497.133	2330.05
500.026	2047.81
502.919	1722.56
505.812	1403.36
508.704	1087.55
511.597	812.814
514.49	565.764
517.382	413.112
520.275	367.53
523.168	264.25
526.06	171.892
528.953	67.6245
531.846	36.1143
534.739	21.8648
537.631	13.4961
540.524	18.1538
543.417	24.4927
546.309	13.1885
549.202	19.1807
552.095	13.0947
554.987	47.7847
557.88	30.8638
560.773	64.4507
563.665	95.3433
566.558	8.88672
569.451	30.6055
572.344	1.53272
575.236	89.52
578.129	96.4497
581.022	83.6343
583.914	84.4844
586.807	55.7065
589.7	81.981
592.592	100.212
595.485	118.018
598.378	110.106
601.271	134.26
604.163	136.377
607.056	122.337
609.949	140.138
612.841	94.9321
615.734	115.924
618.627	156.445
621.519	140.994
624.412	139.039
627.305	167.019
630.197	117.635
633.09	96.9214
635.983	51.1885
638.876	0.666016
641.768	33.2109
644.661	13.3989
647.554	38.7241
650.446	17.1719
653.339	7.48779
656.232	28.6597
659.125	36.5308
662.017	67.9819
664.91	1.85547
667.803	42.1924
670.695	42.2515
673.588	53.376
676.481	74.3545
679.373	60.1289
682.266	43.1445
685.159	73.4468
688.052	84.7812
690.944	85.5044
693.837	46.9326
696.73	95.4438
699.622	105.461
702.515	146.316
705.408	122.569
708.3	108.481
711.193	79.0723
714.086	149.56
716.979	95.7334
719.871	49.8276
722.764	82.0767
725.657	106.414
728.549	84.2568
731.442	22.084
734.335	54.9126
737.227	12.7354
740.12	8.45166
743.013	49.0381
745.905	3.14502
748.798	80.4971
751.691	46.8037
754.584	133.727
757.476	111.914
760.369	65.8115
763.262	169.432
766.154	152.89
769.047	145.532
771.94	92.2383
774.832	117.231
777.725	133.152
780.618	143.738
783.51	162.437
786.403	119.09
789.296	128.435
792.189	163.141
795.081	120.609
797.974	52.2671
800.867	50.4028
803.759	53
806.652	21.2686
809.545	40.956
812.438	7.64893
815.33	38.6904
818.223	16.0234
821.116	93.3428
824.008	135.865
826.901	174.272
829.794	199.52
832.686	152.933
835.579	178.246
838.472	232.886
841.365	167.958
844.257	167.463
847.15	141.99
850.043	138.556
852.935	135.288
855.828	173.609
858.721	205.022
861.613	149.487
864.506	174.833
867.399	131.85
870.291	158.116
873.184	108.968
876.077	48.2451
878.97	151.008
881.862	111.912
884.755	142.468
887.648	96.186
890.54	80.3828
893.433	9.99072
896.326	66.2485
899.218	41.1074
902.111	60.8716
905.004	93.3135
907.896	0.631836
910.789	33.1773
913.682	68.5845
916.575	49.9111
919.467	72.0615
922.36	32.6411
925.253	31.8164
928.145	37.2051
931.038	18.8125
933.931	26.9849
936.823	24.5747
939.716	15.9502
942.609	75.8213
945.502	46.8052
948.394	17.374
951.287	13.8481
954.18	28.8003
957.072	22.0244
959.965	1.86572
962.858	40.0449
965.75	33.9712
968.643	42.4668
971.536	38.3774
974.429	84.2832
977.321	85.5273
980.214	95.5767
983.107	91.9663
985.999	119.31
988.892	94.0957
991.785	134.69
994.678	100.381
997.57	141.567
1000.46	108.195
1003.36	107.473
1006.25	56.978
1009.14	86.8115
1012.03	48.4087
1014.93	55.7915
1017.82	12.7056
1020.71	7.51416
1023.6	88.4678
1026.5	57.5034
1029.39	54.4209
1032.28	19.5215
1035.17	30.8086
1038.07	6.62988
1040.96	13.9888
1043.85	4.03613
1046.75	2.13477
1049.64	5.97119
1052.53	11.9785
1055.42	88.6455
1058.32	45.2261
1061.21	89.3818
1064.1	91.7334
1066.99	113.235
1069.89	142.677
1072.78	199.993
1075.67	169.482
1078.57	209.41
1081.46	213.106
1084.35	248.092
1087.24	204.405
1090.14	265.002
1093.03	223.829
1095.92	209.023
1098.82	242.383
1101.71	250.249
1104.6	211.721
1107.49	184.756
1110.38	232.797
1113.28	182.416
1116.17	157.852
1119.06	167.245
1121.96	131.416
1124.85	159.513
1127.74	163.856
1130.63	118.998
1133.53	168.311
1136.42	171.653
1139.31	127.195
1142.2	186.004
1145.1	100.897
1147.99	131.367
1150.88	80.3018
1153.78	65.8877
1156.67	74.8755
1159.56	57.6748
1162.45	30.5146
1165.35	54.4312
1168.24	48.2974
1171.13	40.8638
1174.03	56.4204
1176.92	61.5464
1179.81	26.7715
1182.7	20.9072
1185.6	12.2114
1188.49	12.0859
1191.38	17.7661
1194.27	6.30713
1197.17	19.7363
1200.06	28.4692
1202.95	47.0254
1205.84	18.4971
1208.74	46.273
1211.63	76.7832
1214.52	39.7324
1217.41	26.9609
1220.31	37.4238
1223.2	68.3608
1226.09	69.8496
1228.99	100.308
1231.88	8.81787
1234.77	44.3052
1237.66	76.2109
1240.56	20.4712
1243.45	27.0322
1246.34	57.8198
1249.23	79.0195
1252.13	71.8193
1255.02	61.8164
1257.91	59.5337
1260.81	68.6616
1263.7	3.84912
1266.59	60.8579
1269.48	2.0166
