Measurement: Raman, 532 nm, unoriented, Raman Data Processed
Mineral: Philipsburgite
Rruff sample: R061036
Ideal chemistry: (Cu^2+^,Zn^2+^)_6_(As^5+^O_4_,PO_4_)_2_(OH)_6_H_2_O
Locality: Black Pine mine, Granite county, Montana, USA
Source: Michael Scott
Description: Dark green, almost black subparallel rosettes, associated with lighter greenish blue spherules of zapatalite
Raman shift (cm-1)	intensity
121.04	0
124.415	680.627
127.79	3079.89
131.165	4990.49
134.539	5686.85
137.914	6559.44
141.289	7209.6
144.664	6505.7
148.038	4963.75
151.413	3748.36
154.788	4387.32
158.163	6123.01
161.538	8203.63
164.913	9730.99
168.287	9805.67
171.662	8629.6
175.037	6727.29
178.412	6174.72
181.787	5935.12
185.161	5717.52
188.536	4794.16
191.911	3633.55
195.286	2850.16
198.661	2488.27
202.036	2086.12
205.41	1665.42
208.785	1173.67
212.16	944.161
215.535	884.198
218.91	496.63
222.285	117.383
225.659	189.676
229.034	247.477
232.409	206.026
235.784	14.2891
239.159	272.142
242.533	731.019
245.908	961.867
249.283	984.627
252.658	663.985
256.033	365.283
259.407	193.641
262.782	121.211
266.157	35.4092
269.532	84.0527
272.907	173.178
276.281	729.536
279.656	1503.25
283.031	2388.52
286.406	2971.56
289.781	3664.06
293.156	3607.75
296.53	3593.41
299.905	3436.05
303.28	3453.04
306.655	3611.03
310.03	3433.77
313.404	3173.29
316.779	2586.77
320.154	1820.32
323.529	1193.54
326.904	682.827
330.279	289.709
333.653	75.917
337.028	294.695
340.403	334.69
343.778	264.06
347.153	71.6807
350.527	634.494
353.902	1326.27
357.277	2349.89
360.652	3374.11
364.027	4646.67
367.401	5760.74
370.776	6909.04
374.151	8536.28
377.526	10365.6
380.901	12423.6
384.276	14431.7
387.65	15489.7
391.025	14756
394.4	12007.4
397.775	8586.43
401.15	5088.82
404.524	2509.1
407.899	1086.35
411.274	304.514
414.649	300.035
418.024	712.686
421.399	1250.98
424.773	2091.85
428.148	3037.82
431.523	4248.47
434.898	4735.04
438.273	4600.21
441.647	3728.03
445.022	2679.38
448.397	2235.93
451.772	2559.83
455.147	3078.74
458.522	3600.45
461.896	4141.48
465.271	4729.83
468.646	5616.36
472.021	6681.8
475.396	7492.73
478.77	8310.26
482.145	9308.52
485.52	10024.5
488.895	10355.7
492.27	10198.2
495.644	10178
499.019	9559.08
502.394	8732.93
505.769	7331.56
509.144	5691.95
512.519	3857.34
515.893	2184.53
519.268	882.094
522.643	90.4356
526.018	175.664
529.393	234.01
532.768	351.805
536.142	88.5176
539.517	707.99
542.892	1783.01
546.267	2802.51
549.641	2874.98
553.016	2039.4
556.391	1528.39
559.766	1459.8
563.141	1519.22
566.516	1325.19
569.89	901.55
573.265	512.768
576.64	123.659
580.015	57.5049
583.39	145.915
586.764	228.084
590.139	326.31
593.514	648.374
596.889	732.906
600.264	931.184
603.639	1059.38
607.013	1236.49
610.388	1536.14
613.763	1728.8
617.138	2176.54
620.513	2328.8
623.888	2527.06
627.262	2527.25
630.637	2452.66
634.012	2161.32
637.387	1872.56
640.761	1389.42
644.136	1133.65
647.511	760.371
650.886	572.632
654.261	556.344
657.636	586.902
661.01	547.38
664.385	496.052
667.76	447.097
671.135	427.122
674.51	381.688
677.885	374.276
681.259	303.853
684.634	275.534
688.009	242.283
691.384	156.32
694.759	150.883
698.133	30.4531
701.508	64.543
704.883	101.672
708.258	127.004
711.633	0.543945
715.007	120.603
718.382	169.837
721.757	127.37
725.132	188.633
728.507	80.3662
731.881	181.731
735.256	127.753
738.631	254.685
742.006	154.94
745.381	161.642
748.756	117.315
752.13	109.723
755.505	98.2695
758.88	193.606
762.255	215.097
765.63	217.983
769.005	122.288
772.379	45.2949
775.754	235.617
779.129	618.001
782.504	992.5
785.879	1520.58
789.253	2260.85
792.628	2901.34
796.003	3410.74
799.378	4015.77
802.753	4664.71
806.127	5095.29
809.502	5467.32
812.877	5816.4
816.252	5935.56
819.627	5915.11
823.001	5962.78
826.376	6861.9
829.751	7358.48
833.126	7767.93
836.501	8075.48
839.876	8432.28
843.25	8387.69
846.625	8565.09
850	9195.25
853.375	10273.2
856.75	12339.1
860.125	15068.8
863.499	18029.2
866.874	19539.4
870.249	17621.9
873.624	13917.9
876.999	10069.2
880.373	7213.98
883.748	4974.63
887.123	3422.57
890.498	2182.26
893.873	1571.54
897.247	865.535
900.622	327.441
903.997	50.3086
907.372	301.394
910.747	377.646
914.121	346.209
917.496	102.866
920.871	358.925
924.246	1349.27
927.621	2575.33
930.996	4140.87
934.37	5340.15
937.745	5557.04
941.12	4877.34
944.495	4355.39
947.87	4294.89
951.245	5197.3
954.619	7060.17
957.994	10128.9
961.369	14526.1
964.744	19813
968.119	23510.7
971.493	22864.9
974.868	17641.3
978.243	12057.2
981.618	7882.56
984.993	4907.48
988.367	2704.17
991.742	1253.24
995.117	546.158
998.492	177.612
1001.87	142.59
1005.24	365.722
1008.62	869.408
1011.99	1527.44
1015.37	1787.76
1018.74	1586.98
1022.12	966.683
1025.49	541.658
1028.87	264.535
1032.24	190.373
1035.62	253.084
1038.99	396.517
1042.37	622.477
1045.74	800.18
1049.11	1149.65
1052.49	1508.79
1055.86	2025.14
1059.24	2224.95
1062.61	1792.1
1065.99	1260.61
1069.36	853.399
1072.74	350.365
1076.11	78.0986
1079.49	154.422
1082.86	15.206
1086.24	85.0508
1089.61	22.6289
1092.99	79.1728
1096.36	112.907
1099.74	235.538
1103.11	180.587
1106.49	176.319
1109.86	94.3223
1113.24	128.616
1116.61	1.09473
1119.98	19.2734
1123.36	75.7305
1126.73	233.794
1130.11	198.398
1133.48	205.76
1136.86	192.197
1140.23	194.185
1143.61	198.485
1146.98	16.0508
1150.36	262.554
1153.73	361.589
1157.11	508.366
1160.48	445.94
1163.86	299.357
1167.23	379.169
1170.61	654.583
1173.98	552.667
1177.36	491.758
1180.73	465.445
1184.11	370.546
1187.48	428.034
1190.86	318.628
1194.23	285.378
1197.61	193.143
1200.98	309.302
1204.36	310.673
1207.73	283.478
1211.11	220.877
1214.48	335.222
1217.86	111.996
1221.23	205.719
1224.6	153.058
1227.98	172.314
1231.35	229.69
1234.73	83.2842
1238.1	199.792
1241.48	68.9795
1244.85	6.11035
1248.23	137.254
1251.6	233.201
1254.98	139.941
1258.35	146.871
1261.73	7.39844
1265.1	8.27832
1268.48	21.7812
1271.85	75.7588
1275.23	73.8311
