Measurement: Raman, 532 nm, unoriented, Raman Data Processed
Mineral: Philipsbornite
Rruff sample: R070065
Ideal chemistry: Pb^2+^Al_3_(As^5+^O_4_)(As^5+^O_3_OH)(OH)_6_
Locality: Hat Yai Province, Thailand
Source: Bob Jenkins
Description: Colorless pyramidal crystals, associated with yellow mimetite
Raman shift (cm-1)	intensity
140.54	0
143.914	59.832
147.289	323.094
150.664	627.045
154.039	976.01
157.414	1194.01
160.788	854.139
164.163	403.049
167.538	130.484
170.913	51.4783
174.288	23.4795
177.662	52.4106
181.037	242.429
184.412	518.626
187.787	950.458
191.162	1445.6
194.537	1960.65
197.911	2464.89
201.286	2570.2
204.661	2329.51
208.036	1898.11
211.411	1368.73
214.786	994.418
218.16	768.638
221.535	612.688
224.91	587.484
228.285	674.745
231.66	671.256
235.034	678.546
238.409	556.293
241.784	450.818
245.159	412.745
248.534	536.349
251.908	717.842
255.283	967.244
258.658	1205.26
262.033	1323.38
265.408	1306.93
268.783	935.068
272.157	610.763
275.532	287.847
278.907	146.69
282.282	3.57886
285.656	23.9419
289.031	20.0269
292.406	48.1282
295.781	164.742
299.156	316.406
302.531	478.097
305.905	690.492
309.28	973.645
312.655	1268.93
316.03	1544.89
319.405	1815.7
322.779	1936.45
326.154	1940.43
329.529	1752.02
332.904	1583.46
336.279	1313.13
339.654	1087.13
343.028	853.462
346.403	640.188
349.778	479.055
353.153	315.641
356.528	169.721
359.902	72.1399
363.277	18.0627
366.652	56.4685
370.027	32.9895
373.402	44.9739
376.776	75.5615
380.151	37.3603
383.526	32.6003
386.901	0.72876
390.276	62.0239
393.651	78.1272
397.025	171.64
400.4	279.668
403.775	339.456
407.15	530.805
410.525	813.027
413.899	1106.1
417.274	1377.44
420.649	1703.88
424.024	1870.71
427.399	1962.78
430.774	1907.34
434.148	1830.78
437.523	1650.42
440.898	1399.57
444.273	1156.53
447.648	954.312
451.022	840.818
454.397	680.332
457.772	673.423
461.147	657.856
464.522	768.168
467.896	886.078
471.271	1015.28
474.646	1194.87
478.021	1292.71
481.396	1246.37
484.771	1109.37
488.145	890.342
491.52	740.826
494.895	583.274
498.27	570.024
501.645	594.785
505.019	702.348
508.394	908.914
511.769	1244.81
515.144	1723.17
518.519	2242.87
521.893	2596.57
525.268	2574.8
528.643	2293.76
532.018	1612.59
535.393	940.642
538.768	457.777
542.142	188.883
545.517	61.7529
548.892	32.3025
552.267	52.0767
555.641	41.9043
559.016	47.4219
562.391	38.7725
565.766	12.2932
569.141	79.5068
572.516	91.771
575.89	146.188
579.265	168.383
582.64	222.452
586.015	164.225
589.39	216.615
592.764	234.664
596.139	252.872
599.514	264.134
602.889	237.95
606.264	215.817
609.639	179.333
613.013	253.406
616.388	235.352
619.763	230.38
623.138	227.857
626.513	200.138
629.888	241.064
633.262	253.876
636.637	226.102
640.012	290.509
643.387	270.228
646.761	299.291
650.136	257.449
653.511	192.432
656.886	166.325
660.261	71.1138
663.636	27.2031
667.01	19.7297
670.385	8.67554
673.76	24.3916
677.135	67.7236
680.51	83.7991
683.885	109.772
687.259	140.128
690.634	88.6758
694.009	124.95
697.384	110.462
700.759	92.5308
704.133	103.354
707.508	71.4236
710.883	60.9678
714.258	59.8118
717.633	95.0606
721.007	19.9993
724.382	2.72949
727.757	28.7398
731.132	22.4785
734.507	59.7095
737.881	50.7517
741.256	94.1074
744.631	123.445
748.006	214.64
751.381	286.068
754.755	361.937
758.13	419.001
761.505	430.287
764.88	376.901
768.255	288.69
771.63	168.319
775.004	78.1133
778.379	11.387
781.754	-2.70597
785.129	7.21871
788.504	-2.27251
791.879	23.1342
795.253	16.2769
798.628	118.698
802.003	210.724
805.378	426.088
808.753	606.254
812.127	818.06
815.502	1104.5
818.877	1375.33
822.252	1751.74
825.627	2193.79
829.001	2646.88
832.376	3217.21
835.751	3845.24
839.126	4427.14
842.501	5082.99
845.875	5839.52
849.25	6534.1
852.625	7332.24
856	7992.2
859.375	8681.72
862.75	9293.51
866.124	9748.67
869.499	10287.7
872.874	10282.9
876.249	10062.1
879.624	9317.85
882.998	8274.17
886.373	7020.16
889.748	5767.95
893.123	4776.75
896.498	3911.77
899.872	3120.67
903.247	2489.66
906.622	1939.19
909.997	1492.23
913.372	1114.71
916.746	816.425
920.121	631.673
923.496	404.803
926.871	260.533
930.246	147.398
933.621	4.53977
936.995	11.2018
940.37	20.4158
943.745	34.6299
947.12	13.1092
950.495	27.587
953.87	33.4543
957.244	6.33951
960.619	152.359
963.994	293.209
967.369	405.49
970.744	628.85
974.118	709.381
977.493	854.893
980.868	933.801
984.243	988.177
987.618	959.149
990.992	964.082
994.367	1087.3
997.742	1205.08
1001.12	1404.81
1004.49	1650.05
1007.87	1890.46
1011.24	1963.75
1014.62	1715.45
1017.99	1236.32
1021.37	773.024
1024.74	405.081
1028.12	138.82
1031.49	45.4172
1034.87	5.29907
1038.24	14.3298
1041.62	17.1931
1044.99	59.104
1048.36	4.05298
1051.74	27.2515
1055.11	28.0649
1058.49	25.9082
1061.86	21.6741
1065.24	5.30127
1068.61	43.9517
1071.99	90.8018
1075.36	113.621
1078.74	112.624
1082.11	132.367
1085.49	150.977
1088.86	156.148
1092.24	143.343
1095.61	134.378
1098.99	163.644
1102.36	136.572
1105.74	108.309
1109.11	111.631
1112.49	143.287
1115.86	91.1567
1119.23	87.9209
1122.61	40.03
1125.98	49.8306
1129.36	7.88647
1132.73	69.0781
1136.11	48.155
1139.48	35.4077
1142.86	36.3274
1146.23	8.59961
1149.61	14.886
1152.98	19.6907
1156.36	9.96899
1159.73	27.3052
1163.11	17.3931
1166.48	28.0456
1169.86	23.2554
1173.23	55.3816
1176.61	34.4465
1179.98	31.2556
1183.36	34.5823
1186.73	40.3792
1190.11	84.7039
1193.48	91.957
1196.86	104.846
1200.23	62.3889
1203.61	24.9131
1206.98	54.8018
1210.36	45.6807
1213.73	3.84766
1217.11	32.3953
1220.48	40.96
1223.85	23.3023
1227.23	14.7073
1230.6	23.7944
1233.98	8.81641
1237.35	42.3887
1240.73	52.0139
1244.1	22.7412
1247.48	0.543945
1250.85	21.4028
1254.23	41.7727
1257.6	29.1262
1260.98	16.9661
1264.35	79.887
1267.73	78.3877
1271.1	51.8557
1274.48	56.3972
1277.85	87.0884
1281.23	22.894
1284.6	33.0178
1287.98	27.8037
1291.35	24.7139
1294.73	38.0825
1298.1	46.1331
1301.47	31.3225
1304.85	5.60913
1308.22	32.782
1311.6	11.366
