Measurement: Raman, 532 nm, unoriented, Raman Data Processed
Mineral: Phlogopite
Rruff sample: R050068
Ideal chemistry: KMg_3_(Si_3_Al)O_10_(OH)_2_
Locality: S.W. Jasper County, Georgia, USA
Source: Rock Currier
Description: Dark brown micaceous single crystal
Measured chemistry: (K_0.94_Na_0.05_[box]_0.01_)(Mg_0.94_Fe_0.06_)_3_(Si_3.00_Al_1.00_)O_10_((OH)_0.53_F_0.47_)_2_
Raman shift (cm-1)	intensity
154.483	0
157.376	1.604
160.268	4.99207
163.161	47.4525
166.054	59.2596
168.946	92.7279
171.839	170.287
174.732	236.573
177.625	283.782
180.517	464.63
183.41	646.623
186.303	913.44
189.195	1206.31
192.088	1457.29
194.981	1502.58
197.874	1086.92
200.766	710.467
203.659	416.187
206.552	265.978
209.444	187.619
212.337	104.6
215.23	61.1362
218.122	82.7427
221.015	21.9089
223.908	25.6975
226.8	15.2037
229.693	16.5925
232.586	17.4883
235.479	9.3197
238.371	13.1239
241.264	5.3197
244.157	19.8785
247.049	2.54773
249.942	6.6731
252.835	19.0435
255.727	43.5718
258.62	43.7728
261.513	105.231
264.406	173.231
267.298	247.07
270.191	326.789
273.084	433.499
275.976	526.161
278.869	499.216
281.762	358.598
284.655	232.806
287.547	164.953
290.44	123.719
293.333	102.633
296.225	110.71
299.118	137.571
302.011	140.007
304.904	219.873
307.796	289.986
310.689	348.315
313.582	410.293
316.474	439.449
319.367	472.372
322.26	474.005
325.152	426.744
328.045	358.902
330.938	259.231
333.83	201.665
336.723	160.052
339.616	103.601
342.509	72.7745
345.401	76.9965
348.294	50.9526
351.187	7.57092
354.079	46.7693
356.972	28.3323
359.865	42.0458
362.757	35.4323
365.65	63.1619
368.543	42.7944
371.436	20.1454
374.328	5.71973
377.221	7.3175
380.114	7.09656
383.006	8.82764
385.899	1.82483
388.792	6.43994
391.685	0.132324
394.577	17.3845
397.47	4.3197
400.363	2.08777
403.255	29.3024
406.148	31.6151
409.041	15.0908
411.933	57.0486
414.826	34.3929
417.719	54.7645
420.611	50.0637
423.504	69.009
426.397	105.18
429.29	93.4544
432.182	144.352
435.075	123.741
437.968	137.33
440.86	130.875
443.753	173.404
446.646	173.962
449.538	159.654
452.431	124.213
455.324	114.249
458.217	106.651
461.109	62.7532
464.002	96.6099
466.895	15.6416
469.787	23.1212
472.68	5.65894
475.573	5.14844
478.466	44.2508
481.358	32.5011
484.251	57.1735
487.144	114.584
490.036	157.855
492.929	159.281
495.822	222.038
498.714	267.979
501.607	276.852
504.5	276.322
507.393	257.169
510.285	247.973
513.178	199.745
516.071	175.247
518.963	151.178
521.856	145.264
524.749	145.056
527.641	122.99
530.534	94.059
533.427	86.0179
536.32	88.8297
539.212	91.7026
542.105	83.1393
544.998	111.806
547.89	114.736
550.783	129.43
553.676	73.1128
556.568	115.467
559.461	74.0458
562.354	72.9445
565.247	66.7161
568.139	81.8881
571.032	2.73462
573.925	10.5557
576.817	17.5137
579.71	20.0085
582.603	5.10034
585.495	11.8918
588.388	32.1781
591.281	0.950439
594.174	44.5082
597.066	33.0961
599.959	26.0034
602.852	19.2625
605.744	60.332
608.637	60.6361
611.53	90.5584
614.423	101.408
617.315	146.1
620.208	145.769
623.101	187.306
625.993	235.194
628.886	252.969
631.779	269.266
634.671	339.49
637.564	327.103
640.457	346.846
643.35	321.042
646.242	333.316
649.135	365.478
652.028	371.176
654.92	429.437
657.813	461.573
660.706	603.527
663.598	707.629
666.491	904.373
669.384	1165.99
672.277	1450.57
675.169	1747.74
678.062	2012.77
680.955	2084.88
683.847	1933.82
686.74	1608.78
689.633	1216.21
692.525	830
695.418	507.584
698.311	344.204
701.204	156.17
704.096	80.7085
706.989	32.1213
709.882	6.27368
712.774	19.6523
715.667	29.4065
718.56	14.8005
721.452	27.5281
724.345	33.2312
727.238	43.1853
730.131	93.8438
733.023	54.3928
735.916	96.6519
738.809	86.6867
741.701	91.1881
744.594	60.7616
747.487	54.3011
750.38	23.9818
753.272	47.1826
756.165	23.9683
759.058	62.8224
761.95	33.4721
764.843	112.466
767.736	81.5159
770.628	149.456
773.521	194.399
776.414	212.509
779.307	214.971
782.199	286.688
785.092	226.644
787.985	223.217
790.877	191.645
793.77	175.096
796.663	119.698
799.555	128.719
802.448	72.0673
805.341	37.173
808.234	54.9016
811.126	40.9098
814.019	17.1904
816.912	25.4513
819.804	26.5102
822.697	0.150513
825.59	9.43433
828.482	7.17041
831.375	26.0117
834.268	17.731
837.16	9.44202
840.053	5.01453
842.946	20.8977
845.839	12.5604
848.731	3.2113
851.624	19.4988
854.517	12.9409
857.409	37.4027
860.302	63.7677
863.195	63.5601
866.087	78.1462
868.98	47.1293
871.873	79.8213
874.766	92.8104
877.658	113.94
880.551	80.8351
883.444	94.8855
886.337	104.209
889.229	103.42
892.122	92.4602
895.015	100.734
897.907	109.967
900.8	123.225
903.693	100.697
906.585	80.521
909.478	81.4001
912.371	63.9868
915.264	103.766
918.156	76.4767
921.049	74.7483
923.942	85.1898
926.834	78.2758
929.727	65.5446
932.62	37.3248
935.512	69.5082
938.405	37.3543
941.298	47.6107
944.191	37.0887
947.083	22.0987
949.976	11.9788
952.869	21.1008
955.761	2.48377
958.654	14.438
961.547	4.91309
964.439	32.3044
967.332	29.1802
970.225	10.669
973.117	18.1104
976.01	3.66956
978.903	0.663086
981.796	30.1659
984.688	24.2136
987.581	11.3591
990.474	22.2059
993.366	38.0298
996.259	17.8254
999.152	62.2073
1002.04	41.2471
1004.94	48.5941
1007.83	44.7941
1010.72	29.603
1013.62	5.56384
1016.51	15.4399
1019.4	13.1171
1022.29	4.08911
1025.19	13.3214
1028.08	36.7069
1030.97	79.6611
1033.86	66.7719
1036.76	88.5857
1039.65	71.3715
1042.54	58.5265
1045.43	64.4639
1048.33	53.2922
1051.22	78.533
1054.11	65.209
1057.01	96.785
1059.9	97.0161
1062.79	122.398
1065.68	121.943
1068.58	174.219
1071.47	155.848
1074.36	205.735
1077.26	244.187
1080.15	237.196
1083.04	256.837
1085.93	267.713
1088.83	259.572
1091.72	250.886
1094.61	259.64
1097.5	259.692
1100.4	243.31
1103.29	199.234
1106.18	164.969
1109.07	126.083
1111.97	75.5703
1114.86	77.7267
1117.75	47.8345
1120.64	36.5625
1123.54	39.4511
1126.43	10.196
1129.32	4.5221
1132.22	19.6276
1135.11	12.5902
1138	1.67493
1140.89	46.7527
1143.79	15.1505
1146.68	26.3805
1149.57	2.33447
1152.46	4.98389
1155.36	59.4204
1158.25	37.0298
1161.14	13.9509
1164.04	53.8021
1166.93	35.4879
1169.82	16.772
1172.71	9.18567
1175.61	20.8538
1178.5	28.9374
1181.39	34.8898
1184.29	39.1948
1187.18	55.7078
1190.07	4.83765
1192.96	28.2701
1195.86	40.9921
1198.75	50.6925
1201.64	32.3549
1204.53	40.6964
1207.43	10.2812
1210.32	58.3783
1213.21	14.2623
1216.1	1.07495
1219	34.9939
1221.89	27.6776
1224.78	38.4402
1227.67	24.385
1230.57	24.3389
1233.46	18.0928
1236.35	50.2142
1239.25	34.3961
1242.14	50.9612
1245.03	46.1431
1247.92	38.8611
1250.82	34.8137
1253.71	23.3123
1256.6	27.9888
1259.49	54.355
1262.39	41.0371
1265.28	31.3311
1268.17	61.7432
1271.07	4.80689
1273.96	41.9409
1276.85	38.7468
1279.74	7.12817
1282.64	49.1448
1285.53	37.4797
1288.42	12.0996
1291.32	14.1716
