Measurement: Raman, 785 nm, unoriented, Raman Data Processed
Mineral: Phlogopite
Rruff sample: R070330
Ideal chemistry: KMg_3_(Si_3_Al)O_10_(OH)_2_
Locality: Little Chief mine, Whitehorse, Yukon Territory, Canada
Source: Mark Mauthner
Description: Green micaceous
Measured chemistry: gray phase: K_1.00_(Mg_2.65_Fe^2+^_0.34_Ti_0.01_)_Σ=3_(Si_2.98_Al_1.02_)O_10_((OH)_1.77_F_0.23_)_Σ=2_; trace amounts of Mn; OH by charge balance; light phase is diopside: Ca_1.00_(Mg_0.96_Fe_0.04_)_Σ=1_Si_2.00_O_6_; dark phase: Mg-rich chlorite
Raman shift (cm-1)	intensity
165.856	0
168.749	1.85547
171.642	101.831
174.534	199.806
177.427	390.08
180.32	480.337
183.212	677.623
186.105	1012.07
188.998	1386.08
191.891	1714.01
194.783	1550.37
197.676	1036.19
200.569	753.214
203.461	527.835
206.354	353.715
209.247	254.988
212.139	182.766
215.032	105.047
217.925	27.9912
220.818	43.1292
223.71	40.7332
226.603	38.529
229.496	8.02441
232.388	32.9651
235.281	13.0032
238.174	10.1863
241.066	6.1355
243.959	40.1069
246.852	1.16455
249.745	46.3982
252.637	52.0952
255.53	51.0727
258.423	84.5586
261.315	138.899
264.208	189.776
267.101	219.068
269.993	280.851
272.886	376.601
275.779	423.662
278.672	448.868
281.564	407.555
284.457	331.911
287.35	223.313
290.242	126.146
293.135	53.5347
296.028	36.8491
298.921	10.3572
301.813	36.0122
304.706	14.1863
307.599	28.8957
310.491	101.358
313.384	91.2932
316.277	73.4165
319.169	114.481
322.062	200.955
324.955	213.234
327.847	286.291
330.74	323.37
333.633	384.96
336.526	500.721
339.418	508.05
342.311	639.209
345.204	761.886
348.096	877.402
350.989	888.313
353.882	863.315
356.774	778.526
359.667	670.29
362.56	480.247
365.452	377.988
368.345	247.686
371.238	177.875
374.131	159.34
377.023	83.7581
379.916	62.9844
382.809	34.072
385.701	73.0532
388.594	126.105
391.487	135.596
394.38	268.25
397.272	209.468
400.165	128.41
403.058	110.151
405.95	110.447
408.843	156.985
411.736	164.136
414.628	153.033
417.521	172.114
420.414	161.224
423.307	168.103
426.199	175.256
429.092	117.882
431.985	108.893
434.877	116.849
437.77	86.1658
440.663	81.1589
443.555	29.312
446.448	26.0801
449.341	24.3513
452.234	52.6304
455.126	18.4175
458.019	31.4055
460.912	47.3191
463.804	45.8394
466.697	17.9343
469.59	24.9109
472.483	7.05469
475.375	6.07349
478.268	116.462
481.161	116.581
484.053	194.466
486.946	254.81
489.839	321.801
492.731	449.825
495.624	515.954
498.517	590.982
501.409	653.561
504.302	673.218
507.195	733.942
510.088	756.063
512.98	725.885
515.873	760.539
518.766	728.165
521.658	653.839
524.551	605.374
527.444	511.875
530.337	462.998
533.229	478.47
536.122	472.424
539.015	553.594
541.907	579.354
544.8	720.904
547.693	736.825
550.585	689.876
553.478	486.926
556.371	374.587
559.263	298.071
562.156	199.717
565.049	150.118
567.942	105.604
570.834	64.2126
573.727	67.3052
576.62	39.1233
579.512	0.044678
582.405	35.061
585.298	7.2063
588.19	6.57227
591.083	37.9912
593.976	5.89209
596.869	9.63452
599.761	13.415
602.654	19.7046
605.547	0.059082
608.439	13.9373
611.332	31.6445
614.225	63.5552
617.117	35.8594
620.01	87.5122
622.903	109.722
625.795	131.768
628.688	191.201
631.581	262.278
634.474	326.528
637.366	375.313
640.259	458.408
643.152	560.686
646.044	615.678
648.937	637.31
651.83	731.54
654.722	780.894
657.615	847.28
660.508	956.2
663.401	1026.65
666.293	1186.71
669.186	1458.88
672.079	1709.49
674.971	2079.22
677.864	2338.07
680.757	2454.13
683.649	2311.84
686.542	2038.77
689.435	1577.67
692.328	1185.87
695.22	880.418
698.113	613.159
701.006	480.272
703.898	332.425
706.791	245.964
709.684	178.477
712.577	163.065
715.469	88.7507
718.362	52.3086
721.255	68.346
724.147	35.7671
727.04	6.71387
729.933	12.176
732.825	16.043
735.718	26.1433
738.611	3.54272
741.504	22.8884
744.396	33.553
747.289	66.2781
750.182	85.0523
753.074	46.2776
755.967	87.637
758.86	115.777
761.752	157.024
764.645	150.614
767.538	155.082
770.431	205.534
773.323	237.882
776.216	280.05
779.109	308.814
782.001	302.441
784.894	258.76
787.787	284.537
790.679	155.282
793.572	156.98
796.465	96.5239
799.357	65.0356
802.25	32.7986
805.143	56.1977
808.036	28.2756
810.928	96.8106
813.821	48.3169
816.714	35.3357
819.606	6.45337
822.499	23.8989
825.392	15.9861
828.284	46.7188
831.177	20.1472
834.07	26.895
836.963	2.84351
839.855	12.4954
842.748	29.061
845.641	24.2248
848.533	10.7717
851.426	29.9485
854.319	39.3105
857.212	26.8977
860.104	33.5559
862.997	81.802
865.89	71.0322
868.782	24.9861
871.675	51.073
874.568	26.1462
877.46	59.5024
880.353	62.2407
883.246	73.3872
886.139	116.886
889.031	111.994
891.924	137.346
894.817	146.797
897.709	110.894
900.602	115.467
903.495	119.845
906.388	64.3706
909.28	66.6702
912.173	51.9202
915.066	46.6624
917.958	13.8591
920.851	66.3806
923.744	35.2512
926.636	22.7588
929.529	5.70019
932.422	16.9973
935.314	40.4883
938.207	8.85815
941.1	28.2642
943.993	27.0308
946.885	11.8018
949.778	41.5293
952.671	23.2044
955.563	19.9492
958.456	7.62866
961.349	10.1038
964.241	26.6689
967.134	4.02173
970.027	39.7668
972.92	70.5344
975.812	5.47095
978.705	1.37329
981.598	15.1189
984.49	17.616
987.383	44.0701
990.276	15.053
993.168	10.877
996.061	20.0552
998.954	10.9238
1001.85	12.9241
1004.74	5.60938
1007.63	12.7422
1010.52	1.96411
1013.42	50.1008
1016.31	85.6309
1019.2	70.4334
1022.1	124.063
1024.99	187.435
1027.88	163.105
1030.77	147.16
1033.67	161.504
1036.56	153.662
1039.45	175.269
1042.34	153.049
1045.24	134.68
1048.13	158.203
1051.02	149.434
1053.91	138.885
1056.81	133.675
1059.7	204.108
1062.59	194.2
1065.49	193.139
1068.38	190.845
1071.27	203.757
1074.16	245.538
1077.06	238.094
1079.95	278.317
1082.84	271.957
1085.73	246.64
1088.63	187.387
1091.52	160.865
1094.41	135.811
1097.31	125.361
1100.2	99.9219
1103.09	68.3982
1105.98	26.6494
1108.88	3.77026
1111.77	38.6457
1114.66	13.9624
1117.56	14.936
1120.45	50.3813
1123.34	17.8115
1126.23	60.6107
1129.12	40.089
1132.02	0.735474
1134.91	30.3937
1137.8	29.429
1140.7	9.82532
1143.59	14.6731
1146.48	19.8848
1149.37	39.9448
1152.27	0.695801
1155.16	33.5676
1158.05	40.3733
1160.94	28.4343
1163.84	50.4147
1166.73	48.4237
1169.62	89.4891
1172.52	36.7861
1175.41	54.379
1178.3	63.1149
1181.19	22.8677
1184.09	30.2146
1186.98	61.4456
1189.87	52.8313
1192.77	61.6405
1195.66	65.8453
1198.55	40.5082
1201.44	76.0875
1204.34	39.144
1207.23	36.1049
1210.12	59.1354
1213.01	33.7814
1215.91	31.8866
1218.8	34.3066
1221.69	66.0994
1224.58	13.7098
1227.48	41.0743
1230.37	13.2728
1233.26	15.3413
1236.15	29.3969
1239.05	63.0781
1241.94	18.2317
