Measurement: Raman, 785 nm, unoriented, Raman Data Processed
Mineral: Phlogopite
Rruff sample: R050068
Ideal chemistry: KMg_3_(Si_3_Al)O_10_(OH)_2_
Locality: S.W. Jasper County, Georgia, USA
Source: Rock Currier
Description: Dark brown micaceous single crystal
Measured chemistry: (K_0.94_Na_0.05_[box]_0.01_)(Mg_0.94_Fe_0.06_)_3_(Si_3.00_Al_1.00_)O_10_((OH)_0.53_F_0.47_)_2_
Raman shift (cm-1)	intensity
131.626	0
134.519	116.88
137.411	192.76
140.304	125.979
143.197	11.2002
146.089	486.688
148.982	1171.38
151.875	1720.62
154.768	1370.36
157.66	575.386
160.553	202.639
163.446	322.312
166.338	538.462
169.231	660.783
172.124	725.308
175.017	723.493
177.909	688.339
180.802	906.37
183.695	1109.72
186.587	1497.88
189.48	1926.71
192.373	2483.3
195.265	2703.9
198.158	2209.7
201.051	1468.76
203.944	855.126
206.836	551.374
209.729	369.238
212.622	193.529
215.514	106.641
218.407	30.7959
221.3	44.5718
224.192	31.3562
227.085	22.397
229.978	20.9797
232.87	3.77978
235.763	6.08057
238.656	13.8113
241.549	17.8965
244.441	23.459
247.334	40.916
250.227	20.989
253.119	22.8325
256.012	43.3877
258.905	98.6086
261.798	207.126
264.69	352.145
267.583	528.462
270.476	720.238
273.368	976.31
276.261	1258.32
279.154	1292.33
282.046	1043.53
284.939	613.377
287.832	386.275
290.724	231.164
293.617	125.325
296.51	98.0991
299.403	97.7786
302.295	187.584
305.188	304.321
308.081	421.952
310.973	548.731
313.866	650.119
316.759	795.327
319.651	949.828
322.544	955.896
325.437	894.776
328.33	753.607
331.222	607.003
334.115	427.571
337.008	271.884
339.9	178.989
342.793	101.096
345.686	80.2908
348.579	84.0557
351.471	44.904
354.364	57.0498
357.257	42.8369
360.149	35.7031
363.042	51.6177
365.935	58.9273
368.827	68.8059
371.72	59.9067
374.613	41.0686
377.505	27.9419
380.398	48.6892
383.291	33.0588
386.184	18.7327
389.076	5.95581
391.969	3.09448
394.862	5.98193
397.754	6.75244
400.647	13.7764
403.54	23.1343
406.433	10.23
409.325	16.3569
412.218	30.6516
415.111	37.27
418.003	80.8629
420.896	124.172
423.789	119.588
426.681	139.426
429.574	123.672
432.467	181.56
435.36	146.112
438.252	174.386
441.145	169.511
444.038	174.852
446.93	202.415
449.823	159.537
452.716	144.273
455.608	152.574
458.501	104.123
461.394	60.582
464.286	21.1115
467.179	3.78528
470.072	17.2576
472.965	1.95837
475.857	24.827
478.75	4.34009
481.643	36.5933
484.535	108.86
487.428	98.236
490.321	207.917
493.214	286.178
496.106	323.184
498.999	358.584
501.892	351.987
504.784	399.645
507.677	437.962
510.57	432.191
513.462	402.151
516.355	341.893
519.248	328.195
522.14	328.038
525.033	303.735
527.926	298.421
530.819	300.337
533.711	262.108
536.604	289
539.497	240.385
542.389	266.32
545.282	237.124
548.175	258.24
551.067	248.703
553.96	241.615
556.853	217.976
559.745	182.775
562.638	155.156
565.531	102.56
568.424	93.7363
571.316	65.8461
574.209	19.347
577.102	2.58142
579.994	24.001
582.887	33.4222
585.78	7.73547
588.673	2.76807
591.565	0.948486
594.458	33.5344
597.351	20.0848
600.243	53.7454
603.136	80.5241
606.029	122.126
608.921	163.476
611.814	162.533
614.707	204.643
617.6	287.192
620.492	336.191
623.385	415.866
626.278	568.035
629.17	632.569
632.063	719.445
634.956	781.724
637.848	842.294
640.741	816.348
643.634	876.607
646.527	872.622
649.419	906.847
652.312	925.34
655.205	963.247
658.097	1033.11
660.99	1176.44
663.883	1410.85
666.775	1597.87
669.668	1919.67
672.561	2449.25
675.454	3022.36
678.346	3562.8
681.239	3909.01
684.132	3657.68
687.024	3160.4
689.917	2383.71
692.81	1682.73
695.702	1136.61
698.595	700.095
701.488	377.875
704.381	200.164
707.273	89.5516
710.166	24.469
713.059	34.3157
715.951	23.9622
718.844	8.15332
721.737	27.6606
724.63	14.6688
727.522	9.9967
730.415	28.4008
733.308	18.4786
736.2	50.1152
739.093	41.7598
741.986	46.1781
744.878	29.3671
747.771	52.5974
750.664	7.09045
753.557	41.1283
756.449	60.1575
759.342	21.1768
762.235	44.2087
765.127	77.5033
768.02	100.828
770.913	91.4142
773.805	148.391
776.698	161.957
779.591	183.509
782.484	200.992
785.376	169.43
788.269	180.21
791.162	188.285
794.054	142.226
796.947	90.0895
799.84	72.153
802.732	58.7
805.625	26.1769
808.518	18.3451
811.41	10.224
814.303	6.21863
817.196	4.73877
820.089	23.1033
822.981	0.509277
825.874	7.07922
828.767	8.89758
831.659	17.1111
834.552	23.158
837.445	12.8556
840.337	19.9083
843.23	4.27002
846.123	55.7837
849.016	46.3026
851.908	69.5741
854.801	45.8131
857.694	70.3585
860.586	71.2322
863.479	99.2379
866.372	108.152
869.264	111.596
872.157	88.5263
875.05	87.9397
877.943	97.0609
880.835	89.5692
883.728	74.7181
886.621	89.9202
889.513	69.9111
892.406	64.9561
895.299	85.7764
898.192	85.3818
901.084	86.301
903.977	60.3557
906.87	89.4713
909.762	91.6698
912.655	71.3252
915.548	59.5278
918.44	72.8026
921.333	38.1066
924.226	65.9673
927.119	49.9181
930.011	86.5723
932.904	38.5853
935.797	65.2941
938.689	19.3468
941.582	32.7858
944.475	27.9537
947.367	33.889
950.26	13.7884
953.153	19.0536
956.045	4.83618
958.938	22.9589
961.831	14.7258
964.724	13.0084
967.616	6.97656
970.509	8.36352
973.402	9.87512
976.294	2.19971
979.187	12.2363
982.08	25.3113
984.972	5.51428
987.865	29.0427
990.758	3.82825
993.651	17.5242
996.543	22.7418
999.436	17.3246
1002.33	49.4664
1005.22	35.1893
1008.11	33.7689
1011.01	26.6864
1013.9	21.2001
1016.79	10.07
1019.68	24.8929
1022.58	16.3755
1025.47	77.0754
1028.36	104.594
1031.26	140.627
1034.15	194.014
1037.04	174.03
1039.93	153.332
1042.83	134.306
1045.72	116.975
1048.61	101.863
1051.51	157.559
1054.4	147.388
1057.29	176.242
1060.18	205.622
1063.08	196.731
1065.97	247.747
1068.86	254.677
1071.75	265.939
1074.65	311.89
1077.54	361.135
1080.43	362.79
1083.32	429.252
1086.22	405.813
1089.11	431.321
1092	425.568
1094.89	435.808
1097.79	390.097
1100.68	372.669
1103.57	318.232
1106.47	291.289
1109.36	251.433
1112.25	151.047
1115.14	141.728
1118.04	97.931
1120.93	73.5996
1123.82	36.464
1126.71	3.92273
1129.61	33.756
1132.5	0.070679
1135.39	16.3791
1138.29	9.94629
1141.18	19.6414
1144.07	11.6325
1146.96	1.03088
1149.86	2.57373
1152.75	6.05908
1155.64	22.8756
1158.53	3.57544
1161.43	6.31677
1164.32	43.1868
1167.21	23.6626
1170.11	11.9161
1173	29.8951
1175.89	30.5049
1178.78	9.62122
1181.68	28.397
1184.57	32.8167
1187.46	20.5877
1190.35	43.3225
1193.25	46.6269
1196.14	38.5248
1199.03	27.4622
1201.92	30.7358
1204.82	12.7521
1207.71	27.0947
1210.6	35.3445
1213.5	6.71698
1216.39	34.1598
1219.28	24.5011
1222.17	20.4155
1225.07	22.3337
1227.96	18.6522
1230.85	9.2876
