Measurement: Raman, 532 nm, unoriented, Raman Data Processed
Mineral: Phlogopite
Rruff sample: R070330
Ideal chemistry: KMg_3_(Si_3_Al)O_10_(OH)_2_
Locality: Little Chief mine, Whitehorse, Yukon Territory, Canada
Source: Mark Mauthner
Description: Green micaceous
Measured chemistry: gray phase: K_1.00_(Mg_2.65_Fe^2+^_0.34_Ti_0.01_)_Σ=3_(Si_2.98_Al_1.02_)O_10_((OH)_1.77_F_0.23_)_Σ=2_; trace amounts of Mn; OH by charge balance; light phase is diopside: Ca_1.00_(Mg_0.96_Fe_0.04_)_Σ=1_Si_2.00_O_6_; dark phase: Mg-rich chlorite
Raman shift (cm-1)	intensity
164.607	0
167.5	3.45288
170.393	81.2776
173.286	166.786
176.178	367.361
179.071	651.696
181.964	926.127
184.856	1450.85
187.749	2194.24
190.642	3020.25
193.535	3224.88
196.427	2269.51
199.32	1365.59
202.213	810.474
205.105	508.789
207.998	393.576
210.891	216.057
213.783	139.256
216.676	142.155
219.569	76.1934
222.462	82.4424
225.354	64.0488
228.247	2.06006
231.14	39.7671
234.032	70.1982
236.925	37.5483
239.818	4.77881
242.71	24.5171
245.603	3.26367
248.496	43.1348
251.388	25.2236
254.281	4.69238
257.174	27.6977
260.067	42.1094
262.959	110.99
265.852	181.89
268.745	281.593
271.637	389.933
274.53	543.809
277.423	623.449
280.315	666.863
283.208	560.95
286.101	339.613
288.994	196.068
291.886	150.671
294.779	20.5542
297.672	5.64697
300.564	22.5835
303.457	31.7988
306.35	53.8213
309.243	19.7886
312.135	46.5195
315.028	195.84
317.921	188.269
320.813	320.413
323.706	410.761
326.599	435.998
329.491	571.182
332.384	704.769
335.277	794.96
338.17	930.338
341.062	1042.24
343.955	1204.65
346.848	1372.2
349.74	1570
352.633	1650.26
355.526	1577.2
358.418	1324.64
361.311	1101.69
364.204	926.827
367.097	615.324
369.989	365.625
372.882	269.058
375.775	218.298
378.667	142.277
381.56	139.623
384.453	109.243
387.346	176.246
390.238	191.443
393.131	321.091
396.024	212.917
398.916	71.9072
401.809	10.6045
404.702	6.81689
407.594	10.8359
410.487	9.7832
413.38	120.353
416.272	123.085
419.165	200.625
422.058	306.248
424.951	301.96
427.843	298.764
430.736	281.771
433.629	269.677
436.521	228.486
439.414	222.021
442.307	143.288
445.2	151.504
448.092	146.615
450.985	167.1
453.878	203.778
456.77	330.247
459.663	216.262
462.556	121.443
465.448	25.5064
468.341	37.2632
471.234	19.6211
474.127	44.9346
477.019	8.41211
479.912	20.8496
482.805	27.0884
485.697	106.532
488.59	135.221
491.483	225.058
494.375	254.047
497.268	313.742
500.161	409.822
503.053	393.642
505.946	452.464
508.839	492.318
511.732	487.798
514.624	474.007
517.517	516.13
520.41	549.579
523.302	578.046
526.195	541.194
529.088	594.322
531.981	494.296
534.873	490.227
537.766	490.709
540.659	564.244
543.551	649.86
546.444	741.898
549.337	814.804
552.229	708.51
555.122	514.54
558.015	411.071
560.908	280.062
563.8	222.999
566.693	162.43
569.586	67.5786
572.478	15.4375
575.371	42.8486
578.264	14.228
581.156	35.9536
584.049	26.2466
586.942	31.6357
589.835	18.4043
592.727	6.96143
595.62	7.56787
598.513	9.40625
601.405	25.0161
604.298	34.7847
607.191	46.6909
610.083	9.12402
612.976	4.51172
615.869	101.83
618.762	101.863
621.654	109.123
624.547	160.577
627.44	228.9
630.332	335.85
633.225	443.432
636.118	529.953
639.01	684.893
641.903	815.458
644.796	932.481
647.689	1026.6
650.581	1124.44
653.474	1282.46
656.367	1308.14
659.259	1513.47
662.152	1729.53
665.045	2038.15
667.938	2511.01
670.83	3078.66
673.723	3709.79
676.616	4296.37
679.508	4657.71
682.401	4593.78
685.294	4105.05
688.186	3339.85
691.079	2623.97
693.972	1868.85
696.865	1345.14
699.757	906.09
702.65	703.3
705.543	515.34
708.435	403.998
711.328	251.296
714.221	184.284
717.113	111.116
720.006	64.9639
722.899	18.3545
725.792	27.8638
728.684	52.6616
731.577	3.61328
734.47	20.3389
737.362	46.8486
740.255	40.1079
743.148	54.9238
746.04	6.28564
748.933	30.269
751.826	42.8657
754.719	47.3897
757.611	64.2319
760.504	135.695
763.397	89.125
766.289	101.485
769.182	140.402
772.075	107.068
774.967	158.273
777.86	161.398
780.753	153.328
783.646	111.455
786.538	126.561
789.431	58.1719
792.324	123.282
795.216	167.537
798.109	63.9829
801.002	61.7881
803.894	98.5107
806.787	103.087
809.68	43.4522
812.573	59.0894
815.465	67.2471
818.358	100.42
821.251	70.0181
824.143	2.5581
827.036	50.7383
829.929	26.7109
832.822	13.2559
835.714	23.2192
838.607	16.5855
841.5	57.5059
844.392	9.26562
847.285	43.7798
850.178	24.6919
853.07	90.3384
855.963	51.6328
858.856	72.9922
861.749	34.8579
864.641	43.9966
867.534	111.03
870.427	61.5015
873.319	89.1113
876.212	99.9443
879.105	83.0332
881.997	75.1514
884.89	121.53
887.783	99.4038
890.676	141.328
893.568	117.51
896.461	104.515
899.354	79.9981
902.246	84.4951
905.139	115.124
908.032	83.7573
910.924	38.1973
913.817	90.8804
916.71	80.2749
919.602	33.8862
922.495	81.3433
925.388	16.9458
928.281	20.1528
931.173	74.3613
934.066	41.229
936.959	63.4731
939.851	43.9634
942.744	57.3257
945.637	29.4399
948.529	51.1851
951.422	44.1294
954.315	60.0684
957.208	60.0049
960.1	109.698
962.993	34.1416
965.886	37.626
968.778	53.4204
971.671	71.3628
974.564	28.0244
977.457	99.3594
980.349	33.1645
983.242	96.0928
986.135	105.045
989.027	71.6748
991.92	72.7427
994.813	67.6362
997.705	49.1685
1000.6	16.5102
1003.49	39.0161
1006.38	8.48926
1009.28	14.8188
1012.17	50.1558
1015.06	76.4751
1017.95	137.584
1020.85	173.843
1023.74	199.998
1026.63	273.199
1029.53	289.533
1032.42	314.602
1035.31	347.914
1038.2	337.471
1041.1	240.599
1043.99	307.429
1046.88	236.037
1049.77	235.938
1052.67	261.325
1055.56	281.128
1058.45	259.229
1061.35	298.648
1064.24	339.817
1067.13	440.524
1070.02	344.32
1072.92	457.103
1075.81	425.762
1078.7	472.868
1081.59	433.556
1084.49	377.046
1087.38	325.368
1090.27	272.193
1093.16	186.153
1096.06	145.8
1098.95	89.4678
1101.84	70.981
1104.73	46.7622
1107.63	17.188
1110.52	41.8608
1113.41	9.41504
1116.31	2.40478
1119.2	30.1309
1122.09	4.13037
1124.98	8.14746
1127.88	3.45752
1130.77	23.7148
1133.66	24.3706
1136.56	101.858
1139.45	36.5894
1142.34	27.3516
1145.23	13.0581
1148.13	14.3735
1151.02	35.0391
1153.91	144.145
1156.8	3.91211
1159.7	65.9048
1162.59	35.3428
1165.48	31.3257
1168.38	55.648
1171.27	79.2534
1174.16	96.6685
1177.05	72.6397
1179.95	76.3984
1182.84	93.4761
1185.73	137.945
1188.62	150.596
1191.52	127.284
1194.41	122.557
1197.3	66.7495
1200.19	87.0576
1203.09	113.567
1205.98	108.291
1208.87	146.612
1211.77	94.8354
1214.66	69.6948
1217.55	4.32227
1220.44	53.1348
1223.34	15.8359
1226.23	56.6797
1229.12	78.4697
1232.01	51.2236
1234.91	107.378
1237.8	45.4824
1240.69	61.8105
1243.59	10.6924
1246.48	49.8935
1249.37	74.0234
1252.26	3.44922
1255.16	37.3848
1258.05	27.5928
1260.94	112.326
1263.83	89.71
1266.73	51.874
1269.62	87.8535
1272.51	105.897
1275.4	62.3955
1278.3	93.6934
1281.19	63.1748
1284.08	72.4102
1286.98	6.5791
1289.87	56.0859
1292.76	40.2393
1295.65	74.3232
1298.55	3.70801
1301.44	6.63281
1304.33	54.5147
1307.22	59.04
1310.12	70.5459
1313.01	19.2949
