Measurement: Raman, 514 nm, unoriented, Raman Data Processed
Mineral: Phlogopite
Rruff sample: R050068
Ideal chemistry: KMg_3_(Si_3_Al)O_10_(OH)_2_
Locality: S.W. Jasper County, Georgia, USA
Source: Rock Currier
Description: Dark brown micaceous single crystal
Measured chemistry: (K_0.94_Na_0.05_[box]_0.01_)(Mg_0.94_Fe_0.06_)_3_(Si_3.00_Al_1.00_)O_10_((OH)_0.53_F_0.47_)_2_
Raman shift (cm-1)	intensity
137.857	0
142.016	2.818
146.172	16.243
150.327	81.037
154.48	108.356
158.63	203.457
162.779	187.093
166.926	301.54
171.07	525.68
175.213	853.288
179.354	1855.57
183.493	3522.47
187.63	7048.92
191.765	12939.2
195.898	10471.4
200.029	6366.96
204.158	3469.4
208.285	2299.93
212.41	924.326
216.533	580.543
220.654	375.655
224.773	216.019
228.891	148.362
233.006	14.981
237.119	9.371
241.231	101.155
245.34	16.567
249.448	49.728
253.553	53.272
257.657	360.238
261.758	801.664
265.858	1501.59
269.956	3500.88
274.052	5021.8
278.146	5326.75
282.237	3373.18
286.327	1809.3
290.416	1078.08
294.502	774.551
298.586	716.416
302.668	896.464
306.749	1489.58
310.827	2153.98
314.903	2989.5
318.978	3733.66
323.051	4122.01
327.121	3621.75
331.19	2789.44
335.257	2076.61
339.322	1517.19
343.385	1228.34
347.446	1060.1
351.505	1226.29
355.563	1230.92
359.618	1308.66
363.672	1423.09
367.723	1362.93
371.773	1141.58
375.821	962.56
379.866	748.387
383.91	642.065
387.952	605.88
391.992	561.314
396.031	575.457
400.067	463.662
404.101	428.869
408.134	417.806
412.165	437.388
416.193	458.537
420.22	455.689
424.245	578.548
428.268	667.792
432.289	642.836
436.309	571.694
440.326	610.38
444.342	649.902
448.355	498.263
452.367	367.465
456.377	252.512
460.385	206.389
464.391	62.96
468.395	133.694
472.398	240.349
476.398	257.333
480.397	81.821
484.394	77.809
488.389	36.989
492.382	233.831
496.373	366.433
500.362	460.832
504.349	572.041
508.335	730.094
512.319	727.124
516.3	578.16
520.28	409.321
524.259	450.516
528.235	377.787
532.209	311.004
536.182	252.192
540.152	328.292
544.121	161.289
548.088	301.18
552.053	432.964
556.017	316.661
559.978	325.302
563.938	325.169
567.895	126.96
571.851	305.833
575.805	196.701
579.758	106.497
583.708	277.189
587.657	448.564
591.603	430.579
595.548	562.731
599.491	663.079
603.432	617.346
607.372	699.537
611.309	796.654
615.245	898.01
619.179	1032.2
623.111	1475.57
627.041	1543.14
630.97	1985.32
634.896	2318.72
638.821	2376.47
642.744	2601.6
646.665	2765.46
650.584	2983.7
654.502	3199.87
658.418	3945.85
662.331	4655.89
666.244	5739.67
670.154	7921.22
674.062	10944.7
677.969	14294.7
681.874	15379.6
685.777	14120.4
689.678	10704.4
693.577	6897.02
697.475	4691.14
701.371	2983.2
705.265	2132.98
709.157	1449.89
713.047	1435.37
716.936	1144.89
720.823	1259.44
724.708	1300.13
728.591	1218.44
732.472	1253.78
736.352	1226.09
740.23	1271.78
744.106	1083.55
747.98	817.362
751.853	975.219
755.723	719.121
759.592	642.072
763.459	755.074
767.325	862.129
771.188	929.24
775.05	851.428
778.91	1139.7
782.768	1124.19
786.625	1270.16
790.479	981.786
794.332	859.046
798.183	709.579
802.033	474.06
805.88	174.066
809.726	151.775
813.57	41.829
817.413	43.786
821.253	29.648
825.092	91.759
828.929	130.525
832.764	134.7
836.598	135.236
840.429	53.079
844.259	23.954
848.088	4.099
851.914	18.14
855.739	12.237
859.562	5.563
863.383	39.722
867.203	213.064
871.02	342.486
874.836	274.987
878.65	209.257
882.463	295.347
886.274	255.31
890.083	324.576
893.89	239.483
897.695	187.688
901.499	244.98
905.301	343.312
909.102	300.79
912.9	332.334
916.697	340.954
920.492	366.617
924.285	481.317
928.077	364.048
931.867	380.802
935.655	545.569
939.442	396.341
943.226	361.108
947.009	439.858
950.791	627.583
954.57	259.277
958.348	459.939
962.124	486.567
965.899	513.155
969.671	493.703
973.442	655.517
977.211	670.562
980.979	638.216
984.745	480.602
988.509	696.649
992.271	810.164
996.032	980.197
999.791	1050.43
1003.55	1184.37
1007.3	1200.4
1011.06	1120.21
1014.81	1066.16
1018.56	1045.48
1022.31	1255.27
1026.06	1480.72
1029.8	2384.19
1033.55	2535.11
1037.29	2380.49
1041.03	2155.69
1044.77	1790.6
1048.5	1518.35
1052.24	1635.85
1055.97	1612.84
1059.7	1643.85
1063.43	1703.45
1067.16	1706.09
1070.89	1814.6
1074.61	1947.83
1078.34	2093.65
1082.06	2251.01
1085.78	2320.16
1089.5	2369.68
1093.21	2252.54
1096.93	2113.16
1100.64	2082.66
1104.35	1689.16
1108.06	1322.09
1111.77	1026.6
1115.48	854.632
1119.18	600.531
1122.89	513.41
1126.59	251.337
1130.29	250.346
1133.99	165.39
1137.68	57.516
1141.38	31.572
1145.07	30.413
1148.76	90.111
1152.45	23.627
1156.14	63.86
1159.83	49.783
1163.51	60.447
1167.19	45.081
1170.88	4.9
1174.56	1.982
1178.23	153.352
1181.91	95.234
1185.59	27.421
1189.26	25.154
1192.93	42.989
1196.6	68.273
1200.27	91.527
1203.94	116.575
1207.6	83.528
1211.27	50.158
1214.93	42.616
1218.59	86.048
1222.25	52.082
1225.9	141.777
1229.56	135.664
1233.21	82.095
1236.86	185.606
1240.51	277.247
1244.16	329.758
1247.81	320.115
1251.45	289.444
1255.1	503.655
1258.74	282.278
1262.38	393.355
1266.02	447.147
1269.66	516.709
1273.29	583.094
1276.93	504.3
1280.56	543.326
1284.19	556.481
1287.82	533.259
1291.45	597.688
1295.07	764.039
1298.7	878.142
1302.32	1139.27
1305.94	1082.07
1309.56	912.073
1313.18	674.694
1316.8	625.166
1320.41	600.694
1324.02	520.269
1327.63	262.339
1331.24	249.999
1334.85	189.214
1338.46	114.811
1342.06	61.654
1345.67	50.522
1349.27	155.777
1352.87	203.359
1356.47	91.208
1360.07	77.01
1363.66	175.37
1367.25	199.087
1370.85	21.963
1374.44	81.577
1378.03	90.314
1381.61	57.426
1385.2	87.604
1388.78	84.13
1392.37	69.003
1395.95	74.357
1399.53	54.007
1403.1	103.357
1406.68	95.417
1410.26	236.398
1413.83	142.244
1417.4	330.203
1420.97	469.093
1424.54	500.027
1428.1	694.431
1431.67	910.172
1435.23	1507.5
1438.8	1861.26
1442.36	2065.63
1445.91	2002.85
1449.47	1870.24
1453.03	1668.42
1456.58	1436.01
1460.13	1321.96
1463.68	1079.41
1467.23	911.146
1470.78	820.139
1474.33	719.936
1477.87	420.488
1481.42	430.333
1484.96	316.489
1488.5	344.612
1492.04	115.419
1495.57	124.989
1499.11	93.278
1502.64	58.54
1506.17	63.32
1509.71	66.477
1513.23	145.311
1516.76	191.078
1520.29	156.684
1523.81	70.996
