Measurement: Raman, 532 nm, unoriented, Raman Data Processed
Mineral: Phoenicochroite
Rruff sample: R050164
Ideal chemistry: Pb_2_O(CrO_4_)
Locality: Chapacase mine, Sierra Cerrillias District, Tocopilla, Chile
Source: Jim McGlasson
Description: Dark-red massive with orange wulfenite
Raman shift (cm-1)	intensity
132.798	0
136.172	2.06462
139.547	7.62437
142.922	12.7589
146.297	7.69674
149.672	2.02559
153.046	0.545063
156.421	0.306368
159.796	0.121178
163.171	0.09392
166.546	0.002611
169.921	0.134402
173.295	0.076458
176.67	0.112309
180.045	0.108362
183.42	0.15635
186.795	0.140507
190.169	0.004179
193.544	0.19298
196.919	0.416298
200.294	0.336199
203.669	0.644646
207.043	0.693381
210.418	0.756051
213.793	0.659803
217.168	0.814184
220.543	0.89323
223.918	0.599402
227.292	0.572591
230.667	0.400822
234.042	0.384044
237.417	0.307807
240.792	0.194879
244.167	0.262845
247.541	0.247602
250.916	0.086991
254.291	0.146698
257.666	0.106392
261.041	0.002338
264.415	0.030186
267.79	0.038705
271.165	0.158946
274.54	0.18067
277.915	0.161092
281.289	0.05381
284.664	0.035699
288.039	0.059141
291.414	0.039923
294.789	0.052238
298.163	0.096242
301.538	0.110243
304.913	0.23586
308.288	0.324939
311.663	0.644662
315.038	1.02234
318.412	1.6611
321.787	2.78301
325.162	4.28855
328.537	5.71695
331.912	6.79341
335.286	7.10607
338.661	7.94655
342.036	8.62269
345.411	6.2096
348.786	4.99392
352.161	5.48343
355.535	7.46397
358.91	6.99114
362.285	3.59193
365.66	2.29758
369.035	2.41405
372.409	2.83678
375.784	4.93555
379.159	5.69694
382.534	3.18598
385.909	0.926065
389.284	0.497047
392.658	0.161052
396.033	0.200176
399.408	0.095982
402.783	0.0259
406.158	0.029925
409.532	0.068528
412.907	0.048164
416.282	0.054747
419.657	0.024903
423.032	0.100032
426.406	0.004316
429.781	0.074901
433.156	0.139702
436.531	0.13039
439.906	0.200154
443.281	0.14812
446.655	0.234172
450.03	0.365039
453.405	0.573214
456.78	0.262692
460.155	0.51758
463.529	0.718334
466.904	0.80591
470.279	0.968946
473.654	0.957129
477.029	0.922344
480.404	1.00234
483.778	0.848479
487.153	0.625312
490.528	0.460236
493.903	0.443
497.278	0.376585
500.652	0.24001
504.027	0.23721
507.402	0.257983
510.777	0.118108
514.152	0.144618
517.527	0.130002
520.901	0.004075
524.276	0.14326
527.651	0.050176
531.026	0.091395
534.401	0.004686
537.775	0.070943
541.15	0.004711
544.525	0.058037
547.9	0.137565
551.275	0.071222
554.649	0.080558
558.024	0.111348
561.399	0.12307
564.774	0.15911
568.149	0.107491
571.524	0.07164
574.898	0.097394
578.273	0.003551
581.648	0.002358
585.023	0.033934
588.398	0.038587
591.773	0.052396
595.147	0.021976
598.522	0.111677
601.897	0.247096
605.272	0.063074
608.646	0.181446
612.021	0.170203
615.396	0.145479
618.771	0.256387
622.146	0.22008
625.521	0.024267
628.895	0.204829
632.27	0.207132
635.645	0.383994
639.02	0.295419
642.395	0.174485
645.769	0.304496
649.144	0.298094
652.519	0.256134
655.894	0.297344
659.269	0.184608
662.644	0.071124
666.018	0.085621
669.393	0.017597
672.768	0.23824
676.143	0.165565
679.518	0.096298
682.893	0.126329
686.267	0.226248
689.642	0.272881
693.017	0.232295
696.392	0.342454
699.767	0.318192
703.141	0.376573
706.516	0.318626
709.891	0.238486
713.266	0.394491
716.641	0.30419
720.015	0.167862
723.39	0.083226
726.765	0.071835
730.14	0.275042
733.515	0.155227
736.89	0.154409
740.264	0.001288
743.639	0.055439
747.014	0.113479
750.389	0.04013
753.764	0.093994
757.139	0.017992
760.513	0.084466
763.888	0.040984
767.263	0.027923
770.638	0.074234
774.013	0.233884
777.387	0.47515
780.762	0.647446
784.137	0.699556
787.512	1.29275
790.887	1.93792
794.261	2.93772
797.636	3.7175
801.011	5.22602
804.386	7.72393
807.761	11.6537
811.135	19.5384
814.51	30.738
817.885	48.3558
821.26	73.5031
824.635	97.5477
828.01	107.156
831.384	111.276
834.759	111.168
838.134	109.872
841.509	114.478
844.884	108.508
848.259	78.2745
851.633	45.5801
855.008	26.2775
858.383	15.6661
861.758	10.298
865.133	7.30729
868.507	5.3491
871.882	3.94708
875.257	2.99377
878.632	1.99478
882.007	1.50226
885.381	0.987947
888.756	0.68056
892.131	0.412086
895.506	0.302608
898.881	0.232646
902.256	0.106516
905.63	0.089194
909.005	0.109612
912.38	0.153593
915.755	0.136148
919.13	0.120116
922.505	0.130839
925.879	0.204609
929.254	0.104418
932.629	0.257926
936.004	0.115907
939.379	0.079123
942.753	0.197039
946.128	0.247596
949.503	0.551186
952.878	0.39935
956.253	0.540604
959.627	0.867172
963.002	0.644691
966.377	0.796229
969.752	0.610979
973.127	0.694245
976.501	0.361253
979.876	0.221685
983.251	0.34121
986.626	0.407923
990.001	0.249029
993.375	0.129958
996.75	0.067293
1000.12	0.118792
1003.5	0.006135
1006.88	0.037458
1010.25	0.076177
1013.62	0.143753
1017	0.179969
1020.37	0.225759
1023.75	0.163357
1027.12	0.204111
1030.5	0.54266
1033.87	0.424355
1037.25	0.487371
1040.62	0.496639
1044	0.39376
1047.37	0.510541
1050.75	0.462501
1054.12	0.490792
1057.5	0.35713
1060.87	0.320424
1064.25	0.247923
1067.62	0.260243
1071	0.26401
1074.37	0.134988
1077.75	0.01815
1081.12	0.083206
1084.5	0.188497
1087.87	0.041092
1091.24	0.144613
1094.62	0.021322
1097.99	0.231362
1101.37	0.168554
1104.74	0.14099
1108.12	0.065902
1111.49	0.012077
1114.87	0.070372
1118.24	0.083787
1121.62	0.043472
1124.99	0.121535
1128.37	0.070207
1131.74	0.148102
1135.12	0.07258
1138.49	0.113056
1141.87	0.121287
1145.24	0.025119
1148.62	0.031045
1151.99	0.089419
1155.37	0.11422
1158.74	0.146177
1162.12	0.220206
1165.49	0.200778
1168.87	0.317734
1172.24	0.248225
1175.62	0.335522
1178.99	0.391122
1182.37	0.432755
1185.74	0.522785
1189.12	0.475617
1192.49	0.58777
1195.87	0.713425
1199.24	0.491716
1202.61	0.527705
1205.99	0.649171
1209.36	0.628111
1212.74	0.622272
1216.11	0.474997
1219.49	0.369374
1222.86	0.343469
1226.24	0.348739
1229.61	0.354558
1232.99	0.258672
1236.36	0.231191
1239.74	0.191929
1243.11	0.236874
1246.49	0.194932
1249.86	0.118682
1253.24	0.221458
1256.61	0.106004
1259.99	0.099415
1263.36	0.07859
1266.74	0.08273
1270.11	0.178033
1273.48	0.165856
1276.86	0.144409
1280.23	0.041173
1283.61	0.141819
1286.98	0.041075
1290.36	0.098813
1293.73	0.032843
1297.11	0.176369
1300.48	0.022935
1303.86	0.050404
