Measurement: Raman, 532 nm, unoriented, Raman Data Processed
Mineral: Phoenicochroite
Rruff sample: R050587
Ideal chemistry: Pb^2+^_2_O(Cr^6+^O_4_)
Locality: Potter Cramer mine, Maricopa County, Arizona, USA
Source: Marcus Origlieri
Description: Thin coating that includes red gemmy crystalline fragments in some places
Measured chemistry: Pb_2.05_O(Cr_0.98_O_4_)
Raman shift (cm-1)	intensity
97.614	0
100.989	26.562
104.364	36.375
107.739	122.8
111.113	186.173
114.488	216.5
117.863	221.843
121.238	178.9
124.613	138.601
127.988	106.082
131.362	70.205
134.737	40.126
138.112	96.261
141.487	209.169
144.862	325.526
148.236	497.9
151.611	291.847
154.986	87.627
158.361	59.31
161.736	28.77
165.111	17.856
168.485	12.172
171.86	13.978
175.235	12.403
178.61	1.577
181.985	1.99
185.359	11.713
188.734	21.49
192.109	9.035
195.484	5.536
198.859	5.049
202.234	11.346
205.608	3.072
208.983	16.944
212.358	10.878
215.733	15.056
219.108	30.465
222.482	13.21
225.857	6.569
229.232	23.46
232.607	14.349
235.982	12.772
239.357	6.596
242.731	14.767
246.106	25.521
249.481	24.465
252.856	20.241
256.231	33.411
259.605	0.336
262.98	21.422
266.355	12.335
269.73	12.499
273.105	6.596
276.479	30.226
279.854	23.146
283.229	12.258
286.604	6.995
289.979	5.395
293.353	10.511
296.728	12.799
300.103	6.541
303.478	4.882
306.853	17.074
310.228	23.382
313.602	30.088
316.977	75.914
320.352	108.753
323.727	156.058
327.102	182.093
330.477	173.2
333.851	191.108
337.226	219.836
340.601	188.619
343.976	140.37
347.351	95.487
350.725	73.218
354.1	94.835
357.475	85.795
360.85	39.127
364.225	8.794
367.599	36.639
370.974	32.114
374.349	20.938
377.724	12.407
381.099	13.482
384.474	15.804
387.848	20.651
391.223	15.365
394.598	20.778
397.973	4.429
401.348	1.815
404.723	14.585
408.097	20.585
411.472	22.351
414.847	38.318
418.222	3.392
421.597	24.672
424.971	10.555
428.346	13.121
431.721	23.298
435.096	9.081
438.471	19.101
441.845	3.874
445.22	17.538
448.595	26.295
451.97	0.963
455.345	10.99
458.72	18.506
462.094	26.739
465.469	7.101
468.844	9.024
472.219	33.495
475.594	22.631
478.969	10.205
482.343	17.965
485.718	29.919
489.093	39.998
492.468	25.915
495.843	47.365
499.217	2.884
502.592	9.402
505.967	11.879
509.342	15.811
512.717	20.981
516.091	36.829
519.466	5.25
522.841	23.551
526.216	5.898
529.591	19.651
532.966	13.801
536.34	10.994
539.715	15.335
543.09	4.665
546.465	19.237
549.84	33.257
553.214	1.615
556.589	12.161
559.964	18.765
563.339	27.919
566.714	8.767
570.089	17
573.463	6.905
576.838	1.311
580.213	26.5
583.588	14.067
586.963	14.463
590.338	19.402
593.712	6.974
597.087	0.931
600.462	11.932
603.837	1.834
607.211	17.98
610.586	28.58
613.961	21.079
617.336	11.673
620.711	26.576
624.086	27.211
627.46	22.642
630.835	21.949
634.21	28.038
637.585	22.697
640.96	21.292
644.334	7.692
647.709	14.229
651.084	18.567
654.459	3.521
657.834	21.924
661.209	18.18
664.583	4.12
667.958	17.345
671.333	19.699
674.708	6.297
678.083	20.286
681.458	2.807
684.832	9.802
688.207	12.027
691.582	34.226
694.957	45.904
698.332	23.52
701.706	45.645
705.081	25.737
708.456	17.424
711.831	18.45
715.206	2.343
718.581	14.281
721.955	25.506
725.33	28.933
728.705	5.66
732.08	41.627
735.455	18.01
738.829	33.757
742.204	14.552
745.579	17.087
748.954	38.76
752.329	4.516
755.703	1.845
759.078	9.626
762.453	9.806
765.828	14.319
769.203	31.164
772.578	14.271
775.952	6.495
779.327	26.246
782.702	34.642
786.077	37.579
789.452	59.581
792.826	59.476
796.201	125.578
799.576	112.099
802.951	184.509
806.326	283.677
809.701	478.961
813.075	908.067
816.45	1656.75
819.825	2995.15
823.2	4803.15
826.575	5165.38
829.95	4010.57
833.324	4544.56
836.699	5389.21
840.074	3686.82
843.449	3204.58
846.824	3003.12
850.198	1517.33
853.573	579.755
856.948	267.697
860.323	173.671
863.698	108.287
867.073	55.744
870.447	80.944
873.822	46.244
877.197	6.68
880.572	17.71
883.947	29.918
887.321	26.604
890.696	5.174
894.071	7.467
897.446	7.861
900.821	5.79
904.195	19.608
907.57	3.745
910.945	3.373
914.32	12.256
917.695	17.052
921.07	35.355
924.444	52.315
927.819	29.393
931.194	45.956
934.569	44.4
937.944	51.662
941.318	59.121
944.693	70.121
948.068	60.352
951.443	61.869
954.818	72.689
958.193	43.092
961.567	52.523
964.942	42.162
968.317	50.794
971.692	43.868
975.067	61.282
978.442	36.397
981.816	20.867
985.191	24.332
988.566	28.609
991.941	22.892
995.316	18.499
998.69	23.818
1002.07	40.049
1005.44	18.519
1008.82	10.062
1012.19	5.685
1015.56	20.839
1018.94	8.696
1022.31	13.524
1025.69	18.481
1029.06	16.237
1032.44	9.373
1035.81	19.598
1039.19	17.195
1042.56	14.186
1045.94	25.2
1049.31	20.28
1052.69	33.085
1056.06	25.773
1059.44	24.265
1062.81	26.646
1066.19	35.858
1069.56	21.055
1072.94	26.745
1076.31	34.167
1079.69	19.647
1083.06	22.894
1086.44	25.372
1089.81	23.958
1093.18	21.509
1096.56	23.129
1099.93	35.788
1103.31	2.122
1106.68	11.397
1110.06	8.819
1113.43	25.482
1116.81	9.752
1120.18	4.721
1123.56	15.539
1126.93	10.678
1130.31	25.447
1133.68	18.774
1137.06	33.812
1140.43	26.218
1143.81	14.558
1147.18	41.308
1150.56	67.761
1153.93	60.107
1157.31	48.897
1160.68	44.891
1164.06	36.071
1167.43	20.495
1170.81	8.083
1174.18	22.701
1177.56	25.633
1180.93	4.235
1184.31	4.648
1187.68	30.895
1191.06	11.476
1194.43	21.553
1197.81	15.363
1201.18	25.054
1204.55	22.91
1207.93	46.988
1211.3	27.663
1214.68	31.796
1218.05	15.444
1221.43	53.135
1224.8	17.668
1228.18	25.125
1231.55	16.101
1234.93	44.239
1238.3	14.252
1241.68	6.042
1245.05	1.004
1248.43	15.619
1251.8	30.124
1255.18	26.572
1258.55	3.963
1261.93	22.564
1265.3	18.559
1268.68	32.845
1272.05	22.842
1275.42	6.022
1278.8	15.564
1282.17	43.033
1285.55	13.304
1288.92	21.656
