Measurement: Raman, 785 nm, unoriented, Raman Data Processed
Mineral: Phoenicochroite
Rruff sample: R050587
Ideal chemistry: Pb^2+^_2_O(Cr^6+^O_4_)
Locality: Potter Cramer mine, Maricopa County, Arizona, USA
Source: Marcus Origlieri
Description: Thin coating that includes red gemmy crystalline fragments in some places
Measured chemistry: Pb_2.05_O(Cr_0.98_O_4_)
Raman shift (cm-1)	intensity
99.2	0
102.575	40.355
105.95	1.898
109.325	16.234
112.7	110.022
116.074	497.342
119.449	806.469
122.824	1047.13
126.199	774.697
129.574	475.54
132.948	574.854
136.323	1304.56
139.698	3604.76
143.073	7557.54
146.448	11147
149.822	5919.51
153.197	1679.54
156.572	939.248
159.947	646.122
163.322	548.5
166.697	436.211
170.071	370.937
173.446	312.645
176.821	245.18
180.196	197.116
183.571	180.44
186.945	165.247
190.32	150.466
193.695	133.844
197.07	153.713
200.445	151.951
203.82	157.571
207.194	160.665
210.569	131.25
213.944	129.411
217.319	126.15
220.694	84.52
224.068	78.783
227.443	53.425
230.818	39.094
234.193	27.659
237.568	13.243
240.943	1.771
244.317	12.392
247.692	30.6
251.067	36.137
254.442	51.426
257.817	26.334
261.191	21.542
264.566	52.196
267.941	99.274
271.316	193.601
274.691	369.621
278.065	515.894
281.44	626.618
284.815	626.778
288.19	531.516
291.565	396.104
294.94	217.903
298.314	154.634
301.689	153.63
305.064	250.963
308.439	563.029
311.814	1237.47
315.189	2971.04
318.563	6382.23
321.938	10448.8
325.313	10556.9
328.688	6625.31
332.063	5852.57
335.437	8529.96
338.812	13881.2
342.187	19723.8
345.562	13804.6
348.937	5723.29
352.311	4945.07
355.686	4892.23
359.061	2170.25
362.436	550.68
365.811	286.724
369.186	465.401
372.56	1448.53
375.935	4187.9
379.31	7769.94
382.685	8484.41
386.06	2196.75
389.435	601.012
392.809	227.579
396.184	92.498
399.559	26.684
402.934	9.556
406.309	16.927
409.683	25.219
413.058	3.577
416.433	5.368
419.808	5.145
423.183	13.451
426.557	9.493
429.932	2.065
433.307	1.712
436.682	1.398
440.057	15.576
443.431	11.064
446.806	40.249
450.181	43.549
453.556	47.153
456.931	81.118
460.306	107.294
463.68	138.75
467.055	139.837
470.43	147.786
473.805	187.544
477.18	233.807
480.555	284.582
483.929	280.795
487.304	238.864
490.679	200.759
494.054	131.783
497.429	93.078
500.803	82.011
504.178	53.885
507.553	44.659
510.928	27.304
514.303	10.307
517.677	27.325
521.052	15.339
524.427	6.377
527.802	17.441
531.177	10.064
534.552	17.634
537.926	6.146
541.301	18.387
544.676	2.525
548.051	11.603
551.426	6.585
554.8	19.092
558.175	15.799
561.55	16.194
564.925	19.052
568.3	10.203
571.675	13.846
575.049	24.52
578.424	19.833
581.799	24.546
585.174	25.061
588.549	12.98
591.924	2.302
595.298	4.159
598.673	2.012
602.048	9.55
605.423	15.929
608.797	19.098
612.172	11.332
615.547	1.067
618.922	23.015
622.297	13.544
625.672	20.703
629.046	28.164
632.421	35.369
635.796	32.473
639.171	40.467
642.546	62.545
645.92	54.106
649.295	53.593
652.67	64.223
656.045	41.113
659.42	35.477
662.795	54.933
666.169	57.522
669.544	60.575
672.919	58.176
676.294	61.264
679.669	48.498
683.044	49.982
686.418	51.012
689.793	58.59
693.168	62.76
696.543	68.51
699.918	44.4
703.292	43.503
706.667	29.704
710.042	28.249
713.417	15.886
716.792	4.153
720.167	11.696
723.541	2.607
726.916	16.268
730.291	8.819
733.666	0.377
737.041	12.362
740.415	26.68
743.79	4.538
747.165	15.06
750.54	1.089
753.915	6.72
757.289	8.44
760.664	11.359
764.039	2.578
767.414	5.602
770.789	4.725
774.164	30.366
777.538	53.533
780.913	87.962
784.288	128.394
787.663	190.973
791.038	306.874
794.412	467.461
797.787	659.103
801.162	807.681
804.537	1000.74
807.912	1393.24
811.287	2172.19
814.661	4000.47
818.036	9532.69
821.411	23412.8
824.786	42495.7
828.161	31431.5
831.535	15420.2
834.91	17815.3
838.285	24631.7
841.66	20372.7
845.035	25766.1
848.409	34017.3
851.784	19014.5
855.159	6187.4
858.534	2571.68
861.909	1451.15
865.284	932.992
868.658	642.246
872.033	439.779
875.408	259.917
878.783	149.056
882.158	90.581
885.532	62.458
888.907	54.872
892.282	37.181
895.657	68.57
899.032	45.449
902.407	29.02
905.781	11.788
909.156	17.063
912.531	29.87
915.906	10.029
919.281	3.112
922.656	25.234
926.03	4.755
929.405	11.319
932.78	34.983
936.155	40.518
939.529	30.169
942.904	41.984
946.279	47.85
949.654	33.835
953.029	44.148
956.404	76.247
959.778	80.961
963.153	73.779
966.528	81.6
969.903	66.742
973.278	56.424
976.653	41.457
980.027	44.549
983.402	35.597
986.777	24.9
990.152	21.899
993.527	16.312
996.901	27.022
1000.28	23.519
1003.65	9.925
1007.03	11.54
1010.4	4.654
1013.78	4.567
1017.15	1.938
1020.52	13.803
1023.9	7.075
1027.28	3.622
1030.65	8.084
1034.02	14.47
1037.4	16.98
1040.77	15.274
1044.15	25.899
1047.52	10.522
1050.9	20.679
1054.27	23.767
1057.65	20.462
1061.02	6.643
1064.4	28.924
1067.77	25.753
1071.15	16.751
1074.52	9.971
1077.9	11.679
1081.27	12.017
1084.65	11.311
1088.02	10.095
1091.4	12.073
1094.77	13.996
1098.15	7.474
1101.52	13.923
1104.9	1.998
1108.27	0.47
1111.64	10.858
1115.02	8.356
1118.39	3.966
1121.77	5.361
1125.14	12.979
1128.52	2.076
1131.89	0.36
1135.27	3.287
1138.64	1.613
1142.02	9.305
1145.39	0.426
1148.77	2.5
1152.14	12.068
1155.52	43.639
1158.89	41.155
1162.27	39.934
1165.64	50.417
1169.02	61.459
1172.39	56.527
1175.77	62.52
1179.14	48.25
1182.52	33.865
1185.89	39.792
1189.27	51.333
1192.64	46.495
1196.02	48.151
1199.39	48.762
1202.77	51.317
1206.14	54.968
1209.52	54.968
1212.89	52.251
1216.27	47.596
1219.64	47.632
1223.01	37.24
1226.39	42.613
1229.76	39.486
1233.14	31.954
1236.51	19.075
1239.89	30.625
1243.26	28.943
1246.64	21.257
1250.01	27.259
1253.39	2.75
1256.76	11.33
1260.14	10.623
1263.51	3.428
1266.89	0
