Measurement: Raman, 780 nm, unoriented, Raman Data Processed
Mineral: Phoenicochroite
Rruff sample: R050164
Ideal chemistry: Pb_2_O(CrO_4_)
Locality: Chapacase mine, Sierra Cerrillias District, Tocopilla, Chile
Source: Jim McGlasson
Description: Dark-red massive with orange wulfenite
Raman shift (cm-1)	intensity
129.143	0
132.518	574.447
135.893	2083.38
139.268	4052.82
142.643	7444.16
146.018	8145.9
149.392	2190.23
152.767	471.552
156.142	161.33
159.517	85.6682
162.892	11.5164
166.266	3.48914
169.641	6.54663
173.016	8.65381
176.391	15.0868
179.766	45.5536
183.141	47.975
186.515	42.8376
189.89	79.4244
193.265	176.109
196.64	281.599
200.015	369.806
203.389	426.866
206.764	474.721
210.139	496.242
213.514	500.078
216.889	489.703
220.263	447.798
223.638	392.218
227.013	333.428
230.388	298.698
233.763	246.572
237.137	179.109
240.512	124.459
243.887	59.6977
247.262	32.3547
250.637	39.4569
254.012	40.4161
257.386	63.7992
260.761	81.067
264.136	126.943
267.511	142.462
270.886	182.737
274.26	180.494
277.635	162.344
281.01	77.3196
284.385	16.5177
287.76	72.3152
291.135	52.4554
294.509	63.6298
297.884	333.139
301.259	870.984
304.634	1687.68
308.009	2563.51
311.384	3725.27
314.758	5234.71
318.133	7349.45
321.508	10035.4
324.883	11383
328.258	10505.4
331.632	10396.3
335.007	11017.1
338.382	12651
341.757	14729.3
345.132	8951.34
348.507	4667.3
351.881	3985.76
355.256	4248.47
358.631	2989.07
362.006	2014.19
365.381	1944.52
368.755	2285.28
372.13	3009.13
375.505	4233.8
378.88	6180.88
382.255	4892.07
385.63	1470.54
389.004	514.834
392.379	210.796
395.754	89.1816
399.129	47.4714
402.503	8.7334
405.878	17.9411
409.253	10.7562
412.628	19.4146
416.003	9.91858
419.378	14.7765
422.752	2.1294
426.127	0.774109
429.502	1.49341
432.877	14.8492
436.252	22.72
439.627	36.6358
443.001	44.9883
446.376	60.2452
449.751	83.137
453.126	109.76
456.501	136.303
459.875	163.897
463.25	184.293
466.625	218.871
470	232.671
473.375	240.826
476.75	254.515
480.124	253.124
483.499	218.89
486.874	180.382
490.249	142.201
493.624	107.791
496.998	95.4621
500.373	75.3771
503.748	60.6707
507.123	46.2118
510.498	47.8953
513.872	37.6085
517.247	33.0445
520.622	26.8234
523.997	19.9829
527.372	14.2934
530.747	9.0795
534.121	4.9942
537.496	3.93872
540.871	3.31928
544.246	3.80975
547.621	2.66739
550.995	6.91309
554.37	10.1593
557.745	8.70181
561.12	3.23401
564.495	4.96393
567.87	5.34631
571.244	3.08856
574.619	2.99185
577.994	7.6124
581.369	0.8685
584.744	3.01117
588.118	5.40482
591.493	6.77478
594.868	4.65015
598.243	1.57602
601.618	5.96774
604.992	9.38864
608.367	6.65811
611.742	12.6675
615.117	9.77066
618.492	16.1705
621.867	17.8345
625.241	29.2676
628.616	35.7267
631.991	47.5299
635.366	45.5736
638.741	58.2936
642.115	61.8265
645.49	61.2656
648.865	65.9672
652.24	63.4509
655.615	68.6079
658.99	54.1574
662.364	63.0562
665.739	52.8532
669.114	54.7477
672.489	58.9998
675.864	48.7015
679.239	43.1083
682.613	45.5461
685.988	46.4771
689.363	55.1893
692.738	61.7783
696.112	62.4233
699.487	54.6777
702.862	38.8934
706.237	40.5404
709.612	34.2362
712.987	24.7632
716.361	16.973
719.736	4.24152
723.111	1.39484
726.486	2.78693
729.861	4.40576
733.236	2.59345
736.61	0.862366
739.985	2.10944
743.36	12.1724
746.735	8.72784
750.11	16.7506
753.484	8.03619
756.859	15.4199
760.234	9.37134
763.609	1.39087
766.984	6.38403
770.359	35.2043
773.733	75.8754
777.108	128.493
780.483	194.2
783.858	296.926
787.233	427.866
790.607	610.362
793.982	863.725
797.357	1219.62
800.732	1729.82
804.107	2698.71
807.481	4864.5
810.856	8740.96
814.231	12665.5
817.606	18225.5
820.981	26963.5
824.356	35484.4
827.73	31276.9
831.105	26355.7
834.48	27385.4
837.855	24769.3
841.23	20949.6
844.605	21054.9
847.979	17478.7
851.354	9103.54
854.729	4196.56
858.104	2261.75
861.479	1414.83
864.853	943.672
868.228	639.525
871.603	439.687
874.978	287.966
878.353	185.181
881.727	140.821
885.102	88.8294
888.477	80.5547
891.852	61.5762
895.227	37.392
898.602	11.5737
901.976	5.06433
905.351	20.8134
908.726	26.536
912.101	33.1027
915.476	21.1308
918.85	17.483
922.225	7.74286
925.6	10.2997
928.975	19.0657
932.35	24.4357
935.725	30.8885
939.099	31.6773
942.474	45.2163
945.849	47.1457
949.224	57.3322
952.599	80.4695
955.973	94.0807
959.348	97.7996
962.723	104.822
966.098	105.479
969.473	80.5499
972.847	65.1248
976.222	53.6487
979.597	41.8457
982.972	30.8016
986.347	28.0464
989.722	24.8124
993.096	29.4836
996.471	25.8078
999.846	14.252
1003.22	12.8872
1006.6	15.2961
1009.97	11.557
1013.35	10.1166
1016.72	13.3827
1020.1	12.123
1023.47	9.05087
1026.85	12.5704
1030.22	17.6655
1033.59	12.7719
1036.97	25.8737
1040.34	18.3718
1043.72	30.1477
1047.09	26.7387
1050.47	25.896
1053.84	23.6765
1057.22	22.5294
1060.59	19.3737
1063.97	22.2658
1067.34	20.2969
1070.72	20.5703
1074.09	14.3704
1077.47	14.4822
1080.84	6.74866
1084.22	10.2416
1087.59	3.64053
1090.97	8.78845
1094.34	4.55084
1097.72	1.11899
1101.09	1.53522
1104.46	1.03348
1107.84	0.345581
1111.21	5.66412
1114.59	1.88901
1117.96	1.35419
1121.34	2.83835
1124.71	1.99002
1128.09	0.598541
1131.46	2.82364
1134.84	9.87598
1138.21	3.50037
1141.59	13.4262
1144.96	11.786
1148.34	20.7716
1151.71	27.7206
1155.09	36.2891
1158.46	36.4033
1161.84	49.1085
1165.21	52.3514
1168.59	49.9766
1171.96	43.7798
1175.34	45.5552
1178.71	46.3866
1182.09	41.2476
1185.46	45.8064
1188.84	46.6512
1192.21	43.7248
1195.59	44.2338
1198.96	50.1029
1202.34	49.4803
1205.71	52.2742
1209.09	51.3195
1212.46	43.9824
1215.83	41.1368
1219.21	36.3586
1222.58	32.4073
1225.96	25.1337
1229.33	21.9226
1232.71	21.5971
1236.08	15.4605
1239.46	19.1158
1242.83	13.149
1246.21	6.70416
1249.58	9.81494
1252.96	9.70398
1256.33	3.17899
1259.71	4.61972
1263.08	1.24051
1266.46	0.900391
1269.83	0.355804
1273.21	3.51437
1276.58	1.50165
1279.96	2.13925
1283.33	4.91788
1286.7	0.776031
