Measurement: Raman, 780 nm, unoriented, Raman Data Processed
Mineral: Phosgenite
Rruff sample: R050640
Ideal chemistry: Pb_2_CO_3_Cl_2_
Locality: Monte Poni, Sardinia, Italy
Source: University of Arizona Mineral Museum
Description: Gray rectangular prismatic crystal
Measured chemistry: Pb_2.00_(CO_3_)Cl_2.00_ ; C estimated by difference
Raman shift (cm-1)	intensity
142.166	94.3724
145.058	225.992
147.951	442.871
150.844	707.471
153.736	821.033
156.629	614.283
159.522	462.201
162.414	406.414
165.307	417.491
168.2	465.758
171.093	537.319
173.985	613.223
176.878	645.638
179.771	594.278
182.663	507.755
185.556	426.571
188.449	298.42
191.341	158.449
194.234	73.3934
197.127	21.0565
200.019	0.529114
202.912	4.87872
205.805	7.40442
208.697	6.26074
211.59	4.5351
214.483	0.269043
217.376	8.74866
220.268	21.5538
223.161	34.3975
226.054	49.4603
228.946	72.0359
231.839	95.5981
234.732	121.166
237.625	154.793
240.517	190.961
243.41	231.669
246.303	273.75
249.195	303.955
252.088	299.171
254.981	257.246
257.873	201.098
260.766	174.717
263.659	162.511
266.551	162.445
269.444	175.063
272.337	201.65
275.23	234.726
278.122	268.597
281.015	269.38
283.908	217.758
286.8	140.739
289.693	78.9285
292.586	45.7594
295.478	22.6695
298.371	11.682
301.264	6.63213
304.157	3.62605
307.049	0.866638
309.942	2.09596
312.835	1.3849
315.727	1.08363
318.62	0.207886
321.513	0.313736
324.406	0.70208
327.298	1.44679
330.191	0.26445
333.084	1.68999
335.976	3.03441
338.869	3.33648
341.762	2.61367
344.654	4.14476
347.547	4.41092
350.44	4.62274
353.332	7.80024
356.225	4.50026
359.118	5.31957
362.01	3.11516
364.903	3.11782
367.796	0.817696
370.689	0.810394
373.581	2.15465
376.474	0.575615
379.367	0.78286
382.259	0.047577
385.152	0.932518
388.045	0.412254
390.938	0.213318
393.83	0.793076
396.723	2.00284
399.616	2.26145
402.508	1.8308
405.401	1.37078
408.294	1.58041
411.186	3.21101
414.079	3.74022
416.972	1.87399
419.865	2.41516
422.757	2.7949
425.65	1.3494
428.543	2.27846
431.435	1.54529
434.328	4.09731
437.221	4.36099
440.113	4.02879
443.006	4.86778
445.899	3.27024
448.791	4.56841
451.684	2.8861
454.577	1.43322
457.47	2.21798
460.362	2.92277
463.255	1.05687
466.148	1.25416
469.04	1.00162
471.933	0.973244
474.826	3.67391
477.719	0.614922
480.611	1.35796
483.504	1.46307
486.397	0.581223
489.289	1.25785
492.182	3.60998
495.075	0.223122
497.967	2.92188
500.86	3.78552
503.753	4.17776
506.645	1.32932
509.538	3.15424
512.431	5.07636
515.323	2.76395
518.216	2.18779
521.109	2.80885
524.002	3.94031
526.894	4.73854
529.787	4.37363
532.68	5.59567
535.572	3.83886
538.465	7.76608
541.358	4.94416
544.25	4.55011
547.143	5.06322
550.036	6.16047
552.929	4.32845
555.821	2.10668
558.714	5.52491
561.607	2.0368
564.499	3.11372
567.392	2.90574
570.285	0.778137
573.178	1.78159
576.07	2.07176
578.963	2.43113
581.856	2.94472
584.748	2.83227
587.641	3.25579
590.534	2.98759
593.426	0.532585
596.319	1.60422
599.212	0.413742
602.105	1.39096
604.997	1.25684
607.89	1.90122
610.783	1.01377
613.675	2.50882
616.568	1.52947
619.461	0.488239
622.353	0.019527
625.246	0.847553
628.139	1.90375
631.031	0.777176
633.924	0.121441
636.817	0.682301
639.71	1.33457
642.602	3.32219
645.495	2.19239
648.388	4.24383
651.28	25.154
654.173	47.696
657.066	49.9991
659.958	82.395
662.851	145.548
665.744	352.765
668.636	265.116
671.529	20.4124
674.422	7.01957
677.315	4.45482
680.207	3.67371
683.1	1.75744
685.993	5.99487
688.885	4.65432
691.778	4.85063
694.671	7.10027
697.563	3.56435
700.456	5.47014
703.349	5.93753
706.242	6.36725
709.134	8.02366
712.027	6.47861
714.92	10.0071
717.812	7.45053
720.705	6.47183
723.598	3.13358
726.49	2.76204
729.383	2.25464
732.276	2.18872
735.169	0.00069
738.061	0.599033
740.954	0.183304
743.847	0.766304
746.739	1.32036
749.632	0.704487
752.525	0.330879
755.418	1.64269
758.31	0.500328
761.203	0.024788
764.096	1.53878
766.988	1.63823
769.881	1.48003
772.774	1.93438
775.666	3.62372
778.559	1.90282
781.452	3.04882
784.345	3.06051
787.237	6.03297
790.13	5.38631
793.023	7.23225
795.915	5.90567
798.808	4.01482
801.701	5.47443
804.593	5.36315
807.486	4.51118
810.379	4.36685
813.271	2.53019
816.164	4.50345
819.057	5.08676
821.949	9.80635
824.842	9.7057
827.735	14.2285
830.628	19.9333
833.52	37.1044
836.413	28.0409
839.306	4.53537
842.198	0.82925
845.091	0.423569
847.984	1.8946
850.876	2.20888
853.769	3.80695
856.662	1.76993
859.555	1.25073
862.447	3.05927
865.34	3.39075
868.233	3.58351
871.125	2.82246
874.018	2.94189
876.911	1.63576
879.803	0.656765
882.696	0.028194
885.589	2.19074
888.482	1.32539
891.374	0.149578
894.267	1.37954
897.16	0.416786
900.052	0.680454
902.945	3.40545
905.838	1.69847
908.731	1.60056
911.623	3.14476
914.516	3.13667
917.409	1.81343
920.301	2.41613
923.194	1.75206
926.087	2.89799
928.979	2.67961
931.872	1.97067
934.765	0.727066
937.658	0.765369
940.55	1.57742
943.443	0.126415
946.336	2.08835
949.228	1.75432
952.121	0.167015
955.014	0.373341
957.906	0.087887
960.799	0.243317
963.692	1.00303
966.584	0.775246
969.477	1.27829
972.37	0.075253
975.263	0.730324
978.155	1.16129
981.048	0.578938
983.941	1.73269
986.833	2.27088
989.726	3.55043
992.619	3.25606
995.511	5.79696
998.404	2.75956
1001.3	3.90746
1004.19	3.24871
1007.08	5.80901
1009.98	4.19474
1012.87	5.90836
1015.76	2.52609
1018.65	6.33929
1021.55	8.75611
1024.44	9.01829
1027.33	14.716
1030.22	19.2719
1033.12	30.0695
1036.01	40.6161
1038.9	50.053
1041.8	60.7072
1044.69	76.762
1047.58	117.577
1050.47	268.66
1053.37	403.535
1056.26	599.032
1059.15	1007.18
1062.04	1794.95
1064.94	1027.65
1067.83	190.955
1070.72	59.6717
1073.61	25.4051
1076.51	16.0292
1079.4	8.74213
1082.29	6.87304
1085.18	2.97986
1088.08	2.05741
1090.97	0.4827
1093.86	1.41934
1096.76	0.532295
1099.65	1.90603
1102.54	0.139896
1105.43	0.13903
1108.33	0.910278
1111.22	0.665813
1114.11	0.789703
1117.01	1.68909
1119.9	0.84811
1122.79	2.85917
1125.68	4.89576
1128.58	4.9483
1131.47	4.55165
1134.36	4.7346
1137.25	3.7504
1140.15	4.22016
1143.04	4.18928
1145.93	5.04134
1148.82	4.52587
1151.72	5.96647
1154.61	6.37785
1157.5	5.46461
1160.39	8.84878
1163.29	8.51914
1166.18	6.81905
1169.07	7.14253
1171.97	9.80434
1174.86	9.11305
1177.75	10.2045
1180.64	11.2271
1183.54	11.4829
1186.43	11.7996
1189.32	13.0651
1192.21	13.7512
1195.11	12.1491
1198	13.258
1200.89	11.9029
1203.79	11.7007
1206.68	10.4691
1209.57	7.71432
1212.46	8.7689
1215.36	5.15282
1218.25	4.01368
1221.14	5.32562
1224.04	1.43259
1226.93	0.5373
1229.82	0.285591
1232.71	0.225502
1235.61	0.891029
1238.5	2.86833
1241.39	2.74062
1244.28	2.53563
1247.18	2.59506
1250.07	5.19521
1252.96	2.32027
1255.85	3.24523
1258.75	3.12933
1261.64	3.09625
1264.53	2.91213
1267.42	1.69952
1270.32	3.84182
1273.21	3.56563
1276.1	3.41841
1279	1.91135
1281.89	1.32867
1284.78	0.529968
