Measurement: Raman, 785 nm, unoriented, Raman Data Processed
Mineral: Phosphosiderite
Rruff sample: R070519
Ideal chemistry: Fe^3+^PO_4_2H_2_O
Locality: Stewart mine, Pala, San Diego County, California, USA
Source: James Shigley
Description: Bluish-purple fine-grained botryoidal and tabular crystals
Raman shift (cm-1)	intensity
150.327	0
153.22	26.1445
156.112	53.814
159.005	193.396
161.898	485.397
164.791	572.142
167.683	662.119
170.576	772.817
173.469	756.345
176.361	1040.11
179.254	1398.58
182.147	1777.97
185.039	2022.41
187.932	2205.49
190.825	2413.47
193.718	2577.28
196.61	2457.06
199.503	2283.35
202.396	1973.36
205.288	1337.79
208.181	842.754
211.074	464.257
213.966	284.228
216.859	150.926
219.752	63.4258
222.644	93.5449
225.537	11.0298
228.43	46.9878
231.322	127.4
234.215	71.6318
237.108	5.84131
240.001	182.73
242.893	487.709
245.786	706.857
248.679	967.561
251.571	1317.25
254.464	1552.63
257.357	1564.81
260.25	1392.88
263.142	1225.7
266.035	1150.33
268.928	1192.22
271.82	1359.52
274.713	1571.65
277.606	1945.03
280.498	2309.01
283.391	2816.77
286.284	3131.52
289.176	2966.21
292.069	2467.12
294.962	2168.33
297.855	1984.47
300.747	2010.95
303.64	2090.16
306.533	2260.63
309.425	2190.11
312.318	1986.05
315.211	1866.12
318.103	1662.73
320.996	1608.51
323.889	1691.32
326.782	1646.63
329.674	1595.75
332.567	1463.55
335.46	1237.51
338.352	1045.69
341.245	862.888
344.138	666.466
347.031	508.789
349.923	294.847
352.816	110.411
355.709	23.8003
358.601	55.1987
361.494	58.8911
364.387	80.0312
367.279	3.99853
370.172	65.0303
373.065	152.962
375.957	256.429
378.85	402.72
381.743	501.796
384.636	627.206
387.528	726.937
390.421	820.316
393.314	963.435
396.206	882.763
399.099	693.48
401.992	440.192
404.885	273.836
407.777	114.344
410.67	15.2876
413.563	40.1924
416.455	64.4849
419.348	92.5649
422.241	131.791
425.133	290.093
428.026	499.152
430.919	697.668
433.811	980.777
436.704	1292.09
439.597	1585.99
442.49	1793.26
445.382	1999.91
448.275	2164.4
451.168	2179.15
454.06	2088.71
456.953	2000.8
459.846	1895.7
462.738	1895.27
465.631	1870.95
468.524	1991.55
471.416	2129.52
474.309	2254.01
477.202	2382.68
480.095	2448.5
482.987	2437.65
485.88	2252.29
488.773	1986.13
491.665	1629.19
494.558	1251.95
497.451	970.16
500.344	729.807
503.236	523.836
506.129	355.143
509.022	213.713
511.914	96.7461
514.807	52.2849
517.7	28.2812
520.592	17.9387
523.485	42.2231
526.378	60.385
529.27	28.4753
532.163	12.0252
535.056	75.7197
537.948	126.633
540.841	208.903
543.734	219.357
546.627	268.078
549.519	317.398
552.412	329.749
555.305	319.164
558.197	307.623
561.09	396.631
563.983	365.09
566.875	395.588
569.768	377.562
572.661	348.733
575.554	337.281
578.446	296.719
581.339	294.036
584.232	200.593
587.125	188.168
590.017	151.744
592.91	162.747
595.803	143.747
598.695	121.549
601.588	100.115
604.481	78.2654
607.373	76.1921
610.266	90.011
613.159	61.4553
616.052	4.70019
618.944	74.1218
621.837	65.5127
624.73	34.937
627.622	31.1553
630.515	2.81567
633.408	20.2856
636.3	10.4287
639.193	10.0584
642.086	44.0915
644.978	34.6309
647.871	14.3381
650.764	7.05591
653.657	26.2161
656.549	19.6399
659.442	45.4756
662.335	34.1655
665.227	40.3474
668.12	33.6191
671.013	44.3049
673.905	44.5727
676.798	64.3567
679.691	53.197
682.583	25.5332
685.476	38.0332
688.369	23.2966
691.262	11.1597
694.154	46.5527
697.047	23.0115
699.94	40.5271
702.832	10.9009
705.725	21.0334
708.618	7.23706
711.51	5.51245
714.403	24.0715
717.296	16.6706
720.189	39.6721
723.081	27.7876
725.974	10.0373
728.867	39.8369
731.759	11.7031
734.652	65.8037
737.545	5.70752
740.437	22.3406
743.33	53.875
746.223	12.0852
749.115	32.6924
752.008	45.5418
754.901	4.35303
757.794	25.9477
760.686	30.2969
763.579	30.6609
766.472	40.6155
769.364	20.5198
772.257	2.40894
775.15	56.5646
778.043	15.2581
780.935	28.7218
783.828	47.3743
786.721	11.2041
789.613	26.3868
792.506	39.4489
795.399	24.1229
798.291	39.6406
801.184	61.7035
804.077	13.4641
806.97	28.2567
809.862	58.1233
812.755	35.4973
815.648	34.3635
818.54	14.5051
821.433	89.2393
824.326	46.9492
827.218	90.7214
830.111	93.204
833.004	90.4874
835.896	117.347
838.789	151.825
841.682	79.3994
844.575	123.475
847.467	128.653
850.36	141.415
853.253	111.133
856.145	126.859
859.038	138.357
861.931	112.338
864.823	142.088
867.716	117.215
870.609	112.911
873.502	92.048
876.394	80.9407
879.287	54.8303
882.18	36.9738
885.072	13.6558
887.965	39.4766
890.858	10.1512
893.75	29.7942
896.643	10.6746
899.536	16.6721
902.429	20.9788
905.321	19.4441
908.214	33.989
911.107	39.0674
913.999	51.6565
916.892	50.6519
919.785	20.5422
922.678	13.845
925.57	12.3848
928.463	27.6575
931.356	90.1455
934.248	189.052
937.141	243.084
940.034	304.378
942.926	402.708
945.819	467.676
948.712	616.554
951.604	697.301
954.497	855.868
957.39	1090.13
960.283	1298.63
963.175	1759.68
966.068	2249.02
968.961	3081.48
971.853	4200.51
974.746	5520.56
977.639	6918.67
980.531	7931.51
983.424	8595.81
986.317	8675.9
989.21	8538.42
992.102	8121.64
994.995	7807.6
997.888	7648.09
1000.78	7664.6
1003.67	8142.3
1006.57	8326.9
1009.46	7861.84
1012.35	6879.25
1015.24	5677.01
1018.14	4703.66
1021.03	4260.8
1023.92	4202.65
1026.82	4525.1
1029.71	4764.08
1032.6	4746.7
1035.49	4063.07
1038.38	3085.2
1041.28	2185.74
1044.17	1563.46
1047.06	1072.57
1049.96	740.804
1052.85	492.244
1055.74	384.92
1058.63	201.254
1061.53	132.742
1064.42	71.9961
1067.31	0.833252
1070.2	23.0413
1073.1	20.0625
1075.99	45.3406
1078.88	61.0562
1081.78	22.1016
1084.67	35.2937
1087.56	17.9514
1090.45	9.09497
1093.35	4.82495
1096.24	15.3528
1099.13	64.708
1102.03	96.3752
1104.92	88.6847
1107.81	108.446
1110.7	150.039
1113.6	170.855
1116.49	244.929
1119.38	210.42
1122.27	212.419
1125.17	215.459
1128.06	187.917
1130.95	188.954
1133.84	141.537
1136.74	139.165
1139.63	121.172
1142.52	114.074
1145.41	78.2162
1148.31	89.9819
1151.2	61.4783
1154.09	26.2638
1156.99	43.8818
1159.88	30.0916
1162.77	84.5632
1165.66	72.902
1168.56	42.6333
1171.45	77.9771
1174.34	84.6434
1177.23	57.9905
1180.13	55.926
1183.02	42.2825
1185.91	49.3196
1188.81	56.3976
1191.7	55.0107
1194.59	65.9457
1197.48	56.5262
1200.38	51.0637
1203.27	58.8328
1206.16	78.4126
1209.06	52.718
1211.95	29.6892
1214.84	15.9633
1217.73	47.4056
1220.62	39.6923
1223.52	44.8827
1226.41	32.4371
1229.3	42.9684
1232.2	21.324
1235.09	51.1674
1237.98	44.4286
1240.87	34.4285
1243.77	28.4719
1246.66	38.1641
1249.55	1.99439
1252.44	14.7396
1255.34	28.6311
1258.23	25.1436
1261.12	7.36023
1264.02	14.9944
1266.91	6.27014
1269.8	0
