Measurement: Raman, 780 nm, unoriented, Raman Data Processed
Mineral: Phosphosiderite
Rruff sample: R050459
Ideal chemistry: Fe^3+^PO_4_2H_2_O
Locality: Bull Moose mine, Custer, South Dakota, USA
Source: University of Arizona Mineral Museum
Description: Pale lavendar tabular crystals
Measured chemistry: (Fe^3+^_0.99_Al_0.01_)_Σ=1_P_1.00_O_4_·2H_2_O
Raman shift (cm-1)	intensity
140.066	0
142.959	0.00206
145.852	3.54162
148.744	7.69376
151.637	14.0597
154.53	22.1203
157.423	31.032
160.315	37.8075
163.208	37.0281
166.101	37.4294
168.994	34.8953
171.886	37.6377
174.779	44.3629
177.672	52.4044
180.564	63.0475
183.457	72.8238
186.35	77.87
189.242	78.5441
192.135	86.8597
195.028	97.2823
197.921	113.82
200.813	124.425
203.706	99.8114
206.599	52.9568
209.491	23.5554
212.384	8.96983
215.277	2.09616
218.169	0.808693
221.062	1.23453
223.955	2.09349
226.847	3.51279
229.74	4.23741
232.633	0.537064
235.526	2.28559
238.418	9.822
241.311	17.7572
244.204	25.5553
247.096	37.2538
249.989	52.055
252.882	67.7128
255.774	78.8489
258.667	66.9761
261.56	45.8639
264.453	34.6816
267.345	37.2348
270.238	43.8783
273.131	48.3023
276.023	54.9387
278.916	64.0714
281.809	80.2427
284.702	97.0525
287.594	104.279
290.487	80.924
293.38	58.2281
296.272	49.4547
299.165	56.0767
302.058	67.2954
304.95	78.865
307.843	87.8389
310.736	87.5638
313.628	76.1964
316.521	65.9999
319.414	59.2079
322.307	55.51
325.199	55.873
328.092	61.3447
330.985	59.6007
333.877	48.3539
336.77	39.1405
339.663	32.5268
342.556	27.3033
345.448	23.9729
348.341	17.3847
351.234	6.64972
354.126	1.16824
357.019	1.79182
359.912	0.485214
362.805	1.4724
365.697	6.16205
368.59	11.262
371.483	17.7947
374.375	24.0959
377.268	30.4045
380.161	34.8507
383.053	37.9574
385.946	38.8553
388.839	38.3877
391.731	36.2957
394.624	36.9879
397.517	32.0253
400.41	21.8978
403.302	11.5888
406.195	1.62092
409.088	1.64139
411.98	3.69436
414.873	2.7312
417.766	2.93068
420.659	1.38712
423.551	7.96283
426.444	14.3648
429.337	23.8893
432.229	35.3899
435.122	49.4613
438.015	63.2343
440.907	76.9061
443.8	90.6467
446.693	101.174
449.586	105.38
452.478	98.7752
455.371	88.2637
458.264	76.6524
461.156	67.6049
464.049	65.4175
466.942	65.184
469.834	68.8833
472.727	73.681
475.62	79.2124
478.513	85.194
481.405	93.1406
484.298	93.9139
487.191	86.3047
490.083	71.3597
492.976	55.8543
495.869	40.4542
498.762	28.6089
501.654	17.911
504.547	9.76067
507.44	6.44055
510.332	1.95292
513.225	0.600327
516.118	0.062775
519.01	1.04951
521.903	0.145905
524.796	2.63852
527.688	3.36351
530.581	6.86871
533.474	8.93701
536.367	12.3575
539.259	17.6626
542.152	19.6971
545.045	21.896
547.937	21.0665
550.83	20.0269
553.723	17.755
556.615	15.694
559.508	15.0261
562.401	11.8904
565.294	10.7
568.186	10.1513
571.079	8.3148
573.972	5.97522
576.864	5.73564
579.757	3.5674
582.65	3.42976
585.543	2.27107
588.435	1.85558
591.328	1.19717
594.221	1.02663
597.113	0.107712
600.006	1.25633
602.899	0.929916
605.791	0.634636
608.684	0.121696
611.577	1.46038
614.47	0.151863
617.362	0.358788
620.255	0.088326
623.148	1.43198
626.04	0.35936
628.933	0.270554
631.826	0.351242
634.718	0.427444
637.611	2.01846
640.504	3.12492
643.397	1.62228
646.289	2.4708
649.182	3.35899
652.075	2.59109
654.967	3.21106
657.86	3.44566
660.753	3.50938
663.645	2.44908
666.538	5.49918
669.431	3.09157
672.324	2.91221
675.216	2.54324
678.109	1.58435
681.002	2.34853
683.894	0.446861
686.787	1.47976
689.68	0.829056
692.572	0.639732
695.465	0.985977
698.358	1.94591
701.251	1.0703
704.143	1.61035
707.036	1.27971
709.929	1.31087
712.821	0.767654
715.714	0.227615
718.607	0.901657
721.5	1.02417
724.392	1.31543
727.285	1.47786
730.178	1.02557
733.07	1.42224
735.963	2.91742
738.856	1.61636
741.749	1.5701
744.641	3.07974
747.534	1.48937
750.427	1.24234
753.319	1.94962
756.212	3.62501
759.105	0.624084
761.997	1.42258
764.89	2.41989
767.783	1.83272
770.676	0.269531
773.568	2.32906
776.461	1.71138
779.354	0.148911
782.246	0.756836
785.139	0.639771
788.032	1.56271
790.924	1.25095
793.817	0.194153
796.71	1.96309
799.602	1.53921
802.495	1.45245
805.388	1.32138
808.281	2.51044
811.173	2.26526
814.066	1.14037
816.959	1.97746
819.851	1.76436
822.744	1.86171
825.637	3.26111
828.529	2.07216
831.422	2.73723
834.315	2.6985
837.208	3.5685
840.1	3.11554
842.993	2.97112
845.886	3.39661
848.778	3.19463
851.671	3.79469
854.564	2.77034
857.457	2.91666
860.349	4.41919
863.242	3.20277
866.135	2.2009
869.027	4.74995
871.92	3.19522
874.813	1.48047
877.705	3.70975
880.598	2.67189
883.491	2.0074
886.384	3.16452
889.276	1.62067
892.169	0.645782
895.062	0.810089
897.954	2.3029
900.847	0.531662
903.74	0.997498
906.632	0.489197
909.525	1.09117
912.418	1.09567
915.311	0.852844
918.203	0.425507
921.096	1.8047
923.989	1.38878
926.881	1.02123
929.774	0.784286
932.667	0.941833
935.559	0.102997
938.452	0.636169
941.345	2.88824
944.238	5.36458
947.13	8.34418
950.023	11.711
952.916	15.2239
955.808	21.4051
958.701	32.415
961.594	50.0655
964.486	71.3899
967.379	109.948
970.272	162.333
973.165	231.436
976.057	312.424
978.95	408.619
981.843	491.231
984.735	502.577
987.628	451.494
990.521	405.75
993.413	374.601
996.306	333.84
999.199	314.53
1002.09	340.336
1004.98	386.342
1007.88	406.411
1010.77	344.753
1013.66	241.117
1016.55	169.727
1019.45	134.187
1022.34	123.473
1025.23	132.281
1028.13	152.535
1031.02	170.718
1033.91	158.965
1036.8	110.516
1039.7	71.454
1042.59	45.7014
1045.48	28.4488
1048.38	21.1296
1051.27	15.9477
1054.16	10.0561
1057.05	7.58221
1059.95	4.85877
1062.84	2.73788
1065.73	0.51944
1068.62	2.98288
1071.52	0.932159
1074.41	0.868378
1077.3	0.338959
1080.19	1.08704
1083.09	0.414734
1085.98	0.993042
1088.87	0.814728
1091.77	0.136078
1094.66	2.02145
1097.55	0.39566
1100.44	0.784882
1103.34	0.486359
1106.23	2.9523
1109.12	3.97965
1112.01	6.07529
1114.91	4.35187
1117.8	3.25281
1120.69	2.23859
1123.59	4.94446
1126.48	3.95029
1129.37	2.34036
1132.26	2.20264
1135.16	1.16025
1138.05	1.96768
1140.94	2.323
1143.83	4.19919
1146.73	1.04843
1149.62	1.50711
1152.51	1.11563
1155.4	0.382996
1158.3	0.020264
1161.19	2.99286
1164.08	0.741028
1166.98	2.50253
1169.87	2.18375
1172.76	3.56003
1175.65	4.79797
1178.55	5.21451
1181.44	4.49676
1184.33	5.89377
1187.22	3.93036
1190.12	2.61624
1193.01	2.71738
1195.9	2.29401
1198.8	1.61093
1201.69	2.97488
1204.58	2.98279
1207.47	3.22928
1210.37	3.76926
1213.26	0.779968
1216.15	2.08151
1219.04	2.66812
1221.94	0.481323
1224.83	3.211
1227.72	1.76639
1230.62	3.20273
1233.51	0.375061
1236.4	2.7464
1239.29	1.21106
1242.19	1.49002
1245.08	3.17206
1247.97	2.59537
1250.86	0.402435
1253.76	4.02451
1256.65	1.07733
1259.54	1.88913
1262.43	0.998596
1265.33	0.851746
1268.22	3.33859
1271.11	3.69464
1274.01	1.31692
1276.9	0.402008
1279.79	1.7265
1282.68	3.26358
1285.58	0.227539
