Measurement: Raman, 780 nm, unoriented, Raman Data Processed
Mineral: Phosphuranylite
Rruff sample: R110155
Ideal chemistry: KCa(H_3_O)_3_(UO_2_)_7_(PO_4_)_4_O_4_8H_2_O
Locality: Folgosinho, Portugal
Source: Luiz Menezes
Description: Light yellow bladed crystals associated with sharp platy yellowish-orange unknown R110156
Raman shift (cm-1)	intensity
116.192	0
119.566	0.4487
122.941	2.98935
126.316	2.58641
129.691	3.84924
133.066	6.07788
136.44	11.9649
139.815	20.8149
143.19	20.2691
146.565	18.2752
149.94	12.7069
153.315	10.2167
156.689	8.08087
160.064	16.7297
163.439	22.2101
166.814	22.5959
170.189	18.9226
173.563	11.2074
176.938	7.99936
180.313	9.40796
183.688	17.266
187.063	32.2697
190.437	44.7724
193.812	64.5042
197.187	78.5727
200.562	92.307
203.937	99.3488
207.311	100.963
210.686	98.2069
214.061	95.1364
217.436	93.949
220.811	94.622
224.186	96.534
227.56	95.1447
230.935	90.6116
234.31	80.3664
237.685	72.4664
241.06	62.3053
244.435	47.2819
247.809	37.9641
251.184	30.8496
254.559	35.0409
257.934	44.1577
261.309	51.6527
264.683	55.4103
268.058	54.3183
271.433	51.0137
274.808	44.4981
278.183	38.5747
281.558	28.2201
284.932	26.5923
288.307	22.9481
291.682	17.445
295.057	9.90257
298.432	2.43359
301.806	0.689056
305.181	2.9213
308.556	2.59175
311.931	2.56787
315.306	1.29546
318.68	1.53764
322.055	1.33376
325.43	0.975777
328.805	0.005669
332.18	2.8261
335.555	4.04442
338.929	4.12856
342.304	9.08911
345.679	10.4509
349.054	11.4571
352.429	13.7425
355.803	19.0235
359.178	22.4248
362.553	24.6634
365.928	27.8534
369.303	30.766
372.678	33.9041
376.052	38.4316
379.427	44.9483
382.802	50.9543
386.177	63.8625
389.552	70.7263
392.926	71.8302
396.301	66.8785
399.676	54.433
403.051	45.9273
406.426	44.6251
409.8	47.1005
413.175	56.6252
416.55	67.7419
419.925	77.3378
423.3	85.5648
426.675	94.5828
430.049	109.255
433.424	118.922
436.799	117.988
440.174	110.066
443.549	96.4211
446.923	80.805
450.298	63.6741
453.673	43.7557
457.048	24.14
460.423	12.3667
463.798	3.37383
467.172	1.61002
470.547	2.05733
473.922	1.87457
477.297	0.329529
480.672	2.38045
484.046	4.49441
487.421	4.93733
490.796	7.42955
494.171	10.3307
497.546	11.8559
500.921	13.686
504.295	17.4272
507.67	18.0898
511.045	21.1808
514.42	21.5244
517.795	27.7097
521.169	30.8441
524.544	38.183
527.919	40.2771
531.294	40.7944
534.669	36.3389
538.044	31.6916
541.418	25.7041
544.793	20.8918
548.168	18.7266
551.543	18.3774
554.918	17.5177
558.293	18.0987
561.667	17.0873
565.042	15.9928
568.417	14.5806
571.792	12.1555
575.167	10.312
578.541	6.87162
581.916	5.0394
585.291	2.9018
588.666	1.37691
592.041	0.247467
595.415	0.150024
598.79	0.757378
602.165	0.62571
605.54	0.409027
608.915	2.32075
612.29	0.564854
615.664	3.98799
619.039	3.07084
622.414	2.97421
625.789	2.81589
629.164	3.66459
632.538	2.97081
635.913	4.48485
639.288	5.94946
642.663	3.09715
646.038	5.36931
649.413	3.57556
652.787	5.55929
656.162	6.74793
659.537	5.91985
662.912	4.07703
666.287	4.29103
669.661	5.79696
673.036	6.40296
676.411	5.82639
679.786	5.21016
683.161	4.01769
686.535	4.26023
689.91	3.04961
693.285	5.39304
696.66	4.12746
700.035	2.25732
703.41	2.40356
706.784	1.07622
710.159	1.22322
713.534	0.880081
716.909	0.2799
720.284	0.767231
723.659	0.725883
727.033	0.153324
730.408	0.367428
733.783	0.791332
737.158	0.023556
740.533	0.182247
743.907	0.741364
747.282	0.008354
750.657	0.1138
754.032	1.30427
757.407	0.018814
760.782	0.617706
764.156	1.49699
767.531	3.11645
770.906	6.06109
774.281	6.94336
777.656	9.40315
781.03	13.1948
784.405	17.8002
787.78	25.3238
791.155	36.9139
794.53	51.9692
797.904	70.0277
801.279	89.1918
804.654	112.993
808.029	137.182
811.404	160.191
814.779	172.74
818.153	180.418
821.528	192.303
824.903	214.695
828.278	255.353
831.653	318.179
835.028	405.747
838.402	542.245
841.777	687.888
845.152	642.456
848.527	349.739
851.902	151.478
855.276	78.7922
858.651	46.1428
862.026	29.5522
865.401	19.6171
868.776	14.4605
872.15	11.9097
875.525	10.377
878.9	7.09853
882.275	6.63708
885.65	6.15456
889.024	5.78405
892.399	5.04641
895.774	4.4624
899.149	3.67268
902.524	1.87923
905.899	1.17932
909.273	2.25442
912.648	0.027119
916.023	0.022022
919.398	0.330009
922.773	1.75081
926.148	1.45206
929.522	2.81253
932.897	0.950253
936.272	0.593113
939.647	1.51406
943.022	1.152
946.396	3.10817
949.771	2.36116
953.146	2.43157
956.521	3.25243
959.896	3.03253
963.27	5.73298
966.645	6.86383
970.02	7.21636
973.395	11.9313
976.77	14.3684
980.145	19.3784
983.519	23.5232
986.894	29.2431
990.269	34.8762
993.644	42.9457
997.019	51.7042
1000.39	59.6703
1003.77	66.1596
1007.14	70.6775
1010.52	65.6323
1013.89	52.3708
1017.27	47.6905
1020.64	42.0434
1024.02	37.247
1027.39	34.3168
1030.77	37.2038
1034.14	37.2274
1037.52	44.2204
1040.89	52.8141
1044.27	60.5216
1047.64	65.2386
1051.02	64.6246
1054.39	53.5452
1057.77	39.3766
1061.14	28.0757
1064.52	17.6171
1067.89	10.1171
1071.27	7.19102
1074.64	5.69922
1078.01	1.5775
1081.39	0.870762
1084.76	0.707287
1088.14	0.154964
1091.51	0.824089
1094.89	2.12142
1098.26	1.99737
1101.64	0.003971
1105.01	1.25934
1108.39	5.96433
1111.76	8.24244
1115.14	7.69346
1118.51	10.5985
1121.89	10.7734
1125.26	12.6613
1128.64	11.4356
1132.01	10.5197
1135.39	5.98987
1138.76	6.08144
1142.14	2.41195
1145.51	2.01967
1148.88	1.44023
1152.26	0.81337
1155.63	1.73881
1159.01	0.07468
1162.38	0.447392
1165.76	1.63682
1169.13	1.18251
1172.51	0.942661
1175.88	1.98838
1179.26	1.85147
1182.63	1.28225
1186.01	2.81509
1189.38	3.04119
1192.76	4.58137
1196.13	3.16836
1199.51	4.95454
1202.88	5.50172
1206.26	5.3857
1209.63	4.83972
1213.01	5.21786
1216.38	6.52028
1219.76	4.77679
1223.13	5.23677
1226.51	3.87289
1229.88	3.54704
1233.26	2.37604
1236.63	3.77424
1240.01	4.86238
1243.38	3.31807
1246.76	4.63984
1250.13	4.41089
1253.51	2.92169
1256.88	4.17147
1260.25	1.71988
1263.63	2.51743
1267	1.97462
1270.38	1.83081
1273.75	3.51006
1277.13	3.30708
1280.5	3.22555
1283.88	1.34331
