Measurement: Raman, 532 nm, unoriented, Raman Data Processed
Mineral: Phosphohedyphane
Rruff sample: R060733
Ideal chemistry: Ca_2_Pb_3_(PO_4_)_3_Cl
Locality: Capitana mine, Copiapo, Chile
Source: Bob Jenkins
Description: Colorless prismatic crystals associated with colorless gypsum, co-type sample
Measured chemistry: (Ca_1.75_Pb_0.22_Na_0.03_)_Î£=2_Pb_3.00_(P_1.00_O_4_)_3_Cl_1.00_
Raman shift (cm-1)	intensity
233.068	0
235.961	16.4346
238.853	5.64062
241.746	39.4756
244.639	106.841
247.532	96.6641
250.424	130.092
253.317	87.8291
256.21	112.883
259.102	156.558
261.995	201.151
264.888	158.887
267.781	302.205
270.673	456.883
273.566	563.582
276.459	573.844
279.351	613.459
282.244	674.988
285.137	630.865
288.029	640.505
290.922	584.786
293.815	410.495
296.707	200.195
299.6	82.7676
302.493	20.2344
305.386	82.3193
308.278	71.8027
311.171	24.2178
314.064	101.827
316.956	3.05469
319.849	153.69
322.742	252.227
325.635	277.383
328.527	393.921
331.42	365.005
334.313	403.632
337.205	437.917
340.098	498.942
342.991	569.201
345.883	518.242
348.776	510.61
351.669	529.106
354.562	649.137
357.454	596.324
360.347	446.35
363.24	353.828
366.132	237.65
369.025	111.713
371.918	5.30859
374.81	216.787
377.703	254.365
380.596	380.012
383.488	816.953
386.381	1216.96
389.274	1797.06
392.167	2484.18
395.059	2988.13
397.952	3402.78
400.845	3268.33
403.737	2589.24
406.63	2024.12
409.523	1607.59
412.416	1606.1
415.308	1724.51
418.201	1999.52
421.094	2652.56
423.986	3409.61
426.879	4214.78
429.772	4620.89
432.664	4539.83
435.557	4024.85
438.45	3367.43
441.343	2512.53
444.235	1714.49
447.128	1060.2
450.021	723.102
452.913	561.086
455.806	379.789
458.699	261.158
461.591	264.523
464.484	212.219
467.377	182
470.27	145.82
473.162	365.701
476.055	400.42
478.948	414.492
481.84	155.08
484.733	44.6992
487.626	6.74609
490.519	64.0156
493.411	62.5898
496.304	269.545
499.197	471.465
502.089	704.809
504.982	971.137
507.875	1012.29
510.767	764.625
513.66	436.164
516.553	115.215
519.446	26.1113
522.338	93.041
525.231	6.11914
528.124	80.6816
531.016	2.73633
533.909	16.5566
536.802	317.764
539.694	287.807
542.587	720.914
545.48	1198.62
548.372	1761.83
551.265	2372.6
554.158	2877.61
557.051	2768.04
559.943	1780.35
562.836	1406.28
565.729	1267.9
568.621	1517.32
571.514	1723.6
574.407	2019.81
577.299	2010.48
580.192	2143.69
583.085	2856.95
585.978	4186.2
588.87	5181.04
591.763	6475.69
594.656	6484.19
597.548	4263.65
600.441	2281.88
603.334	1345.51
606.227	898.152
609.119	566.623
612.012	461.488
614.905	301.068
617.797	156.69
620.69	146.949
623.583	14.4453
626.476	62.9102
629.368	55.6367
632.261	14.043
635.154	16.0488
638.046	158.217
640.939	62.5996
643.832	21.6094
646.724	70.5938
649.617	96.4023
652.51	132.016
655.403	175.045
658.295	212.287
661.188	203.938
664.081	124.75
666.973	249.092
669.866	288.09
672.759	333.025
675.651	292.801
678.544	351.119
681.437	298.654
684.33	187
687.222	200.685
690.115	210.4
693.008	137.434
695.9	287.527
698.793	232.322
701.686	340.07
704.578	188.102
707.471	237.81
710.364	43.3887
713.256	82.4785
716.149	167.107
719.042	112.951
721.935	6.17969
724.827	82.1894
727.72	78.8965
730.613	50.4688
733.505	123.969
736.398	65.8769
739.291	9.00391
742.183	6.94141
745.076	9.73242
747.969	2.31445
750.862	48.5898
753.754	25.0195
756.647	86.4824
759.54	20.5977
762.432	115.959
765.325	70.8242
768.218	139.49
771.111	370.014
774.003	175.56
776.896	323.041
779.789	461.184
782.681	733.594
785.574	1198.33
788.467	1245.51
791.359	1493.68
794.252	1688.98
797.145	2002.49
800.038	2001.41
802.93	2292.65
805.823	2347.57
808.716	2631.64
811.608	2820.52
814.501	3155.55
817.394	3947.03
820.286	5122.77
823.179	7042.53
826.072	9556.62
828.965	11827.6
831.857	12583.8
834.75	11092.3
837.643	7435.3
840.535	4277.7
843.428	2653.24
846.321	1831.06
849.213	1375.35
852.106	1136.49
854.999	987.207
857.891	764.084
860.784	666.846
863.677	506.881
866.57	436.125
869.462	190.617
872.355	23.9395
875.248	38.5117
878.14	22.877
881.033	109.346
883.926	110.5
886.819	113.57
889.711	123.393
892.604	24.7109
895.497	61.3164
898.389	247.732
901.282	403.69
904.175	738.938
907.067	1178.77
909.96	1956.17
912.853	3162.27
915.746	5314.34
918.638	9223.29
921.531	15302.8
924.424	23220.8
927.316	31241.2
930.209	34681.8
933.102	29096
935.995	19783.8
938.887	13862.1
941.78	9644.04
944.673	7096.31
947.565	5979.61
950.458	6397.93
953.351	7479.33
956.243	9536.57
959.136	12056.5
962.029	15497.4
964.922	19507.6
967.814	23752.4
970.707	26758.6
973.6	26403
976.492	21740.6
979.385	16633.5
982.278	13477.2
985.17	11582.3
988.063	10149
990.956	8772.35
993.848	7788.2
996.741	6521.63
999.634	5355.44
1002.53	4127.25
1005.42	3233.51
1008.31	2313.26
1011.21	1520.98
1014.1	977.289
1016.99	627.111
1019.88	463.697
1022.78	109.256
1025.67	140.699
1028.56	182.484
1031.45	203.609
1034.35	34.4375
1037.24	198.519
1040.13	60.9863
1043.02	60.3262
1045.92	179.721
1048.81	419.147
1051.7	566.014
1054.6	985.023
1057.49	1427.38
1060.38	2122.26
1063.27	3073.89
1066.17	3815.36
1069.06	4425.54
1071.95	4486.86
1074.84	4000.53
1077.74	3167.81
1080.63	2627.05
1083.52	2029.47
1086.41	1563.28
1089.31	1179.28
1092.2	948.361
1095.09	675.4
1097.99	626.199
1100.88	426.438
1103.77	261.287
1106.66	185.459
1109.56	54.541
1112.45	1.58203
1115.34	74.8184
1118.23	4.54102
1121.13	12.7324
1124.02	137.107
1126.91	48
1129.81	33.2793
1132.7	74.3086
1135.59	23.5957
1138.48	51.5879
1141.38	20.6602
1144.27	35.1953
1147.16	69.6641
1150.05	85.5547
1152.95	49.4238
1155.84	134.383
1158.73	196.166
1161.62	186.207
1164.52	315.353
1167.41	499.879
1170.3	408.533
1173.2	401.709
1176.09	549.334
1178.98	606.269
1181.87	522.547
1184.77	635.178
1187.66	661.832
1190.55	624.174
1193.44	654.318
1196.34	618.4
1199.23	517.76
1202.12	570.119
1205.02	491.713
1207.91	454.984
1210.8	444.092
1213.69	455.019
1216.59	534.244
1219.48	533.731
1222.37	525.096
1225.27	287.756
1228.16	326.535
1231.05	247.6
1233.94	272.787
1236.84	293.992
1239.73	149.603
1242.62	133.141
1245.51	40.9102
1248.41	240.791
1251.3	183.027
1254.19	9.82227
1257.08	222.525
1259.98	117.76
1262.87	28.5508
1265.76	91.5078
1268.65	38.2676
1271.55	35.6074
1274.44	206.912
1277.33	22.7852
1280.23	36.623
1283.12	158.072
1286.01	95.0625
1288.9	103.674
1291.8	11.4648
1294.69	168.873
1297.58	57.3613
1300.47	127.332
1303.37	117.205
1306.26	187.088
1309.15	27.4141
1312.05	5.57617
1314.94	12.3184
