Measurement: Raman, 532 nm, unoriented, Raman Data Processed
Mineral: Phosphophyllite
Rruff sample: R050224
Ideal chemistry: Zn_2_Fe^2+^(PO_4_)_2_4H_2_O
Locality: Unificada mine, Cerro Rico, Potosi, Bolivia
Source: Marcus Origlieri
Description: Pale blue single crystal fragments
Measured chemistry: Zn_2.00_Fe^2+^_1.00_(P_1.00_O_4_)_2_Â·4H_2_O
Raman shift (cm-1)	intensity
108.21	0
111.584	20.6542
114.959	152.334
118.334	301.116
121.709	268.89
125.084	163.089
128.458	97.9102
131.833	90.788
135.208	91.48
138.583	72.0092
141.958	57.9932
145.333	52.2407
148.707	32.5667
152.082	8.03076
155.457	4.75281
158.832	3.07745
162.207	3.0025
165.582	6.80167
168.956	21.725
172.331	53.1178
175.706	96.3935
179.081	146.657
182.456	179.889
185.83	172.552
189.205	156.197
192.58	162.847
195.955	208.455
199.33	250.285
202.704	217.261
206.079	126.334
209.454	70.8535
212.829	53.9055
216.204	66.8352
219.578	82.5424
222.953	86.5533
226.328	79.7755
229.703	50.3431
233.078	16.316
236.453	3.84802
239.827	12.5496
243.202	9.29329
246.577	1.60042
249.952	22.4627
253.327	50.2681
256.702	87.4727
260.076	131.727
263.451	163.818
266.826	181.252
270.201	181.407
273.576	167.054
276.95	152.01
280.325	133.175
283.7	128.888
287.075	130.87
290.45	143.481
293.825	164.761
297.199	190.742
300.574	222.383
303.949	279.677
307.324	354.596
310.699	461.462
314.073	583.567
317.448	738.073
320.823	870.963
324.198	908.493
327.573	802.639
330.947	600.603
334.322	415.515
337.697	282.281
341.072	195.06
344.447	138.499
347.822	100.078
351.196	74.3923
354.571	54.1532
357.946	37.3606
361.321	24.7667
364.696	14.3511
368.07	6.6302
371.445	0.946884
374.82	3.76723
378.195	3.83849
381.57	4.29097
384.945	3.95618
388.319	1.78455
391.694	8.27391
395.069	18.5671
398.444	31.6615
401.819	51.1858
405.193	73.6589
408.568	100.887
411.943	127.379
415.318	142.858
418.693	131.649
422.067	96.5948
425.442	64.5574
428.817	41.6816
432.192	29.3623
435.567	18.4448
438.942	9.47282
442.316	5.35109
445.691	1.92302
449.066	0.394104
452.441	0.445068
455.816	0.342331
459.19	0.351341
462.565	0.006271
465.94	0.940147
469.315	0.816414
472.69	2.82289
476.065	3.84238
479.439	7.38077
482.814	10.9126
486.189	14.5753
489.564	20.4015
492.939	26.9605
496.313	34.0291
499.688	39.0505
503.063	40.8715
506.438	35.6452
509.813	29.391
513.188	24.6178
516.562	16.7287
519.937	11.0198
523.312	4.27274
526.687	2.01142
530.062	1.21663
533.436	0.799576
536.811	2.7664
540.186	0.430183
543.561	1.77534
546.936	4.43896
550.311	8.8651
553.685	15.912
557.06	23.7991
560.435	35.5359
563.81	52.0891
567.185	73.1098
570.559	99.4723
573.934	119.095
577.309	134.453
580.684	152.042
584.059	173.486
587.433	189.764
590.808	197.691
594.183	194.207
597.558	179.394
600.933	154.064
604.308	127.942
607.682	103.664
611.057	84.9261
614.432	74.1476
617.807	70.2867
621.182	74.5784
624.556	85.8156
627.931	97.7157
631.306	107.313
634.681	104.165
638.056	87.4903
641.431	67.912
644.805	48.5149
648.18	33.1441
651.555	21.4868
654.93	12.5541
658.305	6.38759
661.679	1.88106
665.054	0.994347
668.429	0.271011
671.804	0.259178
675.179	0.471397
678.553	1.53829
681.928	1.22684
685.303	0.122223
688.678	0.935249
692.053	0.84407
695.428	0.946266
698.802	1.53417
702.177	2.28558
705.552	2.98705
708.927	3.99987
712.302	5.63816
715.677	5.51806
719.051	7.25116
722.426	8.54593
725.801	9.00822
729.176	10.1736
732.551	11.7717
735.925	10.951
739.3	10.9765
742.675	13.3094
746.05	12.5007
749.425	13.1707
752.799	11.9457
756.174	13.6525
759.549	13.5535
762.924	13.277
766.299	13.1937
769.673	13.1334
773.048	11.2084
776.423	12.2637
779.798	9.75499
783.173	8.7999
786.548	8.90302
789.922	6.67851
793.297	7.33984
796.672	6.7698
800.047	7.06065
803.422	6.40803
806.796	6.01038
810.171	4.76102
813.546	6.49092
816.921	6.52857
820.296	5.63992
823.67	6.77066
827.045	6.64781
830.42	6.29199
833.795	5.12087
837.17	3.88374
840.545	3.99973
843.919	2.55136
847.294	1.76032
850.669	1.96651
854.044	0.917686
857.419	0.26606
860.793	0.486351
864.168	0.56781
867.543	1.28495
870.918	2.30107
874.293	1.62366
877.668	1.39194
881.042	2.3931
884.417	1.20887
887.792	0.180466
891.167	2.34133
894.542	2.90713
897.917	5.77615
901.291	7.54308
904.666	12.6058
908.041	16.2611
911.416	22.23
914.791	32.189
918.165	46.3286
921.54	69.0394
924.915	106.08
928.29	166.399
931.665	252.903
935.039	377.087
938.414	504.546
941.789	455.006
945.164	257.665
948.539	127.094
951.914	66.9726
955.288	39.495
958.663	29.729
962.038	27.7149
965.413	32.8397
968.788	46.73
972.163	70.7198
975.537	111.076
978.912	181.732
982.287	312.891
985.662	549.96
989.037	921.932
992.411	1559.73
995.786	2319.13
999.161	2003.21
1002.54	1042.78
1005.91	500.522
1009.28	251.49
1012.66	137.445
1016.03	77.5529
1019.41	43.6415
1022.78	22.2338
1026.16	9.24371
1029.53	0.436333
1032.91	3.05164
1036.28	5.10692
1039.66	4.23092
1043.03	2.65054
1046.41	3.73752
1049.78	11.0297
1053.16	25.2822
1056.53	46.3573
1059.91	83.415
1063.28	146.353
1066.66	233.745
1070.03	348.13
1073.41	431.179
1076.78	366.294
1080.16	228.8
1083.53	131.647
1086.91	78.5939
1090.28	45.9994
1093.66	25.7604
1097.03	14.221
1100.4	6.33351
1103.78	4.32257
1107.15	4.37419
1110.53	9.68617
1113.9	17.9909
1117.28	32.9062
1120.65	53.5444
1124.03	89.5213
1127.4	139.059
1130.78	201.672
1134.15	263.297
1137.53	282.766
1140.9	230.886
1144.28	156.034
1147.65	98.5907
1151.03	63.6068
1154.4	41.6817
1157.78	29.0468
1161.15	18.2576
1164.53	13.1786
1167.9	8.42923
1171.28	4.14146
1174.65	2.64741
1178.03	0.612267
1181.4	0.634331
1184.78	0.243599
1188.15	0.189209
1191.53	0.107834
1194.9	0.682968
1198.28	0.881821
1201.65	0.456635
1205.03	0.650177
1208.4	0.194603
1211.77	0.870872
1215.15	0.596016
1218.52	1.37898
1221.9	2.88659
1225.27	3.20327
1228.65	5.46553
1232.02	4.82343
1235.4	4.54193
1238.77	2.67503
1242.15	3.42504
1245.52	2.26419
1248.9	2.09303
1252.27	2.42771
1255.65	2.18861
1259.02	2.14789
1262.4	1.0197
1265.77	0.468185
1269.15	0.220718
1272.52	0
