Measurement: Raman, 532 nm, unoriented, Raman Data Processed
Mineral: Phosgenite
Rruff sample: R050640
Ideal chemistry: Pb_2_CO_3_Cl_2_
Locality: Monte Poni, Sardinia, Italy
Source: University of Arizona Mineral Museum
Description: Gray rectangular prismatic crystal
Measured chemistry: Pb_2.00_(CO_3_)Cl_2.00_ ; C estimated by difference
Raman shift (cm-1)	intensity
142.815	0
146.189	357.106
149.564	1821.04
152.939	3225.62
156.314	2243.03
159.689	1270.61
163.063	1118.25
166.438	1333.97
169.813	1843.64
173.188	2548.26
176.563	3294.77
179.938	3898.13
183.312	4339.73
186.687	4255.15
190.062	2836.55
193.437	1389.17
196.812	605.898
200.186	226.262
203.561	42.648
206.936	52.54
210.311	93.8403
213.686	72.5835
217.06	22.125
220.435	43.3457
223.81	133.355
227.185	234.907
230.56	324.951
233.935	430.369
237.309	564.872
240.684	731.969
244.059	888.952
247.434	1080.5
250.809	1194.17
254.184	1111.83
257.558	857.699
260.933	701.38
264.308	657.398
267.683	656.199
271.058	680.942
274.433	774.453
277.807	929.589
281.182	983.619
284.557	748.248
287.932	419.469
291.307	171.546
294.681	64.7363
298.056	4.86011
301.431	6.771
304.806	10.9343
308.181	1.22461
311.555	17.5649
314.93	21.4827
318.305	19.1272
321.68	20.7398
325.055	27.8892
328.43	33.5042
331.804	42.866
335.179	46.8062
338.554	49.7246
341.929	47.1397
345.304	65.3469
348.678	68.0557
352.053	75.6213
355.428	66.4583
358.803	47.6877
362.178	33.0095
365.553	27.2583
368.928	27.5835
372.302	31.5664
375.677	18.1609
379.052	21.1641
382.427	15.4873
385.802	28.3088
389.176	44.5173
392.551	54.2835
395.926	59.9868
399.301	64.5288
402.676	80.5154
406.05	74.8462
409.425	86.6572
412.8	83.2266
416.175	91.7036
419.55	79.3108
422.925	74.3796
426.299	78.5808
429.674	70.0161
433.049	72.1531
436.424	71.6719
439.799	76.2673
443.173	74.3518
446.548	57.7605
449.923	61.3852
453.298	60.0667
456.673	43.1103
460.048	38.2019
463.423	26.4019
466.797	13.5732
470.172	5.2251
473.547	5.72436
476.922	5.39893
480.297	2.13843
483.671	2.53076
487.046	13.6851
490.421	1.76343
493.796	3.1792
497.171	12.5493
500.546	31.3762
503.92	25.1035
507.295	27.6101
510.67	22.4663
514.045	25.2039
517.42	20.6309
520.794	23.6816
524.169	31.1528
527.544	44.061
530.919	40.2556
534.294	44.2732
537.668	40.3943
541.043	45.3877
544.418	49.8887
547.793	43.7004
551.168	28.177
554.543	33.9514
557.917	24.8511
561.292	18.0425
564.667	20.9316
568.042	15.8911
571.417	13.8967
574.792	14.2278
578.166	4.80225
581.541	19.739
584.916	16.7669
588.291	7.27173
591.666	15.5791
595.04	16.334
598.415	15.8096
601.79	19.1445
605.165	15.7356
608.54	5.54492
611.915	6.88818
615.289	0.631104
618.664	3.08789
622.039	23.302
625.414	0.801514
628.789	2.23828
632.163	7.22949
635.538	7.47485
638.913	19.0769
642.288	18.5933
645.663	27.5557
649.038	38.352
652.412	289.697
655.787	688.031
659.162	1000.88
662.537	2199.74
665.912	4219.08
669.287	3529.58
672.661	182.954
676.036	85.2063
679.411	51.3103
682.786	52.0864
686.161	57.7903
689.535	62.5564
692.91	68.8347
696.285	66.7097
699.66	72.2561
703.035	66.4282
706.409	75.1631
709.784	89.0894
713.159	92.574
716.534	76.1721
719.909	81.7375
723.284	50.8518
726.659	22.4192
730.033	11.4631
733.408	14.8389
736.783	0.320801
740.158	1.21973
743.533	3.02051
746.907	3.21777
750.282	3.62305
753.657	7.94311
757.032	12.3201
760.407	6.69189
763.782	4.06177
767.156	1.10449
770.531	6.23535
773.906	10.8411
777.281	12.4949
780.656	24.2732
784.03	31.928
787.405	27.9165
790.78	52.6331
794.155	50.4429
797.53	64.4104
800.904	37.7188
804.279	37.7444
807.654	44.1985
811.029	20.1682
814.404	18.0466
817.779	16.8157
821.154	38.9587
824.528	38.085
827.903	43.1304
831.278	116.944
834.653	224.066
838.028	69.0579
841.402	17.3579
844.777	3.32715
848.152	6.03271
851.527	16.2461
854.902	25.3977
858.277	7.44702
861.651	18.4168
865.026	19.6323
868.401	29.4783
871.776	28.4487
875.151	15.74
878.525	0.358154
881.9	1.90259
885.275	10.6443
888.65	10.4951
892.025	6.27222
895.399	13.3752
898.774	18.7991
902.149	36.6816
905.524	33.2363
908.899	47.6348
912.274	57.8506
915.649	49.2085
919.023	51.0276
922.398	31.523
925.773	30.9402
929.148	19.7515
932.523	15.6611
935.897	30.2554
939.272	32.2202
942.647	16.4521
946.022	4.76929
949.397	5.28491
952.771	3.78491
956.146	5.60791
959.521	2.51733
962.896	0.119873
966.271	3.09985
969.646	0.128174
973.02	3.97412
976.395	8.84106
979.77	11.0005
983.145	13.9407
986.52	4.60938
989.894	17.5713
993.269	15.0466
996.644	27.637
1000.02	34.2534
1003.39	30.1125
1006.77	28.9324
1010.14	39.3733
1013.52	49.9653
1016.89	28.6257
1020.27	46.6267
1023.64	77.1538
1027.02	103.446
1030.39	191.38
1033.77	294.009
1037.14	417.947
1040.52	560.129
1043.89	696.357
1047.27	938.306
1050.64	2063.4
1054.02	4407.96
1057.39	7180.46
1060.77	14669.9
1064.14	19272.2
1067.52	3045.96
1070.89	748.44
1074.27	302.57
1077.64	140.722
1081.02	67.3682
1084.39	32.219
1087.76	20.5256
1091.14	16.6887
1094.51	14.1143
1097.89	2.22681
1101.26	2.29517
1104.64	11.0637
1108.01	19.427
1111.39	5.36841
1114.76	4.8479
1118.14	16.3508
1121.51	32.0696
1124.89	40.8362
1128.26	45.531
1131.64	64.7139
1135.01	70.1902
1138.39	88.0896
1141.76	74.4004
1145.14	78.4231
1148.51	94.375
1151.89	114.09
1155.26	108.974
1158.64	134.178
1162.01	147.471
1165.38	155.694
1168.76	160.136
1172.13	162.072
1175.51	174.696
1178.88	182.115
1182.26	192.238
1185.63	207.618
1189.01	218.998
1192.38	241.509
1195.76	260.696
1199.13	272.64
1202.51	279.748
1205.88	276.723
1209.26	263.638
1212.63	263.356
1216.01	257.091
1219.38	251.24
1222.76	239.526
1226.13	222.536
1229.51	194.733
1232.88	167.674
1236.26	113.803
1239.63	65.9932
1243.01	0.95459
1246.38	19.8796
1249.76	0.076416
1253.13	5.05835
1256.51	4.76147
1259.88	31.7578
1263.26	52.3167
1266.63	94.8755
1270.01	135.241
1273.38	127.539
1276.75	102.152
1280.13	72.8218
1283.5	72.2339
1286.88	63.6582
1290.25	69.4175
1293.63	65.5147
1297	3.28662
1300.38	14.7344
