Measurement: Raman, 532 nm, unoriented, Raman Data Processed
Mineral: Phosphosiderite
Rruff sample: R110090
Ideal chemistry: Fe^3+^PO_4_2H_2_O
Locality: Courtland-Gleesan area, Cochise County, Arizona, USA
Source: Dave Owen
Description: Pale pink massive
Raman shift (cm-1)	intensity
168.595	0
171.488	1.55981
174.381	7.62112
177.273	18.3938
180.166	25.329
183.059	32.4052
185.951	36.2822
188.844	38.4513
191.737	41.2902
194.629	47.0234
197.522	58.6091
200.415	76.1412
203.308	82.7349
206.2	58.0973
209.093	31.8747
211.986	16.6199
214.878	7.97316
217.771	3.32418
220.664	1.73768
223.556	0.557972
226.449	2.29615
229.342	2.96695
232.234	2.96367
235.127	2.14694
238.02	1.30251
240.913	5.73238
243.805	12.4404
246.698	20.8808
249.591	30.7785
252.483	45.1132
255.376	62.5219
258.269	67.5805
261.161	59.2081
264.054	41.9515
266.947	34.6433
269.84	35.3891
272.732	42.2977
275.625	52.2121
278.518	59.184
281.41	70.3422
284.303	84.4547
287.196	99.3859
290.089	100.439
292.981	77.7331
295.874	56.9367
298.767	51.2164
301.659	56.3318
304.552	67.0123
307.445	79.8622
310.337	87.0529
313.23	84.1775
316.123	74.0071
319.015	63.29
321.908	54.3466
324.801	49.7255
327.694	50.3304
330.586	50.5865
333.479	48.354
336.372	39.7065
339.264	28.8628
342.157	23.6935
345.05	20.0123
347.942	16.3606
350.835	10.6754
353.728	5.88802
356.621	0.31488
359.513	2.12997
362.406	1.98788
365.299	0.811813
368.191	4.27317
371.084	9.33814
373.977	15.1729
376.87	19.9747
379.762	27.953
382.655	36.0824
385.548	42.4007
388.44	47.1613
391.333	48.8974
394.226	51.3176
397.118	51.2878
400.011	45.8948
402.904	31.9729
405.796	19.9589
408.689	9.3688
411.582	1.36879
414.475	2.06673
417.367	1.60321
420.26	2.17976
423.153	0.632298
426.045	5.75434
428.938	10.1905
431.831	17.0333
434.724	27.3089
437.616	38.8153
440.509	53.6617
443.402	65.8294
446.294	79.8158
449.187	90.8611
452.08	95.2194
454.972	91.9388
457.865	83.4683
460.758	72.9816
463.651	67.0319
466.543	64.3877
469.436	65.4134
472.329	69.1585
475.221	75.5813
478.114	85.1444
481.007	92.7657
483.899	101.853
486.792	104.678
489.685	100.449
492.577	85.2235
495.47	69.8776
498.363	51.6499
501.256	37.2937
504.148	26.2751
507.041	14.916
509.934	8.98303
512.826	5.1727
515.719	1.48505
518.612	0.128605
521.505	1.51462
524.397	0.529594
527.29	0.164188
530.183	1.29081
533.075	3.94675
535.968	8.08808
538.861	9.94999
541.753	14.0271
544.646	18.5075
547.539	19.4347
550.432	20.5679
553.324	20.7026
556.217	18.2198
559.11	14.8226
562.002	13.9537
564.895	12.7744
567.788	10.8804
570.68	9.80073
573.573	8.43188
576.466	6.81062
579.359	4.94374
582.251	1.81619
585.144	2.43014
588.037	1.29344
590.929	0.992813
593.822	0.371557
596.715	0.653057
599.607	0.059969
602.5	0.532894
605.393	0.061977
608.285	0.172377
611.178	0.112581
614.071	0.030516
616.964	0.139776
619.856	0.449366
622.749	0.38117
625.642	0.344683
628.534	0.139874
631.427	0.612309
634.32	0.289427
637.212	0.088367
640.105	0.701687
642.998	0.796297
645.891	2.07737
648.783	1.98372
651.676	2.1044
654.569	2.98521
657.461	1.59601
660.354	1.91674
663.247	3.15182
666.139	2.26819
669.032	2.2315
671.925	2.28719
674.818	2.48266
677.71	2.04361
680.603	1.17096
683.496	1.85523
686.388	1.05324
689.281	1.20746
692.174	0.634995
695.067	0.562313
697.959	0.654593
700.852	0.338001
703.745	0.242813
706.637	0.885307
709.53	1.00934
712.423	0.212378
715.315	0.100004
718.208	0.128048
721.101	0.652504
723.994	0.427479
726.886	0.871384
729.779	1.31898
732.672	1.05786
735.564	1.21747
738.457	0.405409
741.35	1.39179
744.242	1.70212
747.135	2.44251
750.028	2.48977
752.92	3.19218
755.813	3.00552
758.706	2.45922
761.599	2.80452
764.491	2.72791
767.384	2.52188
770.277	1.93546
773.169	2.46907
776.062	2.18131
778.955	1.58717
781.847	1.87977
784.74	0.636072
787.633	0.918091
790.526	0.993856
793.418	0.779749
796.311	0.089939
799.204	0.028715
802.096	0.239105
804.989	0.858084
807.882	0.481794
810.774	0.132633
813.667	0.823669
816.56	1.00511
819.453	0.459038
822.345	0.854977
825.238	1.59741
828.131	2.27674
831.023	2.89368
833.916	4.22263
836.809	5.17016
839.702	5.70646
842.594	5.79434
845.487	7.67821
848.38	9.24961
851.272	10.3102
854.165	10.4965
857.058	11.6287
859.95	12.5221
862.843	11.8328
865.736	10.3932
868.629	8.59762
871.521	7.24829
874.414	6.48101
877.307	5.31201
880.199	4.13526
883.092	3.21251
885.985	2.10072
888.877	2.33986
891.77	2.99458
894.663	1.95181
897.556	1.98348
900.448	0.976856
903.341	1.75733
906.234	1.00961
909.126	0.06926
912.019	0.434185
914.912	0.581673
917.804	0.741552
920.697	1.1455
923.59	0.798216
926.482	1.67232
929.375	1.55497
932.268	0.110535
935.161	0.16898
938.053	0.687767
940.946	2.94744
943.839	4.67693
946.731	6.36286
949.624	9.78622
952.517	14.6383
955.409	22.4385
958.302	30.365
961.195	42.8038
964.088	59.9774
966.98	84.4585
969.873	122.395
972.766	178.251
975.658	259.465
978.551	362.007
981.444	474.094
984.337	561.533
987.229	568.936
990.122	528.958
993.015	488.659
995.907	450.239
998.8	414.401
1001.69	411.891
1004.59	451.858
1007.48	499.022
1010.37	502.176
1013.26	418.797
1016.16	314.746
1019.05	230.156
1021.94	184.68
1024.83	171.538
1027.73	183.417
1030.62	211.555
1033.51	227.782
1036.4	208.019
1039.3	155.118
1042.19	104.184
1045.08	71.0715
1047.98	48.239
1050.87	33.2542
1053.76	22.8547
1056.65	15.937
1059.55	11.5325
1062.44	7.01466
1065.33	3.83626
1068.22	2.10824
1071.12	1.49303
1074.01	0.378654
1076.9	1.11384
1079.8	1.74082
1082.69	1.25164
1085.58	1.03785
1088.47	1.65276
1091.37	1.545
1094.26	0.435482
1097.15	0.03529
1100.04	1.32915
1102.94	2.20242
1105.83	3.205
1108.72	4.22337
1111.62	6.64942
1114.51	7.22044
1117.4	7.77021
1120.29	8.14758
1123.19	7.71735
1126.08	6.15938
1128.97	5.7788
1131.86	4.79167
1134.76	3.48294
1137.65	2.92635
1140.54	2.00341
1143.43	2.33834
1146.33	1.94618
1149.22	1.15781
1152.11	1.06941
1155.01	0.618212
1157.9	0.208429
1160.79	0.541529
1163.68	1.25714
1166.58	1.10411
1169.47	0.922121
1172.36	1.84566
1175.26	1.15387
1178.15	1.01345
1181.04	0.892891
1183.93	1.36591
1186.83	2.17927
1189.72	1.27478
1192.61	0.806898
1195.5	1.42814
1198.4	1.45788
1201.29	1.91912
1204.18	1.31734
1207.07	0.919939
1209.97	1.34763
1212.86	1.37029
1215.75	0.950262
1218.64	1.61011
1221.54	1.29584
1224.43	1.28861
1227.32	0.052675
1230.22	1.17071
1233.11	1.098
1236	1.19237
1238.89	0.111729
1241.79	0.606701
1244.68	0.816113
1247.57	0.560184
1250.46	0.722328
1253.36	0.733511
1256.25	1.40756
1259.14	0.726898
1262.04	0.642464
1264.93	1.26147
1267.82	0.900652
1270.71	0.355753
1273.61	1.27545
1276.5	0.546545
1279.39	1.09262
1282.29	0.972216
1285.18	0.009109
1288.07	0.408983
1290.96	0.514418
1293.86	0.481592
1296.75	0.530617
1299.64	0.28595
1302.53	0.4349
