Measurement: Raman, 532 nm, unoriented, Raman Data Processed
Mineral: Phosphohedyphane
Rruff sample: R110037
Ideal chemistry: Ca_2_Pb_3_(PO_4_)_3_Cl
Locality: Blue Bell claims, Baker, San Bernardino Co., California, USA
Source: Brent Thorne
Description: Colorless hexagonal prisms with long pyramidal terminations
Raman shift (cm-1)	intensity
179.202	0
182.094	5.14642
184.987	18.6473
187.88	33.3102
190.773	45.2286
193.665	61.8209
196.558	68.8872
199.451	76.6564
202.343	77.296
205.236	64.6513
208.129	51.1364
211.021	43.7221
213.914	36.7242
216.807	33.7259
219.699	25.1287
222.592	17.0465
225.485	14.7465
228.377	6.83112
231.27	1.09503
234.163	1.26508
237.056	0.580139
239.948	3.17139
242.841	2.82574
245.734	1.38141
248.626	1.84888
251.519	2.80957
254.412	4.79498
257.305	3.83789
260.197	8.7298
263.09	5.35309
265.983	4.36395
268.875	6.08167
271.768	6.30756
274.661	8.37378
277.553	10.4974
280.446	9.58466
283.339	8.80804
286.232	1.71863
289.124	0.226685
292.017	3.35535
294.91	0.898071
297.802	1.40698
300.695	3.35217
303.588	2.29156
306.481	0.561584
309.373	0.387817
312.266	1.47479
315.159	1.48743
318.051	1.47669
320.944	2.35608
323.837	2.0069
326.729	0.771606
329.622	2.45935
332.515	1.94885
335.408	4.21936
338.3	6.58087
341.193	5.23267
344.086	3.69916
346.978	0.527161
349.871	4.48895
352.764	4.28339
355.656	4.14398
358.549	3.68835
361.442	10.0398
364.334	9.01886
367.227	11.1498
370.12	13.0519
373.012	21.0671
375.905	25.334
378.798	37.1951
381.691	53.9526
384.583	80.1937
387.476	111.11
390.369	150.477
393.261	183.04
396.154	204.066
399.047	189.812
401.94	150.366
404.832	120.413
407.725	104.089
410.618	105.381
413.51	127.357
416.403	148.256
419.296	171.657
422.188	202.464
425.081	226.517
427.974	242.319
430.866	236.016
433.759	217.048
436.652	182.624
439.545	142.065
442.437	106.537
445.33	77.8746
448.223	51.1031
451.115	37.7902
454.008	24.0246
456.901	16.8841
459.793	16.1342
462.686	15.5216
465.579	6.12622
468.472	3.01715
471.364	2.32092
474.257	1.00244
477.15	1.72821
480.042	1.09717
482.935	0.028442
485.828	2.06158
488.721	1.15912
491.613	1.91577
494.506	1.69232
497.399	2.63025
500.291	1.55188
503.184	0.825928
506.077	0.819885
508.969	4.96423
511.862	1.43872
514.755	1.84979
517.648	2.05212
520.54	1.86932
523.433	6.34668
526.326	8.7279
529.218	4.98511
532.111	8.17883
535.004	10.5018
537.896	14.34
540.789	20.6068
543.682	33.1584
546.575	43.7451
549.467	54.4327
552.36	66.6198
555.253	81.6324
558.145	71.4949
561.038	53.8661
563.931	49.7507
566.823	52.2147
569.716	61.709
572.609	70.5819
575.502	72.7631
578.394	84.2169
581.287	95.8043
584.18	112.903
587.072	126.714
589.965	124.043
592.858	120.519
595.75	104.969
598.643	65.1506
601.536	35.2892
604.428	21.1278
607.321	15.9864
610.214	16.2107
613.107	10.3962
615.999	5.49634
618.892	6.65723
621.785	3.40051
624.677	1.64191
627.57	0.264404
630.463	0.470276
633.356	1.29633
636.248	0.761108
639.141	3.01679
642.034	0.946655
644.926	0.288879
647.819	0.908569
650.712	0.414734
653.604	0.352722
656.497	0.576843
659.39	3.09418
662.283	1.78229
665.175	1.21545
668.068	1.30933
670.961	2.05627
673.853	4.25037
676.746	5.4295
679.639	1.36865
682.531	7.83972
685.424	6.14471
688.317	1.78802
691.21	4.52051
694.102	5.20673
696.995	7.25983
699.888	7.03888
702.78	1.62579
705.673	2.67749
708.566	5.39313
711.458	5.72369
714.351	0.020935
717.244	1.82452
720.136	0.738464
723.029	0.587402
725.922	4.76178
728.815	7.784
731.707	2.36346
734.6	3.89282
737.493	1.58649
740.385	3.3382
743.278	0.603577
746.171	1.15765
749.063	4.98602
751.956	4.78711
754.849	3.75678
757.742	8.87646
760.634	3.08344
763.527	6.19208
766.42	9.97382
769.312	8.26312
772.205	7.21594
775.098	4.77393
777.99	12.8326
780.883	14.1048
783.776	13.0889
786.669	10.2734
789.561	12.6388
792.454	14.5312
795.347	22.2811
798.239	13.8229
801.132	14.5819
804.025	13.9857
806.918	14.1782
809.81	16.0932
812.703	12.2427
815.596	17.5294
818.488	17.6054
821.381	22.8353
824.274	23.5865
827.166	22.6827
830.059	21.4911
832.952	25.8445
835.845	19.3378
838.737	17.8347
841.63	14.7924
844.523	17.229
847.415	14.3008
850.308	14.7526
853.201	12.8748
856.093	15.6527
858.986	14.9055
861.879	11.1852
864.771	4.52039
867.664	0.130798
870.557	0.635071
873.45	0.455566
876.342	1.31866
879.235	4.69385
882.128	1.76178
885.02	0.732178
887.913	2.35175
890.806	0.905762
893.698	4.11114
896.591	0.891968
899.484	1.0802
902.377	6.16534
905.269	22.9542
908.162	51.5829
911.055	92.1362
913.947	164.256
916.84	281.047
919.733	434.142
922.625	608.151
925.518	744.542
928.411	773.963
931.304	673.914
934.196	508.591
937.089	341.474
939.982	270.183
942.875	251.098
945.767	283.538
948.66	345.466
951.553	437.865
954.445	529.622
957.338	621.108
960.231	706.33
963.123	774.752
966.016	795.913
968.909	781.525
971.802	746.467
974.694	681.368
977.587	555.89
980.48	421.155
983.372	335.321
986.265	286.011
989.158	240.117
992.05	189.931
994.943	148.196
997.836	105.678
1000.73	75.507
1003.62	46.052
1006.51	28.8416
1009.41	14.2518
1012.3	4.66412
1015.19	6.66577
1018.09	5.74182
1020.98	3.68652
1023.87	3.71411
1026.76	1.1546
1029.66	5.87122
1032.55	13.7073
1035.44	22.0432
1038.33	23.0919
1041.23	27.5563
1044.12	35.4518
1047.01	43.3048
1049.9	54.4692
1052.8	70.4057
1055.69	81.6299
1058.58	97.2334
1061.47	106.085
1064.37	115.205
1067.26	112.816
1070.15	111.994
1073.05	97.3912
1075.94	76.2205
1078.83	57.0005
1081.72	45.2188
1084.62	36.4065
1087.51	23.6219
1090.4	20.6603
1093.3	15.1092
1096.19	13.7076
1099.08	12.9489
1101.97	8.41675
1104.87	3.63415
1107.76	2.91571
1110.65	0.652405
1113.54	1.552
1116.44	0.717834
1119.33	2.20007
1122.22	2.31549
1125.12	3.45599
1128.01	0.210632
1130.9	1.78625
1133.79	1.73706
1136.68	3.47705
1139.58	5.75104
1142.47	5.44946
1145.36	7.85779
1148.26	9.62824
1151.15	9.02667
1154.04	14.229
1156.93	13.6352
1159.83	14.0555
1162.72	14.54
1165.61	16.1788
1168.51	18.1915
1171.4	18.3913
1174.29	16.3221
1177.18	21.1432
1180.08	18.208
1182.97	13.9213
1185.86	17.4101
1188.75	16.6708
1191.65	14.5943
1194.54	8.96497
1197.43	11.29
1200.33	12.7961
1203.22	6.95172
1206.11	11.0837
1209	12.0911
1211.9	12.2771
1214.79	10.1792
1217.68	7.87817
1220.57	7.27203
1223.47	7.5387
1226.36	4.44843
1229.25	2.06464
1232.14	7.08643
1235.04	0.09491
1237.93	3.9469
1240.82	3.85681
1243.71	2.6134
1246.61	0.189636
1249.5	1.87103
1252.39	6.42725
1255.29	2.45935
1258.18	3.41949
1261.07	4.84387
1263.96	5.66888
1266.86	4.95441
1269.75	6.47601
1272.64	4.31036
1275.54	6.92712
1278.43	1.9483
1281.32	1.37329
1284.21	5.09528
1287.11	4.1441
1290	4.05908
1292.89	0.25592
1295.78	5.30408
1298.68	6.46344
1301.57	1.30487
