Measurement: Raman, 532 nm, unoriented, Raman Data Processed
Mineral: Phosphoferrite
Rruff sample: R140624
Ideal chemistry: Fe^2+^_3_(PO_4_)_2_3H_2_O
Locality: Hagendorf, Waidhaus, Vohenstrauß, Oberpfälzer Wald, Upper Palatinate, Bavaria, Germany
Source: Rob Lavinsky
Description: Euhedral dark-grey zoned crystals with striations. Interior is colorless, clear, and exterior is dark brown. This sample represents the exterior, the interior is R130690. It could be kryzhanovskite
Raman shift (cm-1)	intensity
95.0865	0
98.4613	3.55634
101.836	6.29323
105.211	18.824
108.586	42.9499
111.961	67.9355
115.335	90.3319
118.71	102.438
122.085	104.851
125.46	83.9893
128.835	65.7633
132.209	53.2621
135.584	43.4001
138.959	36.7086
142.334	21.9265
145.709	19.6956
149.084	18.6425
152.458	31.6502
155.833	47.1271
159.208	68.158
162.583	95.9587
165.958	113.052
169.333	111.552
172.707	90.4617
176.082	68.021
179.457	52.005
182.832	47.5
186.207	37.733
189.581	33.5622
192.956	24.452
196.331	14.9708
199.706	11.0087
203.081	2.93835
206.455	3.60953
209.83	2.36096
213.205	1.21043
216.58	3.23079
219.955	8.8689
223.329	16.5007
226.704	19.4822
230.079	21.5748
233.454	16.7845
236.829	9.04961
240.204	4.64491
243.578	1.29916
246.953	1.11281
250.328	0.723038
253.703	3.81137
257.078	11.1208
260.452	13.5119
263.827	20.317
267.202	24.853
270.577	24.3377
273.952	21.3883
277.327	16.08
280.701	16.1914
284.076	14.1833
287.451	11.8296
290.826	13.5826
294.201	13.3303
297.575	13.5359
300.95	16.7637
304.325	18.239
307.7	16.021
311.075	17.0906
314.45	13.3675
317.824	10.1045
321.199	6.18199
324.574	7.26282
327.949	7.56523
331.324	4.4171
334.699	4.77579
338.073	2.86476
341.448	0.75087
344.823	0.851448
348.198	0.080498
351.573	1.09665
354.947	0.111786
358.322	1.16253
361.697	3.56915
365.072	2.64194
368.447	3.80581
371.822	2.19744
375.196	0.466766
378.571	0.464157
381.946	0.861626
385.321	0.437523
388.696	1.32745
392.07	2.06969
395.445	2.00671
398.82	3.95241
402.195	9.20053
405.57	14.1885
408.945	16.9589
412.319	16.1236
415.694	17.9883
419.069	14.8516
422.444	13.0727
425.818	15.3096
429.193	9.12881
432.568	7.20596
435.943	11.8022
439.318	8.92865
442.693	18.1102
446.067	19.1386
449.442	22.8974
452.817	22.9889
456.192	24.8858
459.567	23.0447
462.942	20.1059
466.316	14.9335
469.691	16.4202
473.066	20.6924
476.441	16.8634
479.816	16.1928
483.19	15.6054
486.565	14.977
489.94	9.25944
493.315	7.02396
496.69	3.75407
500.065	4.12466
503.439	0.619278
506.814	0.340485
510.189	0.546509
513.564	0.734833
516.939	1.45874
520.313	1.06084
523.688	4.34503
527.063	9.25455
530.438	11.9079
533.813	15.1443
537.188	22.2924
540.562	23.9019
543.937	30.9514
547.312	36.4747
550.687	40.209
554.062	45.53
557.436	50.3411
560.811	54.0441
564.186	56.1307
567.561	58.6357
570.936	57.0401
574.311	56.6495
577.685	63.3073
581.06	68.1524
584.435	79.0888
587.81	89.0617
591.185	86.8498
594.559	77.5256
597.934	69.7863
601.309	62.0812
604.684	48.6623
608.059	40.4492
611.433	30.1103
614.808	24.0117
618.183	16.6313
621.558	10.8178
624.933	8.16745
628.308	2.67542
631.682	3.30105
635.057	1.70521
638.432	1.63616
641.807	0.846657
645.182	0.896164
648.557	0.650848
651.931	1.81218
655.306	1.24773
658.681	1.79826
662.056	0.869881
665.431	1.20281
668.805	1.68093
672.18	0.808548
675.555	3.24942
678.93	5.16767
682.305	2.43654
685.679	2.96557
689.054	4.09163
692.429	2.88983
695.804	3.76467
699.179	3.63971
702.553	3.50426
705.928	3.26182
709.303	4.30563
712.678	4.18571
716.053	2.38099
719.428	3.11735
722.802	3.47179
726.177	4.04735
729.552	3.28782
732.927	2.54254
736.302	2.87361
739.677	1.26063
743.051	5.8662
746.426	2.35594
749.801	2.68093
753.176	5.56384
756.551	4.14622
759.925	1.78171
763.3	5.35636
766.675	3.3555
770.05	3.44871
773.425	3.26017
776.799	1.05821
780.174	1.73401
783.549	1.01354
786.924	3.02912
790.299	0.935478
793.674	0.237144
797.048	1.55666
800.423	2.03027
803.798	3.31177
807.173	2.92651
810.548	2.65197
813.923	2.981
817.297	1.88545
820.672	4.96841
824.047	3.4393
827.422	4.43788
830.797	5.31335
834.171	5.55075
837.546	1.47731
840.921	3.74909
844.296	4.61276
847.671	5.66723
851.045	5.26759
854.42	7.05176
857.795	5.39614
861.17	4.29641
864.545	2.07761
867.92	4.9284
871.294	3.34329
874.669	2.51385
878.044	2.72506
881.419	2.45221
884.794	0.564949
888.168	2.18214
891.543	4.39087
894.918	1.41213
898.293	0.302307
901.668	0.342545
905.043	0.87014
908.417	0.430527
911.792	0.608696
915.167	2.09135
918.542	2.68143
921.917	5.24786
925.291	5.91512
928.666	10.6023
932.041	14.789
935.416	20.5307
938.791	34.1327
942.165	45.2909
945.54	65.9099
948.915	93.9606
952.29	136.517
955.665	196.342
959.04	272.238
962.414	360.607
965.789	403.152
969.164	381.702
972.539	302.825
975.914	207.778
979.288	140.033
982.663	107.772
986.038	88.7885
989.413	74.0037
992.788	62.8355
996.163	56.2441
999.537	52.8592
1002.91	47.697
1006.29	45.18
1009.66	37.2306
1013.04	25.3014
1016.41	15.8969
1019.79	3.52618
1023.16	0.804184
1026.54	4.53918
1029.91	0.221695
1033.29	2.75778
1036.66	6.90913
1040.04	12.6199
1043.41	20.2142
1046.79	21.2012
1050.16	23.9476
1053.53	35.9575
1056.91	43.2652
1060.28	51.8002
1063.66	47.345
1067.03	28.6354
1070.41	16.6141
1073.78	6.51041
1077.16	6.42999
1080.53	7.12785
1083.91	12.4144
1087.28	16.2005
1090.66	14.6012
1094.03	9.77235
1097.41	10.8991
1100.78	9.06415
1104.16	6.76375
1107.53	6.39137
1110.91	4.15869
1114.28	2.69347
1117.66	1.58272
1121.03	5.27708
1124.41	5.25587
1127.78	2.71242
1131.15	0.228935
1134.53	0.224236
1137.9	0.626717
1141.28	0.175453
1144.65	1.08888
1148.03	1.79309
1151.4	3.23135
1154.78	1.63889
1158.15	0.329247
1161.53	1.84214
1164.9	1.89863
1168.28	2.4836
1171.65	3.47765
1175.03	4.56721
1178.4	2.54007
1181.78	5.10648
1185.15	5.6795
1188.53	8.51277
1191.9	7.03704
1195.28	5.05817
1198.65	2.41238
1202.03	6.51077
1205.4	3.42475
1208.78	10.5549
1212.15	7.82089
1215.53	4.48847
1218.9	1.85507
1222.28	1.66645
1225.65	3.51757
1229.03	2.66934
1232.4	3.43109
1235.78	2.72115
1239.15	2.64222
1242.52	3.29069
1245.9	2.91449
1249.27	4.13119
1252.65	1.15593
1256.02	2.66109
1259.4	0.386452
1262.77	2.241
1266.15	1.71552
1269.52	4.62277
1272.9	3.65295
1276.27	1.16877
1279.65	3.22583
1283.02	3.54579
1286.4	0.226265
1289.77	2.22664
1293.15	1.29827
1296.52	2.23849
1299.9	0.674408
