Measurement: Raman, 780 nm, unoriented, Raman Data Processed
Mineral: Phosphoferrite
Rruff sample: R130690
Ideal chemistry: Fe^2+^_3_(PO_4_)_2_3H_2_O
Locality: Hagendorf, Waidhaus, Vohenstrauß, Oberpfälzer Wald, Upper Palatinate, Bavaria, Germany
Source: Rob Lavinsky
Description: Euhedral dark-grey zoned crystals with striations. Interior is colorless, clear, and exterior is dark greay.
Raman shift (cm-1)	intensity
208.836	0
211.729	0.022438
214.621	0.919617
217.514	1.30099
220.407	2.5898
223.299	4.88193
226.192	7.73999
229.085	9.87087
231.978	9.63991
234.87	7.40899
237.763	5.8033
240.656	3.3843
243.548	2.82599
246.441	2.43481
249.334	1.53333
252.226	1.71284
255.119	3.9633
258.012	6.23711
260.904	10.3074
263.797	13.092
266.69	15.7137
269.583	16.9786
272.475	16.085
275.368	14.7851
278.261	12.3675
281.153	11.6866
284.046	10.4565
286.939	10.7463
289.832	8.94113
292.724	8.21906
295.617	8.88927
298.51	7.52805
301.402	8.2505
304.295	8.24708
307.188	8.38413
310.08	8.67951
312.973	9.50666
315.866	8.93438
318.759	8.7187
321.651	7.38953
324.544	6.0257
327.437	4.74522
330.329	3.62796
333.222	3.12055
336.115	2.29979
339.007	1.47997
341.9	1.42008
344.793	0.604481
347.685	0.644131
350.578	0.595818
353.471	0.408928
356.364	0.175068
359.256	0.386848
362.149	0.473663
365.042	0.429893
367.934	1.21488
370.827	1.13575
373.72	1.99797
376.613	0.782181
379.505	0.158791
382.398	0.330662
385.291	0.241554
388.183	0.212406
391.076	0.769688
393.969	1.02217
396.861	2.10231
399.754	2.37073
402.647	3.36025
405.539	5.30642
408.432	5.11671
411.325	5.7538
414.217	5.19365
417.11	4.35429
420.003	4.12109
422.896	5.26012
425.788	2.53985
428.681	2.13772
431.574	1.89118
434.466	2.78795
437.359	3.36869
440.252	5.09471
443.144	7.35638
446.037	7.61098
448.93	9.54215
451.823	10.0949
454.715	10.383
457.608	9.77095
460.501	8.92342
463.393	8.35576
466.286	6.94511
469.179	7.1874
472.072	6.99009
474.964	5.8192
477.857	5.97702
480.75	5.93701
483.642	5.36993
486.535	3.77652
489.428	3.7123
492.32	2.06383
495.213	0.952999
498.106	0.236076
500.998	0.481712
503.891	0.554356
506.784	0.855175
509.677	0.298855
512.569	0.508034
515.462	0.458736
518.355	2.0032
521.247	2.89235
524.14	4.32856
527.033	4.85265
529.926	7.10105
532.818	7.68498
535.711	8.87012
538.604	11.3281
541.496	13.1636
544.389	15.0748
547.282	17.3065
550.174	18.4613
553.067	20.3379
555.96	21.7003
558.852	22.1773
561.745	23.5228
564.638	23.0996
567.53	22.2675
570.423	20.3828
573.316	19.518
576.209	18.5864
579.101	19.2491
581.994	19.8669
584.887	22.4344
587.779	24.6809
590.672	24.9167
593.565	23.4952
596.457	21.2114
599.35	17.9401
602.243	16.6386
605.136	14.4586
608.028	11.2185
610.921	9.14077
613.814	6.86747
616.706	5.25437
619.599	4.56522
622.492	3.14229
625.385	2.02124
628.277	1.56006
631.17	1.61528
634.063	0.097569
636.955	0.157227
639.848	0.243912
642.741	0.046768
645.633	0.291737
648.526	0.097839
651.419	0.355515
654.312	0.120911
657.204	0.049686
660.097	0.06229
662.99	0.36536
665.882	2.36849
668.775	0.682667
671.668	0.907682
674.56	0.873095
677.453	0.392849
680.346	1.41571
683.239	1.3341
686.131	0.961164
689.024	1.21429
691.917	1.97944
694.809	1.68622
697.702	1.37999
700.595	1.11669
703.487	1.75937
706.38	1.11939
709.273	1.01727
712.165	1.1629
715.058	0.696064
717.951	0.021927
720.843	0.462095
723.736	0.999065
726.629	0.254656
729.522	0.8808
732.414	0.180597
735.307	1.17807
738.2	1.04038
741.092	0.432619
743.985	0.63633
746.878	1.17108
749.77	0.928677
752.663	1.15611
755.556	1.63291
758.449	0.812803
761.341	0.670671
764.234	1.13236
767.127	0.616808
770.019	0.571905
772.912	0.354969
775.805	0.241751
778.697	0.047056
781.59	0.373148
784.483	0.148203
787.376	0.263796
790.268	0.538412
793.161	0.496088
796.054	0.201998
798.946	0.378706
801.839	0.752401
804.732	0.170794
807.625	0.574686
810.517	0.679001
813.41	1.76379
816.303	1.23717
819.195	1.57596
822.088	1.23955
824.981	1.83375
827.873	1.93091
830.766	1.80071
833.659	2.0231
836.552	1.48907
839.444	1.64354
842.337	1.64195
845.23	2.17365
848.122	1.95607
851.015	2.53139
853.908	1.98005
856.8	2.2489
859.693	1.6672
862.586	2.05089
865.479	1.09782
868.371	2.03269
871.264	1.44619
874.157	0.87607
877.049	0.743534
879.942	0.583313
882.835	0.957611
885.727	1.19369
888.62	0.357172
891.513	0.070715
894.405	0.408665
897.298	0.284138
900.191	0.152653
903.083	0.10001
905.976	0.788731
908.869	0.21699
911.762	0.38862
914.654	0.355389
917.547	0.350468
920.44	0.240166
923.332	1.23152
926.225	2.10456
929.118	3.48766
932.01	4.37378
934.903	6.75631
937.796	10.744
940.689	14.3053
943.581	19.2491
946.474	27.6958
949.367	38.7431
952.259	53.1755
955.152	72.0072
958.045	99.5399
960.937	127.376
963.83	151.979
966.723	157.293
969.615	141.127
972.508	113.462
975.401	79.4358
978.294	54.6588
981.186	39.5887
984.079	30.5543
986.972	25.8985
989.864	23.1995
992.757	21.5139
995.65	20.6373
998.543	21.0065
1001.43	21.1775
1004.33	20.6201
1007.22	19.786
1010.11	16.9912
1013.01	12.9109
1015.9	8.57479
1018.79	5.38945
1021.68	1.98929
1024.58	0.932621
1027.47	0.420979
1030.36	0.560673
1033.26	0.605778
1036.15	2.09042
1039.04	3.46771
1041.93	5.90931
1044.83	7.8905
1047.72	9.00259
1050.61	7.79981
1053.5	6.62399
1056.4	6.05082
1059.29	7.28949
1062.18	6.76078
1065.08	5.5642
1067.97	2.60723
1070.86	1.32919
1073.75	0.20372
1076.64	0.36972
1079.54	1.23074
1082.43	0.356977
1085.32	0.058239
1088.22	1.78783
1091.11	1.14342
1094	2.13319
1096.89	2.10694
1099.79	1.83404
1102.68	2.17135
1105.57	1.16813
1108.46	1.83602
1111.36	1.25403
1114.25	1.98879
1117.14	1.86101
1120.04	2.34802
1122.93	2.1343
1125.82	1.67234
1128.71	1.61214
1131.61	0.774061
1134.5	1.1175
1137.39	0.307283
1140.29	0.767569
1143.18	0.374914
1146.07	0.507692
1148.96	0.550449
1151.86	0.051041
1154.75	0.082891
1157.64	0.111446
1160.53	0.481281
1163.43	0.13084
1166.32	0.948622
1169.21	1.01771
1172.1	1.01184
1175	0.453026
1177.89	1.35156
1180.78	1.14961
1183.67	1.38785
1186.57	1.46747
1189.46	1.36246
1192.35	1.48992
1195.25	1.71395
1198.14	1.46781
1201.03	1.91965
1203.92	1.65105
1206.82	1.88295
1209.71	1.70211
1212.6	1.00191
1215.49	1.47163
1218.39	0.999315
1221.28	1.1479
1224.17	0.97184
1227.07	0.848644
1229.96	0.551315
1232.85	0.049337
1235.74	0.528927
1238.64	0.305542
1241.53	0.676064
1244.42	0.067976
1247.32	0.458279
1250.21	0.105707
1253.1	0.642923
1255.99	0.421978
1258.88	0.289055
1261.78	0.330872
1264.67	0.108475
1267.56	0.056828
1270.46	0.580179
1273.35	0.313381
1276.24	0.085485
1279.13	0.534256
1282.03	0.19318
