Measurement: Raman, 780 nm, unoriented, Raman Data Processed
Mineral: Phosphophyllite
Rruff sample: R050224
Ideal chemistry: Zn_2_Fe^2+^(PO_4_)_2_4H_2_O
Locality: Unificada mine, Cerro Rico, Potosi, Bolivia
Source: Marcus Origlieri
Description: Pale blue single crystal fragments
Measured chemistry: Zn_2.00_Fe^2+^_1.00_(P_1.00_O_4_)_2_Â·4H_2_O
Raman shift (cm-1)	intensity
107.781	0
111.156	96.6579
114.531	227.262
117.906	193.54
121.281	87.417
124.655	45.4201
128.03	39.935
131.405	40.5199
134.78	29.5821
138.155	14.935
141.529	5.17897
144.904	2.01826
148.279	5.75464
151.654	6.9951
155.029	4.02237
158.404	1.24373
161.778	3.14751
165.153	7.62954
168.528	23.6419
171.903	41.0967
175.278	55.7757
178.652	66.9399
182.027	70.0425
185.402	67.0525
188.777	63.0676
192.152	62.9488
195.526	68.7329
198.901	71.1664
202.276	62.0061
205.651	52.4849
209.026	47.6482
212.401	53.2787
215.775	61.6974
219.15	72.6765
222.525	78.0424
225.9	68.4128
229.275	45.7268
232.649	25.7772
236.024	11.8616
239.399	4.55109
242.774	2.64432
246.149	5.15875
249.524	10.3348
252.898	17.8135
256.273	26.3661
259.648	33.7911
263.023	33.5718
266.398	27.0408
269.772	17.5872
273.147	9.08496
276.522	3.00501
279.897	0.43605
283.272	0.138405
286.647	3.84604
290.021	12.3337
293.396	24.0132
296.771	40.5814
300.146	63.2974
303.521	93.5287
306.895	128.514
310.27	168.894
313.645	215.593
317.02	260.551
320.395	292.767
323.769	281.392
327.144	233.089
330.519	171.665
333.894	117.498
337.269	77.6505
340.644	51.8795
344.018	34.3098
347.393	22.5065
350.768	15.0029
354.143	8.76356
357.518	4.82666
360.892	2.22781
364.267	0.007065
367.642	1.54949
371.017	1.45966
374.392	2.13628
377.767	1.47245
381.141	0.472332
384.516	0.783703
387.891	2.84159
391.266	5.76088
394.641	8.80293
398.015	12.8017
401.39	16.7168
404.765	21.4912
408.14	27.2454
411.515	31.0303
414.889	31.7131
418.264	28.0273
421.639	21.8453
425.014	15.8891
428.389	10.7619
431.764	7.89448
435.138	5.47933
438.513	3.46649
441.888	2.80434
445.263	1.84434
448.638	1.6304
452.012	1.36485
455.387	1.3432
458.762	1.46869
462.137	1.45857
465.512	1.89119
468.887	2.03382
472.261	2.19472
475.636	2.95567
479.011	3.37799
482.386	3.73366
485.761	5.23364
489.135	5.23583
492.51	7.05379
495.885	7.81708
499.26	8.57522
502.635	8.35814
506.01	6.72463
509.384	5.59597
512.759	4.04387
516.134	2.87363
519.509	0.839241
522.884	0.483185
526.259	0.269621
529.633	0.970621
533.008	0.456146
536.383	0.025293
539.758	0.567759
543.133	1.44212
546.507	2.64926
549.882	4.57753
553.257	7.56408
556.632	10.2975
560.007	15.6236
563.381	21.3842
566.756	28.0076
570.131	36.9176
573.506	44.2873
576.881	50.0377
580.256	56.1106
583.63	62.7503
587.005	67.3708
590.38	67.7649
593.755	63.799
597.13	55.2484
600.504	45.3546
603.879	35.8772
607.254	27.7805
610.629	21.5272
614.004	16.8942
617.379	14.4807
620.753	12.8591
624.128	11.9765
627.503	11.4838
630.878	12.2826
634.253	11.3845
637.627	9.20508
641.002	7.37853
644.377	5.90932
647.752	4.05775
651.127	1.99686
654.501	1.31715
657.876	0.187553
661.251	0.594906
664.626	0.15336
668.001	0.256344
671.375	0.460365
674.75	0.154665
678.125	0.165735
681.5	0.347748
684.875	0.482635
688.25	0.152174
691.625	0.389629
694.999	0.719292
698.374	0.145248
701.749	0.962488
705.124	1.06027
708.499	1.19171
711.873	1.32807
715.248	1.98505
718.623	2.12316
721.998	1.75935
725.373	1.72105
728.747	2.12689
732.122	1.82202
735.497	1.93908
738.872	2.04489
742.247	1.86755
745.621	1.72666
748.996	1.90177
752.371	1.91024
755.746	1.70559
759.121	1.88236
762.496	2.21542
765.87	1.97148
769.245	1.78252
772.62	1.83624
775.995	1.94951
779.37	1.77203
782.745	1.76793
786.119	1.79082
789.494	1.66508
792.869	1.35702
796.244	1.58836
799.619	1.50178
802.993	1.5771
806.368	1.47346
809.743	1.87219
813.118	1.93463
816.493	1.77659
819.867	1.9027
823.242	2.22461
826.617	1.80329
829.992	2.20507
833.367	1.85928
836.742	1.15027
840.116	1.36885
843.491	1.0169
846.866	1.05057
850.241	0.970652
853.616	0.224607
856.99	0.252726
860.365	0.234501
863.74	0.333305
867.115	0.515583
870.49	0.53289
873.865	0.529089
877.239	0.488632
880.614	0.338842
883.989	0.470402
887.364	0.111414
890.739	0.775034
894.114	1.61041
897.488	2.39604
900.863	3.18313
904.238	5.45437
907.613	6.78186
910.987	9.9458
914.362	14.9106
917.737	22.5648
921.112	34.4492
924.487	52.1986
927.862	74.7895
931.236	102.634
934.611	133.133
937.986	140.09
941.361	98.0892
944.736	52.967
948.111	27.7794
951.485	16.1495
954.86	11.7937
958.235	11.6487
961.61	13.0761
964.985	17.654
968.359	24.9835
971.734	38.5953
975.109	61.6728
978.484	104.369
981.859	176.411
985.234	273.597
988.608	405.027
991.983	577.511
995.358	650.196
998.733	428.589
1002.11	215.691
1005.48	107.114
1008.86	56.7414
1012.23	32.6776
1015.61	18.6883
1018.98	10.3863
1022.36	5.63904
1025.73	2.32863
1029.11	0.724924
1032.48	0.876762
1035.86	1.09155
1039.23	0.989021
1042.61	1.3199
1045.98	0.210159
1049.36	1.71651
1052.73	3.80962
1056.11	6.9706
1059.48	12.0575
1062.85	20.032
1066.23	29.2527
1069.6	38.2935
1072.98	38.558
1076.35	28.3666
1079.73	16.9353
1083.1	9.9966
1086.48	6.45465
1089.85	3.832
1093.23	2.07819
1096.6	1.01108
1099.98	0.189846
1103.35	0.292208
1106.73	0.343401
1110.1	1.19536
1113.48	2.60006
1116.85	4.41252
1120.23	7.34345
1123.6	10.5349
1126.98	15.7219
1130.35	20.9093
1133.72	24.1909
1137.1	23.3809
1140.47	18.0808
1143.85	12.3292
1147.22	8.51994
1150.6	5.97496
1153.97	4.72872
1157.35	3.19881
1160.72	2.32192
1164.1	1.72245
1167.47	1.54646
1170.85	0.893218
1174.22	0.687681
1177.6	0.7007
1180.97	0.289003
1184.35	0.271463
1187.72	0.291723
1191.1	0.360397
1194.47	0.114279
1197.85	0.139076
1201.22	0.13123
1204.6	0.097734
1207.97	0.022701
1211.35	0.112741
1214.72	0.196657
1218.1	0.098554
1221.47	0.062185
1224.85	0.100116
1228.22	0.597882
1231.6	0.174683
1234.97	0.578845
1238.35	0.521342
1241.72	0.410228
1245.09	0.405252
1248.47	0.381603
1251.84	0.490252
1255.22	0.150243
1258.59	0.346395
1261.97	0.337851
1265.34	0.610974
1268.72	0.353819
1272.09	0
