Measurement: Raman, 780 nm, unoriented, Raman Data Processed
Mineral: Phosphosiderite
Rruff sample: R110090
Ideal chemistry: Fe^3+^PO_4_2H_2_O
Locality: Courtland-Gleesan area, Cochise County, Arizona, USA
Source: Dave Owen
Description: Pale pink massive
Raman shift (cm-1)	intensity
172.117	0
175.01	5.50767
177.902	23.8524
180.795	43.4284
183.688	59.3077
186.581	64.7826
189.473	72.9925
192.366	84.275
195.259	117.247
198.151	158.381
201.044	204.049
203.937	188.506
206.829	116.665
209.722	53.3395
212.615	25.3263
215.507	8.49529
218.4	5.57007
221.293	0.678162
224.186	2.69048
227.078	4.15898
229.971	5.93509
232.864	4.66168
235.756	0.768417
238.649	11.2847
241.542	24.7126
244.435	40.216
247.327	61.9563
250.22	90.4483
253.113	127.097
256.005	160.695
258.898	159.15
261.791	122.426
264.683	91.8369
267.576	85.76
270.469	96.2906
273.361	106.069
276.254	115.74
279.147	138.306
282.04	171.295
284.932	214.027
287.825	238.128
290.718	213.474
293.61	155.463
296.503	120.872
299.396	120.231
302.288	139.82
305.181	169.209
308.074	199.243
310.967	205.168
313.859	191.942
316.752	164.343
319.645	138.014
322.537	122.667
325.43	123.405
328.323	125.441
331.216	123.877
334.108	107.853
337.001	83.5945
339.894	62.2295
342.786	51.0156
345.679	42.1103
348.572	33.1232
351.464	19.8551
354.357	4.26926
357.25	2.9119
360.142	4.35188
363.035	1.78139
365.928	6.33911
368.821	16.8666
371.713	27.7354
374.606	41.3477
377.499	57.1178
380.391	74.254
383.284	86.7413
386.177	97.5704
389.07	105.739
391.962	113.65
394.855	122.654
397.748	120.835
400.64	101.53
403.533	65.7951
406.426	38.323
409.318	13.7192
412.211	0.598007
415.104	4.44821
417.997	6.19656
420.889	3.26001
423.782	1.79291
426.675	11.1204
429.567	26.3849
432.46	40.5315
435.353	60.6207
438.245	84.479
441.138	113.296
444.031	139.14
446.923	166.163
449.816	181.156
452.709	185.397
455.602	168.244
458.494	153.302
461.387	136.351
464.28	128.913
467.172	128.928
470.065	140.053
472.958	148.889
475.851	161.214
478.743	181.344
481.636	202.476
484.529	215.117
487.421	212.332
490.314	196.24
493.207	162.474
496.099	125.929
498.992	94.3228
501.885	62.8824
504.777	41.4273
507.67	26.0005
510.563	13.9949
513.456	4.92953
516.348	1.83125
519.241	0.181107
522.134	2.55969
525.026	0.788879
527.919	0.968781
530.812	6.31067
533.705	12.0642
536.597	20.1259
539.49	28.6654
542.383	34.0357
545.275	40.5405
548.168	42.924
551.061	41.9371
553.953	40.5135
556.846	35.0523
559.739	32.9504
562.631	27.3491
565.524	25.4867
568.417	22.9945
571.31	18.2884
574.202	15.4126
577.095	12.7071
579.988	7.54283
582.88	5.2234
585.773	2.93072
588.666	1.78642
591.558	0.993408
594.451	1.5395
597.344	1.71048
600.237	0.204163
603.129	0.079514
606.022	1.33817
608.915	0.09433
611.807	0.643097
614.7	0.235092
617.593	0.193237
620.486	2.03545
623.378	0.694946
626.271	2.05435
629.164	3.63533
632.056	1.16382
634.949	1.83362
637.842	2.33195
640.734	2.22317
643.627	2.58546
646.52	4.66278
649.413	4.9071
652.305	7.49252
655.198	3.76216
658.091	6.20962
660.983	6.77483
663.876	6.43271
666.769	6.39015
669.661	3.31442
672.554	5.08098
675.447	6.10379
678.34	1.41756
681.232	3.00636
684.125	1.55647
687.018	3.0059
689.91	1.24434
692.803	0.761368
695.696	1.69119
698.588	1.55576
701.481	0.408386
704.374	0.034119
707.266	0.368744
710.159	0.229019
713.052	0.290207
715.945	0.457672
718.837	0.008011
721.73	1.01073
724.623	0.139511
727.515	1.44826
730.408	0.927322
733.301	2.72577
736.193	0.434418
739.086	0.504181
741.979	0.969772
744.872	2.06432
747.764	5.17659
750.657	5.51134
753.55	5.48144
756.442	3.54302
759.335	4.79947
762.228	4.81801
765.12	3.10356
768.013	3.95871
770.906	2.60959
773.799	4.02916
776.691	3.05833
779.584	2.61896
782.477	2.79571
785.369	3.05858
788.262	2.17007
791.155	2.64749
794.048	1.64557
796.94	2.9151
799.833	0.842163
802.726	0.104645
805.618	1.52177
808.511	1.38893
811.404	1.24635
814.296	1.42931
817.189	0.589539
820.082	2.87192
822.975	4.86955
825.867	4.69444
828.76	5.2904
831.653	8.9745
834.545	8.20177
837.438	10.2798
840.331	11.9625
843.223	12.6731
846.116	16.6513
849.009	16.6651
851.902	19.539
854.794	20.8435
857.687	21.8478
860.58	21.995
863.472	19.545
866.365	17.4542
869.258	13.7114
872.15	12.9774
875.043	10.9598
877.936	8.83638
880.829	7.41013
883.721	5.81923
886.614	5.95224
889.507	4.05176
892.399	4.65379
895.292	1.81256
898.185	2.99661
901.077	2.97601
903.97	3.27867
906.863	0.495453
909.756	3.54399
912.648	0.511017
915.541	1.04808
918.434	4.76417
921.326	2.48549
924.219	1.47772
927.112	3.44151
930.005	2.17816
932.897	1.54228
935.79	0.769257
938.683	2.63371
941.575	4.74332
944.468	6.729
947.361	12.9979
950.253	18.1146
953.146	28.3118
956.039	41.6682
958.932	56.5399
961.824	77.6767
964.717	108.131
967.61	156.399
970.502	230.552
973.395	327.552
976.288	457.891
979.18	625.438
982.073	807.063
984.966	881.252
987.859	847.864
990.751	792.69
993.644	746.839
996.537	673.536
999.429	620.063
1002.32	631.673
1005.22	710.701
1008.11	772.317
1011	712.261
1013.89	558.879
1016.78	409.434
1019.68	312.943
1022.57	273.473
1025.46	279.661
1028.36	323.481
1031.25	394.486
1034.14	404.287
1037.03	329.847
1039.93	225.883
1042.82	148.722
1045.71	99.9517
1048.61	65.9275
1051.5	44.8734
1054.39	33.2314
1057.28	23.4177
1060.18	15.0891
1063.07	11.7565
1065.96	2.26785
1068.85	2.0181
1071.75	1.33167
1074.64	0.990021
1077.53	3.43951
1080.42	2.30225
1083.32	3.48303
1086.21	2.69745
1089.1	1.88678
1092	1.76868
1094.89	1.22009
1097.78	1.01682
1100.67	1.66629
1103.57	0.337219
1106.46	6.08063
1109.35	10.0243
1112.24	10.8952
1115.14	12.2131
1118.03	10.4962
1120.92	11.4781
1123.82	11.1962
1126.71	8.93713
1129.6	7.05612
1132.49	5.05542
1135.39	5.40418
1138.28	6.09277
1141.17	7.18817
1144.06	2.94592
1146.96	5.04428
1149.85	0.383118
1152.74	1.40424
1155.63	2.20496
1158.53	2.87955
1161.42	0.687775
1164.31	0.793915
1167.21	3.3121
1170.1	1.1326
1172.99	4.26001
1175.88	3.63055
1178.78	2.55713
1181.67	5.72519
1184.56	3.30579
1187.45	4.59604
1190.35	6.42355
1193.24	4.73373
1196.13	6.62399
1199.03	5.62659
1201.92	3.6532
1204.81	3.97351
1207.7	4.82324
1210.6	2.65439
1213.49	4.15677
1216.38	4.19019
1219.27	6.62872
1222.17	3.16724
1225.06	5.83795
1227.95	4.84753
1230.85	3.18131
1233.74	0.275269
1236.63	3.88815
1239.52	2.50299
1242.42	2.4776
1245.31	1.71725
1248.2	2.29578
1251.09	2.22916
1253.99	2.03388
1256.88	2.93457
1259.77	6.19263
1262.66	2.44
1265.56	5.72427
1268.45	2.52933
1271.34	4.36758
1274.24	3.29816
1277.13	2.52203
1280.02	1.28659
1282.91	2.10309
