Measurement: Raman, 514 nm, unoriented, Raman Data Processed
Mineral: Phosphophyllite
Rruff sample: R050224
Ideal chemistry: Zn_2_Fe^2+^(PO_4_)_2_4H_2_O
Locality: Unificada mine, Cerro Rico, Potosi, Bolivia
Source: Marcus Origlieri
Description: Pale blue single crystal fragments
Measured chemistry: Zn_2.00_Fe^2+^_1.00_(P_1.00_O_4_)_2_Â·4H_2_O
Raman shift (cm-1)	intensity
83.614	0
87.798	111.073
91.981	129.542
96.161	203.513
100.34	298.883
104.516	373.862
108.691	861.492
112.864	2504.94
117.034	4572.84
121.203	3876.61
125.369	2065.05
129.534	1065.04
133.696	1114.58
137.857	1464.16
142.016	1742.69
146.172	1364.05
150.327	890.884
154.48	522.829
158.63	279.616
162.779	130.054
166.926	185.892
171.07	222.851
175.213	425.953
179.354	685.521
183.493	779.854
187.63	1269.58
191.765	2134.88
195.898	3246.4
200.029	3927.68
204.158	2721.29
208.285	1572.27
212.41	751.521
216.533	571.033
220.654	340.796
224.773	229.815
228.891	206.164
233.006	177.986
237.119	71.184
241.231	221.508
245.34	257.94
249.448	350.324
253.553	722.373
257.657	991.359
261.758	1377.55
265.858	1485.4
269.956	1331.58
274.052	1483.85
278.146	1388.04
282.237	1335
286.327	1539.69
290.416	1682.34
294.502	2222.32
298.586	2549.49
302.668	2950.53
306.749	3930.17
310.827	5280.92
314.903	7264.01
318.978	9586.51
323.051	10678.7
327.121	9348.9
331.19	6669.06
335.257	4499.33
339.322	2924.72
343.385	2074.22
347.446	1493.82
351.505	1331.49
355.563	1077.23
359.618	869.993
363.672	655.846
367.723	429.005
371.773	456.737
375.821	510.933
379.866	160.677
383.91	189.354
387.952	274.87
391.992	150.332
396.031	103.715
400.067	240.011
404.101	278.214
408.134	449.559
412.165	564.344
416.193	518.343
420.22	517.658
424.245	401.889
428.268	457.121
432.289	157.33
436.309	175.495
440.326	23.603
444.342	10.551
448.355	57.955
452.367	28.137
456.377	28.037
460.385	76.854
464.391	98.418
468.395	145.597
472.398	183.36
476.398	6.784
480.397	48.231
484.394	57
488.389	347.583
492.382	419.069
496.373	495.565
500.362	567.922
504.349	477.129
508.335	397.171
512.319	400.168
516.3	227.46
520.28	57.268
524.259	186.799
528.235	180.65
532.209	248.175
536.182	7.341
540.152	273.852
544.121	223.139
548.088	250.797
552.053	191.038
556.017	268.119
559.978	471.027
563.938	585.717
567.895	738.185
571.851	1140.43
575.805	1250.94
579.758	1384.88
583.708	1701.44
587.657	2032.76
591.603	2309.85
595.548	2427.7
599.491	2103.32
603.432	1940.44
607.372	1470.95
611.309	1310.45
615.245	1334.1
619.179	1301.46
623.111	1674.86
627.041	1688.09
630.97	1891.91
634.896	2122.95
638.821	1416.58
642.744	1171.2
646.665	810.545
650.584	639.33
654.502	519.029
658.418	342.098
662.331	331.059
666.244	86.35
670.154	285.133
674.062	311.846
677.969	333.047
681.874	8.902
685.777	187.113
689.678	183.771
693.577	220.357
697.475	208.75
701.371	351.135
705.265	272.762
709.157	176.428
713.047	357.766
716.936	371.854
720.823	241.842
724.708	270.592
728.591	159.18
732.472	335.736
736.352	315
740.23	424.104
744.106	314.062
747.98	238.875
751.853	495.547
755.723	392.082
759.592	104.637
763.459	365.143
767.325	537.674
771.188	431.213
775.05	187.938
778.91	270.828
782.768	157.857
786.625	381.984
790.479	76.254
794.332	59.588
798.183	274.832
802.033	215.953
805.88	119.258
809.726	278.105
813.57	35.619
817.413	12.479
821.253	37.34
825.092	146.248
828.929	12.404
832.764	137.229
836.598	12.676
840.429	39.551
844.259	9.555
848.088	40.402
851.914	96.971
855.739	104.086
859.562	102.207
863.383	93.533
867.203	65.883
871.02	154.904
874.836	152.682
878.65	182.127
882.463	278.648
886.274	287.197
890.083	326.6
893.89	322.73
897.695	422.355
901.499	337.996
905.301	359.67
909.102	595.377
912.9	614.996
916.697	853.9
920.492	1015.89
924.285	1430.61
928.077	1874.54
931.867	3134.55
935.655	5360.74
939.442	6746.97
943.226	4980.06
947.009	2870.91
950.791	1611.15
954.57	830.467
958.348	831.473
962.124	660.02
965.899	851.871
969.671	1007.05
973.442	1302.01
977.211	1756.53
980.979	2377.35
984.745	3852.1
988.509	7438.08
992.271	16764.7
996.032	28015.4
999.791	19432.6
1003.55	9391.37
1007.3	4759.42
1011.06	2577.86
1014.81	1594.2
1018.56	1192.71
1022.31	754.248
1026.06	412.891
1029.8	622.848
1033.55	279.549
1037.29	273.645
1041.03	623.6
1044.77	577.182
1048.5	390.596
1052.24	794.168
1055.97	711.592
1059.7	1190.3
1063.43	1965.94
1067.16	3424.04
1070.89	5872.31
1074.61	7121.48
1078.34	5053.08
1082.06	3228.53
1085.78	2091.49
1089.5	1144.76
1093.21	897.99
1096.93	466.121
1100.64	544.354
1104.35	232.979
1108.06	492.057
1111.77	461.547
1115.48	664.875
1119.18	868.205
1122.89	1058.45
1126.59	1747.52
1130.29	3265.29
1133.99	4192.89
1137.68	4514.89
1141.38	3503.81
1145.07	2392.11
1148.76	1526.3
1152.45	952.176
1156.14	895.848
1159.83	395.725
1163.51	278.654
1167.19	223.336
1170.88	188.154
1174.56	73.693
1178.23	122.492
1181.91	101.043
1185.59	8.449
1189.26	125.396
1192.93	182.404
1196.6	32.801
1200.27	186.447
1203.94	41.271
1207.6	265.154
1211.27	76.43
1214.93	116.768
1218.59	255.426
1222.25	316.66
1225.9	156.748
1229.56	213.955
1233.21	30.705
1236.86	26.25
1240.51	320.299
1244.16	160.572
1247.81	286.324
1251.45	63.205
1255.1	146.254
1258.74	225.174
1262.38	7.014
1266.02	24.865
1269.66	149.912
1273.29	63.4
1276.93	69.463
1280.56	144.979
1284.19	26.016
1287.82	122.379
1291.45	204.301
1295.07	93.273
1298.7	71.746
1302.32	249.807
1305.94	52.172
1309.56	94.062
1313.18	5.16
1316.8	228.799
1320.41	423.746
1324.02	429.719
1327.63	407.184
1331.24	384.977
1334.85	347.992
1338.46	547.742
1342.06	547.695
1345.67	582.836
1349.27	552.438
1352.87	681.938
1356.47	378.773
1360.07	374.902
1363.66	509.051
1367.25	403.027
1370.85	292.242
1374.44	428.645
1378.03	382.332
1381.61	341.914
1385.2	405.859
1388.78	358.008
1392.37	264.109
1395.95	341.219
1399.53	356.527
1403.1	218.93
1406.68	260.75
1410.26	336.574
