Measurement: Raman, 532 nm, unoriented, Raman Data Processed
Mineral: Phosphosiderite
Rruff sample: R050459
Ideal chemistry: Fe^3+^PO_4_2H_2_O
Locality: Bull Moose mine, Custer, South Dakota, USA
Source: University of Arizona Mineral Museum
Description: Pale lavendar tabular crystals
Measured chemistry: (Fe^3+^_0.99_Al_0.01_)_Σ=1_P_1.00_O_4_·2H_2_O
Raman shift (cm-1)	intensity
137.291	0
140.184	0.203094
143.076	8.52679
145.969	25.0368
148.862	57.7458
151.755	103.134
154.647	161.857
157.54	222.224
160.433	273.113
163.325	288.62
166.218	305.147
169.111	341.319
172.003	394.861
174.896	485.307
177.789	584.07
180.681	663.407
183.574	791.15
186.467	850.209
189.36	865.431
192.252	920.325
195.145	1029.94
198.038	1233.28
200.93	1380.53
203.823	1151.67
206.716	632.835
209.608	284.739
212.501	125.514
215.394	59.0417
218.287	24.6579
221.179	5.58499
224.072	10.3367
226.965	20.943
229.857	29.384
232.75	33.3934
235.643	10.9076
238.536	25.8512
241.428	86.6513
244.321	148.015
247.214	216.2
250.106	316.284
252.999	460.918
255.892	565.415
258.784	506.551
261.677	312.411
264.57	198.018
267.462	195.574
270.355	252.811
273.248	307.588
276.141	371.062
279.033	459.109
281.926	576.974
284.819	672.963
287.711	702.271
290.604	542.881
293.497	355.11
296.389	304.584
299.282	354.04
302.175	440.278
305.068	550.431
307.96	632.515
310.853	629.307
313.746	559.894
316.638	461.53
319.531	391.627
322.424	370.662
325.317	396.024
328.209	421.073
331.102	424.617
333.995	362.615
336.887	278.217
339.78	213.482
342.673	178.052
345.565	164.279
348.458	115.172
351.351	56.4153
354.243	13.1097
357.136	1.66772
360.029	8.29596
362.922	30.649
365.814	65.3637
368.707	114.93
371.6	172.677
374.492	241.431
377.385	300.204
380.278	366.344
383.171	396.031
386.063	398.284
388.956	377.446
391.849	354.998
394.741	320.034
397.634	279.112
400.527	193.484
403.419	100.038
406.312	28.1532
409.205	13.5151
412.098	30.1301
414.99	34.8379
417.883	17.98
420.776	10.8782
423.668	51.446
426.561	114.537
429.454	184.37
432.346	287.291
435.239	409.834
438.132	542.098
441.024	694.571
443.917	843.25
446.81	952.404
449.703	1014.01
452.595	967.874
455.488	857
458.381	712.108
461.273	605.56
464.166	554.203
467.059	541.177
469.952	553.651
472.844	592.962
475.737	661.783
478.63	740.329
481.522	804.217
484.415	824.427
487.308	785.257
490.2	676.531
493.093	527.03
495.986	375.718
498.878	261.861
501.771	166.942
504.664	104.261
507.557	56.068
510.449	23.4778
513.342	7.8335
516.235	10.475
519.127	6.20984
522.02	0.039459
524.913	11.7659
527.806	34.2457
530.698	58.3094
533.591	90.0012
536.484	125.466
539.376	155.496
542.269	180.984
545.162	199.092
548.054	190.08
550.947	182.06
553.84	152.933
556.732	132.888
559.625	120.284
562.518	104.566
565.411	86.9956
568.303	79.8637
571.196	68.0983
574.089	55.818
576.981	41.8897
579.874	30.362
582.767	21.4469
585.659	15.3835
588.552	14.6128
591.445	9.52927
594.338	9.78537
597.23	5.1254
600.123	1.0788
603.016	3.91536
605.908	0.595535
608.801	0.186432
611.694	0.056931
614.587	0.120392
617.479	0.997589
620.372	2.6947
623.265	3.74016
626.157	2.92177
629.05	0.489944
631.943	2.56673
634.835	3.42815
637.728	2.15352
640.621	6.79295
643.514	9.70522
646.406	13.5096
649.299	14.243
652.192	15.0795
655.084	19.1818
657.977	21.3002
660.87	22.3985
663.762	24.8297
666.655	22.0263
669.548	26.1047
672.441	22.6778
675.333	19.6957
678.226	18.8441
681.119	16.5911
684.011	15.0359
686.904	10.8249
689.797	12.3509
692.689	9.7197
695.582	11.7699
698.475	7.88687
701.367	8.25121
704.26	8.66843
707.153	6.68353
710.046	8.92789
712.938	10.4553
715.831	8.57172
718.724	8.81177
721.616	5.69675
724.509	7.70045
727.402	6.74315
730.294	9.64537
733.187	9.28043
736.08	10.792
738.973	13.4575
741.865	12.5374
744.758	11.8933
747.651	13.8503
750.543	16.0834
753.436	13.8247
756.329	15.1102
759.221	17.0531
762.114	14.3325
765.007	12.518
767.9	13.2453
770.792	12.2073
773.685	9.65273
776.578	8.54329
779.47	4.21707
782.363	4.90959
785.256	2.17829
788.149	3.30931
791.041	2.32564
793.934	0.283615
796.827	1.45703
799.719	0.050278
802.612	0.133041
805.505	1.00817
808.397	3.36764
811.29	0.6036
814.183	4.46912
817.076	3.44861
819.968	4.30961
822.861	6.19099
825.754	7.16101
828.646	8.56961
831.539	10.9718
834.432	10.572
837.324	12.3233
840.217	14.0571
843.11	14.6541
846.003	16.3281
848.895	18.5966
851.788	18.1117
854.681	19.3801
857.573	19.5697
860.466	22.5134
863.359	18.9931
866.251	20.6527
869.144	18.4268
872.037	19.8512
874.929	19.4635
877.822	18.1007
880.715	17.7848
883.608	14.9
886.5	13.6854
889.393	12.0194
892.286	9.59369
895.178	7.36267
898.071	5.04099
900.964	5.19418
903.856	0.588196
906.749	1.14661
909.642	0.62912
912.535	4.48947
915.427	5.62352
918.32	7.35164
921.213	5.66273
924.105	5.65047
926.998	8.48154
929.891	5.86856
932.784	4.75165
935.676	1.08188
938.569	3.3353
941.462	17.1761
944.354	30.9505
947.247	53.177
950.14	83.1622
953.032	121.564
955.925	179.267
958.818	259.779
961.711	374.28
964.603	539.084
967.496	802.505
970.389	1214.09
973.281	1799.61
976.174	2517.41
979.067	3361.76
981.959	4137.48
984.852	4324.74
987.745	3895.54
990.638	3463.54
993.53	3224.26
996.423	3007.51
999.316	3066.04
1002.21	3514.22
1005.1	4193.69
1007.99	4610.7
1010.89	3970.35
1013.78	2758.11
1016.67	1830.52
1019.57	1347.61
1022.46	1171.16
1025.35	1182.47
1028.24	1336.76
1031.13	1518.96
1034.03	1409.95
1036.92	1001.09
1039.81	638.774
1042.71	427.296
1045.6	289.067
1048.49	200.767
1051.38	142.703
1054.28	99.7164
1057.17	71.9016
1060.06	46.5802
1062.95	31.3447
1065.85	21.4016
1068.74	8.33685
1071.63	1.95059
1074.53	7.03403
1077.42	6.31461
1080.31	10.0266
1083.2	9.6404
1086.1	8.98346
1088.99	7.70764
1091.88	5.12352
1094.78	1.67931
1097.67	4.47525
1100.56	14.7416
1103.45	15.5675
1106.35	25.3404
1109.24	31.2449
1112.13	41.1352
1115.02	42.3143
1117.92	42.5871
1120.81	40.3176
1123.7	33.6373
1126.59	26.0438
1129.49	20.9692
1132.38	15.8874
1135.27	15.5915
1138.16	12.2692
1141.06	12.1677
1143.95	10.7298
1146.84	7.52667
1149.74	4.55754
1152.63	4.39825
1155.52	6.41827
1158.41	9.0598
1161.31	7.05063
1164.2	8.07953
1167.09	7.7926
1169.98	9.73598
1172.88	9.26202
1175.77	12.4425
1178.66	13.344
1181.56	12.8467
1184.45	11.2882
1187.34	10.5108
1190.23	11.6173
1193.13	8.40105
1196.02	8.21602
1198.91	6.79362
1201.81	5.98713
1204.7	6.03036
1207.59	6.93664
1210.48	6.86755
1213.38	5.31165
1216.27	5.19535
1219.16	3.26838
1222.05	5.41746
1224.95	4.94383
1227.84	2.63375
1230.73	4.72282
1233.62	2.14874
1236.52	1.92883
1239.41	3.89233
1242.3	2.52071
1245.19	0.688614
1248.09	2.54472
1250.98	2.34132
1253.87	0.88208
1256.77	0.755722
1259.66	2.5648
1262.55	2.2555
1265.44	1.56926
1268.34	2.65916
1271.23	3.09004
1274.12	4.01927
1277.02	2.09666
1279.91	1.67003
1282.8	1.49418
