Measurement: Raman, 532 nm, unoriented, Raman Data Processed
Mineral: Phosphoferrite
Rruff sample: R090065
Ideal chemistry: Fe^2+^_3_(PO_4_)_2_3H_2_O
Locality: Germany
Source: Royal Ontario Museum
Description: Dark brown pseudo-octahedral crystals on matrix
Measured chemistry: (Fe^+2^_2.376_Mn^+2^_0.758_Ca_0.03_)_Σ=3.164_(P_0.967_O_4_)_2_·3H_2_O
Raman shift (cm-1)	intensity
153.307	0
156.2	3.80586
159.092	5.07725
161.985	10.3262
164.878	11.7703
167.77	8.92185
170.663	10.3755
173.556	9.70245
176.448	9.55834
179.341	9.03849
182.234	7.80405
185.127	5.14004
188.019	3.31972
190.912	1.88571
193.805	0.181808
196.697	0.185822
199.59	1.3043
202.483	0.436905
205.375	0.993179
208.268	0.813118
211.161	1.60461
214.054	2.53754
216.946	4.53287
219.839	4.47035
222.732	6.10013
225.624	6.00928
228.517	6.39635
231.41	4.91226
234.303	3.64132
237.195	3.60278
240.088	2.03143
242.981	0.966789
245.873	0.377632
248.766	1.42008
251.659	1.11066
254.551	2.37873
257.444	2.66971
260.337	3.44428
263.229	3.7513
266.122	4.81396
269.015	4.9137
271.908	5.48395
274.8	5.11208
277.693	3.89409
280.586	3.72939
283.478	3.55749
286.371	4.18243
289.264	4.39322
292.156	4.67467
295.049	2.91473
297.942	3.01512
300.835	2.48073
303.727	1.33823
306.62	1.40606
309.513	0.140785
312.405	0.527626
315.298	0.022507
318.191	0.085503
321.084	0.267807
323.976	1.13668
326.869	2.09766
329.762	1.70499
332.654	3.05771
335.547	3.18428
338.44	1.41233
341.332	0.482819
344.225	0.432281
347.118	1.35249
350.01	0.669739
352.903	2.6121
355.796	3.51466
358.689	5.97485
361.581	7.06531
364.474	9.14365
367.367	12.0425
370.259	12.1433
373.152	12.6497
376.045	13.4119
378.938	12.9296
381.83	12.5228
384.723	10.9108
387.616	11.0968
390.508	10.1712
393.401	9.37683
396.294	8.36887
399.186	8.44185
402.079	9.45285
404.972	9.75405
407.865	10.4039
410.757	13.4034
413.65	14.3791
416.543	14.622
419.435	15.3505
422.328	14.1056
425.221	10.804
428.113	5.97961
431.006	2.17881
433.899	0.391541
436.791	1.07973
439.684	0.784863
442.577	1.35525
445.469	0.3634
448.362	0.498497
451.255	1.30188
454.148	0.317623
457.04	1.01524
459.933	1.12199
462.826	0.880058
465.718	1.58808
468.611	1.67088
471.504	1.87703
474.397	2.24271
477.289	3.1567
480.182	4.61189
483.075	4.52872
485.967	3.66982
488.86	3.62604
491.753	4.07045
494.645	2.46388
497.538	1.41304
500.431	0.287334
503.324	0.189869
506.216	0.02544
509.109	0.692394
512.002	1.04266
514.894	2.15557
517.787	2.15163
520.68	5.38139
523.572	7.41054
526.465	9.38814
529.358	12.565
532.25	13.9247
535.143	16.2192
538.036	16.4259
540.929	17.8209
543.821	18.7877
546.714	17.9153
549.607	17.5885
552.5	17.8423
555.392	17.4917
558.285	17.5567
561.178	18.463
564.07	20.3506
566.963	21.6817
569.856	23.0402
572.748	25.0082
575.641	26.6694
578.534	28.0631
581.427	30.6279
584.319	34.2762
587.212	36.0146
590.105	34.3713
592.997	32.8796
595.89	29.5019
598.783	26.1295
601.675	22.2274
604.568	21.1077
607.461	18.1057
610.353	15.4592
613.246	13.3577
616.139	11.632
619.032	8.55105
621.924	7.14584
624.817	6.6403
627.71	4.46989
630.602	2.39128
633.495	0.131611
636.388	0.318592
639.28	0.135269
642.173	0.451916
645.066	1.06216
647.958	0.887566
650.851	0.214481
653.744	0.194599
656.637	0.065666
659.529	0.002842
662.422	0.472797
665.315	1.21536
668.207	1.02066
671.1	1.16692
673.993	2.21075
676.885	2.02744
679.778	2.39924
682.671	2.10091
685.564	1.97739
688.456	3.09994
691.349	3.26115
694.242	3.08696
697.134	2.96048
700.027	2.39496
702.92	2.85829
705.812	2.88075
708.705	1.76019
711.598	1.67244
714.491	1.63651
717.383	1.20031
720.276	0.861153
723.169	1.56163
726.061	1.26795
728.954	0.306137
731.847	0.819042
734.74	0.944656
737.632	1.82112
740.525	1.57931
743.418	1.21665
746.31	1.35513
749.203	2.36301
752.096	3.69717
754.988	3.83508
757.881	2.7839
760.774	2.94092
763.667	3.22054
766.559	3.22434
769.452	1.41399
772.345	2.48905
775.237	0.999985
778.13	0.691956
781.023	0.717178
783.915	0.283443
786.808	0.663616
789.701	0.529133
792.593	0.905308
795.486	0.432274
798.379	0.308292
801.271	0.808693
804.164	0.123619
807.057	1.75374
809.95	0.977234
812.842	1.11213
815.735	1.40436
818.628	2.37694
821.52	1.87117
824.413	2.18981
827.306	1.74363
830.198	3.03523
833.091	2.91659
835.984	2.73672
838.877	2.73857
841.769	2.38483
844.662	2.29192
847.555	3.24594
850.447	1.78296
853.34	2.30462
856.233	2.52427
859.125	2.362
862.018	2.45845
864.911	2.46566
867.804	1.67355
870.696	0.644833
873.589	0.650829
876.482	1.41206
879.375	0.757275
882.267	0.709389
885.16	0.770138
888.053	0.140495
890.945	1.23545
893.838	0.737408
896.731	0.838356
899.623	0.002121
902.516	0.157272
905.409	0.114262
908.302	0.475254
911.194	0.688522
914.087	0.772678
916.98	0.394333
919.872	0.597134
922.765	1.91293
925.658	2.1341
928.55	3.14674
931.443	5.72233
934.336	8.29395
937.229	11.0283
940.121	14.0533
943.014	20.1144
945.907	27.7293
948.799	38.4323
951.692	55.3201
954.585	76.977
957.477	107.237
960.37	141.299
963.263	169.681
966.155	183.042
969.048	170.002
971.941	137.9
974.834	99.0042
977.726	67.5431
980.619	45.7056
983.512	35.789
986.404	29.1223
989.297	25.1213
992.19	24.1329
995.082	22.697
997.975	21.879
1000.87	22.4299
1003.76	21.8759
1006.65	21.4511
1009.55	18.7115
1012.44	14.6139
1015.33	10.15
1018.22	6.13908
1021.12	2.21271
1024.01	0.226871
1026.9	0.547115
1029.8	0.786072
1032.69	1.17021
1035.58	0.579102
1038.47	0.927616
1041.37	1.8737
1044.26	2.32427
1047.15	4.94644
1050.04	3.07336
1052.94	2.64353
1055.83	3.95115
1058.72	3.40301
1061.62	3.59965
1064.51	3.23627
1067.4	3.29234
1070.29	1.82244
1073.18	1.61608
1076.08	2.55851
1078.97	3.87662
1081.86	4.90852
1084.76	5.68243
1087.65	7.86478
1090.54	9.10077
1093.43	10.4313
1096.33	12.5083
1099.22	13.3166
1102.11	13.0829
1105.01	14.6196
1107.9	13.5923
1110.79	12.8016
1113.68	11.4584
1116.58	10.0776
1119.47	9.515
1122.36	8.00032
1125.25	6.67767
1128.15	5.16512
1131.04	4.0716
1133.93	3.14624
1136.83	3.13242
1139.72	2.32128
1142.61	1.23445
1145.5	0.597233
1148.4	0.667999
1151.29	0.160408
1154.18	0.83847
1157.07	0.590969
1159.97	0.055893
1162.86	0.001785
1165.75	0.074707
1168.64	0.003872
1171.54	1.15395
1174.43	0.121582
1177.32	1.36661
1180.21	1.39553
1183.11	1.70987
1186	1.4505
1188.89	2.00224
1191.79	2.67721
1194.68	2.51209
1197.57	2.93789
1200.46	2.43752
1203.36	2.39319
1206.25	2.82359
1209.14	2.91083
1212.04	3.08987
1214.93	3.21036
1217.82	2.68184
1220.71	2.99719
1223.61	2.43985
1226.5	1.65381
1229.39	1.90551
1232.28	1.42555
1235.18	1.27513
1238.07	1.89368
1240.96	0.566315
1243.86	1.74799
1246.75	1.63377
1249.64	2.13436
1252.53	1.42509
1255.42	0.861198
1258.32	0.996069
1261.21	0.799776
1264.1	1.04153
1267	2.33635
1269.89	0.206894
1272.78	0.173313
1275.67	0.74897
1278.57	1.44772
1281.46	0.437618
1284.35	0.311657
1287.24	1.25272
1290.14	0.602573
1293.03	0.382793
1295.92	0.370544
1298.82	0.401455
1301.71	0.69013
