Measurement: Raman, 532 nm, unoriented, Raman Data Processed
Mineral: Phosphosiderite
Rruff sample: R070519
Ideal chemistry: Fe^3+^PO_4_2H_2_O
Locality: Stewart mine, Pala, San Diego County, California, USA
Source: James Shigley
Description: Bluish-purple fine-grained botryoidal and tabular crystals
Raman shift (cm-1)	intensity
153.048	0
155.941	139.562
158.833	202.431
161.726	220.346
164.619	233.032
167.512	264.838
170.404	333.132
173.297	477.104
176.19	678.128
179.082	786.201
181.975	1233.62
184.868	1135.85
187.761	1290.85
190.653	1459.76
193.546	1550.66
196.439	1479.99
199.331	1412.45
202.224	1153.57
205.117	757.142
208.009	464.918
210.902	238.35
213.795	139.004
216.688	84.7773
219.58	40.634
222.473	46.0945
225.366	14.7835
228.258	22.8328
231.151	31.5298
234.044	26.9497
236.936	20.0403
239.829	56.5149
242.722	125.007
245.614	196.25
248.507	411.013
251.4	585.531
254.293	721.968
257.185	696.556
260.078	654.782
262.971	589.447
265.863	626.001
268.756	709.704
271.649	814.084
274.541	1025.88
277.434	1309.13
280.327	1687.42
283.22	1997.36
286.112	2161.35
289.005	2005.26
291.898	1655.41
294.79	1388.28
297.683	1222.49
300.576	1253.98
303.469	1286.38
306.361	1369.65
309.254	1289.07
312.147	1204.59
315.039	1107.98
317.932	990.78
320.825	1027.89
323.717	990.512
326.61	960.835
329.503	939.916
332.396	829.459
335.288	720.184
338.181	568.341
341.074	529.466
343.966	401.258
346.859	288.623
349.752	154.669
352.644	130.371
355.537	65.8569
358.43	3.2334
361.322	37.0635
364.215	61.7769
367.108	0.454102
370.001	9.53516
372.893	36.0205
375.786	124.458
378.679	220.785
381.572	228.734
384.464	341.93
387.357	461.063
390.25	502.832
393.142	558.414
396.035	468.104
398.928	398.431
401.82	313.36
404.713	136.252
407.606	71.54
410.498	13.7197
413.391	2.70801
416.284	30.898
419.177	45.9062
422.069	106.162
424.962	234.311
427.855	332.554
430.747	455.437
433.64	563.301
436.533	804.044
439.425	946.377
442.318	1075.7
445.211	1202.56
448.104	1219.12
450.996	1209.6
453.889	1156.98
456.782	1126.89
459.674	1096.95
462.567	1004.65
465.46	1020.8
468.353	1168.04
471.245	1265.51
474.138	1337.05
477.031	1389.81
479.923	1452.52
482.816	1442.34
485.709	1328.75
488.601	1206.15
491.494	961.839
494.387	756.211
497.279	509.357
500.172	459.061
503.065	265.955
505.958	106.176
508.85	70.3135
511.743	78.9604
514.636	9.54004
517.528	53.1103
520.421	6.70239
523.314	20.5193
526.207	39.1206
529.099	4.63281
531.992	72.178
534.885	144.783
537.777	141.549
540.67	141.196
543.563	162.636
546.455	192.434
549.348	267.551
552.241	175.753
555.134	211.429
558.026	183.627
560.919	239.821
563.812	208.577
566.704	232.432
569.597	277.485
572.49	193.922
575.382	197.763
578.275	199.042
581.168	148.13
584.061	127.586
586.953	109.77
589.846	97.7048
592.739	123.426
595.631	67.3528
598.524	75.312
601.417	69.4565
604.309	67.3748
607.202	68.8479
610.095	76.792
612.987	89.7556
615.88	36.8635
618.773	38.2842
621.666	13.7485
624.558	14.4324
627.451	50.5867
630.344	42.4712
633.236	10.4941
636.129	8.39331
639.022	37.2451
641.915	7.2605
644.807	30.3
647.7	14.738
650.593	45.7961
653.485	5.09985
656.378	9.77002
659.271	45.76
662.163	70.8289
665.056	27.4753
667.949	106.83
670.842	61.6086
673.734	60.908
676.627	99.4431
679.52	59.8076
682.412	33.7703
685.305	21.5942
688.198	33.21
691.091	23.2698
693.983	23.1975
696.876	27.6589
699.769	71.4612
702.661	27.9204
705.554	19.0278
708.447	9.86011
711.339	23.0344
714.232	27.1035
717.125	42.6902
720.018	32.0879
722.91	17.1711
725.803	36.2512
728.696	43.9265
731.588	51.7212
734.481	22.1135
737.374	32.2339
740.266	8.79907
743.159	37.3765
746.052	86.9336
748.944	46.4419
751.837	36.5635
754.73	57.3362
757.623	4.70459
760.515	76.0869
763.408	38.6663
766.301	45.8162
769.193	73.5986
772.086	65.7773
774.979	33.6704
777.871	27.4702
780.764	29.1489
783.657	29.9468
786.55	37.613
789.442	64.6777
792.335	34.3264
795.228	54.124
798.12	3.83423
801.013	7.74292
803.906	62.9922
806.798	40.8296
809.691	6.96924
812.584	42.604
815.477	6.06445
818.369	47.1628
821.262	13.9634
824.155	56.1033
827.048	49.5298
829.94	88.8852
832.833	40.8286
835.726	35.9844
838.618	61.7969
841.511	72.813
844.404	104.276
847.296	125.569
850.189	108.868
853.082	100.659
855.975	105.044
858.867	93.1624
861.76	124.022
864.653	88.0889
867.545	85.271
870.438	101.464
873.331	73.7864
876.223	95.1877
879.116	54.7173
882.009	84.2205
884.902	38.2114
887.794	31.7881
890.687	66.8079
893.58	16.7446
896.472	0.257568
899.365	22.5808
902.258	41.5745
905.15	17.2495
908.043	7.73804
910.936	24.1306
913.828	16.6865
916.721	0.399902
919.614	47.02
922.507	21.0352
925.399	19.0855
928.292	24.3189
931.185	98.0176
934.077	121.757
936.97	170.161
939.863	244.82
942.755	267.171
945.648	413.388
948.541	423.84
951.434	522.579
954.326	720.078
957.219	924.956
960.112	1118.24
963.004	1449.38
965.897	2085.13
968.79	2783.12
971.683	3775.08
974.575	4965.78
977.468	6073.97
980.361	6866.62
983.253	7241.95
986.146	7260.66
989.039	7085.82
991.932	6836.82
994.824	6720.8
997.717	6820.33
1000.61	7306.62
1003.5	7926.4
1006.39	8031.66
1009.29	7514.07
1012.18	6370.25
1015.07	5000.56
1017.97	3935.72
1020.86	3350.54
1023.75	3158.36
1026.64	3236.64
1029.54	3254.37
1032.43	3098.76
1035.32	2519.98
1038.21	1904.78
1041.11	1306.27
1044	920.237
1046.89	645.773
1049.79	401.914
1052.68	309.646
1055.57	179.317
1058.46	83.0112
1061.36	74.9849
1064.25	23.5576
1067.14	21.228
1070.03	12.791
1072.93	11.9575
1075.82	41.9663
1078.71	55.7192
1081.61	59.2192
1084.5	22.4941
1087.39	34.1372
1090.28	24.1714
1093.18	22.9531
1096.07	57.5493
1098.96	66.4912
1101.85	25.7031
1104.75	80.1641
1107.64	60.9902
1110.53	86.7041
1113.42	169.683
1116.32	198.315
1119.21	126.793
1122.1	175.373
1125	106.345
1127.89	168.684
1130.78	140.662
1133.67	105.237
1136.57	98.0811
1139.46	81.6035
1142.35	76.231
1145.24	82.4341
1148.14	13.4077
1151.03	21.3955
1153.92	32.294
1156.82	44.2266
1159.71	49.9731
1162.6	41.6748
1165.49	19.6558
1168.39	49.3603
1171.28	58.6943
1174.17	74.9019
1177.06	25.4136
1179.96	41.8784
1182.85	66.9893
1185.74	27.0698
1188.63	65.0977
1191.53	77.4517
1194.42	54.3433
1197.31	42.6362
1200.21	27.3359
1203.1	60.0674
1205.99	35.6016
1208.88	40.0347
1211.78	0.092285
1214.67	46.0449
1217.56	48.8086
1220.45	110.252
1223.35	74.5864
1226.24	45.4438
1229.13	22.3442
1232.03	17.9702
1234.92	60.7798
1237.81	40.4214
1240.7	11.4927
1243.6	31.1411
1246.49	36.2944
1249.38	57.6645
1252.28	57.3965
1255.17	42.0859
1258.06	28.167
1260.95	14.3105
1263.85	36.1416
1266.74	66.2383
1269.63	84.6977
1272.52	42.4404
1275.42	31.9131
1278.31	9.6919
1281.2	83.1099
1284.09	86.9121
1286.99	60.2353
1289.88	65.5913
1292.77	0.786133
