Measurement: Raman, 780 nm, unoriented, Raman Data Processed
Mineral: Phosphuranylite
Rruff sample: R130108
Ideal chemistry: KCa(H_3_O)_3_(UO_2_)_7_(PO_4_)_4_O_4_8H_2_O
Locality: Shinkolobwe mine,Katanga, Zaire
Source: Don Doell
Description: Associated with metatorbernite R130109
Raman shift (cm-1)	intensity
90.7175	0
94.0923	9.09238
97.4671	6.23624
100.842	0.79097
104.217	2.29755
107.591	2.12697
110.966	0.945633
114.341	1.10187
117.716	0.809631
121.091	1.73924
124.466	0.738266
127.84	0.226044
131.215	0.165619
134.59	2.87086
137.965	7.10251
141.34	6.95
144.714	4.03293
148.089	2.44095
151.464	4.07552
154.839	6.49461
158.214	10.0972
161.589	13.6109
164.963	15.4277
168.338	7.90141
171.713	4.25775
175.088	0.463181
178.463	0.776093
181.838	2.09642
185.212	6.26504
188.587	12.8549
191.962	20.295
195.337	27.571
198.712	30.6651
202.086	35.8791
205.461	36.0937
208.836	37.6422
212.211	35.9811
215.586	36.2983
218.96	37.786
222.335	41.1897
225.71	44.002
229.085	40.9693
232.46	35.4515
235.834	32.5986
239.209	28.7067
242.584	20.8434
245.959	13.9627
249.334	9.81045
252.709	10.1203
256.083	13.7118
259.458	17.8977
262.833	21.1946
266.208	21.5816
269.583	23.001
272.957	19.1944
276.332	16.7786
279.707	15.533
283.082	13.4774
286.457	13.217
289.832	10.7422
293.206	7.36885
296.581	3.69454
299.956	1.55211
303.331	0.392281
306.706	0.013077
310.08	0.501038
313.455	0.683563
316.83	1.39375
320.205	1.05282
323.58	0.207588
326.954	0.460625
330.329	0.127342
333.704	0.781952
337.079	1.38318
340.454	1.99175
343.829	1.88184
347.203	2.79266
350.578	2.48016
353.953	3.86326
357.328	5.39485
360.703	5.94161
364.077	9.05304
367.452	8.50998
370.827	9.11197
374.202	9.6901
377.577	10.5376
380.952	13.955
384.326	16.9665
387.701	23.4258
391.076	27.5396
394.451	28.6712
397.826	24.6174
401.2	17.6689
404.575	13.576
407.95	13.5498
411.325	17.691
414.7	21.4455
418.075	28.0368
421.449	30.4577
424.824	37.6944
428.199	46.6522
431.574	56.2131
434.949	60.4142
438.323	56.9568
441.698	48.0401
445.073	38.9895
448.448	31.4144
451.823	23.1658
455.197	13.5218
458.572	5.0154
461.947	1.61051
465.322	0.526505
468.697	1.41521
472.072	0.380844
475.446	0.293938
478.821	0.444977
482.196	2.19767
485.571	2.03263
488.946	3.79723
492.32	3.80085
495.695	4.86488
499.07	5.51202
502.445	7.20436
505.82	7.91718
509.195	8.22965
512.569	10.3113
515.944	11.4388
519.319	13.6617
522.694	15.2622
526.068	18.6637
529.443	19.541
532.818	19.8514
536.193	16.7986
539.568	14.2529
542.943	11.7094
546.317	10.2935
549.692	10.7484
553.067	9.92942
556.442	11.6619
559.817	10.7641
563.192	10.2912
566.566	8.4308
569.941	9.16446
573.316	6.3586
576.691	5.03723
580.066	3.35411
583.44	1.48047
586.815	0.92239
590.19	0.062031
593.565	0.453487
596.94	0.155689
600.314	0.120811
603.689	0.479191
607.064	0.502533
610.439	1.72942
613.814	1.87034
617.188	1.38313
620.563	1.64305
623.938	0.834885
627.313	1.03589
630.688	1.19311
634.063	1.21849
637.437	1.03585
640.812	1.82023
644.187	1.72146
647.562	2.01958
650.937	2.24498
654.312	1.07037
657.686	1.76644
661.061	1.44269
664.436	1.50293
667.811	0.519714
671.186	1.48436
674.56	0.950436
677.935	0.323475
681.31	2.02355
684.685	1.61629
688.06	0.991272
691.434	1.14487
694.809	1.37909
698.184	0.330902
701.559	0.769402
704.934	0.813152
708.308	0.308224
711.683	0.677498
715.058	0.74889
718.433	0.713024
721.808	0.741734
725.183	0.218178
728.557	0.602737
731.932	0.44939
735.307	0.13797
738.682	0.257092
742.057	0.883755
745.432	0.300873
748.806	0.217857
752.181	0.692497
755.556	0.206722
758.931	0.667538
762.306	0.095203
765.68	1.11348
769.055	1.69402
772.43	2.90709
775.805	2.8071
779.18	4.01266
782.554	5.47032
785.929	7.39985
789.304	10.8723
792.679	15.254
796.054	20.2274
799.428	26.4426
802.803	32.9609
806.178	41.4483
809.553	47.9216
812.928	51.6484
816.303	49.6729
819.677	49.1416
823.052	54.385
826.427	63.8995
829.802	71.0324
833.177	97.0238
836.552	149.812
839.926	210.574
843.301	195.085
846.676	94.528
850.051	38.1231
853.426	18.7005
856.8	12.0518
860.175	7.73026
863.55	4.48571
866.925	3.64046
870.3	3.40404
873.674	3.374
877.049	2.46392
880.424	2.29994
883.799	1.69745
887.174	2.68912
890.548	1.8053
893.923	1.09476
897.298	0.569183
900.673	0.123127
904.048	0.181488
907.423	0.641342
910.797	0.298435
914.172	0.20454
917.547	0.110367
920.922	0.248554
924.297	0.280388
927.671	0.258694
931.046	0.331047
934.421	0.133678
937.796	0.010784
941.171	0.02795
944.545	0.032036
947.92	0.332741
951.295	0.110584
954.67	0.502033
958.045	0.975433
961.42	1.30183
964.794	1.20601
968.169	1.74986
971.544	1.92068
974.919	2.28707
978.294	4.1787
981.668	6.16185
985.043	8.96964
988.418	12.762
991.793	15.2142
995.168	17.2943
998.543	19.3032
1001.92	21.3632
1005.29	24.6594
1008.67	24.2819
1012.04	19.0238
1015.42	13.4431
1018.79	12.5856
1022.17	11.347
1025.54	8.25132
1028.92	8.43391
1032.29	8.73212
1035.67	10.7307
1039.04	14.0257
1042.41	19.5938
1045.79	26.0886
1049.16	27.5039
1052.54	25.5642
1055.91	17.0657
1059.29	10.9853
1062.66	7.09948
1066.04	3.74251
1069.41	2.86763
1072.79	1.27768
1076.16	1.17213
1079.54	0.010685
1082.91	0.535946
1086.29	0.08963
1089.66	0.000359
1093.04	0.504757
1096.41	0.139572
1099.79	0.106922
1103.16	0.491421
1106.54	0.74379
1109.91	1.74794
1113.29	2.10112
1116.66	3.62947
1120.04	4.85842
1123.41	5.27933
1126.79	5.30084
1130.16	4.2419
1133.54	2.8897
1136.91	2.15313
1140.29	2.33223
1143.66	1.27521
1147.03	0.932739
1150.41	0.108215
1153.78	0.166546
1157.16	0.589409
1160.53	0.556908
1163.91	0.336262
1167.28	0.83437
1170.66	0.637123
1174.03	0.599087
1177.41	1.40385
1180.78	0.854164
1184.16	0.531639
1187.53	0.91254
1190.91	1.4727
1194.28	1.04909
1197.66	1.38334
1201.03	1.39156
1204.41	1.42573
1207.78	1.14876
1211.16	0.796284
1214.53	0.68232
1217.91	0.826488
1221.28	0.808605
1224.65	1.50877
1228.03	0.840225
1231.4	0.320805
1234.78	0.475178
1238.15	1.12427
1241.53	0.382591
1244.9	0.958218
1248.28	0.95113
1251.65	1.10526
1255.03	0.939537
1258.4	0.822819
1261.78	0.600334
1265.15	0.842751
1268.53	0.303661
1271.9	0.667053
1275.28	0.211014
1278.65	1.29033
1282.03	0.012859
