Measurement: Raman, 785 nm, unoriented, Raman Data Processed
Mineral: Phurcalite
Rruff sample: R060698
Ideal chemistry: Ca_2_(UO_2_)_3_O_2_(PO_4_)_2_7H_2_O
Locality: Los Azules, Copiapo, Chile
Source: Bob Jenkins
Description: Divergent sprays of bright yellow acicular crystals
Raman shift (cm-1)	intensity
136.474	0
139.366	303.766
142.259	688.699
145.152	1220.73
148.044	1433.8
150.937	1291.56
153.83	1025.17
156.723	714.82
159.615	568.613
162.508	635.374
165.401	785.628
168.293	930.954
171.186	1011.99
174.079	1078.5
176.971	1134.29
179.864	1260.93
182.757	1460.17
185.65	1728.19
188.542	2053.11
191.435	2439.52
194.328	2957.33
197.22	3487.34
200.113	4101.73
203.006	4443.37
205.898	4169.09
208.791	3706.11
211.684	3146.16
214.577	2813.33
217.469	2564.7
220.362	2242.74
223.255	1990.22
226.147	1700.26
229.04	1625.96
231.933	1553.14
234.825	1499.65
237.718	1507.13
240.611	1610.4
243.503	1694.28
246.396	1782.33
249.289	1869.43
252.182	1897.83
255.074	1993.41
257.967	1971.34
260.86	2013.74
263.752	2059.01
266.645	2098.93
269.538	2031.94
272.431	1685.8
275.323	1440.84
278.216	1336.29
281.109	1080.97
284.001	941.216
286.894	776.678
289.787	534.779
292.679	419.952
295.572	378.515
298.465	326.484
301.358	306.069
304.25	285.324
307.143	183.809
310.036	120.268
312.928	53.517
315.821	6.29
318.714	42.724
321.606	56.235
324.499	51.826
327.392	22.748
330.284	6.402
333.177	43.668
336.07	57.31
338.963	45.383
341.855	35.646
344.748	49.726
347.641	17.154
350.533	84.256
353.426	130.41
356.319	216.367
359.211	239.244
362.104	367.29
364.997	496.053
367.89	784.75
370.782	915.099
373.675	1141.59
376.568	1386.31
379.46	1720.12
382.353	2128.46
385.246	2566.12
388.138	3038.96
391.031	3471.14
393.924	3880.12
396.817	4478.4
399.709	5261.8
402.602	6012.44
405.495	6491.21
408.387	6390.04
411.28	5931.24
414.173	5471.41
417.065	5479.19
419.958	5957.33
422.851	6720.04
425.744	7659.5
428.636	8401.32
431.529	8268.47
434.422	7437.73
437.314	6447.71
440.207	5530.24
443.1	4814.32
445.992	4068.21
448.885	3142.19
451.778	2820.56
454.671	1902.23
457.563	1502.9
460.456	1222.76
463.349	980.726
466.241	811.382
469.134	644.223
472.027	492.068
474.919	441.167
477.812	340.866
480.705	286.189
483.598	249.801
486.49	221.604
489.383	192.7
492.276	172.608
495.168	174.337
498.061	177.291
500.954	164.729
503.846	197.408
506.739	245.217
509.632	286.971
512.525	328.591
515.417	348.619
518.31	441.927
521.203	513.5
524.095	600.158
526.988	681.148
529.881	810.307
532.773	952.202
535.666	1018.86
538.559	1164.84
541.452	1230.05
544.344	1317.62
547.237	1294.39
550.13	1238.78
553.022	1064.13
555.915	963.519
558.808	739.553
561.701	608.219
564.593	455.629
567.486	291.777
570.379	202.695
573.271	195.32
576.164	106.16
579.057	107.679
581.949	94.521
584.842	85.778
587.735	66.98
590.628	52.406
593.52	62.18
596.413	35.282
599.306	21.967
602.198	19.403
605.091	15.537
607.984	39.939
610.876	60.636
613.769	67.585
616.662	96.301
619.555	56.022
622.447	69.759
625.34	49.05
628.233	92.644
631.125	58.838
634.018	78.068
636.911	68.709
639.803	57.982
642.696	45.042
645.589	31.408
648.482	18.073
651.374	26.292
654.267	30.745
657.16	43.939
660.052	0.589
662.945	2.602
665.838	44.008
668.73	12.784
671.623	29.122
674.516	2.473
677.409	27.602
680.301	20.801
683.194	37.372
686.087	50.066
688.979	16.874
691.872	51.127
694.765	54.214
697.657	38.256
700.55	32.646
703.443	63.689
706.336	46.803
709.228	30.488
712.121	61.707
715.014	45.381
717.906	56.672
720.799	92.768
723.692	71.804
726.584	73.331
729.477	68.417
732.37	91.828
735.263	128.896
738.155	124.749
741.048	123.757
743.941	122.328
746.833	184.796
749.726	232.128
752.619	258.9
755.511	314.397
758.404	354.739
761.297	437.351
764.19	495.717
767.082	623.367
769.975	727.717
772.868	935.945
775.76	1185.41
778.653	1521.5
781.546	1996.5
784.438	2664.03
787.331	3572.12
790.224	4733.25
793.117	6245.32
796.009	7782.31
798.902	9316.45
801.795	11530.3
804.687	14234.2
807.58	16053.1
810.473	14491.1
813.365	10026.3
816.258	6297.2
819.151	3888.97
822.044	2527.05
824.936	1723.99
827.829	1242.4
830.722	877.651
833.614	699.982
836.507	518.799
839.4	416.912
842.292	400.542
845.185	373.851
848.078	331.001
850.971	357.033
853.863	322.175
856.756	342.297
859.649	338.243
862.541	323.714
865.434	312.13
868.327	314.298
871.219	273.128
874.112	212.779
877.005	143.484
879.898	87.636
882.79	25.438
885.683	12.933
888.576	31.449
891.468	57.278
894.361	66.37
897.254	84.999
900.146	101.868
903.039	88.984
905.932	78.799
908.825	68.441
911.717	70.142
914.61	63.183
917.503	88.296
920.395	72.211
923.288	69.675
926.181	51.4
929.073	56.02
931.966	37.521
934.859	15.259
937.752	19.71
940.644	5.305
943.537	106.206
946.43	128.511
949.322	225.095
952.215	340.577
955.108	579.764
958	835.493
960.893	833.662
963.786	610.903
966.679	504.736
969.571	453.484
972.464	383.108
975.357	350.168
978.249	378.675
981.142	429.001
984.035	536.409
986.927	729.749
989.82	1103.69
992.713	1385.04
995.606	1417.07
998.498	1028.2
1001.39	902.417
1004.28	678.769
1007.18	384.388
1010.07	183.134
1012.96	75.376
1015.85	20.938
1018.75	19.633
1021.64	82.004
1024.53	77.562
1027.42	101.452
1030.32	107.92
1033.21	91.168
1036.1	93.872
1039	119.593
1041.89	56.76
1044.78	7.219
1047.67	5.836
1050.57	123.875
1053.46	244.031
1056.35	309.536
1059.24	347.592
1062.14	188.678
1065.03	76.224
1067.92	7.127
1070.82	71.628
1073.71	102.819
1076.6	136.029
1079.49	135.614
1082.39	155.031
1085.28	131.471
1088.17	131.064
1091.07	132.221
1093.96	59.748
1096.85	21.369
1099.74	62.99
1102.63	177.543
1105.53	216.392
1108.42	337.536
1111.31	302.3
1114.21	286.44
1117.1	341.766
1119.99	434.977
1122.88	530.711
1125.78	608.927
1128.67	747.148
1131.56	772.062
1134.45	878.719
1137.35	989.323
1140.24	1078.99
1143.13	1160.07
1146.03	1233.82
1148.92	1224.12
1151.81	1233.1
1154.7	1187.38
1157.6	1061.71
1160.49	983.426
1163.38	896.934
1166.28	760.395
1169.17	623.977
1172.06	495.667
1174.95	372.646
1177.85	290.797
1180.74	217.99
1183.63	113.473
1186.52	23.446
1189.42	51.664
1192.31	92.956
1195.2	69.733
1198.09	90.491
1200.99	99.733
1203.88	165.307
1206.77	127.216
1209.66	98.009
1212.56	57.501
1215.45	53.805
1218.34	29.676
1221.24	2.096
1224.13	55.136
1227.02	9.812
1229.91	9.617
