Measurement: Raman, 780 nm, unoriented, Raman Data Processed
Mineral: Pickeringite
Rruff sample: R060108
Ideal chemistry: MgAl_2_(SO_4_)_4_22H_2_O
Locality: Tucumcari, New Mexico, USA
Source: University of Arizona Mineral Museum
Description: Colorless acicular aggregates
Measured chemistry: (Mg_0.88_Mn_0.12_)_Σ=1_Al_2.00_(S_1.00_O_4_)_4_·22H_2_O
Raman shift (cm-1)	intensity
150.362	0
153.254	0.246761
156.147	1.05666
159.04	0.195026
161.932	0.60405
164.825	1.01872
167.718	0.79147
170.61	1.54791
173.503	0.359493
176.396	2.08464
179.288	1.35021
182.181	0.753712
185.074	0.85099
187.966	0.53072
190.859	0.221867
193.752	0.818531
196.645	1.21956
199.537	1.42152
202.43	1.99509
205.323	2.02327
208.215	3.74245
211.108	4.31985
214.001	4.11849
216.893	5.7933
219.786	6.63551
222.679	5.53789
225.572	5.27066
228.464	4.19694
231.357	4.71188
234.25	4.29091
237.142	5.1484
240.035	4.77564
242.928	4.49078
245.821	3.99576
248.713	3.2921
251.606	2.11567
254.499	0.452621
257.391	0.855015
260.284	0.822739
263.177	0.159912
266.069	0.399925
268.962	0.234207
271.855	0.044228
274.748	0.469868
277.64	0.512127
280.533	0.550274
283.426	1.71079
286.318	1.07925
289.211	2.72291
292.104	2.37984
294.996	3.43846
297.889	3.00421
300.782	4.63895
303.675	4.91264
306.567	4.73179
309.46	6.05139
312.353	6.29677
315.245	6.03449
318.138	5.53504
321.031	4.54598
323.923	3.51503
326.816	3.65998
329.709	3.39253
332.601	3.50569
335.494	3.21001
338.387	2.63229
341.279	2.13133
344.172	2.34099
347.065	1.93606
349.958	2.17776
352.85	2.10934
355.743	1.6151
358.636	1.34724
361.528	1.03536
364.421	0.800321
367.314	0.694855
370.207	0.379633
373.099	0.390177
375.992	0.159159
378.885	0.163082
381.777	0.040413
384.67	0.193991
387.563	0.357876
390.455	0.564943
393.348	1.16846
396.241	1.21637
399.134	2.72149
402.026	3.1251
404.919	3.52442
407.812	4.96252
410.704	6.95894
413.597	8.04374
416.49	8.81546
419.382	11.0631
422.275	11.391
425.168	10.7499
428.06	10.4301
430.953	9.37489
433.846	9.4957
436.739	8.99776
439.631	8.52058
442.524	9.62739
445.417	9.52504
448.309	11.974
451.202	12.2814
454.095	14.0524
456.988	15.0158
459.88	15.6526
462.773	15.8151
465.666	15.5573
468.558	14.9461
471.451	14.0929
474.344	11.9186
477.236	10.5392
480.129	8.36602
483.022	6.58799
485.914	5.50651
488.807	3.16341
491.7	1.64116
494.592	1.29627
497.485	1.70605
500.378	0.752354
503.271	0.347765
506.163	0.672264
509.056	0.091948
511.949	0.222094
514.841	0.804371
517.734	0.712221
520.627	1.11163
523.519	0.7236
526.412	1.15483
529.305	0.735592
532.198	0.988297
535.09	0.191355
537.983	0.430107
540.876	0.623484
543.768	0.309269
546.661	0.305759
549.554	0.863167
552.447	0.519482
555.339	0.235298
558.232	0.153105
561.125	0.161699
564.017	0.011213
566.91	0.753233
569.803	1.06314
572.695	1.19898
575.588	1.90583
578.481	1.86655
581.374	2.71764
584.266	2.60234
587.159	2.86956
590.052	5.65871
592.944	6.24939
595.837	7.04996
598.73	9.65622
601.622	9.95513
604.515	10.3867
607.408	11.2072
610.301	11.4482
613.193	11.8905
616.086	12.7237
618.979	11.7796
621.871	11.1845
624.764	10.3377
627.657	9.28944
630.549	7.40672
633.442	7.03898
636.335	6.03965
639.227	4.91922
642.12	4.74448
645.013	3.26537
647.905	3.14161
650.798	2.3752
653.691	1.6722
656.584	1.18666
659.476	1.00555
662.369	0.95241
665.262	0.014843
668.154	0.918179
671.047	0.441748
673.94	0.680435
676.832	0.134428
679.725	0.287855
682.618	0.377743
685.511	0.231184
688.403	0.126999
691.296	0.751682
694.189	0.215952
697.081	0.372913
699.974	0.705381
702.867	0.10397
705.76	0.585781
708.652	0.072001
711.545	0.481693
714.438	0.201691
717.33	0.533257
720.223	0.808182
723.116	0.054407
726.008	0.927025
728.901	0.846764
731.794	0.515099
734.687	0.339184
737.579	0.394939
740.472	0.694521
743.365	0.346651
746.257	0.635834
749.15	0.076324
752.043	0.029226
754.935	0.218887
757.828	0.703505
760.721	0.20517
763.614	0.499071
766.506	0.978256
769.399	0.202049
772.292	0.219646
775.184	0.413761
778.077	0.534805
780.97	0.446684
783.862	0.262735
786.755	0.445902
789.648	0.972242
792.54	0.695923
795.433	0.114597
798.326	0.863243
801.218	0.807796
804.111	1.10656
807.004	1.61181
809.897	0.811129
812.789	0.638697
815.682	1.28033
818.575	0.564873
821.467	0.867363
824.36	1.23083
827.253	0.530851
830.145	1.44681
833.038	1.37414
835.931	1.34676
838.824	0.64535
841.716	2.10986
844.609	1.86173
847.502	1.42167
850.394	1.40714
853.287	1.18763
856.18	1.3666
859.072	1.76955
861.965	1.45626
864.858	1.18769
867.751	1.93644
870.643	2.13462
873.536	1.90144
876.429	1.79338
879.321	0.250034
882.214	1.65251
885.107	1.5211
888	0.933725
890.892	0.724031
893.785	0.604452
896.678	0.268915
899.57	0.064325
902.463	0.581614
905.356	0.457979
908.248	0.091446
911.141	0.072609
914.034	0.187361
916.927	0.375206
919.819	0.252977
922.712	0.918966
925.605	0.698828
928.497	0.420458
931.39	0.87289
934.283	0.826271
937.175	1.38668
940.068	2.30863
942.961	2.33395
945.854	2.75372
948.746	3.7368
951.639	5.50221
954.532	7.63363
957.424	9.0258
960.317	13.6394
963.21	17.586
966.102	22.433
968.995	27.5122
971.888	34.8032
974.78	41.0298
977.673	39.1095
980.566	33.8664
983.458	37.8097
986.351	51.3888
989.244	73.7174
992.137	88.1635
995.029	91.1693
997.922	83.0965
1000.82	48.8128
1003.71	24.2642
1006.6	12.21
1009.49	6.83565
1012.38	3.87604
1015.28	2.33719
1018.17	0.735435
1021.06	0.582916
1023.96	0.74906
1026.85	0.141148
1029.74	0.159651
1032.63	0.012075
1035.53	0.098629
1038.42	0.390919
1041.31	0.186583
1044.2	0.329576
1047.1	0.682163
1049.99	1.67137
1052.88	0.886143
1055.78	1.29795
1058.67	2.56068
1061.56	3.30301
1064.45	2.91218
1067.35	3.05829
1070.24	3.24014
1073.13	3.76934
1076.03	3.54448
1078.92	3.91778
1081.81	4.12958
1084.7	3.00496
1087.6	2.24208
1090.49	2.76891
1093.38	2.49836
1096.27	1.47333
1099.17	1.78536
1102.06	1.92813
1104.95	1.54677
1107.84	1.88368
1110.74	1.81719
1113.63	2.35674
1116.52	1.63318
1119.41	2.42901
1122.31	1.95038
1125.2	2.15664
1128.09	2.62021
1130.99	3.51901
1133.88	3.42654
1136.77	3.64879
1139.66	3.6451
1142.56	4.76855
1145.45	3.96816
1148.34	3.44317
1151.23	3.34808
1154.13	2.91359
1157.02	3.08436
1159.91	1.52035
1162.81	0.853159
1165.7	0.895985
1168.59	0.692585
1171.48	0.035573
1174.38	0.430932
1177.27	0.642232
1180.16	0.138856
1183.06	0.615273
1185.95	0.342594
1188.84	0.011708
1191.73	0.41152
1194.62	0.119063
1197.52	0.999039
1200.41	1.14941
1203.3	0.411697
1206.2	0.403651
1209.09	0.357413
1211.98	0.350514
1214.87	0.600916
1217.77	0.037155
1220.66	1.13568
1223.55	0.49096
1226.44	0.350806
1229.34	0.845359
1232.23	1.06149
1235.12	0.117166
1238.02	0.890932
1240.91	0.055831
1243.8	1.43271
1246.69	0.956947
1249.59	0.466903
1252.48	0.361961
1255.37	0.590671
1258.27	0.296949
1261.16	0.170441
1264.05	0.416555
1266.94	0.515421
1269.84	0.502585
1272.73	0.853836
1275.62	0.474483
1278.51	0.818069
1281.41	0.836804
1284.3	0.095433
