Measurement: Raman, 785 nm, unoriented, Raman Data Processed
Mineral: Pickeringite
Rruff sample: R060921
Ideal chemistry: MgAl_2_(SO_4_)_4_22H_2_O
Locality: Grotta de Faraglione, Vulcano, Italy
Source: Michael Scott
Description: White parallel fibrous texture associated with blue massive magnesioaubertite, R060344
Raman shift (cm-1)	intensity
156.723	0
159.615	5.59558
162.508	29.1781
165.401	59.3951
168.293	60.4363
171.186	75.072
174.079	68.9626
176.971	81.1527
179.864	31.9172
182.757	31.4088
185.65	34.7148
188.542	24.3733
191.435	11.721
194.328	35.3859
197.22	61.0112
200.113	81.3104
203.006	82.7634
205.899	106.945
208.791	105.032
211.684	153.515
214.577	205.431
217.469	221.065
220.362	254.75
223.255	282.428
226.147	265.578
229.04	241.525
231.933	228.997
234.825	189.619
237.718	159.822
240.611	158.699
243.504	107.343
246.396	77.2842
249.289	75.2554
252.182	96.7921
255.074	44.48
257.967	65.6497
260.86	35.4764
263.752	12.677
266.645	15.1434
269.538	16.852
272.43	4.69177
275.323	19.292
278.216	4.96423
281.109	6.927
284.001	13.8195
286.894	29.4304
289.787	41.205
292.679	93.6196
295.572	96.8127
298.465	117.204
301.358	183.854
304.25	187.217
307.143	214.167
310.036	260.176
312.928	285.515
315.821	258.005
318.714	225.629
321.606	138.207
324.499	139.993
327.392	173.683
330.284	163.401
333.177	175.75
336.07	155.809
338.963	161.904
341.855	181.57
344.748	148.471
347.641	128.158
350.533	97.6501
353.426	96.0288
356.319	63.9457
359.212	46.7931
362.104	8.90369
364.997	14.8909
367.89	8.25263
370.782	26.0759
373.675	10.9283
376.568	1.94458
379.46	10.7859
382.353	30.9851
385.246	19.7023
388.139	9.81751
391.031	10.1175
393.924	37.3621
396.817	38.8558
399.709	84.6068
402.602	80.2485
405.495	162.841
408.387	223.538
411.28	327.801
414.173	486.532
417.065	614.419
419.958	704.507
422.851	754.122
425.744	709.338
428.636	601.01
431.529	478.55
434.422	429.124
437.314	384.622
440.207	338.645
443.1	378.147
445.993	394.103
448.885	469.23
451.778	549.119
454.671	575.26
457.563	637.173
460.456	719.72
463.349	736.904
466.241	782.058
469.134	735.366
472.027	664.89
474.92	596.349
477.812	512.312
480.705	390.053
483.598	309.349
486.49	226.197
489.383	173.836
492.276	96.254
495.168	46.9305
498.061	23.0726
500.954	20.4156
503.846	10.7609
506.739	1.56421
509.632	12.8401
512.524	17.4713
515.417	41.3004
518.31	38.9586
521.203	56.9526
524.095	85.8084
526.988	102.932
529.881	98.2587
532.773	58.7927
535.666	38.7623
538.559	62.7993
541.452	65.6913
544.344	2.61011
547.237	3.75482
550.13	4.81055
553.022	13.2053
555.915	16.202
558.808	10.7383
561.7	12.7469
564.593	11.9528
567.486	15.8477
570.379	2.30963
573.271	39.8663
576.164	24.0701
579.057	60.0975
581.949	79.2642
584.842	108.295
587.735	163.469
590.627	161.838
593.52	232.881
596.413	269.941
599.306	334.687
602.198	399.535
605.091	456.628
607.984	517.869
610.876	516.447
613.769	587.71
616.662	620.69
619.554	620.884
622.447	618.95
625.34	561.192
628.232	520.619
631.125	450.502
634.018	368.091
636.911	328.84
639.803	277.172
642.696	241.085
645.589	227.606
648.481	160.659
651.374	108.062
654.267	109.377
657.159	77.9184
660.052	53.0133
662.945	50.2225
665.838	42.918
668.73	40.5654
671.623	21.8966
674.516	21.4576
677.408	23.0214
680.301	4.04883
683.194	5.13696
686.087	10.3262
688.979	2.28272
691.872	7.55804
694.765	7.24957
697.657	17.6959
700.55	5.00781
703.443	1.82916
706.335	19.0092
709.228	8.94122
712.121	20.3745
715.014	17.6392
717.906	27.0646
720.799	7.73706
723.692	19.5301
726.584	29.0727
729.477	6.67242
732.37	32.127
735.262	11.343
738.155	30.7266
741.048	17.538
743.941	34.59
746.833	18.0158
749.726	24.1624
752.619	49.5264
755.511	47.1363
758.404	41.3082
761.297	19.2755
764.189	16.3733
767.082	3.06427
769.975	14.9128
772.867	52.862
775.76	42.2082
778.653	15.5806
781.546	49.6484
784.438	46.5268
787.331	42.5262
790.224	27.8113
793.116	38.8583
796.009	30.9065
798.902	32.6991
801.794	7.04584
804.687	0.989685
807.58	41.8569
810.473	66.5953
813.365	53.0627
816.258	32.123
819.151	52.1367
822.043	54.3781
824.936	36.0274
827.829	26.8838
830.721	30.9805
833.614	30.5973
836.507	21.2234
839.399	19.4564
842.292	18.1215
845.185	11.8248
848.078	20.2657
850.97	29.1068
853.863	20.6278
856.756	19.9912
859.648	25.4019
862.541	18.9855
865.434	7.19788
868.327	2.91785
871.219	11.1916
874.112	16.5598
877.005	4.26642
879.897	24.4861
882.79	21.0928
885.683	16.6576
888.575	3.44257
891.468	17.3027
894.361	15.891
897.254	8.35132
900.146	12.0658
903.039	3.13275
905.932	0.798828
908.824	0.046021
911.717	8.95544
914.61	11.5344
917.502	19.4898
920.395	4.36639
923.288	17.8838
926.181	4.05804
929.073	3.88855
931.966	28.8711
934.859	56.3404
937.751	80.5574
940.644	111.698
943.537	135.227
946.429	200.038
949.322	268.839
952.215	357.374
955.107	433.938
958	564.998
960.893	750.654
963.786	919.481
966.678	1299.61
969.571	1837.36
972.464	2447.07
975.356	2692.47
978.249	2122.32
981.142	1593.05
984.034	1935.25
986.927	3069.31
989.82	4777.82
992.713	5750.86
995.605	6221.95
998.498	5256.29
1001.39	2884.33
1004.28	1458.62
1007.18	784.385
1010.07	453.891
1012.96	283.714
1015.85	186.612
1018.75	106.987
1021.64	44.5382
1024.53	3.37891
1027.42	0.075195
1030.32	6.29096
1033.21	19.1527
1036.1	0.349365
1039	1.87152
1041.89	17.6882
1044.78	15.1387
1047.67	29.9521
1050.57	49.9594
1053.46	51.534
1056.35	76.0422
1059.24	92.5189
1062.14	105.664
1065.03	142.591
1067.92	140.028
1070.82	113.599
1073.71	138.422
1076.6	112.853
1079.49	132.608
1082.39	110.899
1085.28	129.52
1088.17	93.5709
1091.06	110.498
1093.96	78.348
1096.85	77.0693
1099.74	79.6419
1102.63	73.2273
1105.53	87.4516
1108.42	115.029
1111.31	137.366
1114.21	133.007
1117.1	116.38
1119.99	109.228
1122.88	108.746
1125.78	105.547
1128.67	122.393
1131.56	129.286
1134.45	116.123
1137.35	129.328
1140.24	152.481
1143.13	134.405
1146.03	128.059
1148.92	147.061
1151.81	122.836
1154.7	101.703
1157.6	84.9152
1160.49	70.7139
1163.38	33.8821
1166.28	28.6287
1169.17	18.1104
1172.06	5.65613
1174.95	1.85513
1177.85	3.31955
1180.74	11.9899
1183.63	4.39151
1186.52	19.5191
1189.42	28.3243
1192.31	5.89346
1195.2	1.9805
1198.09	10.6734
1200.99	33.4605
1203.88	27.5381
1206.77	3.74283
1209.66	43.4587
1212.56	58.8364
1215.45	58.5443
1218.34	96.8132
1221.24	77.7261
1224.13	88.9034
1227.02	85.9209
1229.91	71.9699
1232.81	60.8294
1235.7	27.0275
1238.59	8.21625
1241.48	27.1433
1244.38	19.0198
1247.27	32.4534
1250.16	0.192352
1253.06	23.1337
1255.95	11.4573
1258.84	11.0621
1261.73	0.000946
1264.63	22.6376
1267.52	9.23859
