Measurement: Raman, 532 nm, unoriented, Raman Data Processed
Mineral: Pickeringite
Rruff sample: R060921
Ideal chemistry: MgAl_2_(SO_4_)_4_22H_2_O
Locality: Grotta de Faraglione, Vulcano, Italy
Source: Michael Scott
Description: White parallel fibrous texture associated with blue massive magnesioaubertite, R060344
Raman shift (cm-1)	intensity
148.039	0
150.932	49.0156
153.825	1.35376
156.718	11.4216
159.61	32.0688
162.503	56.3833
165.396	110.54
168.288	60.708
171.181	43.6065
174.074	52.9355
176.966	56.1775
179.859	50.6311
182.752	34.6135
185.644	21.6543
188.537	36.3972
191.43	56.0549
194.323	80.7302
197.215	48.8935
200.108	35.1306
203.001	81.8501
205.893	137.971
208.786	160.463
211.679	193.1
214.571	194.917
217.464	248.017
220.357	261.294
223.25	207.208
226.142	182.126
229.035	195.384
231.928	170.409
234.82	176.413
237.713	130
240.606	57.9448
243.498	63.7324
246.391	48.0637
249.284	71.3118
252.177	45.0356
255.069	62.7798
257.962	5.66528
260.855	18.9409
263.747	51.7449
266.64	23.8857
269.533	4.56909
272.425	7.2666
275.318	15.7781
278.211	22.2383
281.103	7.69995
283.996	12.9802
286.889	67.844
289.782	117.022
292.674	140.441
295.567	114.245
298.46	184.41
301.352	185.855
304.245	254.235
307.138	315.223
310.031	386.408
312.923	397.319
315.816	363.627
318.709	245.085
321.601	247.655
324.494	228.833
327.387	221.653
330.279	200.612
333.172	189.935
336.065	168.432
338.957	132.32
341.85	152.788
344.743	95.4863
347.636	144.074
350.528	79.9731
353.421	58.5767
356.314	93.5657
359.206	48.3818
362.099	16.9265
364.992	26.0769
367.884	27.6399
370.777	12.0901
373.67	10.6719
376.562	1.44702
379.455	17.1504
382.348	14.3914
385.241	0.251465
388.133	2.64624
391.026	0.333252
393.919	58.8264
396.811	53.8779
399.704	71.7651
402.597	89.1899
405.49	182.717
408.382	204.593
411.275	311.037
414.168	426.111
417.06	523.745
419.953	634.604
422.846	673.316
425.738	707.065
428.631	606.669
431.524	568.77
434.416	513.124
437.309	508.996
440.202	580.592
443.095	558.673
445.987	710.483
448.88	756.868
451.773	820.359
454.665	916.015
457.558	968.878
460.451	1045.33
463.343	996.115
466.236	1023.11
469.129	1033.53
472.022	915.312
474.914	801.754
477.807	699.139
480.7	548.411
483.592	470.677
486.485	305.601
489.378	246.611
492.27	127.586
495.163	57.4336
498.056	57.7769
500.949	49.1675
503.841	18.6909
506.734	33.0566
509.627	18.9595
512.519	19.7749
515.412	36.6562
518.305	89.7007
521.197	287.559
524.09	171.911
526.983	332.622
529.875	114.737
532.768	89.9639
535.661	48.9917
538.554	116.122
541.446	4.82275
544.339	26.7602
547.232	21.5093
550.124	15.2808
553.017	19.9639
555.91	38.0762
558.803	13.6191
561.695	22.5371
564.588	25.1855
567.481	42.6938
570.373	78.4394
573.266	116.157
576.159	163.354
579.051	122.103
581.944	175.338
584.837	206.029
587.729	297.918
590.622	364.784
593.515	430.971
596.408	479.734
599.3	601.33
602.193	688.688
605.086	753.802
607.978	799.42
610.871	791.915
613.764	825.231
616.656	888.83
619.549	812.179
622.442	809.773
625.335	736.935
628.227	632.96
631.12	527.764
634.013	518.365
636.905	422.987
639.798	360.397
642.691	301.075
645.583	199.6
648.476	227.956
651.369	209.284
654.261	183.767
657.154	139.043
660.047	82.8325
662.94	62.1592
665.832	13.6123
668.725	62.0962
671.618	60.0913
674.51	29.5962
677.403	19.5547
680.296	9.80225
683.188	15.2065
686.081	54.147
688.974	22.2812
691.867	5.61963
694.759	33.8535
697.652	28.5913
700.545	15.543
703.437	34.0894
706.33	6.57519
709.223	32.5337
712.115	26.9673
715.008	20.0718
717.901	10.8071
720.793	49.9619
723.686	48.1904
726.579	59.3833
729.472	17.6973
732.364	97.6128
735.257	19.4941
738.15	55.2207
741.042	60.5425
743.935	54.1621
746.828	19.8994
749.721	47.562
752.613	64.3452
755.506	64.2144
758.399	50.8848
761.291	39.4248
764.184	35.3565
767.077	8.60645
769.969	68.6807
772.862	53.1904
775.755	59.584
778.648	51.0747
781.54	89.7192
784.433	80.1816
787.326	62.7144
790.218	112.69
793.111	142.819
796.004	126.266
798.896	90.5493
801.789	100.033
804.682	130.688
807.574	94.2437
810.467	110.126
813.36	93.8706
816.253	105.074
819.145	164.44
822.038	88.4209
824.931	129.086
827.823	132.137
830.716	133.393
833.609	83
836.501	110.371
839.394	140.663
842.287	90.6431
845.179	57.5532
848.072	47.2685
850.965	53.6055
853.858	4.74316
856.75	35.7598
859.643	0.316895
862.536	5.26807
865.428	70.3223
868.321	33.8594
871.214	43.8657
874.106	11.5889
876.999	10.2334
879.892	21.4268
882.785	54.7788
885.677	62.5
888.57	54.5977
891.463	60.3423
894.355	69.041
897.248	62.7202
900.141	29.0498
903.034	13.4136
905.926	28.8852
908.819	64.3643
911.712	32.1357
914.604	15.9819
917.497	20.6997
920.39	45.3984
923.282	42.981
926.175	99.4971
929.068	133.719
931.96	76.2856
934.853	76.251
937.746	145.001
940.639	182.365
943.531	265.966
946.424	358.403
949.317	442.745
952.209	570.762
955.102	769.333
957.995	981.634
960.888	1311.53
963.78	1745.95
966.673	2321.25
969.566	3060.96
972.458	3817.64
975.351	4155.28
978.244	3474.35
981.136	3322.36
984.029	4247.01
986.922	6114.31
989.814	8706.53
992.707	9656.16
995.6	9855.24
998.492	7820.39
1001.38	4174.5
1004.28	2117.19
1007.17	1121.92
1010.06	600.143
1012.96	331.598
1015.85	168.876
1018.74	91.2173
1021.63	4.31689
1024.53	34.1382
1027.42	10.4717
1030.31	34.7969
1033.2	21.0454
1036.1	8.54248
1038.99	3.87744
1041.88	12.7183
1044.78	42.0024
1047.67	33.3481
1050.56	114.24
1053.45	107.81
1056.35	235.817
1059.24	206.913
1062.13	230.807
1065.03	286.962
1067.92	276.599
1070.81	254.688
1073.7	270.018
1076.6	287.174
1079.49	245.046
1082.38	266.139
1085.27	288.554
1088.17	251.482
1091.06	205.422
1093.95	189.755
1096.84	177.928
1099.74	168.166
1102.63	170.436
1105.52	208.624
1108.41	201.542
1111.31	192.264
1114.2	180.832
1117.09	150.224
1119.99	141.572
1122.88	123.408
1125.77	156.891
1128.66	217.905
1131.56	267.651
1134.45	277.554
1137.34	355.568
1140.23	372.241
1143.13	368.386
1146.02	357.431
1148.91	307.54
1151.81	353.17
1154.7	246.854
1157.59	226.767
1160.48	141.64
1163.38	130.471
1166.27	71.0078
1169.16	35.9922
1172.05	3.79883
1174.95	44.7188
1177.84	54.3286
1180.73	22.4404
1183.62	10.417
1186.52	4.93701
1189.41	67.3584
1192.3	18.9551
1195.2	12.7271
1198.09	57.7153
1200.98	19.875
1203.87	42.5855
1206.77	12.6885
1209.66	47.1079
1212.55	48.9204
1215.44	40.5415
1218.34	36.2329
1221.23	68.9429
1224.12	58.4097
1227.02	15.0488
1229.91	124.855
1232.8	50.4639
1235.69	73.9819
1238.59	149.166
1241.48	71.8057
1244.37	111.006
1247.27	65.1519
1250.16	78.1084
1253.05	77.3579
1255.94	32.2539
1258.84	101.075
1261.73	38.1548
1264.62	29.9985
1267.51	53.0395
1270.41	81.3496
1273.3	88.8037
1276.19	104.928
1279.08	87.9253
1281.98	80.9805
1284.87	57.7046
1287.76	56.7402
1290.65	93.082
1293.55	18.5054
1296.44	33.8447
1299.33	35.5005
