Measurement: Raman, 532 nm, unoriented, Raman Data Processed
Mineral: Pickeringite
Rruff sample: R060108
Ideal chemistry: MgAl_2_(SO_4_)_4_22H_2_O
Locality: Tucumcari, New Mexico, USA
Source: University of Arizona Mineral Museum
Description: Colorless acicular aggregates
Measured chemistry: (Mg_0.88_Mn_0.12_)_Σ=1_Al_2.00_(S_1.00_O_4_)_4_·22H_2_O
Raman shift (cm-1)	intensity
150.046	0
152.939	4.42224
155.832	4.41435
158.724	3.44449
161.617	3.73453
164.51	0.620407
167.402	0.822235
170.295	3.09108
173.188	3.18913
176.081	3.9198
178.973	2.81143
181.866	0.99588
184.759	0.595581
187.651	0.670746
190.544	0.972626
193.437	2.37145
196.329	2.55473
199.222	4.08885
202.115	3.21393
205.008	5.90396
207.9	4.97887
210.793	6.93707
213.686	9.48912
216.578	8.20361
219.471	9.4164
222.364	8.79541
225.256	8.95773
228.149	8.54157
231.042	6.68971
233.935	6.67114
236.827	4.63821
239.72	3.55893
242.613	3.85821
245.505	3.86462
248.398	1.33637
251.291	1.13007
254.184	2.04602
257.076	0.093613
259.969	0.141342
262.862	0.303116
265.754	1.13304
268.647	1.17098
271.54	0.074615
274.433	0.392944
277.325	0.623978
280.218	0.91098
283.111	2.86764
286.003	4.9195
288.896	3.85492
291.789	7.67657
294.681	6.81503
297.574	10.7911
300.467	11.7062
303.36	10.3771
306.252	13.632
309.145	17.3944
312.038	18.8883
314.93	16.8836
317.823	14.7538
320.716	11.8221
323.608	10.4685
326.501	11.8645
329.394	12.3335
332.287	9.47522
335.179	9.7308
338.072	7.61371
340.965	6.53717
343.857	6.68826
346.75	6.77701
349.643	6.90402
352.536	3.64172
355.428	3.96381
358.321	1.24051
361.214	0.452576
364.106	1.0272
366.999	-0.546632
369.892	0.135315
372.784	0.665466
375.677	0.306824
378.57	0.4841
381.462	1.55173
384.355	0.318268
387.248	1.58917
390.141	0.844849
393.033	2.98392
395.926	3.48199
398.819	3.82422
401.712	5.06421
404.604	9.23154
407.497	10.937
410.39	14.426
413.282	19.8091
416.175	24.1003
419.068	27.414
421.96	30.6451
424.853	29.681
427.746	24.8275
430.639	24.6631
433.531	22.1509
436.424	22.212
439.317	23.0336
442.209	23.9974
445.102	26.715
447.995	30.9173
450.887	33.9201
453.78	37.3252
456.673	39.4204
459.565	41.8836
462.458	42.1303
465.351	40.1746
468.244	38.2
471.136	35.9085
474.029	31.4398
476.922	27.533
479.815	22.475
482.707	16.4963
485.6	12.1506
488.493	8.83759
491.385	3.41147
494.278	3.48328
497.171	1.70917
500.063	1.68039
502.956	1.02032
505.849	0.090942
508.741	1.68927
511.634	0.379303
514.527	1.84662
517.42	1.22098
520.312	1.28989
523.205	1.41718
526.098	2.93555
528.99	1.64114
531.883	3.25595
534.776	1.45874
537.668	1.39233
540.561	1.14459
543.454	0.141632
546.347	0.046753
549.239	0.091156
552.132	0.805969
555.025	0.068878
557.917	0.267578
560.81	1.07773
563.703	0.27887
566.596	0.818054
569.488	1.27539
572.381	5.61386
575.274	6.21277
578.166	6.82663
581.059	8.87265
583.952	8.1185
586.845	11.9939
589.737	16.1825
592.63	16.8394
595.523	22.0908
598.415	24.2867
601.308	27.7761
604.201	28.0637
607.093	31.1488
609.986	30.2852
612.879	29.2017
615.771	28.5642
618.664	29.7809
621.557	27.6438
624.45	25.5823
627.342	21.9591
630.235	18.4384
633.128	17.0301
636.02	15.4267
638.913	10.9047
641.806	10.3305
644.698	9.54346
647.591	6.11902
650.484	4.59503
653.377	5.42569
656.269	2.44186
659.162	2.16199
662.055	1.03183
664.947	0.938507
667.84	0.859467
670.733	1.09686
673.626	0.257141
676.518	0.229309
679.411	2.00244
682.304	1.01117
685.196	1.65616
688.089	0.42392
690.982	0.668549
693.875	0.09082
696.767	0.022583
699.66	2.09955
702.553	2.40469
705.445	1.54208
708.338	0.970551
711.231	1.50647
714.124	2.89978
717.016	1.72278
719.909	2.40305
722.802	1.63669
725.694	0.817078
728.587	1.80597
731.48	1.32159
734.372	1.30981
737.265	0.958954
740.158	2.50665
743.051	2.98733
745.943	2.38751
748.836	0.068542
751.729	0.456116
754.621	0.785187
757.514	0.036591
760.407	1.4585
763.299	1.84921
766.192	1.12854
769.085	2.35547
771.977	0.946045
774.87	1.48434
777.763	1.93884
780.656	0.466644
783.548	1.61859
786.441	3.51208
789.334	2.4581
792.226	1.89359
795.119	0.882568
798.012	0.217865
800.904	2.28864
803.797	1.96536
806.69	0.511322
809.583	2.64209
812.475	1.47342
815.368	0.981628
818.261	0.114166
821.154	1.52679
824.046	2.09433
826.939	1.01257
829.832	0.713654
832.724	1.84076
835.617	0.470001
838.51	0.644073
841.402	1.44275
844.295	3.37711
847.188	2.82205
850.081	1.83618
852.973	2.87631
855.866	2.51797
858.759	1.16025
861.651	2.39108
864.544	1.32053
867.437	0.382355
870.33	1.31982
873.222	1.15079
876.115	1.52643
879.008	0.694946
881.9	0.345947
884.793	0.303558
887.686	2.04135
890.578	0.966675
893.471	0.83606
896.364	0.190918
899.256	0.309174
902.149	1.63647
905.042	1.03009
907.935	0.141907
910.827	0.463867
913.72	0.325592
916.613	1.02035
919.505	0.626007
922.398	1.87894
925.291	1.48053
928.183	1.56671
931.076	1.48825
933.969	3.19135
936.862	5.71948
939.754	8.79367
942.647	9.55292
945.54	14.4874
948.432	16.5746
951.325	19.0527
954.218	25.6045
957.111	32.8256
960.003	41.834
962.896	58.222
965.789	74.893
968.681	97.5911
971.574	124.949
974.467	139.195
977.36	122.678
980.252	106.684
983.145	129.063
986.038	189.577
988.93	267.352
991.823	308.556
994.716	322.831
997.608	269.945
1000.5	150.692
1003.39	75.3251
1006.29	37.8143
1009.18	19.866
1012.07	11.5621
1014.97	5.98132
1017.86	4.23605
1020.75	1.42825
1023.64	0.056427
1026.54	0.708405
1029.43	0.738922
1032.32	0.120178
1035.21	0.784332
1038.11	0.555725
1041	0.524017
1043.89	3.48294
1046.78	4.92001
1049.68	4.25134
1052.57	5.68951
1055.46	7.16089
1058.36	8.35907
1061.25	9.64444
1064.14	10.1099
1067.03	11.736
1069.93	11.3385
1072.82	10.7862
1075.71	11.4878
1078.6	9.09906
1081.5	11.2987
1084.39	9.82288
1087.28	10.0594
1090.17	7.81421
1093.07	6.76566
1095.96	4.76685
1098.85	4.91733
1101.75	5.52914
1104.64	4.46747
1107.53	5.5184
1110.42	7.85922
1113.32	7.39203
1116.21	6.9068
1119.1	7.07614
1121.99	5.4837
1124.89	8.04623
1127.78	8.79578
1130.67	10.754
1133.57	12.5434
1136.46	14.2266
1139.35	13.4425
1142.24	15.3603
1145.14	15.9969
1148.03	15.4885
1150.92	12.1102
1153.81	10.1387
1156.71	6.07812
1159.6	5.32513
1162.49	4.29724
1165.38	2.85681
1168.28	2.66913
1171.17	3.40216
1174.06	2.07452
1176.96	1.05631
1179.85	0.648987
1182.74	0.705231
1185.63	0.823212
1188.53	0.342255
1191.42	0.81366
1194.31	1.56061
1197.2	0.137207
1200.1	1.24875
1202.99	0.555908
1205.88	0.323364
1208.78	1.06189
1211.67	1.89542
1214.56	0.975281
1217.45	3.19424
1220.35	1.96246
1223.24	1.68903
1226.13	2.44464
1229.03	1.79748
1231.92	4.90106
1234.81	1.13013
1237.7	2.40115
1240.6	1.49109
1243.49	0.869537
1246.38	1.1579
1249.27	1.58545
1252.17	1.65274
1255.06	2.5787
1257.95	0.785858
1260.84	1.75238
1263.74	1.41415
1266.63	3.33237
1269.52	2.39255
1272.41	3.07407
1275.31	3.70486
1278.2	2.35925
1281.09	2.50549
1283.99	1.43625
1286.88	0.88382
1289.77	1.66864
1292.66	1.98026
1295.56	1.67059
1298.45	2.42682
1301.34	0.581421
