Measurement: Raman, 532 nm, unoriented, Raman Data Processed
Mineral: Picropharmacolite
Rruff sample: R050560
Ideal chemistry: Ca_4_Mg(As^5+^O_3_OH)_2_(As^5+^O_4_)_2_11H_2_O
Locality: Riechelsdorf, Saxony, Germany
Source: University of Arizona Mineral Museum
Description: Spray of white fibrous crystals
Measured chemistry: Ca_4.00_(Mg_0.75_Al_0.16_[box]_0.09_)_Σ=1_((As_0.99_S_0.01_)_Σ=1_O_3_OH)_2_(As_1.00_O_4_)_2_·11H_2_O
Raman shift (cm-1)	intensity
165.361	0
168.254	1.41626
171.147	19.2749
174.039	22.667
176.932	30.0041
179.825	49.5117
182.718	46.469
185.61	44.1572
188.503	32.9287
191.396	24.8914
194.288	20.1931
197.181	22.5732
200.074	22.2512
202.966	9.09082
205.859	8.0752
208.752	10.4194
211.645	8.82593
214.537	15.6726
217.43	8.4043
220.323	20.5435
223.215	17.3081
226.108	23.46
229.001	27.2063
231.893	32.658
234.786	39.5024
237.679	38.8992
240.572	28.6235
243.464	30.7534
246.357	42.6323
249.25	27.6606
252.142	28.727
255.035	18.0491
257.928	1.98071
260.82	3.49243
263.713	1.89941
266.606	11.6457
269.499	1.60962
272.391	9.09106
275.284	12.8669
278.177	1.99072
281.07	9.50806
283.962	7.05269
286.855	17.8872
289.748	25.4509
292.64	15.4531
295.533	1.5459
298.426	24.5278
301.318	41.7634
304.211	66.6484
307.104	93.0088
309.997	131.391
312.889	172.485
315.782	205.357
318.675	262.116
321.567	267.769
324.46	289.739
327.353	316.739
330.245	356.761
333.138	384.034
336.031	409.455
338.924	425.693
341.816	402.649
344.709	380.764
347.602	356.134
350.494	326.867
353.387	290.054
356.28	277.429
359.173	256.846
362.065	228.202
364.958	187.564
367.851	131.74
370.743	86.2671
373.636	48.6162
376.529	27.8528
379.421	35.1924
382.314	32.052
385.207	43.0461
388.099	52.5688
390.992	59.499
393.885	66.4978
396.778	64.7847
399.67	77.1746
402.563	67.6299
405.456	57.9102
408.348	56.1455
411.241	41.552
414.134	41.804
417.027	48.269
419.919	52.8818
422.812	81.3106
425.705	78.6816
428.597	100.403
431.49	130.428
434.383	140.973
437.276	156.483
440.168	160.257
443.061	162.454
445.954	151.127
448.846	129.695
451.739	105.876
454.632	89.1443
457.524	61.3386
460.417	51.5781
463.31	34.342
466.202	38.1897
469.095	39.4207
471.988	30.2864
474.881	28.5164
477.773	10.6887
480.666	3.40454
483.559	1.28076
486.451	8.73804
489.344	11.3909
492.237	15.0637
495.13	8.12964
498.022	3.41894
500.915	19.0051
503.808	14.7856
506.7	15.3596
509.593	21.9692
512.486	18.771
515.379	32.9626
518.271	32.5806
521.164	38.813
524.057	45.4168
526.949	47.7502
529.842	43.593
532.735	31.9282
535.627	47.8557
538.52	42.707
541.413	51.2905
544.306	61.3806
547.198	57.3066
550.091	34.5698
552.984	18.1729
555.876	7.47583
558.769	17.7017
561.662	17.3992
564.554	11.2483
567.447	21.6531
570.34	27.0102
573.232	26.2283
576.125	16.3408
579.018	12.2642
581.911	19.3103
584.803	25.8281
587.696	32.8752
590.589	21.563
593.481	36.053
596.374	18.2561
599.267	18.8384
602.16	32.5554
605.052	22.1811
607.945	15.0188
610.838	18.9246
613.73	16.4939
616.623	12.9932
619.516	21.7068
622.409	23.0256
625.301	21.511
628.194	19.4578
631.087	13.4885
633.979	7.8562
636.872	4.65137
639.765	16.5364
642.658	14.4927
645.55	20.762
648.443	12.4783
651.336	6.56177
654.228	11.6306
657.121	0.985107
660.014	0.72998
662.906	7.6792
665.799	7.08667
668.692	3.48682
671.585	2.21826
674.477	6.44189
677.37	12.656
680.263	4.72729
683.155	14.314
686.048	14.4739
688.941	37.9758
691.833	35.6086
694.726	29.8069
697.619	42.75
700.511	66.7236
703.404	103.808
706.297	153.267
709.19	178.679
712.082	208.943
714.975	211.352
717.868	208.489
720.76	194.214
723.653	176.492
726.546	171.408
729.439	158.525
732.331	158.124
735.224	141.673
738.117	124.674
741.009	111.52
743.902	96.7515
746.795	100.559
749.688	64.5444
752.58	40.4644
755.473	19.9795
758.366	5.46973
761.258	22.1123
764.151	29.4839
767.044	18.0171
769.936	13.8398
772.829	10.639
775.722	19.208
778.615	47.2734
781.507	79.0767
784.4	133.831
787.293	184.778
790.185	247.282
793.078	316.202
795.971	345.807
798.864	408.614
801.756	453.021
804.649	494.698
807.542	568.819
810.434	694.087
813.327	822.318
816.22	928.139
819.112	957.864
822.005	970.487
824.898	978.371
827.79	1069.88
830.683	1214.18
833.576	1344.09
836.469	1342.06
839.361	1279.95
842.254	1197.8
845.147	1100.57
848.039	1039.98
850.932	991.585
853.825	1011.72
856.717	1076.47
859.61	1179.22
862.503	1310.59
865.396	1430.1
868.288	1457.24
871.181	1302.2
874.074	916.036
876.966	558.114
879.859	360.432
882.752	247.225
885.645	211.324
888.537	213.611
891.43	245.374
894.323	287.964
897.215	315.488
900.108	327.046
903.001	300.414
905.894	220.865
908.786	141.956
911.679	71.688
914.572	38.9473
917.464	9.84033
920.357	9.22607
923.25	19.1064
926.143	22.9023
929.035	14.9668
931.928	4.88428
934.821	1.39307
937.713	5.96631
940.606	7.56006
943.499	4.17481
946.391	12.9482
949.284	3.31103
952.177	16.3686
955.069	17.5601
957.962	29.7158
960.855	29.8896
963.748	33.2827
966.64	24.4316
969.533	28.8159
972.426	27.8433
975.318	43.5391
978.211	51.3149
981.104	41.8906
983.996	31.605
986.889	35.5806
989.782	39.4502
992.675	30.2573
995.567	36.7251
998.46	27.4219
1001.35	33.4058
1004.25	25.6152
1007.14	16.0015
1010.03	11.3462
1012.92	13.2109
1015.82	29.333
1018.71	17.9814
1021.6	26.3613
1024.49	14.3389
1027.39	11.9727
1030.28	21.1333
1033.17	14.9336
1036.07	17.5146
1038.96	3.63623
1041.85	4.68604
1044.74	4.64697
1047.64	8.78662
1050.53	23.5293
1053.42	24.8691
1056.31	12.2363
1059.21	3.69092
1062.1	8.01562
1064.99	12.9097
1067.88	8.39062
1070.78	7.04785
1073.67	5.55566
1076.56	22.9175
1079.46	22.9307
1082.35	10.2344
1085.24	17.0234
1088.13	11.8296
1091.03	5.67529
1093.92	12.9355
1096.81	4.75977
1099.7	10.1328
1102.6	14.7524
1105.49	3.99414
1108.38	0.770996
1111.28	5.12305
1114.17	14.8218
1117.06	19.0889
1119.95	15.2192
1122.85	14.8721
1125.74	7.09059
1128.63	0.615234
1131.52	8.61621
1134.42	11.1504
1137.31	18.0205
1140.2	20.0879
1143.1	17.6167
1145.99	14.6987
1148.88	15.7637
1151.77	0.419922
1154.67	3.82275
1157.56	9.59473
1160.45	10.4053
1163.34	8.80566
1166.24	3.84277
1169.13	11.4546
1172.02	28.2925
1174.91	21.2373
1177.81	18.9243
1180.7	15.6899
1183.59	3.88916
1186.49	8.90527
1189.38	5.48486
1192.27	15.0806
1195.16	19.9238
1198.06	11.4922
1200.95	12.0806
1203.84	7.23535
1206.73	15.9004
1209.63	16.5762
1212.52	18.398
1215.41	14.3276
1218.31	8.6294
1221.2	20.7881
1224.09	25.2895
1226.98	20.0981
1229.88	19.9805
1232.77	20.5981
1235.66	11.9834
1238.55	2.0376
1241.45	9.95898
1244.34	13.4292
1247.23	22.2544
1250.12	30.0361
1253.02	29.3213
1255.91	22.5723
1258.8	31.5679
1261.7	27.96
1264.59	17.1055
1267.48	24.9145
1270.37	41.7227
1273.27	28.665
1276.16	25.5464
1279.05	19.5967
1281.94	11.5205
1284.84	15.9028
1287.73	12.7793
1290.62	14.6924
1293.52	7.66602
1296.41	6.33154
1299.3	7.73096
1302.19	0.717285
