Measurement: Raman, 780 nm, unoriented, Raman Data Processed
Mineral: Picropharmacolite
Rruff sample: R050560
Ideal chemistry: Ca_4_Mg(As^5+^O_3_OH)_2_(As^5+^O_4_)_2_11H_2_O
Locality: Riechelsdorf, Saxony, Germany
Source: University of Arizona Mineral Museum
Description: Spray of white fibrous crystals
Measured chemistry: Ca_4.00_(Mg_0.75_Al_0.16_[box]_0.09_)_Σ=1_((As_0.99_S_0.01_)_Σ=1_O_3_OH)_2_(As_1.00_O_4_)_2_·11H_2_O
Raman shift (cm-1)	intensity
121.475	0
124.849	9.13062
128.224	0.720459
131.599	8.50354
134.974	1.54492
138.349	11.2131
141.723	2.10767
145.098	7.28882
148.473	2.82873
151.848	10.2119
155.223	14.4535
158.597	30.5599
161.972	26.2495
165.347	21.2976
168.722	12.0032
172.097	3.26856
175.472	10.1443
178.846	9.06323
182.221	17.6743
185.596	14.3557
188.971	13.2189
192.346	5.38769
195.72	6.22571
199.095	6.73877
202.47	1.16797
205.845	2.21216
209.22	15.5321
212.595	7.40808
215.969	15.9083
219.344	16.1054
222.719	20.0077
226.094	26.0186
229.469	32.2185
232.843	28.5137
236.218	34.3206
239.593	39.7914
242.968	28.7505
246.343	33.4403
249.718	30.9685
253.092	24.4054
256.467	19.0986
259.842	16.978
263.217	15.2104
266.592	10.4479
269.966	3.61169
273.341	1.7004
276.716	3.59204
280.091	3.86975
283.466	8.83521
286.84	5.4458
290.215	3.77356
293.59	7.573
296.965	13.9918
300.34	31.223
303.714	41.2471
307.089	59.5878
310.464	85.3586
313.839	109.82
317.214	146.826
320.589	171.539
323.963	198.342
327.338	211.336
330.713	225.423
334.088	232.666
337.463	236.177
340.837	233.374
344.212	213.742
347.587	191.506
350.962	181.713
354.337	161.84
357.712	161.849
361.086	139.647
364.461	118.034
367.836	92.6075
371.211	65.4561
374.586	31.0393
377.96	22.1813
381.335	22.036
384.71	13.1122
388.085	15.6036
391.46	20.839
394.834	24.4197
398.209	29.4071
401.584	30.1876
404.959	26.196
408.334	21.1892
411.709	24.5712
415.083	31.475
418.458	38.0226
421.833	50.0333
425.208	65.5968
428.583	71.0695
431.957	84.6685
435.332	91.6825
438.707	87.7001
442.082	84.7275
445.457	72.0129
448.832	66.022
452.206	49.3176
455.581	40.0729
458.956	30.3098
462.331	12.7614
465.706	16.8334
469.08	8.91956
472.455	6.96179
475.83	2.74622
479.205	2.84888
482.58	5.09345
485.954	3.06598
489.329	1.26135
492.704	2.16925
496.079	2.99121
499.454	0.136169
502.829	5.21893
506.203	0.930969
509.578	6.15894
512.953	5.76697
516.328	11.7372
519.703	11.5391
523.077	13.0011
526.452	10.2758
529.827	17.8248
533.202	18.9167
536.577	25.4212
539.952	26.9375
543.326	25.9877
546.701	21.2141
550.076	20.2494
553.451	21.7301
556.826	10.6469
560.2	12.9009
563.575	14.3528
566.95	10.7205
570.325	16.3888
573.7	13.798
577.074	17.7942
580.449	14.2822
583.824	12.1679
587.199	12.3793
590.574	10.071
593.948	15.8724
597.323	14.6195
600.698	15.2388
604.073	21.7919
607.448	13.1686
610.823	11.5377
614.197	15.0786
617.572	13.3325
620.947	15.3546
624.322	12.4214
627.697	13.5871
631.072	16.0514
634.446	8.71295
637.821	7.93945
641.196	2.01917
644.571	1.45154
647.946	6.95087
651.32	2.38592
654.695	0.423462
658.07	2.11999
661.445	0.361694
664.82	0.222595
668.194	3.23901
671.569	4.27087
674.944	8.5567
678.319	9.86786
681.694	10.7656
685.068	11.1171
688.443	14.1823
691.818	19.0148
695.193	22.762
698.568	38.9756
701.943	49.4433
705.317	70.1046
708.692	90.9868
712.067	99.3208
715.442	103.893
718.817	85.28
722.192	68.5847
725.566	52.4075
728.941	38.2371
732.316	33.4676
735.691	20.7634
739.066	23.004
742.44	24.3577
745.815	11.252
749.19	5.8988
752.565	5.86798
755.94	4.0965
759.314	7.99426
762.689	9.80914
766.064	5.64734
769.439	6.00415
772.814	4.53865
776.188	7.22992
779.563	26.2494
782.938	44.1152
786.313	72.2683
789.688	103.547
793.063	135.923
796.437	153.399
799.812	189.953
803.187	218.075
806.562	264.184
809.937	326.033
813.312	396.387
816.686	421.308
820.061	401.295
823.436	398.456
826.811	432.501
830.186	507.348
833.56	594.95
836.935	617.959
840.31	592.287
843.685	577.663
847.06	549.912
850.434	520.599
853.809	531.738
857.184	557.781
860.559	596.773
863.934	627.642
867.308	635.271
870.683	567.906
874.058	387.714
877.433	228.599
880.808	153.121
884.183	119.135
887.557	117.465
890.932	117.45
894.307	139.158
897.682	141.46
901.057	129.436
904.432	91.4356
907.806	56.4976
911.181	23.0075
914.556	3.81775
917.931	0.362
921.306	0.540771
924.68	5.86377
928.055	10.5286
931.43	4.12225
934.805	4.62872
938.18	4.69647
941.554	1.60346
944.929	4.09064
948.304	4.97003
951.679	5.19965
955.054	10.3018
958.428	7.95813
961.803	18.0721
965.178	14.3843
968.553	13.7827
971.928	18.7482
975.303	13.0154
978.677	16.5495
982.052	19.1439
985.427	15.3612
988.802	10.8798
992.177	6.90326
995.552	10.8106
998.926	10.1476
1002.3	6.73267
1005.68	11.9595
1009.05	7.46881
1012.43	7.10431
1015.8	10.9134
1019.17	9.34955
1022.55	8.6803
1025.92	7.31342
1029.3	7.90942
1032.67	8.81702
1036.05	8.92548
1039.42	5.6167
1042.8	6.17517
1046.17	8.7215
1049.55	3.78827
1052.92	3.72168
1056.3	8.48401
1059.67	14.1638
1063.05	2.13422
1066.42	2.2229
1069.8	7.69983
1073.17	5.53705
1076.55	4.23395
1079.92	3.6474
1083.3	3.64417
1086.67	3.25684
1090.05	9.09735
1093.42	0.011292
1096.8	6.80365
1100.17	0.150269
1103.55	2.82538
1106.92	2.12457
1110.3	4.37878
1113.67	0.177002
1117.05	6.54401
1120.42	4.92673
1123.79	6.52533
1127.17	7.36838
1130.54	2.75815
1133.92	2.04703
1137.29	5.29629
1140.67	6.80841
1144.04	5.20935
1147.42	6.28763
1150.79	4.96503
1154.17	0.838226
1157.54	0.982941
1160.92	8.48373
1164.29	0.302124
1167.67	5.99728
1171.04	5.232
1174.42	5.91971
1177.79	4.76129
1181.17	6.17364
1184.54	1.13333
1187.92	5.28186
1191.29	5.87894
1194.67	7.91702
1198.04	9.90298
1201.41	6.95053
1204.79	11.2912
1208.16	5.96487
1211.54	5.31232
1214.91	0.982697
1218.29	11.0384
1221.66	0.500549
1225.04	6.44015
1228.41	0.714081
1231.79	4.47092
1235.16	4.46252
1238.54	7.14725
1241.91	6.18182
1245.29	4.71442
1248.66	6.36008
1252.04	6.33765
1255.41	8.62183
1258.79	0.193176
1262.16	3.5029
1265.54	9.65817
1268.91	12.6802
1272.29	1.95843
1275.66	4.23123
1279.04	12.1631
1282.41	2.37927
1285.79	0.561768
