Measurement: Raman, 785 nm, unoriented, Raman Data Processed
Mineral: Piemontite
Rruff sample: R060905
Ideal chemistry: Ca_2_Mn^3+^Al_2_(Si_2_O_7_)(SiO_4_)O(OH)
Locality: Praborna mine, Aosta Valley, St. Marcel, Italy
Source: Michael Scott
Description: Elongated purple single crystals associated with albite and romeite, R060323
Measured chemistry: lighter phase: (Ca_1.82_Mn^2+^_0.12_)_Σ=2_(Al_1.95_Mn^3+^_0.97_Fe^3+^_0.08_)_Σ=3_[Si_2.00_O_7_][Si_1.00_O_4_]O(OH) ; darker phase is albite.
Raman shift (cm-1)	intensity
162.989	0
165.882	19.1431
168.775	139.398
171.668	164.683
174.56	151.827
177.453	172.984
180.346	139.847
183.238	254.995
186.131	303.675
189.024	364.808
191.917	375.273
194.809	572.843
197.702	635.153
200.595	782.47
203.487	879.676
206.38	856.32
209.273	797.938
212.165	839.505
215.058	833.061
217.951	903.748
220.844	838.348
223.736	767.4
226.629	620.084
229.522	405.373
232.414	231.793
235.307	198.486
238.2	131.86
241.092	163.906
243.985	89.8176
246.878	44.9849
249.77	0.035156
252.663	22.5859
255.556	19.4224
258.449	13.0994
261.341	42.2068
264.234	151.951
267.127	298.281
270.019	385.31
272.912	442.036
275.805	461.947
278.697	404.178
281.59	465.942
284.483	502.37
287.376	515.619
290.268	454.188
293.161	336.273
296.054	291.905
298.946	269.075
301.839	275.901
304.732	323.159
307.625	336.737
310.517	297.373
313.41	297.041
316.303	227.716
319.195	193.364
322.088	135.988
324.981	162.314
327.873	75.3276
330.766	74.1865
333.659	79.0666
336.551	25.9341
339.444	29.6204
342.337	17.5864
345.23	5.89429
348.122	20.3418
351.015	50.323
353.908	3.08887
356.8	5.80884
359.693	8.00659
362.586	33.2847
365.478	2.23608
368.371	14.2856
371.264	58.0454
374.157	47.7693
377.049	75.6792
379.942	60.1223
382.835	110.028
385.727	109.194
388.62	41.6409
391.513	4.02832
394.406	2.23071
397.298	12.9329
400.191	13.761
403.084	82.5063
405.976	262.989
408.869	402.524
411.762	674.599
414.654	908.06
417.547	1152.63
420.44	1179.98
423.332	1165.98
426.225	1162.04
429.118	1258.42
432.011	1298.83
434.903	1430.88
437.796	1305.01
440.689	1042.29
443.581	891.268
446.474	806.821
449.367	871.642
452.26	1033.37
455.152	1247.48
458.045	1499.98
460.938	1741.34
463.83	2127.71
466.723	2318.35
469.616	2417.88
472.508	2332.94
475.401	2064.24
478.294	1494.68
481.187	925.565
484.079	492.034
486.972	218.878
489.865	124.631
492.757	18.772
495.65	75.6042
498.543	23.178
501.435	59.1492
504.328	207.735
507.221	421.342
510.114	606.941
513.006	702.391
515.899	977.246
518.792	1215.92
521.684	1553.17
524.577	1603.45
527.47	1270.48
530.362	726.638
533.255	245.507
536.148	15.0749
539.04	40.4348
541.933	5.03809
544.826	149.454
547.719	507.831
550.611	1023.98
553.504	1931.14
556.397	2927.96
559.289	3565.05
562.182	3100.53
565.075	2135.74
567.967	1502.18
570.86	1460.94
573.753	1773.96
576.646	2114.98
579.538	2170.93
582.431	2003.15
585.324	1737.64
588.216	1527.7
591.109	1243.28
594.002	881.812
596.895	515.026
599.787	301.236
602.68	122.694
605.573	20.8025
608.465	27.0464
611.358	6.12207
614.251	23.4214
617.144	94.0208
620.036	198.225
622.929	409.569
625.822	647.848
628.714	942.981
631.607	1326.36
634.5	1678.43
637.392	2117.49
640.285	2480.7
643.178	2673.21
646.071	2593.29
648.963	2001.98
651.856	1330.71
654.749	852.735
657.641	499.721
660.534	321.948
663.427	158.035
666.319	66.217
669.212	1.61108
672.105	0.307861
674.997	18.5505
677.89	12.4893
680.783	41.1245
683.676	1.26074
686.568	31.8486
689.461	23.7966
692.354	1.52466
695.246	45.8943
698.139	28.0024
701.032	53.5977
703.924	13.1829
706.817	20.4622
709.71	36.0608
712.603	33.166
715.495	33.209
718.388	63.7449
721.281	57.1399
724.173	43.6572
727.066	57.2693
729.959	53.196
732.851	74.0193
735.744	22.9004
738.637	64.6799
741.53	33.6624
744.422	97.0718
747.315	82.0881
750.208	95.7083
753.1	104.898
755.993	107.11
758.886	113.963
761.779	72.2483
764.671	53.9565
767.564	28.106
770.457	33.3648
773.349	56.428
776.242	40.28
779.135	55.4299
782.027	11.2781
784.92	27.1414
787.813	58.4766
790.706	52.6206
793.598	53.594
796.491	27.1091
799.384	2.30103
802.276	62.3855
805.169	42.9165
808.062	61.8838
810.954	109.461
813.847	96.8289
816.74	158.028
819.633	241.683
822.525	197.893
825.418	267.509
828.311	294.75
831.203	327.609
834.096	298.894
836.989	220.697
839.881	204.665
842.774	134.501
845.667	121.29
848.559	36.01
851.452	59.0535
854.345	14.8477
857.238	40.3799
860.13	20.4741
863.023	41.1409
865.916	40.2661
868.808	36.5864
871.701	102.925
874.594	127.507
877.486	149.798
880.379	154
883.272	214.909
886.165	193.55
889.057	205.096
891.95	314.375
894.843	330.529
897.735	438.311
900.628	427.659
903.521	473.291
906.413	537.055
909.306	538.247
912.199	583.852
915.092	629.582
917.984	689.343
920.877	609.204
923.77	488.012
926.663	415.882
929.555	240.956
932.448	159.582
935.341	113.029
938.233	71.8003
941.126	37.8218
944.019	10.5051
946.911	21.1233
949.804	36.3274
952.697	9.92969
955.59	31.1912
958.482	18.5325
961.375	66.5915
964.268	77.2268
967.16	98.8838
970.053	169.852
972.946	212.511
975.838	170.57
978.731	156.948
981.624	126.676
984.516	74.3306
987.409	50.3401
990.302	44.0076
993.195	31.7743
996.087	8.03296
998.98	4.80762
1001.87	46.5629
1004.76	12.364
1007.66	31.5929
1010.55	55.7649
1013.44	67.2316
1016.34	1.26355
1019.23	58.0945
1022.12	8.5658
1025.01	8.85584
1027.91	28.9108
1030.8	74.8431
1033.69	59.671
1036.59	114.56
1039.48	82.6283
1042.37	83.0081
1045.26	63.2448
1048.16	68.2575
1051.05	27.0305
1053.94	96.0485
1056.83	90.1936
1059.73	85.0631
1062.62	146.987
1065.51	198.005
1068.4	239.894
1071.3	356.661
1074.19	395.637
1077.08	444.011
1079.98	569.119
1082.87	608.215
1085.76	636.709
1088.65	628.749
1091.55	561.526
1094.44	406.377
1097.33	260.437
1100.22	139.335
1103.12	134.275
1106.01	85.9646
1108.9	51.5021
1111.8	43.0227
1114.69	40.7516
1117.58	13.9501
1120.47	29.5708
1123.37	39.5221
1126.26	13.6976
1129.15	10.7498
1132.04	38.7468
1134.94	19.0232
1137.83	18.2313
1140.72	30.0588
1143.62	32.3781
1146.51	3.71887
1149.4	67.6174
1152.29	26.9241
1155.19	15.7967
1158.08	14.4688
1160.97	25.5863
1163.86	71.7755
1166.76	38.4816
1169.65	41.9691
1172.54	10.9578
1175.43	83.8352
1178.33	50.413
1181.22	38.9463
1184.11	45.2749
1187.01	37.7102
1189.9	46.9807
1192.79	70.7572
1195.68	85.9786
1198.58	56.486
1201.47	36.807
1204.36	37.962
1207.25	9.78198
1210.15	34.6561
1213.04	43.3588
1215.93	67.2944
1218.83	81.7433
1221.72	61.2474
1224.61	103.162
1227.5	101.033
1230.4	63.2018
1233.29	59.0553
1236.18	12.8607
1239.07	0.274658
1241.97	43.8186
1244.86	92.9664
1247.75	112.461
1250.64	86.1219
1253.54	43.9058
1256.43	7.41589
1259.32	25.9573
1262.22	5.29614
