Measurement: Raman, 785 nm, unoriented, Raman Data Processed
Mineral: Piemontite
Rruff sample: R061119
Ideal chemistry: Ca_2_Mn^3+^Al_2_(Si_2_O_7_)(SiO_4_)O(OH)
Locality: Muramatsu mine, Kinkai, Nagasaki, Japan
Source: Michael Scott
Description: Red elongated prismatic crystals
Measured chemistry: (Ca_1.96_Mn^2+^_0.04_)_Σ=2_(Mn^3+^_0.64_Fe^3+^_0.36_)_Σ=1_Al_2.00_(Si_2.00_O_7_)(Si_1.00_O_4_)O(OH); OH assumed by stoichiometry; Mn^2+^ and  Mn^3+^ splitted by charge balance
Raman shift (cm-1)	intensity
193.947	0
196.84	3.04077
199.732	67.8256
202.625	139.944
205.518	143.921
208.41	120.897
211.303	55.2748
214.196	1.12561
217.088	0.456665
219.981	68.9225
222.874	74.746
225.767	128.428
228.659	93.8999
231.552	86.3268
234.445	90.2235
237.337	148.241
240.23	214.012
243.123	300.212
246.015	227.471
248.908	115.248
251.801	34.7375
254.694	26.2513
257.586	9.70471
260.479	9.05359
263.372	83.277
266.264	145.684
269.157	234.708
272.05	390.049
274.942	471.121
277.835	421.019
280.728	305.048
283.62	253.285
286.513	285.122
289.406	386.819
292.299	519.364
295.191	635.724
298.084	619.916
300.977	506.315
303.869	380.005
306.762	318.979
309.655	261.25
312.548	228.667
315.44	222.756
318.333	161.685
321.226	150.384
324.118	111.126
327.011	60.6027
329.904	46.6882
332.796	33.286
335.689	17.079
338.582	3.94507
341.474	1.8136
344.367	23.4264
347.26	9.81574
350.153	18.7223
353.045	10.7016
355.938	7.98498
358.831	5.42358
361.723	2.78381
364.616	6.62152
367.509	10.2191
370.401	17.2031
373.294	0.767883
376.187	5.71551
379.08	6.18628
381.972	31.1923
384.865	36.7524
387.758	132.424
390.65	95.7026
393.543	56.4454
396.436	42.5179
399.329	112.992
402.221	274.736
405.114	487.029
408.007	632.661
410.899	695.273
413.792	625.217
416.685	633.467
419.577	708.811
422.47	868.118
425.363	917.402
428.255	765.726
431.148	559.553
434.041	448.841
436.934	426.28
439.826	365.769
442.719	369.592
445.612	371.777
448.504	401.308
451.397	499.085
454.29	608.198
457.183	818.18
460.075	993.478
462.968	1175.05
465.861	1217.47
468.753	1208.41
471.646	1087.51
474.539	915.661
477.431	765.599
480.324	554.107
483.217	375.658
486.109	245.033
489.002	207.377
491.895	143.114
494.788	109.546
497.68	64.9865
500.573	8.83134
503.466	8.34896
506.358	12.952
509.251	56.1577
512.144	67.3124
515.036	76.4526
517.929	109.631
520.822	249.004
523.715	410.416
526.607	426.93
529.5	280.639
532.393	82.9388
535.285	27.8404
538.178	15.9619
541.071	13.1782
543.963	18.6314
546.856	29.0716
549.749	55.6672
552.641	223.834
555.534	477.424
558.427	867.363
561.32	1273.18
564.212	1248.21
567.105	698.142
569.998	388.998
572.89	326.191
575.783	389.186
578.676	532.847
581.568	701.458
584.461	800.868
587.354	834.279
590.247	855.576
593.139	911.28
596.032	862.407
598.925	727.595
601.817	642.914
604.71	599.743
607.603	562.03
610.495	559.055
613.388	540.189
616.281	528.743
619.174	533.316
622.066	592.278
624.959	682.662
627.852	795.186
630.744	900.259
633.637	1041.71
636.53	1144.6
639.423	1284.46
642.315	1401.62
645.208	1403.39
648.101	1352.05
650.993	1111.47
653.886	908.957
656.779	733.134
659.671	534.48
662.564	402.135
665.457	287.994
668.35	218.157
671.242	142.69
674.135	107.898
677.028	24.7954
679.92	55.1976
682.813	13.2992
685.706	34.2392
688.598	8.33685
691.491	43.7268
694.384	14.5437
697.277	9.77759
700.169	6.71112
703.062	38.6681
705.955	9.57147
708.847	2.27618
711.74	17.8712
714.633	26.8154
717.525	10.1067
720.418	10.8562
723.311	11.1759
726.203	16.3875
729.096	43.9642
731.989	15.2847
734.881	32.5787
737.774	34.6051
740.667	29.3949
743.56	50.2648
746.452	46.0585
749.345	62.5502
752.238	29.861
755.13	54.755
758.023	76.5326
760.916	61.7906
763.808	33.5376
766.701	25.6247
769.594	51.3296
772.487	47.4573
775.379	13.9724
778.272	18.6441
781.165	21.7859
784.057	14.2185
786.95	15.5153
789.843	5.18335
792.736	9.267
795.628	7.25443
798.521	3.99802
801.414	1.88766
804.306	10.0781
807.199	23.6331
810.092	21.5066
812.984	10.0855
815.877	29.8775
818.77	53.2436
821.663	57.5212
824.555	94.2197
827.448	96.1102
830.341	106.273
833.233	117.053
836.126	115.937
839.019	132.398
841.911	133.956
844.804	121.663
847.697	98.1635
850.59	98.0896
853.482	86.1025
856.375	82.8212
859.268	66.7736
862.16	52.5401
865.053	40.3455
867.946	20.2304
870.838	55.5344
873.731	47.7861
876.624	69.2864
879.516	46.1561
882.409	89.1713
885.302	85.5384
888.195	95.7734
891.087	79.705
893.98	130.073
896.873	154.945
899.765	180.955
902.658	219.953
905.551	296.391
908.443	369.994
911.336	424.175
914.229	508.205
917.122	518.53
920.014	474.576
922.907	358.383
925.8	201.904
928.692	145.135
931.585	115.631
934.478	71.9539
937.37	42.9504
940.263	33.702
943.156	3.38983
946.049	0.867615
948.941	1.49719
951.834	17.3481
954.727	28.257
957.619	15.9434
960.512	53.6367
963.405	73.587
966.298	70.591
969.19	119.578
972.083	180.023
974.976	199.856
977.868	246.049
980.761	254.514
983.654	181.25
986.546	91.1755
989.439	63.3214
992.332	17.1056
995.225	4.51032
998.117	22.3398
1001.01	11.9417
1003.9	3.74805
1006.79	21.2496
1009.69	3.3316
1012.58	13.431
1015.47	45.321
1018.37	38.6774
1021.26	0.16156
1024.15	49.0093
1027.04	71.4163
1029.94	99.6667
1032.83	120.546
1035.72	82.0142
1038.62	83.3958
1041.51	96.113
1044.4	90.8197
1047.29	76.0033
1050.19	72.0786
1053.08	60.6253
1055.97	87.2645
1058.86	88.2134
1061.76	80.8292
1064.65	60.9952
1067.54	91.9618
1070.43	109.316
1073.33	150.867
1076.22	191.932
1079.11	267.062
1082.01	403.132
1084.9	474.379
1087.79	407.506
1090.68	277.692
1093.58	139.931
1096.47	79.4414
1099.36	68.3263
1102.25	50.1881
1105.15	0.573883
1108.04	37.7197
1110.93	22.9429
1113.83	27.9071
1116.72	25.3449
1119.61	13.5939
1122.5	7.31415
1125.4	9.57318
1128.29	41.6665
1131.18	30.492
1134.07	4.94745
1136.97	6.93158
1139.86	5.71207
1142.75	0.238159
1145.64	14.4803
1148.54	38.0564
1151.43	10.4641
1154.32	7.29669
1157.22	5.39008
1160.11	10.3245
1163	29.6534
1165.89	38.9442
1168.79	41.7078
1171.68	31.3448
1174.57	18.4217
1177.46	6.14633
1180.36	5.62985
1183.25	11.0426
1186.14	2.9198
1189.04	11.6512
1191.93	26.4444
1194.82	9.46021
1197.71	54.184
1200.61	11.4817
1203.5	24.7519
1206.39	21.6439
1209.28	24.7291
1212.18	10.4579
1215.07	56.1291
1217.96	12.4483
1220.86	36.8449
1223.75	27.0424
1226.64	38.0868
1229.53	2.73694
1232.43	32.576
1235.32	31.8479
1238.21	4.61157
1241.1	18.8677
1244	37.5314
1246.89	21.5514
1249.78	32.2637
1252.67	29.5361
1255.57	0.57605
1258.46	1.38879
