Measurement: Raman, 532 nm, unoriented, Raman Data Processed
Mineral: Pirquitasite
Rruff sample: R061016
Ideal chemistry: Ag_2_ZnSnS_4_
Locality: Pirquitas, Jujuy Province, Argentina
Source: Michael Scott (small piece), Bob Jenkins (large piece)
Description: Steel gray metallic massive, associated with rhodostannite, R120139. This sample was used in the Schumer et al (2013) study.
Measured chemistry: (Ag_1.90_Cu_0.10_)(Zn_0.61_Fe_0.33_Cu_0.03_Cd_0.03_)(Sn_0.97_Fe_0.03_)S_3.87_; normalized to four cations
Raman shift (cm-1)	intensity
136.468	0
139.36	44.02
142.253	34.6793
145.146	33.2847
148.038	25.9758
150.931	13.5137
153.824	12.7751
156.717	17.9117
159.609	44.9515
162.502	20.5942
165.395	19.3192
168.287	0.536255
171.18	15.6375
174.073	6.7721
176.965	1.21448
179.858	20.6466
182.751	18.441
185.644	33.3724
188.536	39.0352
191.429	8.13544
194.322	13.7699
197.214	13.6615
200.107	0.911804
203	28.6069
205.893	62.8163
208.785	45.9369
211.678	58.2814
214.571	50.0297
217.463	63.9291
220.356	29.3963
223.249	58.834
226.141	47.2241
229.034	7.11298
231.927	8.71368
234.82	1.77295
237.712	9.64429
240.605	14.3863
243.498	24.7769
246.39	19.6769
249.283	2.64484
252.176	27.8793
255.068	50.7628
257.961	66.1618
260.854	106.98
263.747	127.304
266.639	131.512
269.532	112.405
272.425	99.7717
275.317	106.455
278.21	116.935
281.103	118.59
283.995	105.649
286.888	111.874
289.781	111.367
292.673	127.362
295.566	100.781
298.459	120.09
301.352	116.627
304.244	142.241
307.137	190.205
310.03	248.392
312.922	402.977
315.815	578.112
318.708	779.991
321.601	1037.45
324.493	1300.62
327.386	1414.79
330.279	1485.44
333.171	1383.32
336.064	1300
338.957	1183.53
341.849	994.351
344.742	802.614
347.635	676.821
350.527	532.643
353.42	388.399
356.313	340.317
359.205	272.766
362.098	206.836
364.991	185.832
367.884	121.223
370.776	60.6352
373.669	34.3865
376.562	32.6059
379.454	4.21204
382.347	4.82282
385.24	4.26996
388.132	6.13727
391.025	5.20172
393.918	25.2078
396.811	2.09631
399.703	1.73535
402.596	1.27509
405.489	2.53921
408.381	5.45114
411.274	4.14581
414.167	22.7342
417.06	19.7175
419.952	8.12073
422.845	3.76895
425.738	1.79813
428.63	41.0601
431.523	14.843
434.416	15.8737
437.308	34.9643
440.201	20.2192
443.094	33.5423
445.986	29.1538
448.879	31.3338
451.772	24.8881
454.665	30.3971
457.557	17.8741
460.45	18.3859
463.343	34.3845
466.235	25.3715
469.128	43.8353
472.021	10.5297
474.913	17.6742
477.806	4.37769
480.699	33.965
483.592	24.5264
486.484	24.6072
489.377	39.4478
492.27	22.7959
495.162	11.0381
498.055	21.9741
500.948	14.6036
503.841	2.79196
506.733	23.8781
509.626	4.9281
512.519	14.6351
515.411	11.6289
518.304	6.28363
521.197	11.7832
524.089	10.9056
526.982	12.2484
529.875	39.1387
532.768	27.5209
535.66	11.1128
538.553	2.84299
541.446	21.7818
544.338	19.9391
547.231	10.7489
550.124	29.0211
553.016	33.6857
555.909	13.4431
558.802	10.0672
561.694	3.3378
564.587	13.9783
567.48	5.77884
570.373	20.5545
573.265	8.02905
576.158	20.654
579.051	13.4287
581.943	18.3422
584.836	22.9052
587.729	24.1877
590.621	26.0128
593.514	16.7084
596.407	23.9806
599.299	19.092
602.192	1.44904
605.085	16.5106
607.978	9.94983
610.87	12.4824
613.763	11.3963
616.656	35.8334
619.548	46.7042
622.441	29.7572
625.334	29.9836
628.226	46.1966
631.119	62.5258
634.012	58.0418
636.905	28.5554
639.797	40.2875
642.69	63.3276
645.583	46.4509
648.475	34.0388
651.368	40.6904
654.261	44.4811
657.154	69.6917
660.046	53.7907
662.939	28.1164
665.832	52.3677
668.724	60.7176
671.617	54.641
674.51	56.4547
677.402	48.6961
680.295	39.8466
683.188	52.1481
686.081	40.1568
688.973	38.8929
691.866	40.1872
694.759	15.7866
697.651	21.3579
700.544	1.92175
703.437	24.7494
706.329	23.4823
709.222	45.7758
712.115	3.16943
715.007	1.13614
717.9	36.8907
720.793	18.156
723.686	27.7864
726.578	0.569489
729.471	14.4563
732.364	18.7327
735.256	21.5705
738.149	10.9288
741.042	5.19803
743.934	10.011
746.827	31.1938
749.72	11.2411
752.612	33.5086
755.505	38.0747
758.398	15.8597
761.291	13.0072
764.183	12.2266
767.076	18.5509
769.969	18.1852
772.861	33.0814
775.754	11.4869
778.647	14.7976
781.54	11.6664
784.432	9.46906
787.325	8.88705
790.218	36.288
793.11	15.0067
796.003	24.9539
798.896	22.2395
801.788	0.187317
804.681	22.216
807.574	2.14096
810.466	20.4692
813.359	18.2203
816.252	6.99707
819.145	20.3302
822.037	14.6601
824.93	11.0007
827.823	35.7256
830.715	19.549
833.608	34.7878
836.501	11.2276
839.394	15.476
842.286	21.532
845.179	15.5109
848.072	22.9375
850.964	9.31516
853.857	5.74374
856.75	3.47064
859.642	2.63063
862.535	13.2108
865.428	21.7888
868.321	17.6993
871.213	26.6631
874.106	7.16884
876.999	18.3788
879.891	30.5274
882.784	5.71777
885.677	5.49751
888.569	13.1401
891.462	10.1673
894.355	26.7559
897.247	13.5306
900.14	0.670929
903.033	4.13847
905.926	22.8192
908.818	20.4203
911.711	13.7741
914.604	23.3393
917.496	25.6783
920.389	26.2206
923.282	2.87324
926.174	37.1914
929.067	0.428329
931.96	30.2045
934.852	11.5858
937.745	30.5274
940.638	19.0159
943.531	16.337
946.423	22.3501
949.316	20.7809
952.209	31.9033
955.101	14.1282
957.994	10.1156
960.887	23.7859
963.779	39.1731
966.672	19.0482
969.565	39.9963
972.458	2.62277
975.35	9.67856
978.243	15.0936
981.136	23.8161
984.028	10.4622
986.921	19.8415
989.814	5.88986
992.707	0.493912
995.599	14.5743
998.492	22.2605
1001.38	27.0105
1004.28	0.284897
1007.17	19.7224
1010.06	13.1132
1012.96	16.9058
1015.85	17.9822
1018.74	6.88507
1021.63	25.0826
1024.53	13.7112
1027.42	27.1794
1030.31	17.3359
1033.2	15.1723
1036.1	23.2751
1038.99	20.1494
1041.88	26.7956
1044.78	24.0078
1047.67	13.6335
1050.56	21.0114
1053.45	37.808
1056.35	20.5703
1059.24	22.2623
1062.13	17.7039
1065.02	25.8645
1067.92	32.9768
1070.81	24.5018
1073.7	17.5607
1076.6	20.6614
1079.49	7.4498
1082.38	15.4154
1085.27	14.716
1088.17	3.40004
1091.06	3.32517
1093.95	5.69127
1096.84	32.2189
1099.74	31.8385
1102.63	0.001617
1105.52	22.5534
1108.41	30.0036
1111.31	11.5323
1114.2	34.7115
1117.09	16.1975
1119.98	14.1159
1122.88	0.570923
1125.77	13.2593
1128.66	20.7489
1131.56	36.6482
1134.45	20.1858
1137.34	9.25362
1140.23	22.8312
1143.13	12.5982
1146.02	15.6932
1148.91	29.1391
1151.81	28.0973
1154.7	19.8752
1157.59	29.0678
1160.48	3.29912
1163.38	11.1504
1166.27	13.1783
1169.16	30.3094
1172.05	24.844
1174.95	8.69893
1177.84	21.8721
1180.73	29.8376
1183.62	23.5797
1186.52	0.941666
1189.41	52.2168
1192.3	0.416779
1195.19	18.5074
1198.09	27.9957
1200.98	21.2576
1203.87	31.6137
1206.77	31.2701
1209.66	25.2096
1212.55	8.03241
1215.44	18.0621
1218.34	24.2291
1221.23	17.4473
1224.12	16.6154
1227.02	12.993
1229.91	27.8554
1232.8	30.974
1235.69	15.7258
1238.59	12.5772
1241.48	19.1457
1244.37	29.3166
1247.26	24.1717
1250.16	30.0524
1253.05	23.8823
1255.94	15.3344
1258.84	17.9308
1261.73	19.2122
1264.62	19.425
1267.51	24.9838
1270.41	3.67847
1273.3	0.314209
1276.19	8.37233
