Measurement: Raman, 785 nm, unoriented, Raman Data Processed
Mineral: Pirquitasite
Rruff sample: R061016
Ideal chemistry: Ag_2_ZnSnS_4_
Locality: Pirquitas, Jujuy Province, Argentina
Source: Michael Scott (small piece), Bob Jenkins (large piece)
Description: Steel gray metallic massive, associated with rhodostannite, R120139. This sample was used in the Schumer et al (2013) study.
Measured chemistry: (Ag_1.90_Cu_0.10_)(Zn_0.61_Fe_0.33_Cu_0.03_Cd_0.03_)(Sn_0.97_Fe_0.03_)S_3.87_; normalized to four cations
Raman shift (cm-1)	intensity
124.903	0
127.796	1054.59
130.688	2135.45
133.581	1154.69
136.474	65.3427
139.367	14.5428
142.259	481.801
145.152	1157.78
148.045	1905.84
150.937	1045.3
153.83	505.978
156.723	380.675
159.615	489.171
162.508	643.409
165.401	492.618
168.293	407.719
171.186	314.486
174.079	252.291
176.971	160.313
179.864	83.1746
182.757	64.9648
185.65	42.2227
188.542	15.8848
191.435	29.2891
194.328	26.2522
197.22	66.5833
200.113	71.8223
203.006	141.932
205.899	157.174
208.791	188.598
211.684	214.499
214.577	263.873
217.469	262.3
220.362	214.447
223.255	197.915
226.147	57.6931
229.04	25.394
231.933	40.897
234.826	47.9648
237.718	50.5571
240.611	114.913
243.504	82.2234
246.396	28.5698
249.289	98.4028
252.182	357.851
255.074	731.362
257.967	1212.93
260.86	1814.77
263.752	2394.58
266.645	2817.74
269.538	2857.53
272.431	2503.98
275.323	2109.31
278.216	1828.45
281.109	1644.23
284.001	1548.95
286.894	1487.5
289.787	1566.75
292.68	1705.46
295.572	1681.39
298.465	1766.99
301.358	1815.94
304.25	1952.74
307.143	2294.3
310.036	3156.27
312.928	4810.86
315.821	8015.84
318.714	13192.3
321.606	20304.5
324.499	26929.3
327.392	29782.6
330.285	27009.1
333.177	21390.5
336.07	15935.6
338.963	11471.8
341.855	8328.03
344.748	5985.04
347.641	4139.2
350.534	2667.02
353.426	1747.58
356.319	1247.68
359.212	1118.44
362.104	1017.27
364.997	778.35
367.89	604.619
370.782	351.2
373.675	219.836
376.568	57.2456
379.461	10.7861
382.353	67.751
385.246	47.7931
388.139	46.2451
391.031	26.1481
393.924	27.7131
396.817	13.6074
399.709	10.7074
402.602	11.5643
405.495	12.3555
408.387	47.7891
411.28	48.0077
414.173	36.7978
417.066	94.8632
419.958	70.3815
422.851	105.583
425.744	109.695
428.636	120.131
431.529	103.338
434.422	101.118
437.315	133.764
440.207	163.58
443.1	148.186
445.993	108.002
448.885	114.865
451.778	81.1052
454.671	88.3831
457.563	54.8214
460.456	59.9027
463.349	81.2675
466.241	82.0276
469.134	80.2483
472.027	43.7701
474.92	45.5946
477.812	40.3121
480.705	32.4202
483.598	38.6704
486.49	26.3201
489.383	19.1691
492.276	42.4133
495.168	32.0486
498.061	14.0866
500.954	24.8693
503.847	18.2526
506.739	25.2687
509.632	31.5269
512.525	25.9976
515.417	46.4427
518.31	31.3269
521.203	7.84936
524.096	41.3208
526.988	14.304
529.881	26.9594
532.774	2.70886
535.666	3.03162
538.559	43.5603
541.452	18.4123
544.344	5.53918
547.237	8.9541
550.13	1.44568
553.023	4.72229
555.915	12.4205
558.808	0.294434
561.701	29.9916
564.593	7.46118
567.486	33.9855
570.379	24.1895
573.271	10.2028
576.164	22.9287
579.057	5.13818
581.949	31.4005
584.842	18.4585
587.735	23.5277
590.628	44.5326
593.52	34.605
596.413	25.1532
599.306	16.2206
602.198	45.7273
605.091	32.2906
607.984	57.2506
610.876	66.5276
613.769	38.9579
616.662	35.9999
619.555	61.0165
622.447	51.873
625.34	48.2001
628.233	53.8428
631.125	38.1418
634.018	71.495
636.911	93.8588
639.803	119.488
642.696	117.064
645.589	145.047
648.482	154.346
651.374	206.149
654.267	245.289
657.16	264.567
660.052	296.391
662.945	270.939
665.838	280.812
668.731	261.717
671.623	251.126
674.516	214.19
677.409	193.422
680.301	171.217
683.194	140.328
686.087	104.96
688.979	96.1014
691.872	76.3912
694.765	56.6638
697.658	42.6215
700.55	29.2838
703.443	26.7089
706.336	33.5759
709.228	26.8967
712.121	13.9819
715.014	13.2837
717.906	5.14453
720.799	8.74658
723.692	1.98096
726.585	0.602417
729.477	6.47485
732.37	18.5861
735.263	18.8197
738.155	4.36609
741.048	11.1344
743.941	24.1561
746.833	0.741821
749.726	10.9987
752.619	7.51025
755.511	3.76318
758.404	32.3888
761.297	40.4774
764.19	21.3668
767.082	3.68665
769.975	31.3251
772.868	39.4767
775.76	43.412
778.653	50.5851
781.546	51.8275
784.438	45.8528
787.331	59.1783
790.224	36.6738
793.117	73.8165
796.009	50.2526
798.902	27.9447
801.795	8.9353
804.687	41.3471
807.58	50.4744
810.473	45.083
813.365	45.0848
816.258	26.3051
819.151	28.8972
822.044	60.4479
824.936	26.6499
827.829	43.7688
830.722	57.8215
833.614	39.2462
836.507	30.1317
839.4	13.6454
842.293	4.23901
845.185	17.6904
848.078	6.86084
850.971	14.8385
853.863	36.0418
856.756	4.18555
859.649	32.0054
862.541	31.3351
865.434	7.30396
868.327	8.56445
871.22	39.0817
874.112	28.7391
877.005	53.6987
879.898	19.8162
882.79	10.2599
885.683	29.6627
888.576	20.4711
891.468	31.1191
894.361	24.1986
897.254	17.7644
900.146	10.0686
903.039	13.3931
905.932	39.2511
908.825	21.0082
911.717	28.3523
914.61	3.61157
917.503	34.892
920.395	12.3466
923.288	27.2139
926.181	35.3672
929.073	32.4999
931.966	72.2412
934.859	20.1074
937.752	43.8823
940.644	28.1941
943.537	35.2386
946.43	30.4191
949.322	40.3138
952.215	36.5964
955.108	31.8281
958	33.6074
960.893	60.1633
963.786	37.3472
966.679	32.9578
969.571	22.9867
972.464	30.5675
975.357	64.1974
978.249	53.5768
981.142	30.0504
984.035	40.279
986.928	40.9352
989.82	28.762
992.713	19.6238
995.606	58.0182
998.498	47.2599
1001.39	32.0259
1004.28	33.9263
1007.18	43.9467
1010.07	35.3097
1012.96	34.0432
1015.85	17.5808
1018.75	31.3572
1021.64	35.1537
1024.53	20.0492
1027.42	8.97992
1030.32	20.961
1033.21	22.1721
1036.1	56.1765
1039	26.8922
1041.89	24.3449
1044.78	36.1115
1047.67	29.7321
1050.57	24.4833
1053.46	24.3051
1056.35	30.5759
1059.24	10.6413
1062.14	8.72998
1065.03	28.251
1067.92	20.5324
1070.82	1.91833
1073.71	12.678
1076.6	16.5715
1079.49	58.9543
1082.39	4.43695
1085.28	7.36231
1088.17	27.6713
1091.07	23.912
1093.96	50.6666
1096.85	31.8074
1099.74	31.9882
1102.63	10.648
1105.53	18.8741
1108.42	38.5243
1111.31	17.7776
1114.21	37.1631
1117.1	21.5636
1119.99	21.7958
1122.88	45.1226
1125.78	55.3583
1128.67	28.493
1131.56	15.3823
1134.45	36.1522
1137.35	41.3765
1140.24	17.417
1143.13	28.3364
1146.03	48.7916
1148.92	29.6162
1151.81	40.1638
1154.7	39.004
1157.6	25.0984
1160.49	63.7607
1163.38	37.1658
1166.28	54.079
1169.17	47.6934
1172.06	19.4877
1174.95	32.148
1177.85	23.3027
1180.74	28.75
1183.63	49.9601
1186.52	51.0863
1189.42	32.0587
1192.31	44.371
1195.2	23.1587
1198.1	19.4292
1200.99	30.5643
1203.88	19.8871
1206.77	9.51959
1209.66	28.124
1212.56	49.962
1215.45	61.2844
1218.34	49.1673
1221.24	23.7003
1224.13	75.4434
1227.02	62.0655
1229.91	42.5206
1232.81	57.3841
1235.7	25.0785
1238.59	2.70886
1241.48	64.4654
1244.38	43.8035
1247.27	65.0957
1250.16	49.5018
1253.06	41.83
1255.95	38.1777
1258.84	9.802
1261.73	34.8277
1264.63	6.40729
1267.52	6.76239
1270.41	8.19763
