Measurement: Raman, 532 nm, unoriented, Raman Data Processed
Mineral: Pirssonite
Rruff sample: R070192
Ideal chemistry: Na_2_Ca(CO_3_)_2_2H_2_O
Locality: Natrum, Sahara, Egypt
Source: Renato and Adriana Pagano
Description: Colorless transparent hemimorphic tabular crystals
Raman shift (cm-1)	intensity
153.556	0
156.449	58.2188
159.342	34.1875
162.235	398.07
165.127	1169.81
168.02	1676.92
170.913	2149.08
173.805	2241.76
176.698	2677.88
179.591	3515.03
182.483	3708.95
185.376	3154.3
188.269	3142.56
191.162	3948.12
194.054	5526.66
196.947	6152.57
199.84	4519.09
202.732	3149.47
205.625	2476.5
208.518	2383.94
211.411	1968.74
214.303	1383.66
217.196	1134.59
220.089	973.438
222.981	707.734
225.874	940.285
228.767	874.863
231.659	868.871
234.552	774.961
237.445	690.648
240.338	680.609
243.23	531.168
246.123	668.242
249.016	765.613
251.908	983.723
254.801	961.856
257.694	916.137
260.586	701.176
263.479	317.949
266.372	367.965
269.264	400.301
272.157	496.062
275.05	441.551
277.943	251.824
280.835	146.551
283.728	70.5312
286.621	68.6289
289.513	17.3125
292.406	85.8047
295.299	132.609
298.192	19.5273
301.084	7.38672
303.977	18.3555
306.87	59.6172
309.762	3.83594
312.655	5.40234
315.548	44.4961
318.44	36.5117
321.333	212.934
324.226	29.6172
327.118	268.879
330.011	383.055
332.904	213.83
335.797	45.9439
338.689	160.131
341.582	144.887
344.475	201.852
347.367	47.3125
350.26	163.238
353.153	205.402
356.046	135.258
358.938	189.133
361.831	233.438
364.724	214.715
367.616	380.496
370.509	152.434
373.402	36.3398
376.294	129.949
379.187	12.6484
382.08	166.906
384.973	36.4414
387.865	128.481
390.758	199.117
393.651	228.598
396.543	160.523
399.436	351.981
402.329	201.445
405.221	324.199
408.114	116.352
411.007	212.133
413.899	184.844
416.792	137.672
419.685	248.394
422.578	107.203
425.47	58.1406
428.363	109.172
431.256	173.977
434.148	281.227
437.041	241.422
439.934	214.992
442.827	377.586
445.719	195.875
448.612	297.812
451.505	101.992
454.397	129.344
457.29	231.422
460.183	175.125
463.075	208.898
465.968	197.945
468.861	216.312
471.753	132.734
474.646	145.469
477.539	196.031
480.432	102.281
483.324	135.93
486.217	63.3984
489.11	178.844
492.002	227.641
494.895	276.352
497.788	86.4453
500.68	74.9844
503.573	95.7344
506.466	167.688
509.359	177.844
512.251	367.508
515.144	274.422
518.037	374.078
520.929	207.305
523.822	44.2969
526.715	252.945
529.607	23.4453
532.5	99.1953
535.393	220.266
538.286	195.141
541.178	45.5
544.071	101.32
546.964	135.82
549.856	55.6719
552.749	139.312
555.642	39.6719
558.534	187.297
561.427	5.67969
564.32	62.4062
567.213	288.438
570.105	125.172
572.998	149.484
575.891	58.9531
578.783	91.7344
581.676	229.844
584.569	16.8203
587.462	215.273
590.354	379.398
593.247	9.35938
596.14	163.641
599.032	47.7031
601.925	153.773
604.818	214.938
607.71	202.422
610.603	6.22656
613.496	247.352
616.389	26.7188
619.281	75.6875
622.174	315.805
625.067	183.539
627.959	258.484
630.852	328.125
633.745	199.602
636.638	264.734
639.53	325.969
642.423	25.4844
645.316	264.898
648.208	430.859
651.101	258.164
653.994	366.641
656.886	145.945
659.779	177.734
662.672	315.531
665.564	167.906
668.457	172.93
671.35	137.398
674.243	209.758
677.135	223.93
680.028	292.328
682.921	328.016
685.813	215.016
688.706	213.664
691.599	70.4766
694.491	108.547
697.384	360.375
700.277	149.805
703.17	472.539
706.062	474.016
708.955	460.227
711.848	551.484
714.74	357.281
717.633	66.875
720.526	264.516
723.418	58.3516
726.311	114.148
729.204	92.4219
732.097	28.4609
734.989	66.4766
737.882	222.109
740.775	283.32
743.667	150.008
746.56	97.4453
749.453	224.633
752.346	319.242
755.238	247.898
758.131	243.68
761.024	131.531
763.916	22.1172
766.809	383.539
769.702	25.4062
772.594	200.352
775.487	115.125
778.38	88.2344
781.273	250.633
784.165	114.062
787.058	102.734
789.951	261.281
792.843	162.367
795.736	114.523
798.629	411.492
801.521	61.5625
804.414	165.297
807.307	382.883
810.199	53.9297
813.092	289.742
815.985	168.555
818.878	399.562
821.77	178.227
824.663	9.03125
827.556	255.438
830.448	137.828
833.341	127.18
836.234	43.1094
839.126	71.9531
842.019	43.2969
844.912	190.383
847.805	356.93
850.697	315.047
853.59	210.102
856.483	127.18
859.375	168.258
862.268	418.656
865.161	112.227
868.053	371.297
870.946	309.43
873.839	326.625
876.732	389.367
879.624	144.43
882.517	244.656
885.41	234.898
888.302	170.242
891.195	190.562
894.088	316.367
896.981	289.258
899.873	247.648
902.766	331.492
905.659	163.047
908.551	117.82
911.444	122.094
914.337	225.414
917.229	361.539
920.122	138.5
923.015	348.867
925.908	487.062
928.8	122.57
931.693	89.4531
934.586	276.852
937.478	80.0078
940.371	338.953
943.264	150.383
946.156	93.25
949.049	219.539
951.942	100.109
954.835	336.562
957.727	277.531
960.62	145.375
963.513	327.594
966.405	346.625
969.298	57.2109
972.191	573.406
975.083	318.953
977.976	318.906
980.869	364.859
983.761	178
986.654	311.938
989.547	449.836
992.44	154.219
995.332	382.906
998.225	410.117
1001.12	213.758
1004.01	338.141
1006.9	280.602
1009.8	101.211
1012.69	48.875
1015.58	139.664
1018.47	162.477
1021.37	72.1875
1024.26	141.414
1027.15	347.906
1030.05	87.4531
1032.94	136.445
1035.83	154.273
1038.72	215.125
1041.62	118.766
1044.51	210.25
1047.4	406.766
1050.29	392.258
1053.19	343.672
1056.08	727.758
1058.97	969.969
1061.86	2295.16
1064.76	5613.97
1067.65	12171.9
1070.54	25842.5
1073.43	7464.2
1076.33	1839.01
1079.22	978.383
1082.11	701.805
1085.01	501.758
1087.9	434.672
1090.79	484.289
1093.68	244.281
1096.58	33.5469
1099.47	533.367
1102.36	155.664
1105.26	108.211
1108.15	438.656
1111.04	37.6953
1113.93	446.672
1116.83	245.977
1119.72	207.648
1122.61	383.805
1125.5	115.609
1128.4	313.031
1131.29	371.406
1134.18	119.477
1137.08	317.43
1139.97	407.945
1142.86	199.523
1145.75	701.984
1148.65	264.273
1151.54	422.984
1154.43	480.008
1157.32	371.477
1160.22	336.047
1163.11	553.43
1166	201.703
1168.89	609.852
1171.79	33.3438
1174.68	202.57
1177.57	386.57
1180.46	252.984
1183.36	402.047
1186.25	286.773
1189.14	53.7734
1192.04	224.758
1194.93	549.68
1197.82	338.336
1200.71	368.484
1203.61	324.375
1206.5	12.3906
1209.39	571.328
1212.29	203.766
1215.18	65.3438
1218.07	356.547
1220.96	58.2656
1223.86	356.32
1226.75	534.984
1229.64	241.062
1232.53	637.984
1235.43	198.359
1238.32	394.578
1241.21	249
1244.11	290.953
1247	392.422
1249.89	518.578
1252.78	348.219
1255.67	386.531
1258.57	488.781
1261.46	263.656
1264.35	439.391
1267.25	206.219
1270.14	210.406
1273.03	520.422
1275.92	559.312
1278.82	837.531
1281.71	710.906
1284.6	389.844
1287.49	411.703
1290.39	287.844
1293.28	16.75
1296.17	368.953
1299.07	318.969
1301.96	294.797
