Measurement: Raman, 532 nm, unoriented, Raman Data Processed
Mineral: Pitiglianoite
Rruff sample: R130097
Ideal chemistry: K_2_Na_6_(Si_6_Al_6_)O_24_(SO_4_)2H_2_O
Locality: Mt Cavalluccio, Campagnano di Roma, Sacrofano Caldera, Rome Province, Latium, Italy
Source: Donald Doell
Description: Colorless hexagonal prisms. NOTE THIS IS NOT REALLY PITIGLIANOITE, NEEDS CHEMISTRY
Raman shift (cm-1)	intensity
200.731	0
203.623	0.110107
206.516	6.21109
209.409	4.07422
212.301	6.11954
215.194	6.48614
218.087	11.0187
220.98	10.5349
223.872	8.45071
226.765	8.64654
229.658	12.3077
232.55	12.6206
235.443	11.5718
238.336	19.9417
241.228	22.0866
244.121	23.0607
247.014	17.8531
249.906	11.7552
252.799	5.58145
255.692	5.24036
258.585	0.44635
261.477	0.5755
264.37	0.435425
267.263	0.50351
270.155	4.76001
273.048	2.10141
275.941	9.01144
278.834	18.208
281.726	32.4084
284.619	35.9909
287.512	26.0859
290.404	16.1198
293.297	8.2767
296.19	2.82657
299.082	4.16287
301.975	5.45987
304.868	1.39191
307.76	2.9931
310.653	5.38178
313.546	5.48703
316.439	7.76474
319.331	10.9237
322.224	11.5439
325.117	11.3062
328.009	10.3793
330.902	10.4187
333.795	10.1173
336.688	9.41342
339.58	8.35501
342.473	6.0488
345.366	5.29126
348.258	4.45373
351.151	5.44476
354.044	2.92047
356.936	2.64859
359.829	0.165192
362.722	0.332397
365.615	0.239655
368.507	0.834808
371.4	1.81644
374.293	0.780701
377.185	0.793213
380.078	2.18127
382.971	1.62146
385.863	2.01251
388.756	2.5007
391.649	1.72992
394.541	1.42795
397.434	2.01016
400.327	3.20941
403.22	2.94614
406.112	6.15485
409.005	8.95465
411.898	12.344
414.79	17.9527
417.683	24.6365
420.576	28.1389
423.469	34.1132
426.361	37.1237
429.254	36.69
432.147	35.29
435.039	35.7231
437.932	40.7114
440.825	48.9405
443.717	62.2241
446.61	75.4636
449.503	84.4564
452.396	89.5951
455.288	86.7713
458.181	72.8671
461.074	59.1786
463.966	51.6161
466.859	43.3295
469.752	40.0093
472.644	36.1145
475.537	39.6365
478.43	43.2448
481.322	50.2595
484.215	61.017
487.108	68.9058
490.001	77.9856
492.893	76.9611
495.786	66.874
498.679	55.5822
501.571	43.8914
504.464	29.2535
507.357	20.9129
510.25	15.5778
513.142	9.53674
516.035	5.64716
518.928	2.66602
521.82	0.786957
524.713	1.67035
527.606	2.95132
530.498	0.038971
533.391	0.140747
536.284	0.246429
539.177	0.313171
542.069	0.740875
544.962	0.320404
547.855	1.15186
550.747	0.181213
553.64	0.055237
556.533	0.294678
559.425	0.934326
562.318	0.772827
565.211	0.888519
568.104	0.85498
570.996	0.129883
573.889	2.44434
576.782	0.614197
579.674	0.294617
582.567	3.00424
585.46	2.33044
588.352	1.51346
591.245	2.8671
594.138	4.80737
597.03	4.73605
599.923	5.85495
602.816	7.22217
605.709	7.63278
608.601	11.8111
611.494	15.8603
614.387	21.648
617.279	30.0877
620.172	38.0876
623.065	46.8633
625.957	56.6371
628.85	56.8745
631.743	55.0495
634.636	33.9941
637.528	17.4194
640.421	10.9647
643.314	5.76294
646.206	4.2601
649.099	1.8266
651.992	2.0625
654.885	3.4563
657.777	2.08313
660.67	4.40048
663.563	5.26596
666.455	6.95371
669.348	7.71347
672.241	8.30664
675.133	11.5184
678.026	12.2164
680.919	6.77625
683.812	5.32861
686.704	3.71728
689.597	3.28595
692.49	2.6387
695.382	1.0575
698.275	0.348267
701.168	0.00354
704.06	1.14279
706.953	0.106079
709.846	0.902344
712.739	0.481781
715.631	0.139191
718.524	0.84314
721.417	0.378418
724.309	2.47195
727.202	2.65326
730.095	0.748291
732.987	0.034485
735.88	0.270264
738.773	1.95856
741.665	2.78494
744.558	4.65808
747.451	7.72226
750.344	9.47543
753.236	11.0458
756.129	10.3549
759.022	9.36435
761.914	8.1232
764.807	6.34094
767.7	6.40369
770.592	8.08801
773.485	5.27445
776.378	3.77002
779.271	2.60644
782.163	2.58337
785.056	1.47626
787.949	0.329468
790.841	1.73734
793.734	1.53424
796.627	2.88525
799.519	0.192749
802.412	1.77924
805.305	1.89777
808.198	2.50851
811.09	0.743225
813.983	0.712585
816.876	0.642181
819.768	1.44931
822.661	2.8649
825.554	2.56131
828.447	1.05237
831.339	1.20328
834.232	1.89514
837.125	1.36926
840.017	2.72949
842.91	3.37283
845.803	4.29382
848.695	2.61807
851.588	1.4967
854.481	2.77524
857.374	2.38989
860.266	2.03729
863.159	2.75223
866.052	3.02911
868.944	0.927032
871.837	1.69263
874.73	1.54215
877.622	2.14148
880.515	1.70648
883.408	0.329315
886.301	1.12524
889.193	1.23013
892.086	0.371155
894.979	1.93915
897.871	1.05948
900.764	0.259521
903.657	0.756073
906.549	1.89593
909.442	2.32193
912.335	0.010712
915.227	0.605072
918.12	0.311249
921.013	0.78125
923.906	0.898682
926.798	0.044281
929.691	1.83844
932.584	0.51474
935.476	0.612579
938.369	1.02032
941.262	1.80179
944.154	1.81769
947.047	1.36838
949.94	3.621
952.833	6.13583
955.725	7.70047
958.618	13.5069
961.511	17.9553
964.403	19.8303
967.296	23.1632
970.189	24.86
973.082	30.4194
975.974	33.4543
978.867	45.7184
981.76	65.5873
984.652	108.978
987.545	176.411
990.438	269.512
993.33	392.619
996.223	462.765
999.116	264.782
1002.01	85.8301
1004.9	40.4552
1007.79	30.7898
1010.69	26.9333
1013.58	26.4524
1016.47	28.063
1019.37	32.3796
1022.26	35.1799
1025.15	33.7864
1028.04	32.2084
1030.94	27.0795
1033.83	22.2346
1036.72	16.6221
1039.61	11.0535
1042.51	8.20917
1045.4	6.80026
1048.29	4.56378
1051.18	2.81342
1054.08	0.850403
1056.97	1.9826
1059.86	0.321198
1062.76	0.707581
1065.65	0.683746
1068.54	1.02493
1071.43	1.34927
1074.33	0.470459
1077.22	0.792572
1080.11	0.037994
1083	1.47479
1085.9	4.04654
1088.79	8.0292
1091.68	3.78433
1094.58	5.31079
1097.47	6.32282
1100.36	7.17734
1103.25	6.90436
1106.15	9.92688
1109.04	12.9756
1111.93	14.7295
1114.82	14.1578
1117.72	14.0773
1120.61	10.957
1123.5	10.1414
1126.39	8.83237
1129.29	10.6215
1132.18	10.766
1135.07	11.0175
1137.96	11.9105
1140.86	10.0471
1143.75	12.2898
1146.64	14.9598
1149.54	13.6004
1152.43	12.4905
1155.32	12.4328
1158.21	11.6616
1161.11	9.45895
1164	7.34381
1166.89	5.09195
1169.79	4.06802
1172.68	3.32147
1175.57	3.40836
1178.46	2.86856
1181.36	2.34134
1184.25	2.12982
1187.14	0.511169
1190.03	0.208557
1192.93	1.29053
1195.82	1.22314
1198.71	2.76453
1201.61	0.418274
1204.5	1.46951
1207.39	0.801422
1210.28	1.58163
1213.18	1.41788
1216.07	1.20499
1218.96	0.040466
1221.85	1.33917
1224.75	0.33252
1227.64	0.746155
1230.53	2.25073
1233.42	1.96689
1236.32	1.8638
1239.21	1.2691
1242.1	2.75742
1244.99	4.29266
1247.89	1.47601
1250.78	2.72488
1253.67	0.696625
1256.57	3.37408
1259.46	4.06195
1262.35	2.32614
1265.24	2.85001
1268.14	4.94882
1271.03	0.104645
1273.92	0.853485
1276.82	1.63284
1279.71	1.52151
1282.6	0.138123
1285.49	0.026581
1288.39	1.62289
1291.28	0.996216
1294.17	0.082367
1297.06	0.000702
1299.96	1.86774
