Measurement: Raman, 780 nm, unoriented, Raman Data Processed
Mineral: Pitiglianoite
Rruff sample: R130097
Ideal chemistry: K_2_Na_6_(Si_6_Al_6_)O_24_(SO_4_)2H_2_O
Locality: Mt Cavalluccio, Campagnano di Roma, Sacrofano Caldera, Rome Province, Latium, Italy
Source: Donald Doell
Description: Colorless hexagonal prisms. NOTE THIS IS NOT REALLY PITIGLIANOITE, NEEDS CHEMISTRY
Raman shift (cm-1)	intensity
90.2353	0
93.6102	17.6896
96.985	6.75896
100.36	0.151703
103.735	0.090988
107.109	3.66643
110.484	2.99249
113.859	9.8
117.234	6.36923
120.609	5.94861
123.984	0.105591
127.358	0.323608
130.733	0.401718
134.108	1.55267
137.483	0.945496
140.858	0.115433
144.232	1.93402
147.607	4.47757
150.982	14.177
154.357	24.0233
157.732	31.0677
161.107	39.7982
164.481	52.4967
167.856	63.1525
171.231	76.9236
174.606	86.6196
177.981	94.0162
181.355	98.7792
184.73	102.921
188.105	103.265
191.48	101.647
194.855	97.1263
198.229	88.0726
201.604	79.3725
204.979	70.82
208.354	60.4792
211.729	51.8731
215.103	48.0399
218.478	41.0193
221.853	37.5287
225.228	31.7229
228.603	29.3974
231.978	29.4471
235.352	29.926
238.727	32.0711
242.102	28.6341
245.477	25.3362
248.852	20.0897
252.226	12.0636
255.601	4.7165
258.976	0.947701
262.351	0.446854
265.726	4.39849
269.101	8.35442
272.475	16.5159
275.85	29.1708
279.225	47.5529
282.6	59.3499
285.975	38.4785
289.349	17.4777
292.724	5.9318
296.099	1.68542
299.474	1.32332
302.849	2.40769
306.224	1.30821
309.598	1.56709
312.973	3.79472
316.348	7.71342
319.723	11.3003
323.098	14.2879
326.472	14.9004
329.847	15.4975
333.222	14.0066
336.597	13.5431
339.972	7.9772
343.346	5.90756
346.721	4.8608
350.096	2.83017
353.471	2.18854
356.846	1.54909
360.221	0.72707
363.595	2.15812
366.97	2.15273
370.345	1.67355
373.72	0.40284
377.095	1.75444
380.469	3.71335
383.844	3.91813
387.219	4.05737
390.594	3.92728
393.969	3.93463
397.344	5.84964
400.718	7.48859
404.093	11.9287
407.468	16.6127
410.843	22.6683
414.217	32.0455
417.592	43.6843
420.967	51.8709
424.342	56.1454
427.717	55.1005
431.092	52.3116
434.466	51.0568
437.841	54.8161
441.216	64.7035
444.591	79.5014
447.966	93.5902
451.341	105.958
454.715	106.21
458.09	87.0019
461.465	75.0303
464.84	66.2339
468.215	60.0247
471.589	56.807
474.964	60.8723
478.339	70.1269
481.714	83.634
485.089	97.8015
488.463	106.399
491.838	101.488
495.213	88.1336
498.588	67.9971
501.963	48.1736
505.337	32.1716
508.712	21.2049
512.087	13.1311
515.462	8.26653
518.837	4.09362
522.212	1.68443
525.586	0.213509
528.961	0.080444
532.336	0.694939
535.711	1.33714
539.086	0.828751
542.46	1.39528
545.835	0.613522
549.21	0.089108
552.585	0.499226
555.96	0.642513
559.335	0.785322
562.709	1.22541
566.084	1.20264
569.459	0.925493
572.834	0.950123
576.209	1.5334
579.583	2.88068
582.958	2.97893
586.333	3.03497
589.708	4.32835
593.083	4.95882
596.457	5.43769
599.832	7.32439
603.207	9.38018
606.582	13.6772
609.957	20.1042
613.332	26.9402
616.706	34.2746
620.081	40.9615
623.456	49.6879
626.831	46.4045
630.206	39.8769
633.58	22.6744
636.955	11.703
640.33	6.10076
643.705	2.42342
647.08	2.42992
650.455	1.51679
653.829	1.94316
657.204	3.28307
660.579	4.38151
663.954	5.92005
667.329	7.83383
670.703	10.2239
674.078	11.254
677.453	9.28979
680.828	6.2195
684.203	4.29223
687.577	2.86144
690.952	1.70853
694.327	1.05262
697.702	0.675276
701.077	0.492229
704.452	0.03565
707.826	0.171043
711.201	0.19595
714.576	0.185133
717.951	0.605881
721.326	0.668123
724.7	0.478561
728.075	0.385418
731.45	0.029167
734.825	0.022764
738.2	1.62508
741.574	2.3743
744.949	3.81904
748.324	4.91787
751.699	6.2542
755.074	6.70716
758.449	4.67719
761.823	4.6893
765.198	3.87825
768.573	3.25188
771.948	2.12889
775.323	1.17058
778.697	0.675533
782.072	0.735693
785.447	0.081392
788.822	0.2299
792.197	0.218924
795.572	0.808142
798.946	0.580368
802.321	0.063183
805.696	0.360893
809.071	0.210522
812.446	0.952484
815.82	1.18247
819.195	0.622311
822.57	0.264656
825.945	0.613451
829.32	0.776623
832.694	0.942745
836.069	1.15839
839.444	1.55289
842.819	1.57652
846.194	1.58468
849.569	1.6279
852.943	1.68133
856.318	1.6101
859.693	1.2202
863.068	1.91289
866.443	1.82096
869.817	2.07684
873.192	1.78481
876.567	1.1073
879.942	1.14362
883.317	1.5352
886.692	0.915951
890.066	0.492569
893.441	0.609205
896.816	1.29676
900.191	0.780085
903.566	0.941202
906.94	0.000576
910.315	0.406893
913.69	0.378004
917.065	0.658381
920.44	0.084387
923.814	0.286545
927.189	1.31776
930.564	0.597126
933.939	0.450518
937.314	0.392422
940.689	0.464098
944.063	2.40313
947.438	4.27038
950.813	7.53097
954.188	10.3757
957.563	14.6922
960.937	17.7026
964.312	19.7145
967.687	23.0626
971.062	26.9574
974.437	35.2855
977.812	57.355
981.186	102.784
984.561	175.74
987.936	273.827
991.311	397.358
994.686	483.139
998.06	223.441
1001.43	62.4024
1004.81	33.6037
1008.18	28.9183
1011.56	27.9634
1014.93	32.403
1018.31	37.4869
1021.68	41.5433
1025.06	39.9651
1028.43	34.9225
1031.81	26.8101
1035.18	19.0563
1038.56	13.8034
1041.93	9.48463
1045.31	5.70912
1048.68	3.42351
1052.06	2.23492
1055.43	1.12166
1058.81	1.10062
1062.18	0.063885
1065.56	0.276525
1068.93	0.33959
1072.31	0.758358
1075.68	0.262262
1079.06	0.635195
1082.43	1.77426
1085.81	2.52842
1089.18	3.35381
1092.56	4.48642
1095.93	4.49838
1099.31	6.60248
1102.68	6.04465
1106.05	7.76715
1109.43	9.28242
1112.8	9.35681
1116.18	9.42001
1119.55	7.38534
1122.93	6.21623
1126.3	6.7118
1129.68	6.6528
1133.05	7.0939
1136.43	8.09681
1139.8	8.71367
1143.18	10.2095
1146.55	11.562
1149.93	12.4829
1153.3	10.9771
1156.68	9.74843
1160.05	7.70236
1163.43	4.90107
1166.8	3.88418
1170.18	2.53374
1173.55	1.91837
1176.93	0.524626
1180.3	0.439831
1183.67	0.423029
1187.05	0.524349
1190.42	0.459824
1193.8	0.540453
1197.17	0.399496
1200.55	0.105694
1203.92	0.485788
1207.3	0.622915
1210.67	0.749041
1214.05	1.34661
1217.42	1.33572
1220.8	1.47618
1224.17	1.46133
1227.55	1.24316
1230.92	1.89776
1234.3	1.45338
1237.67	1.17527
1241.05	1.22208
1244.42	1.38395
1247.8	1.21333
1251.17	0.858559
1254.55	0.09787
1257.92	1.25548
1261.3	0.351543
1264.67	1.11697
1268.05	1.23516
1271.42	0.257919
1274.8	0.691319
1278.17	0.165989
1281.55	1.14153
