Measurement: Raman, 532 nm, unoriented, Raman Data Processed
Mineral: Piypite
Rruff sample: R130048
Ideal chemistry: K_4_Cu_4_O_2_(SO_4_)_4_(Na,Cu)Cl
Locality: Second scoria cone, Northern Breakthrough (North Breach), Great Fissure (Main Fracture) eruption, Tolbachik volcano, Kamchatka Oblast', Far-Eastern Region, Russia
Source: Don Doell
Description: Sprays of bright green acicular crystals
Raman shift (cm-1)	intensity
182.41	0
185.303	9.74585
188.196	45.361
191.088	102.009
193.981	177.484
196.874	230.697
199.766	274.915
202.659	269.507
205.552	219.144
208.445	161.002
211.337	107.247
214.23	72.7977
217.123	54.0699
220.015	38.0567
222.908	27.7427
225.801	20.106
228.693	12.8953
231.586	5.21584
234.479	1.65198
237.371	0.053452
240.264	0.674011
243.157	2.48868
246.05	1.75304
248.942	2.23869
251.835	2.58128
254.728	0.918747
257.62	1.22172
260.513	1.07063
263.406	1.78496
266.298	2.46295
269.191	5.52692
272.084	5.49382
274.977	6.73322
277.869	9.94516
280.762	12.3245
283.655	13.877
286.547	16.8835
289.44	18.6926
292.333	20.8802
295.226	24.1251
298.118	29.9842
301.011	33.9881
303.904	39.0541
306.796	46.5054
309.689	56.473
312.582	69.1102
315.474	80.6107
318.367	93.9038
321.26	106.396
324.152	110.593
327.045	105.001
329.938	90.4911
332.831	72.5643
335.723	54.1281
338.616	40.9315
341.509	29.1507
344.401	21.4431
347.294	15.2693
350.187	11.3936
353.079	8.10595
355.972	5.52918
358.865	3.05927
361.758	1.50786
364.65	1.69804
367.543	0.193069
370.436	1.17309
373.328	0.020729
376.221	0.613464
379.114	0.667732
382.007	0.204651
384.899	0.590919
387.792	1.32825
390.685	0.949539
393.577	1.51499
396.47	1.69023
399.363	3.24885
402.255	3.88425
405.148	4.89567
408.041	6.3858
410.933	7.23926
413.826	8.31326
416.719	8.84682
419.612	7.4163
422.504	8.46271
425.397	8.9306
428.29	9.19698
431.182	13.1872
434.075	18.3935
436.968	22.9329
439.861	26.9092
442.753	18.1445
445.646	9.31421
448.539	3.70813
451.431	2.7154
454.324	1.51192
457.217	1.02409
460.109	0.501312
463.002	0.79882
465.895	0.670868
468.788	0.100037
471.68	0.009438
474.573	1.651
477.466	2.26035
480.358	1.29932
483.251	2.91125
486.144	5.58315
489.036	6.7638
491.929	7.52243
494.822	7.83534
497.714	6.16771
500.607	4.6619
503.5	4.21462
506.393	4.03547
509.285	2.80862
512.178	2.4798
515.071	3.34095
517.963	1.66416
520.856	2.30758
523.749	0.947548
526.641	1.67853
529.534	0.791832
532.427	0.512482
535.32	0.76963
538.212	1.16316
541.105	1.15173
543.998	0.462151
546.89	1.19754
549.783	1.75358
552.676	0.977371
555.568	0.846146
558.461	1.14666
561.354	1.2076
564.247	1.10011
567.139	0.044052
570.032	1.11799
572.925	0.663918
575.817	0.33284
578.71	0.298149
581.603	0.452324
584.495	1.39676
587.388	1.01406
590.281	0.198822
593.174	2.07495
596.066	3.14973
598.959	5.24007
601.852	8.07589
604.744	12.2365
607.637	19.4473
610.53	28.8407
613.423	32.8197
616.315	27.9105
619.208	20.9557
622.101	13.8146
624.993	7.01979
627.886	3.16499
630.779	2.05122
633.671	2.89698
636.564	2.52058
639.457	3.14719
642.35	4.89042
645.242	9.53451
648.135	15.3973
651.028	16.3654
653.92	10.6996
656.813	3.674
659.706	0.946274
662.598	1.00693
665.491	0.421242
668.384	0.21553
671.277	0.316925
674.169	1.18893
677.062	1.25503
679.955	1.13817
682.847	1.33099
685.74	2.03681
688.633	2.96833
691.525	3.82464
694.418	4.55961
697.311	7.28899
700.203	9.71488
703.096	12.7479
705.989	17.1006
708.882	19.0327
711.774	20.5721
714.667	19.3445
717.56	16.2448
720.452	11.3478
723.345	7.8929
726.238	6.14935
729.13	4.05561
732.023	1.79964
734.916	1.99198
737.809	1.55119
740.701	1.50781
743.594	1.10189
746.487	1.09953
749.379	0.994049
752.272	0.481728
755.165	1.05177
758.058	0.383339
760.95	0.595375
763.843	0.023476
766.736	0.848465
769.628	0.572929
772.521	0.237289
775.414	0.980911
778.306	0.915031
781.199	0.646828
784.092	0.269585
786.985	0.357002
789.877	0.437859
792.77	0.97377
795.663	0.466705
798.555	0.557159
801.448	1.43983
804.341	0.852386
807.233	0.376404
810.126	1.52519
813.019	0.740936
815.912	1.85181
818.804	1.01602
821.697	2.15257
824.59	1.16635
827.482	2.60751
830.375	1.80877
833.268	0.933517
836.16	1.13498
839.053	2.19659
841.946	2.34953
844.838	1.51668
847.731	2.35788
850.624	1.62669
853.517	2.6148
856.409	2.95
859.302	4.23475
862.195	2.96439
865.087	3.08094
867.98	3.34854
870.873	3.7775
873.765	3.11697
876.658	3.57796
879.551	1.86501
882.444	3.61325
885.336	1.58175
888.229	0.963692
891.122	0.964005
894.014	0.428719
896.907	0.45047
899.8	0.798569
902.692	0.098351
905.585	0.24099
908.478	0.166023
911.371	0.850624
914.263	0.536156
917.156	0.894325
920.049	1.27418
922.941	0.083321
925.834	1.01429
928.727	0.736862
931.62	0.307068
934.512	0.543388
937.405	0.699219
940.298	0.717796
943.19	0.322853
946.083	0.764236
948.976	0.244713
951.868	0.947556
954.761	2.00729
957.654	2.29404
960.547	3.33125
963.439	6.51194
966.332	11.2942
969.225	19.7847
972.117	34.6434
975.01	61.4853
977.903	103.68
980.795	161.863
983.688	263.066
986.581	366.258
989.473	258.654
992.366	112.698
995.259	54.1475
998.152	31.812
1001.04	23.8564
1003.94	21.9877
1006.83	28.2105
1009.72	40.6098
1012.62	61.2408
1015.51	88.5231
1018.4	113.263
1021.29	113.19
1024.19	78.5263
1027.08	45.7189
1029.97	26.1114
1032.86	15.1964
1035.76	10.6643
1038.65	5.74514
1041.54	5.28481
1044.43	2.87607
1047.33	2.53848
1050.22	1.51683
1053.11	0.176399
1056.01	0.224762
1058.9	0.077065
1061.79	0.09697
1064.68	0.054665
1067.58	0.224518
1070.47	0.520149
1073.36	0.058014
1076.26	1.47347
1079.15	2.22263
1082.04	3.68086
1084.93	5.1813
1087.83	7.26833
1090.72	9.75398
1093.61	15.6308
1096.5	17.2028
1099.4	18.1351
1102.29	12.7531
1105.18	9.9994
1108.07	7.3259
1110.97	7.09331
1113.86	5.58806
1116.75	5.66115
1119.64	6.51198
1122.54	8.41033
1125.43	10.4007
1128.32	13.9985
1131.22	19.0148
1134.11	17.1875
1137	11.2556
1139.89	6.56601
1142.79	3.10655
1145.68	1.38091
1148.57	0.749725
1151.46	0.02758
1154.36	0.141487
1157.25	0.062477
1160.14	0.363922
1163.04	0.128105
1165.93	0.024002
1168.82	0.220535
1171.71	0.448387
1174.61	2.08595
1177.5	1.77283
1180.39	3.2696
1183.28	4.39771
1186.18	6.5713
1189.07	9.01615
1191.96	10.8148
1194.86	15.0652
1197.75	19.8767
1200.64	21.515
1203.53	19.2298
1206.43	17.4091
1209.32	18.3572
1212.21	21.6886
1215.1	26.8989
1218	31.8789
1220.89	28.1283
1223.78	18.4639
1226.67	12.506
1229.57	9.32667
1232.46	7.61391
1235.35	4.85704
1238.25	4.48128
1241.14	3.2992
1244.03	2.99786
1246.92	2.17893
1249.82	1.75011
1252.71	1.17888
1255.6	0.306595
1258.49	0.770622
1261.39	0.849747
1264.28	1.15597
1267.17	0.8946
1270.07	0.618652
1272.96	1.14039
1275.85	0.287224
1278.74	0.125015
1281.64	0.705086
1284.53	1.00787
1287.42	1.35788
1290.31	0.949829
1293.21	1.42669
1296.1	0.795914
1298.99	0.043022
1301.88	0
