Measurement: Raman, 532 nm, unoriented, Raman Data Processed
Mineral: Planerite
Rruff sample: R080123
Ideal chemistry: Al_6_(PO_4_)_2_(PO_3_OH)_2_(OH)_8_4H_2_O
Locality: Bruguers, Gav√°, Barcelona, Catalonia, Spain
Source: Joan Abella i Creus
Description: Light green, microcrystalline fragments
Raman shift (cm-1)	intensity
144.904	0
148.279	11.6288
151.654	11.3522
155.029	10.7961
158.404	0.219238
161.778	0.966431
165.153	6.99023
168.528	11.7087
171.903	24.0641
175.278	35.8328
178.652	18.7429
182.027	2.4906
185.402	0.479248
188.777	12.8153
192.152	20.3008
195.526	30.4585
198.901	40.4503
202.276	53.9978
205.651	50.0806
209.026	47.1099
212.401	48.749
215.775	45.9571
219.15	50.6576
222.525	51.8925
225.9	67.5886
229.275	89.0523
232.649	101.775
236.024	82.2966
239.399	63.9225
242.774	53.475
246.149	38.422
249.524	27.2339
252.898	12.749
256.273	5.75452
259.648	3.69568
263.023	1.05896
266.398	2.41748
269.772	4.14014
273.147	2.10632
276.522	9.77685
279.897	10.969
283.272	23.9051
286.647	17.123
290.021	22.5731
293.396	31.4403
296.771	34.0983
300.146	38.72
303.521	53.1217
306.895	47.8961
310.27	61.4264
313.645	66.9247
317.02	87.973
320.395	108.366
323.769	116.214
327.144	123.903
330.519	132.23
333.894	122.823
337.269	103.891
340.644	82.5377
344.018	60.0126
347.393	43.2223
350.768	35.7092
354.143	31.3023
357.518	16.7804
360.892	6.79517
364.267	4.14123
367.642	3.52417
371.017	6.35449
374.392	1.40454
377.767	6.11633
381.141	9.6167
384.516	21.0196
387.891	16.8639
391.266	16.1531
394.641	12.6291
398.015	11.3665
401.39	23.9608
404.765	47.2643
408.14	72.4535
411.515	107.128
414.89	140.405
418.264	153.162
421.639	132.97
425.014	112.767
428.389	86.7622
431.764	86.8649
435.139	73.8799
438.513	66.5846
441.888	52.736
445.263	52.0638
448.638	40.4152
452.012	45.328
455.387	53.7273
458.762	56.182
462.137	60.6871
465.512	60.2612
468.887	46.8914
472.261	30.8594
475.636	25.2771
479.011	26.0756
482.386	16.7855
485.761	13.0952
489.135	7.24255
492.51	1.96936
495.885	4.75403
499.26	6.02783
502.635	8.06104
506.01	8.20703
509.384	8.5968
512.759	7.90857
516.134	4.63098
519.509	5.81653
522.884	3.59778
526.259	0.186035
529.633	0.049683
533.008	1.23706
536.383	2.34631
539.758	2.49622
543.133	13.2704
546.507	20.4324
549.882	19.5358
553.257	16.3189
556.632	12.9263
560.007	8.71814
563.381	14.0007
566.756	12.6053
570.131	14.0442
573.506	17.2489
576.881	22.3704
580.256	26.3257
583.63	27.3367
587.005	30.3643
590.38	35.7626
593.755	36.3374
597.13	29.5543
600.505	24.0697
603.879	17.8798
607.254	23.1645
610.629	24.5253
614.004	26.7178
617.379	30.8268
620.753	38.004
624.128	44.3192
627.503	58.3726
630.878	72.4383
634.253	83.3805
637.627	80.312
641.002	77.1661
644.377	61.5703
647.752	51.3511
651.127	36.8565
654.501	30.1852
657.876	22.2562
661.251	24.3964
664.626	18.562
668.001	10.9058
671.376	11.3551
674.75	10.8878
678.125	11.9401
681.5	7.68799
684.875	0.344238
688.25	4.29858
691.625	0.500488
694.999	1.27747
698.374	3.50452
701.749	0.645508
705.124	4.39551
708.499	0.986816
711.873	0.357788
715.248	3.21875
718.623	0.63269
721.998	1.58167
725.373	3.5188
728.747	7.60254
732.122	5.19519
735.497	6.09924
738.872	7.66077
742.247	10.5325
745.622	7.09485
748.996	12.8906
752.371	4.83386
755.746	0.494751
759.121	7.33679
762.496	11.7313
765.87	16.1738
769.245	15.7332
772.62	9.72388
775.995	12.235
779.37	10.0584
782.745	11.1643
786.119	25.0551
789.494	21.8746
792.869	24.0568
796.244	27.7832
799.619	27.7074
802.994	35.9734
806.368	39.7299
809.743	39.4376
813.118	36.1571
816.493	30.1748
819.868	27.2975
823.242	29.0203
826.617	17.2894
829.992	11.5006
833.367	17.6194
836.742	12.986
840.116	8.16846
843.491	4.79236
846.866	5.81921
850.241	1.13831
853.616	6.49133
856.99	11.2823
860.365	3.66577
863.74	1.16809
867.115	6.84302
870.49	7.10229
873.865	1.63355
877.239	0.571533
880.614	3.12268
883.989	5.24927
887.364	2.2793
890.739	13.9628
894.114	8.61194
897.488	3.38953
900.863	5.9198
904.238	9.4397
907.613	6.62305
910.988	9.4823
914.362	4.93127
917.737	8.04834
921.112	9.55579
924.487	2.33618
927.862	13.5598
931.236	15.082
934.611	5.12732
937.986	2.32739
941.361	9.34033
944.736	1.00989
948.111	3.26025
951.485	1.6477
954.86	2.2721
958.235	2.00269
961.61	3.90527
964.985	0.296875
968.36	5.56958
971.734	4.90894
975.109	13.4585
978.484	17.6352
981.859	29.4475
985.234	33.6853
988.608	42.3857
991.983	35.408
995.358	32.5207
998.733	32.3176
1002.11	38.2949
1005.48	42.3648
1008.86	48.8389
1012.23	63.9128
1015.61	83.2456
1018.98	105.727
1022.36	146.513
1025.73	181.306
1029.11	223.173
1032.48	258.086
1035.86	294.507
1039.23	326.69
1042.61	311.238
1045.98	280.841
1049.36	236.276
1052.73	199.292
1056.11	171.464
1059.48	146.6
1062.85	118.62
1066.23	97.9731
1069.6	65.8242
1072.98	47.6902
1076.35	31.416
1079.73	27.6802
1083.1	23.1821
1086.48	15.4629
1089.85	10.8433
1093.23	8.74536
1096.6	10.167
1099.98	22.604
1103.35	24.6331
1106.73	18.4785
1110.1	10.8357
1113.48	13.4856
1116.85	12.0588
1120.23	9.271
1123.6	0.589355
1126.98	2.75415
1130.35	1.05566
1133.72	2.3855
1137.1	0.065186
1140.47	5.65942
1143.85	0.093506
1147.22	2.9563
1150.6	0.77832
1153.97	4.88818
1157.35	9.20312
1160.72	16.1069
1164.1	22.8977
1167.47	27.6731
1170.85	24.5413
1174.22	19.2683
1177.6	18.9863
1180.97	17.7398
1184.35	15.1335
1187.72	17.3921
1191.1	19.9277
1194.47	18.521
1197.85	12.1895
1201.22	7.61255
1204.6	7.52124
1207.97	6.84229
1211.35	5.58398
1214.72	6.61279
1218.1	7.04565
1221.47	3.58252
1224.85	7.66431
1228.22	7.22192
1231.6	4.96655
1234.97	9.5498
1238.35	13.4183
1241.72	5.04332
1245.09	11.0983
1248.47	8.80273
1251.84	12.7952
1255.22	9.0249
1258.59	11.4153
1261.97	7.31714
1265.34	9.82812
1268.72	6.44727
1272.09	8.46973
1275.47	6.33521
1278.84	3.88428
1282.22	5.90381
1285.59	11.831
1288.97	11.9937
1292.34	5.58228
1295.72	3.74194
1299.09	1.14917
1302.47	1.16138
