Measurement: Raman, 532 nm, unoriented, Raman Data Processed
Mineral: Plattnerite
Rruff sample: R070605
Ideal chemistry: PbO_2_
Locality: Ojuela mine, Mapimi, Durango, Mexico
Source: James Shigley
Description: Black tarnished metallic prismatic crystals.
Measured chemistry: Pb_1.00_O_2_
Raman shift (cm-1)	intensity
162.952	0
165.845	236.691
168.738	324.941
171.631	667.455
174.523	758.879
177.416	1108.74
180.309	1345.18
183.201	1787.84
186.094	1341.66
188.987	831.93
191.88	445.224
194.772	52.4736
197.665	85.6074
200.558	149.805
203.45	102.025
206.343	151.066
209.236	306.588
212.128	600.816
215.021	1100.55
217.914	1700.76
220.806	2204.02
223.699	3092.53
226.592	4028.14
229.485	4862.09
232.377	6018.04
235.27	7246.42
238.163	8463.1
241.055	9924.55
243.948	11286.6
246.841	12986.4
249.733	14656.5
252.626	16149
255.519	17460.1
258.412	18303.9
261.304	18979
264.197	19444.5
267.09	19040.9
269.982	18351.1
272.875	17619
275.768	16131.5
278.66	14471.1
281.553	12835
284.446	11101.8
287.339	9581.4
290.231	8101.87
293.124	6720.03
296.017	5534.56
298.909	4506.71
301.802	3560.55
304.695	2735.02
307.587	2083.06
310.48	1518.38
313.373	1111.08
316.265	647.322
319.158	238.731
322.051	192.362
324.944	7.5957
327.836	59.0205
330.729	108.757
333.622	44.8565
336.514	35.0195
339.407	183.751
342.3	295.31
345.192	532.207
348.085	736.946
350.978	1021.76
353.871	1286.9
356.763	1483.17
359.656	1574.33
362.549	1617.37
365.441	1579.51
368.334	1526.23
371.227	1381.78
374.12	1252.66
377.012	1011.19
379.905	919.825
382.798	665.612
385.69	468.412
388.583	294.904
391.476	212.514
394.368	128.458
397.261	56.9961
400.154	12.8271
403.046	93.6562
405.939	109.474
408.832	98.29
411.725	89.9287
414.617	4.85107
417.51	44.9316
420.403	25.8814
423.295	42.125
426.188	52.1768
429.081	127.6
431.973	187.244
434.866	226.78
437.759	296.188
440.652	299.504
443.544	395.692
446.437	488.722
449.33	634.829
452.222	719.043
455.115	745.48
458.008	863.683
460.9	834.829
463.793	881.935
466.686	800.43
469.579	766.631
472.471	651.119
475.364	656.975
478.257	600.916
481.149	580.275
484.042	443.03
486.935	504.123
489.827	418.187
492.72	414.074
495.613	433.737
498.505	439.973
501.398	544.692
504.291	646.274
507.184	721.042
510.076	831.561
512.969	1050.84
515.862	1195.28
518.754	1370.47
521.647	1586.15
524.54	1753.66
527.433	1905.35
530.325	1858.93
533.218	1866.1
536.111	1760.39
539.003	1492.29
541.896	1191.74
544.789	953.782
547.681	756.18
550.574	583.579
553.467	436.594
556.36	382.662
559.252	252.866
562.145	264.1
565.038	162.608
567.93	98.0967
570.823	158.786
573.716	66.2271
576.608	28.6699
579.501	0.006348
582.394	85.4062
585.286	4.68701
588.179	28.1704
591.072	8.30029
593.965	14.1773
596.857	57.081
599.75	7.78418
602.643	3.04199
605.535	6.99536
608.428	44.7183
611.321	34.8513
614.213	7.00439
617.106	65.5752
619.999	32.6838
622.891	23.7139
625.784	16.7444
628.677	4.55347
631.57	3.94604
634.462	32.8105
637.355	27.4731
640.248	64.4739
643.14	65.4622
646.033	77.9675
648.926	36.4714
651.818	73.241
654.711	9.64795
657.604	16.0559
660.497	61.9033
663.389	47.8355
666.282	126.869
669.175	95.0842
672.067	9.98755
674.96	49.2402
677.853	71.584
680.745	45.8987
683.638	37.6726
686.531	10.4065
689.424	67.2507
692.316	33.1794
695.209	3.55151
698.102	18.1519
700.994	67.1856
703.887	10.991
706.78	78.1892
709.673	52.2437
712.565	56.3091
715.458	28.644
718.351	80.6245
721.243	29.2124
724.136	19.0129
727.029	40.8601
729.921	73.0557
732.814	85.043
735.707	90.3716
738.6	17.6152
741.492	93.2229
744.385	35.294
747.278	25.5837
750.17	82.9255
753.063	65.011
755.956	87.6533
758.848	76.8032
761.741	72.7883
764.634	67.9243
767.526	105.744
770.419	72.9902
773.312	61.6045
776.205	83.9888
779.097	48.6472
781.99	55.6357
784.883	70.0952
787.775	29.4973
790.668	54.4273
793.561	84.3521
796.453	39.4788
799.346	41.2458
802.239	37.1697
805.131	42.2122
808.024	22.4963
810.917	50.0217
813.81	8.45508
816.702	20.3945
819.595	16.1465
822.488	16.8108
825.38	46.2297
828.273	3.66943
831.166	55.1521
834.058	18.7996
836.951	58.0171
839.844	18.2092
842.737	34.075
845.629	27.1814
848.522	3.24023
851.415	44.7361
854.307	33.1816
857.2	5.24414
860.093	49.6755
862.986	29.5779
865.878	26.3904
868.771	64.1291
871.664	71.1248
874.556	13.5142
877.449	63.8994
880.342	42.7412
883.234	54.3425
886.127	36.5383
889.02	87.3618
891.913	38.4734
894.805	43.4595
897.698	28.1043
900.591	51.6558
903.483	51.4424
906.376	33.4255
909.269	96.5637
912.161	58.1533
915.054	48.2817
917.947	47.9143
920.84	63.6765
923.732	39.7585
926.625	43.8945
929.518	35.3052
932.41	15.2361
935.303	40.3809
938.196	7.80078
941.088	41.325
943.981	51.1809
946.874	22.4836
949.766	36.2764
952.659	117.552
955.552	3.34399
958.444	10.6951
961.337	16.8992
964.23	2.87988
967.123	8.21167
970.015	9.42236
972.908	0.473877
975.801	0.074951
978.693	37.7617
981.586	13.4065
984.479	21.2146
987.371	23.6682
990.264	33.6887
993.157	2.97974
996.05	32.5569
998.942	17.0535
1001.84	36.2739
1004.73	56.177
1007.62	57.2141
1010.51	31.3418
1013.41	53.4993
1016.3	35.9539
1019.19	43.7415
1022.08	76.019
1024.98	58.2739
1027.87	69.8306
1030.76	109.9
1033.65	36.9451
1036.55	81.1611
1039.44	61.5164
1042.33	94.239
1045.22	128.8
1048.12	118.347
1051.01	122.861
1053.9	138.265
1056.8	87.0376
1059.69	91.5478
1062.58	55.8069
1065.47	116.221
1068.37	145.529
1071.26	188.762
1074.15	101.292
1077.05	80.5476
1079.94	50.7883
1082.83	31.9004
1085.72	58.175
1088.62	28.3555
1091.51	16.7993
1094.4	42.6228
1097.29	23.7302
1100.19	69.1636
1103.08	15.2119
1105.97	15.1873
1108.87	13.2075
1111.76	36.1397
1114.65	22.7202
1117.54	10.8643
1120.44	14.9552
1123.33	68.8687
1126.22	48.4756
1129.11	18.7551
1132.01	39.4042
1134.9	4.47644
1137.79	11.8162
1140.68	48.6775
1143.58	35.087
1146.47	49.6487
1149.36	31.2411
1152.26	17.1184
1155.15	83.5687
1158.04	22.9136
1160.93	49.1979
1163.83	35.7117
1166.72	60.0544
1169.61	51.1589
1172.5	49.8657
1175.4	57.9585
1178.29	32.1095
1181.18	24.6633
1184.08	18.9261
1186.97	44.34
1189.86	59.9144
1192.75	61.1184
1195.65	47.0037
1198.54	53.1936
1201.43	41.9768
1204.32	56.6055
1207.22	180.434
1210.11	30.0204
1213	29.6217
1215.89	32.5645
1218.79	20.438
1221.68	44.0297
1224.57	14.1392
1227.46	16.0524
1230.36	4.19641
1233.25	41.6448
1236.14	35.2936
1239.04	54.8839
1241.93	52.9769
1244.82	67.6534
1247.71	38.5966
1250.61	77.9343
1253.5	59.3749
1256.39	63.1312
1259.29	55.2734
1262.18	35.1559
1265.07	50.1982
1267.96	16.2288
1270.86	29.1785
