Measurement: Raman, 785 nm, unoriented, Raman Data Processed
Mineral: Plumbogummite
Rruff sample: R060684
Ideal chemistry: PbAl_3_(PO_4_)(PO_3_OH)(OH)_6_
Locality: unknown
Source: Bob Jenkins
Description: Pale blue crust associated with dark blue linarite and teal colored caledonite
Raman shift (cm-1)	intensity
171.186	0
174.079	77.9898
176.971	253.846
179.864	438.074
182.757	587.736
185.65	619.879
188.542	377.924
191.435	171.129
194.328	10.0981
197.22	12.9979
200.113	34.015
203.006	9.61073
205.898	153.883
208.791	179.808
211.684	310.24
214.577	403.32
217.469	535.013
220.362	721.759
223.255	851.896
226.147	1031.19
229.04	1051.6
231.933	1240.65
234.825	1369.33
237.718	1561.62
240.611	1696.13
243.503	1865.64
246.396	2023.54
249.289	2108.07
252.182	2051.22
255.074	2011.95
257.967	1745.22
260.86	1527.28
263.752	1233.59
266.645	1231.74
269.538	1156.71
272.431	1071.25
275.323	940.769
278.216	903.276
281.109	695.338
284.001	607.319
286.894	544.795
289.787	362.297
292.679	158.236
295.572	91.7213
298.465	26.4603
301.358	14.2137
304.25	18.7968
307.143	43.6489
310.036	88.6053
312.928	26.8251
315.821	28.5557
318.714	24.4703
321.606	16.5339
324.499	19.2308
327.392	31.1824
330.284	112.504
333.177	122.724
336.07	227.85
338.963	192.012
341.855	262.729
344.748	409.714
347.641	486.451
350.533	673.236
353.426	789.625
356.319	874.599
359.211	873.805
362.104	794.953
364.997	684.712
367.89	696.965
370.782	669.932
373.675	555.8
376.568	494.423
379.46	359.813
382.353	267.949
385.246	187.48
388.138	132.564
391.031	98.4703
393.924	67.4781
396.817	28.2688
399.709	7.85651
402.602	26.6881
405.495	29.9322
408.387	0.208885
411.28	39.4674
414.173	18.6532
417.065	242.333
419.958	360.675
422.851	448.927
425.744	507.216
428.636	644.727
431.529	711.526
434.422	844.831
437.314	968.403
440.207	1139.63
443.1	1368.36
445.992	1498.12
448.885	1548.49
451.778	1653.1
454.671	1724.85
457.563	1856.81
460.456	2047.39
463.349	1948.99
466.241	1703.36
469.134	1184.08
472.027	1002.55
474.919	817.736
477.812	604.023
480.705	454.765
483.598	443.809
486.49	391.581
489.383	428.072
492.276	404.714
495.168	438.56
498.061	639.484
500.954	685.665
503.846	729.81
506.739	705.477
509.632	551.001
512.525	338.144
515.417	171.017
518.31	64.6984
521.203	6.35897
524.095	26.3254
526.988	4.78147
529.881	7.22709
532.773	27.7478
535.666	24.3156
538.559	1.11636
541.452	78.7809
544.344	85.4232
547.237	126.3
550.13	193.222
553.022	178.001
555.915	305.508
558.808	326.212
561.701	318.48
564.593	433.651
567.486	403.431
570.379	441.084
573.271	504.318
576.164	544.382
579.057	539.258
581.949	536.389
584.842	541.604
587.735	542.838
590.628	555.527
593.52	610.829
596.413	643.016
599.306	683.934
602.198	811.275
605.091	884.935
607.984	956.899
610.876	921.184
613.769	897.438
616.662	863.317
619.555	776.254
622.447	543.042
625.34	552.962
628.233	457.115
631.125	427.159
634.018	379.771
636.911	291.959
639.803	153.64
642.696	184.499
645.589	118.365
648.482	88.753
651.374	98.7018
654.267	17.6576
657.16	67.1196
660.052	9.94178
662.945	27.2246
665.838	12.0169
668.73	18.6214
671.623	5.8135
674.516	13.0667
677.409	10.3875
680.301	47.1933
683.194	54.9917
686.087	49.3906
688.979	2.91516
691.872	17.6071
694.765	79.5008
697.657	100.77
700.55	65.9757
703.443	48.3837
706.336	24.2433
709.228	49.4625
712.121	75.0099
715.014	21.1561
717.906	41.2364
720.799	20.5447
723.692	115.857
726.584	65.8474
729.477	57.3882
732.37	39.6919
735.263	14.4769
738.155	92.8885
741.048	50.0964
743.941	5.71159
746.833	8.85332
749.726	123.689
752.619	93.5418
755.511	52.1813
758.404	28.4279
761.297	46.831
764.19	26.2303
767.082	36.8498
769.975	14.0706
772.868	0.955702
775.76	67.1929
778.653	17.9188
781.546	1.28871
784.438	48.4257
787.331	106.481
790.224	66.8877
793.117	87.9897
796.009	67.296
798.902	42.7116
801.795	109.225
804.687	104.361
807.58	55.9352
810.473	86.0826
813.365	94.2515
816.258	110.647
819.151	55.7411
822.044	86.2415
824.936	137.361
827.829	121.53
830.722	116.004
833.614	89.3803
836.507	161.539
839.4	63.7893
842.292	72.066
845.185	29.6842
848.078	6.36109
850.971	9.41062
853.863	6.66666
856.756	23.9726
859.649	49.2118
862.541	17.6816
865.434	38.1606
868.327	58.7032
871.219	34.1995
874.112	58.6101
877.005	58.6546
879.898	129.525
882.79	83.741
885.683	69.6843
888.576	98.2471
891.468	95.4214
894.361	122.223
897.254	181.068
900.146	165.11
903.039	174.622
905.932	187.503
908.825	129.651
911.717	104.812
914.61	71.927
917.503	49.0419
920.395	44.2431
923.288	21.2507
926.181	14.2115
929.073	14.5504
931.966	27.4014
934.859	14.6682
937.752	12.7393
940.644	4.60278
943.537	12.2553
946.43	14.5453
949.322	36.4518
952.215	262.478
955.108	293.707
958	402.505
960.893	565.564
963.786	853.086
966.679	1137.76
969.571	1491.59
972.464	1725.65
975.357	2177.64
978.249	2498.39
981.142	2508.38
984.035	2469.36
986.927	2317.46
989.82	2232.76
992.713	2197.08
995.606	2131.15
998.498	2250.65
1001.39	2363.87
1004.28	2343.99
1007.18	2245.02
1010.07	2135.9
1012.96	2052.38
1015.85	1974.67
1018.75	1867.81
1021.64	1694.13
1024.53	1462.23
1027.42	1333.93
1030.32	1134.53
1033.21	925.412
1036.1	700.101
1039	620.263
1041.89	464.241
1044.78	332.14
1047.67	307.984
1050.57	141.439
1053.46	19.7527
1056.35	2.83279
1059.24	8.75411
1062.14	8.65645
1065.03	10.1542
1067.92	10.0904
1070.82	20.0986
1073.71	18.7778
1076.6	43.8432
1079.49	19.0592
1082.39	5.17672
1085.28	89.4448
1088.17	67.1381
1091.07	132.844
1093.96	125.693
1096.85	191.277
1099.74	120.457
1102.63	140.888
1105.53	193.226
1108.42	137.524
1111.31	96.4703
1114.21	123.14
1117.1	111.611
1119.99	103.823
1122.88	28.3406
1125.78	28.0366
1128.67	23.5133
1131.56	20.1854
1134.45	32.8569
1137.35	10.9037
1140.24	59.3289
1143.13	48.4513
1146.03	3.00551
1148.92	30.7392
1151.81	30.2218
1154.7	12.3274
1157.6	39.9923
1160.49	71.4938
1163.38	6.23274
1166.28	1.50968
1169.17	23.3317
1172.06	42.0439
1174.95	49.8244
1177.85	81.318
1180.74	51.7196
1183.63	91.8336
1186.52	56.4575
1189.42	121.465
1192.31	136.052
1195.2	147.76
1198.09	104.16
1200.99	74.0237
1203.88	45.9119
1206.77	36.1871
1209.66	85.9824
1212.56	56.3489
1215.45	27.522
1218.34	60.3664
1221.24	21.917
1224.13	66.8811
1227.02	53.0558
1229.91	25.5215
1232.81	3.31155
