Measurement: Raman, 780 nm, unoriented, Raman Data Processed
Mineral: Plumbogummite
Rruff sample: R050458
Ideal chemistry: PbAl_3_(PO_4_)(PO_3_OH)(OH)_6_
Locality: Cornwall, England
Source: University of Arizona Mineral Museum
Description: Grayish blue botryoidal crust associated with yellow-green pyromorphite
Measured chemistry: Pb_1.00_Al_3.00_((P_0.81_As_0.19_)_Î£=1_O_4_)(P_1.00_O_3_OH)(OH)_6_
Raman shift (cm-1)	intensity
162.244	0
165.137	0.14374
168.029	0.007156
170.922	0.655271
173.815	4.63744
176.707	6.89165
179.6	10.1446
182.493	11.3584
185.385	11.4436
188.278	9.63784
191.171	7.73285
194.064	5.75546
196.956	1.85249
199.849	0.149551
202.742	0.097385
205.634	0.178759
208.527	0.40031
211.42	3.16406
214.312	5.55749
217.205	8.64595
220.098	10.9217
222.991	16.9019
225.883	22.4382
228.776	29.6379
231.669	38.9433
234.561	46.4992
237.454	52.8893
240.347	57.5806
243.239	62.8603
246.132	64.0311
249.025	64.9861
251.918	62.1613
254.81	59.46
257.703	54.6065
260.596	49.0583
263.488	44.424
266.381	39.8259
269.274	39.6231
272.166	39.5109
275.059	38.8871
277.952	38.945
280.845	36.6034
283.737	33.5708
286.63	28.016
289.523	24.184
292.415	18.7572
295.308	14.5811
298.201	13.2437
301.094	10.1187
303.986	6.4096
306.879	4.19551
309.772	3.50359
312.664	2.23103
315.557	1.88196
318.45	0.836501
321.342	0.10562
324.235	0.730071
327.128	1.17629
330.021	0.193896
332.913	1.43651
335.806	0.239615
338.699	4.39124
341.591	4.23901
344.484	5.71739
347.377	7.97289
350.269	11.642
353.162	14.1043
356.055	14.6909
358.947	19.5467
361.84	17.312
364.733	19.7377
367.626	21.5286
370.518	19.4733
373.411	16.5718
376.304	16.7711
379.197	15.6471
382.089	11.8988
384.982	10.4654
387.875	9.69449
390.767	6.51695
393.66	3.73896
396.553	3.42723
399.445	1.85107
402.338	1.19865
405.231	0.528272
408.123	0.044833
411.016	0.483943
413.909	0.353848
416.802	0.305383
419.694	0.706639
422.587	0.456363
425.48	0.386832
428.372	0.369946
431.265	0.099633
434.158	2.03246
437.05	3.50096
439.943	5.50821
442.836	3.82885
445.729	7.00601
448.621	8.01265
451.514	11.0275
454.407	11.5228
457.299	14.2995
460.192	15.8541
463.085	14.8704
465.978	14.5009
468.87	9.2035
471.763	7.21739
474.656	7.7757
477.548	4.92536
480.441	1.62299
483.334	4.48355
486.226	6.09129
489.119	6.46671
492.012	7.6414
494.904	9.32575
497.797	11.3767
500.69	13.9336
503.583	13.0296
506.475	10.1568
509.368	9.74634
512.261	7.62371
515.153	5.40762
518.046	4.05368
520.939	4.7404
523.832	5.56366
526.724	6.04001
529.617	7.87552
532.51	6.82022
535.402	3.32396
538.295	2.46314
541.188	1.55195
544.081	0.241334
546.973	0.073276
549.866	0.164684
552.759	0.665397
555.651	0.002343
558.544	0.359653
561.437	0.177967
564.329	1.65086
567.222	0.038459
570.115	3.31455
573.008	3.19375
575.9	3.18698
578.793	3.11069
581.686	5.40535
584.578	7.09507
587.471	6.27114
590.364	4.9725
593.256	8.83571
596.149	9.65259
599.042	11.8681
601.934	14.0868
604.827	17.5397
607.72	19.7087
610.613	21.6692
613.505	21.1375
616.398	17.6015
619.291	12.377
622.183	9.65606
625.076	7.11949
627.969	4.87989
630.861	3.60826
633.754	2.37745
636.647	1.16327
639.54	1.94632
642.432	1.32772
645.325	0.716725
648.218	0.611575
651.111	0.481541
654.003	0.282905
656.896	0.929272
659.789	1.32171
662.681	0.572318
665.574	0.365137
668.467	0.265642
671.359	0.113245
674.252	1.59474
677.145	1.34117
680.038	0.824182
682.93	0.988517
685.823	1.7592
688.716	3.40091
691.608	1.71501
694.501	2.94692
697.394	2.59035
700.286	1.68342
703.179	3.023
706.072	2.91618
708.965	2.8344
711.857	0.589518
714.75	0.949994
717.643	3.0206
720.535	1.49306
723.428	2.42192
726.321	0.95746
729.213	1.46249
732.106	2.40838
734.999	0.101246
737.891	0.020853
740.784	0.96052
743.677	3.10359
746.57	0.648429
749.462	0.766931
752.355	2.25079
755.248	0.460626
758.14	0.953607
761.033	0.042962
763.926	1.42949
766.818	0.093224
769.711	1.30981
772.604	2.12587
775.497	0.007473
778.389	0.027084
781.282	0.15067
784.175	0.541687
787.067	1.24115
789.96	0.085506
792.853	1.7056
795.745	0.93576
798.638	0.587397
801.531	0.36004
804.424	0.01994
807.316	0.302558
810.209	0.406255
813.102	0.364229
815.994	0.728964
818.887	0.158239
821.78	1.75744
824.673	0.290798
827.565	1.20992
830.458	1.86965
833.351	2.76913
836.243	3.14991
839.136	4.32915
842.029	5.99007
844.922	6.95856
847.814	7.55131
850.707	6.84765
853.6	12.0104
856.492	11.726
859.385	13.4832
862.278	15.6399
865.17	16.9865
868.063	18.7146
870.956	19.3303
873.848	21.1891
876.741	22.4983
879.634	21.5349
882.527	23.8023
885.419	24.783
888.312	24.5778
891.205	22.6933
894.097	24.6436
896.99	22.2023
899.883	19.0084
902.775	14.7333
905.668	11.9109
908.561	8.56531
911.454	6.63905
914.346	6.60581
917.239	0.942224
920.132	0.466489
923.024	0.27718
925.917	0.292553
928.81	0.31045
931.702	0.820712
934.595	0.223311
937.488	0.273348
940.381	0.35007
943.273	0.012584
946.166	0.260924
949.059	0.349757
951.952	2.38506
954.844	4.18713
957.737	5.38963
960.63	10.3129
963.522	16.2485
966.415	22.9514
969.308	33.7658
972.2	41.6108
975.093	46.9627
977.986	53.2858
980.879	56.6787
983.771	54.9076
986.664	53.09
989.557	49.7009
992.449	45.8847
995.342	44.8164
998.235	40.9281
1001.13	40.1425
1004.02	39.8033
1006.91	38.7028
1009.8	34.3663
1012.7	34.7163
1015.59	37.8972
1018.48	34.2015
1021.38	32.1206
1024.27	30.9719
1027.16	29.3529
1030.05	24.7506
1032.95	22.7322
1035.84	20.6488
1038.73	17.6662
1041.62	14.1901
1044.52	11.489
1047.41	10.5139
1050.3	7.03132
1053.2	5.20152
1056.09	4.99827
1058.98	3.26828
1061.87	1.95635
1064.77	1.31379
1067.66	1.05001
1070.55	0.438586
1073.44	0.360643
1076.34	0.048983
1079.23	0.455464
1082.12	0.720174
1085.02	0.84349
1087.91	0.632437
1090.8	0.917785
1093.69	0.377215
1096.59	0.507512
1099.48	1.91666
1102.37	4.56873
1105.27	4.06872
1108.16	4.95644
1111.05	8.52569
1113.94	7.1446
1116.84	4.78415
1119.73	6.01582
1122.62	2.89014
1125.51	2.64977
1128.41	2.97714
1131.3	3.46473
1134.19	4.04268
1137.08	4.07047
1139.98	3.21029
1142.87	3.47285
1145.76	7.26539
1148.65	6.50883
1151.55	5.35913
1154.44	7.39347
1157.33	7.12724
1160.23	6.23454
1163.12	5.78878
1166.01	2.18238
1168.9	3.3948
1171.8	2.31834
1174.69	1.1039
1177.58	2.3399
1180.47	0.063025
1183.37	2.21548
1186.26	1.41478
1189.15	2.79206
1192.05	0.13119
1194.94	0.625195
1197.83	0.186882
1200.72	0.608617
1203.62	1.49924
1206.51	0.280732
1209.4	1.11016
1212.3	2.73128
1215.19	1.57261
1218.08	0.353671
1220.97	2.19622
1223.87	0.984983
1226.76	0.196532
1229.65	1.66189
1232.54	3.22153
1235.44	0.008172
1238.33	1.49196
1241.22	1.22584
1244.11	3.01059
1247.01	0.802181
1249.9	0.849862
1252.79	0.480343
1255.68	2.61354
1258.58	2.04436
1261.47	2.43582
1264.36	3.04866
1267.26	2.05577
1270.15	3.4854
1273.04	2.12036
1275.93	2.19438
1278.83	3.64207
1281.72	0.895678
1284.61	1.28727
1287.51	0
