Measurement: Raman, 532 nm, unoriented, Raman Data Processed
Mineral: Plumbonacrite
Rruff sample: R130567
Ideal chemistry: Pb_5_(CO_3_)_3_O(OH)_2_
Locality: Merehead Quarry, Cranmore, Somerset, England, UK
Source: Rick Turner
Description: Colorless hexagonal bipyramidal crystal on cerussite
Raman shift (cm-1)	intensity
90.2653	0
93.6401	86.6841
97.0149	398.293
100.39	656.254
103.765	1012.85
107.139	1482.56
110.514	1966.71
113.889	2657.27
117.264	3508.53
120.639	4389.78
124.013	5216.9
127.388	5367.97
130.763	4474.61
134.138	3204.03
137.513	2575.89
140.888	2255.52
144.262	1917.7
147.637	1408.55
151.012	827.203
154.387	407.852
157.762	167.071
161.137	48.0227
164.511	30.8257
167.886	6.8667
171.261	38.876
174.636	79.8774
178.011	138.448
181.385	230.994
184.76	354.377
188.135	461.145
191.51	498.651
194.885	427.183
198.26	308.289
201.634	169.167
205.009	59.6434
208.384	20.1725
211.759	59.6855
215.133	59.8057
218.508	48.2905
221.883	23.3871
225.258	9.78442
228.633	49.7369
232.008	75.8737
235.382	108.185
238.757	136.824
242.132	156.799
245.507	177.474
248.882	194.755
252.256	236.362
255.631	290.653
259.006	368.358
262.381	464.866
265.756	575.333
269.131	660.561
272.505	737.68
275.88	807.6
279.255	884.649
282.63	975.909
286.005	1110.44
289.38	1263.68
292.754	1388.99
296.129	1457.11
299.504	1428.23
302.879	1331.34
306.254	1185.84
309.628	1010.96
313.003	780.106
316.378	565.609
319.753	414.412
323.128	321.919
326.502	264.043
329.877	220.959
333.252	181.082
336.627	149.167
340.002	103.891
343.377	73.6507
346.751	28.9421
350.126	0.165344
353.501	15.0692
356.876	23.821
360.251	22.8467
363.625	10.5914
367	3.42975
370.375	30.5209
373.75	75.9761
377.125	138.609
380.5	216.857
383.874	318.451
387.249	438.65
390.624	564.866
393.999	686.758
397.374	795.303
400.748	856.932
404.123	862.482
407.498	807.246
410.873	738.951
414.248	682.568
417.623	637.688
420.997	587.356
424.372	536.132
427.747	487.67
431.122	432.008
434.497	377.8
437.872	331.474
441.246	308.423
444.621	306.606
447.996	333.434
451.371	394.056
454.745	507.573
458.12	651.786
461.495	752.383
464.87	726.811
468.245	572.947
471.62	403.586
474.994	273.954
478.369	202.43
481.744	162.487
485.119	145.311
488.494	123.234
491.868	104.938
495.243	77.6332
498.618	43.1656
501.993	18.7595
505.368	0.877625
508.743	11.7465
512.117	11.8426
515.492	9.09772
518.867	7.96567
522.242	3.49143
525.617	1.00971
528.991	6.54178
532.366	7.09824
535.741	4.47079
539.116	8.45377
542.491	7.79526
545.866	10.7226
549.24	12.9661
552.615	13.6494
555.99	13.6792
559.365	13.8467
562.74	21.1073
566.115	19.5704
569.489	20.0705
572.864	16.4012
576.239	14.4298
579.614	12.7375
582.989	15.2247
586.363	16.9189
589.738	17.8729
593.113	16.4299
596.488	20.9036
599.863	23.354
603.237	21.269
606.612	26.3728
609.987	30.8345
613.362	29.8532
616.737	30.7629
620.112	29.9457
623.486	23.8877
626.861	21.6699
630.236	15.5019
633.611	16.0861
636.986	8.27704
640.361	6.80008
643.735	2.71075
647.11	4.29013
650.485	0.295563
653.86	3.55478
657.235	0.549927
660.609	0.477997
663.984	0.261108
667.359	6.20343
670.734	1.69885
674.109	5.95261
677.484	28.2641
680.858	59.6743
684.233	46.2443
687.608	19.9192
690.983	24.6725
694.357	38.4338
697.732	48.1673
701.107	59.3584
704.482	70.8768
707.857	74.5672
711.232	45.6046
714.606	27.1205
717.981	20.271
721.356	24.2646
724.731	25.5969
728.106	28.0797
731.481	31.2031
734.855	37.6344
738.23	50.2179
741.605	63.6845
744.98	68.1173
748.355	41.8991
751.729	37.7173
755.104	38.5931
758.479	32.7615
761.854	33.5485
765.229	29.9611
768.604	30.3192
771.978	23.5497
775.353	18.3607
778.728	13.1
782.103	10.1725
785.478	11.9583
788.852	11.725
792.227	6.25561
795.602	6.27261
798.977	3.89792
802.352	1.05804
805.726	0.440643
809.101	0.391663
812.476	0.527557
815.851	1.11285
819.226	0.278534
822.601	2.1778
825.975	1.81003
829.35	4.78479
832.725	16.5038
836.1	30.0485
839.475	49.4008
842.85	84.3313
846.224	109.221
849.599	94.1559
852.974	67.1104
856.349	54.6421
859.724	54.2763
863.098	103.679
866.473	224.392
869.848	119.741
873.223	17.7817
876.598	1.45227
879.972	0.356812
883.347	2.31946
886.722	1.94412
890.097	2.14484
893.472	5.36703
896.847	8.48465
900.221	11.2476
903.596	24.4501
906.971	56.4911
910.346	133.123
913.721	83.1354
917.096	22.7017
920.47	10.2499
923.845	4.08414
927.22	4.36873
930.595	5.46555
933.97	10.0594
937.344	0.24382
940.719	2.56525
944.094	2.636
947.469	0.762772
950.844	1.62441
954.218	0.343277
957.593	1.62944
960.968	1.93536
964.343	4.18372
967.718	5.10687
971.092	8.55286
974.467	22.5492
977.842	40.3116
981.217	66.0776
984.592	67.7854
987.967	23.3346
991.341	12.1438
994.716	2.89285
998.091	0.951141
1001.47	0.188126
1004.84	0.141342
1008.22	3.27022
1011.59	2.7935
1014.97	2.99347
1018.34	3.07458
1021.72	6.54289
1025.09	14.5913
1028.46	41.3099
1031.84	39.1835
1035.21	58.7785
1038.59	181.974
1041.96	596.147
1045.34	1373.25
1048.71	3530.41
1052.09	6223.85
1055.46	3804.27
1058.84	2870.94
1062.21	474.017
1065.59	90.1072
1068.96	47.2295
1072.34	35.6472
1075.71	23.3758
1079.09	18.5951
1082.46	18.969
1085.84	23.4765
1089.21	23.5222
1092.59	11.3084
1095.96	7.1795
1099.34	8.60959
1102.71	9.43567
1106.09	6.83774
1109.46	5.21773
1112.84	2.58832
1116.21	2.19324
1119.58	0.210037
1122.96	0.219208
1126.33	1.6373
1129.71	1.14845
1133.08	0.692337
1136.46	0.047653
1139.83	2.70982
1143.21	1.49382
1146.58	0.060181
1149.96	0.5159
1153.33	4.11903
1156.71	3.68037
1160.08	1.51952
1163.46	2.93887
1166.83	1.75531
1170.21	3.46016
1173.58	2.39825
1176.96	0.293991
1180.33	5.45863
1183.71	4.87376
1187.08	3.42491
1190.46	3.61134
1193.83	4.67885
1197.2	2.89134
1200.58	6.84877
1203.95	8.54758
1207.33	13.7788
1210.7	22.226
1214.08	42.4151
1217.45	69.101
1220.83	96.9105
1224.2	96.5573
1227.58	87.7862
1230.95	43.8523
1234.33	24.422
1237.7	14.9713
1241.08	9.26868
1244.45	3.95017
1247.83	4.16522
1251.2	5.26306
1254.58	7.76779
1257.95	13.0848
1261.33	19.2329
1264.7	22.1363
1268.08	19.6969
1271.45	13.1352
1274.83	8.34946
1278.2	0.398102
1281.58	3.83194
1284.95	1.38791
1288.33	3.76669
1291.7	2.66501
1295.08	4.82144
1298.45	1.2663
1301.83	0
