Measurement: Raman, 780 nm, unoriented, Raman Data Processed
Mineral: Plumbotsumite
Rruff sample: R110157
Ideal chemistry: Pb_5_Si_4_O_8_(OH)_10_
Locality: Blue Bell claims, Baker, San Bernardino County, California, USA
Source: Donald M Doell
Description: Glassy pale blue massive, with a well-defined cleavage.
Raman shift (cm-1)	intensity
105.585	0
108.96	24.6165
112.335	90.3657
115.709	130.456
119.084	139.067
122.459	159.007
125.834	196.246
129.209	267.018
132.583	424.608
135.958	669.311
139.333	798.504
142.708	648.712
146.083	365.059
149.458	165.856
152.832	61.7989
156.207	11.6438
159.582	9.67755
162.957	18.1883
166.332	6.39062
169.706	4.42868
173.081	17.0434
176.456	25.1717
179.831	38.9792
183.206	58.0289
186.581	78.5885
189.955	97.0052
193.33	114.114
196.705	123.406
200.08	126.593
203.455	124.869
206.829	120.895
210.204	110.964
213.579	103.639
216.954	94.2463
220.329	78.7432
223.703	63.7859
227.078	52.655
230.453	39.7528
233.828	28.5326
237.203	21.1157
240.578	17.3793
243.952	14.9464
247.327	13.0081
250.702	11.6744
254.077	11.8571
257.452	10.3293
260.827	11.5986
264.201	14.8888
267.576	18.8925
270.951	21.9759
274.326	26.3474
277.701	29.7407
281.075	30.8217
284.45	28.6471
287.825	24.7929
291.2	19.4811
294.575	15.7989
297.95	10.0813
301.324	7.49569
304.699	5.39311
308.074	2.49393
311.449	1.08624
314.824	0.971024
318.198	0.993919
321.573	2.65014
324.948	2.05312
328.323	1.74477
331.698	1.30823
335.072	0.368095
338.447	2.48485
341.822	3.04978
345.197	3.13101
348.572	2.06465
351.947	1.314
355.321	0.614391
358.696	0.063236
362.071	0.015305
365.446	0.377472
368.821	2.13097
372.195	3.25724
375.57	5.25424
378.945	6.19254
382.32	6.46375
385.695	6.36069
389.07	6.47942
392.444	4.21096
395.819	5.59755
399.194	3.98703
402.569	3.07021
405.944	1.79195
409.318	1.95439
412.693	2.95513
416.068	3.64283
419.443	4.53377
422.818	8.2076
426.192	10.6477
429.567	11.8188
432.942	11.4974
436.317	8.30363
439.692	5.26218
443.067	3.51447
446.441	4.61031
449.816	6.53912
453.191	10.0298
456.566	11.1829
459.941	9.84919
463.315	7.38427
466.69	5.59933
470.065	5.06562
473.44	5.20902
476.815	4.34416
480.19	5.28971
483.564	4.70768
486.939	4.1416
490.314	4.13139
493.689	2.97632
497.064	1.3635
500.438	0.575533
503.813	0.065924
507.188	0.267908
510.563	0.672888
513.938	0.405088
517.313	0.290054
520.687	0.276333
524.062	0.158665
527.437	1.06177
530.812	0.468768
534.187	2.01028
537.562	0.684393
540.936	2.0223
544.311	1.70771
547.686	2.01619
551.061	3.1192
554.436	4.05673
557.81	4.20444
561.185	5.66251
564.56	7.1872
567.935	8.1408
571.31	11.9915
574.684	14.4606
578.059	15.0274
581.434	12.801
584.809	10.4743
588.184	7.74741
591.558	7.5622
594.933	7.26278
598.308	8.49852
601.683	9.43868
605.058	10.5427
608.433	11.441
611.807	9.58375
615.182	6.24852
618.557	4.39116
621.932	3.01062
625.307	2.3328
628.682	1.60753
632.056	0.761127
635.431	0.674925
638.806	0.292933
642.181	0.225672
645.556	0.555812
648.93	0.494801
652.305	0.053722
655.68	0.589816
659.055	0.764057
662.43	0.747755
665.804	1.79894
669.179	3.60017
672.554	6.65877
675.929	9.79291
679.304	5.81445
682.679	2.68492
686.053	4.86042
689.428	7.80812
692.803	5.73944
696.178	6.03999
699.553	1.76
702.928	0.347146
706.302	0.951722
709.677	1.27961
713.052	0.616319
716.427	0.506057
719.802	0.013305
723.176	0.086784
726.551	0.34537
729.926	0.071215
733.301	0.211987
736.676	0.785291
740.051	0.33668
743.425	0.53506
746.8	0.56979
750.175	1.20868
753.55	1.26203
756.925	1.66147
760.299	2.834
763.674	3.39593
767.049	4.26886
770.424	4.01781
773.799	3.47952
777.173	3.11262
780.548	2.93289
783.923	1.63194
787.298	1.33403
790.673	0.913918
794.048	0.542706
797.422	0.448941
800.797	0.804931
804.172	0.495584
807.547	0.352716
810.922	0.953944
814.296	0.630091
817.671	1.22201
821.046	0.42738
824.421	0.228217
827.796	1.03074
831.17	1.8841
834.545	1.65282
837.92	2.04456
841.295	1.85093
844.67	1.59471
848.045	2.43111
851.419	3.71976
854.794	6.32625
858.169	7.95317
861.544	3.93763
864.919	2.23807
868.293	1.45911
871.668	1.53499
875.043	1.54521
878.418	1.55301
881.793	0.726107
885.168	0.585057
888.542	0.933972
891.917	0.506076
895.292	0.087708
898.667	0.220689
902.042	0.503036
905.417	0.666668
908.791	0.247547
912.166	0.493018
915.541	0.0255
918.916	0.929209
922.291	0.330626
925.665	0.743694
929.04	0.397086
932.415	1.26168
935.79	1.30181
939.165	3.36493
942.539	2.52535
945.914	3.5786
949.289	4.19212
952.664	5.95953
956.039	7.46252
959.414	9.27309
962.788	11.3227
966.163	14.0924
969.538	16.0284
972.913	16.3145
976.288	15.3076
979.663	12.0881
983.037	8.31559
986.412	5.19481
989.787	2.35128
993.162	1.94132
996.537	0.004441
999.911	0.394198
1003.29	0.385146
1006.66	0.73766
1010.04	0.231019
1013.41	0.594644
1016.78	1.62408
1020.16	2.54894
1023.53	5.12882
1026.91	7.91706
1030.29	12.9077
1033.66	31.0864
1037.03	77.2493
1040.41	113.887
1043.78	236.537
1047.16	509.108
1050.53	124.51
1053.91	35.1264
1057.28	12.5753
1060.66	5.85127
1064.03	5.94104
1067.41	7.89109
1070.78	11.2326
1074.16	14.5703
1077.53	16
1080.91	14.4987
1084.28	9.97863
1087.66	6.54531
1091.03	3.94021
1094.41	1.91991
1097.78	1.73832
1101.16	1.63076
1104.53	0.368815
1107.91	0.639404
1111.28	0.624929
1114.65	0.1464
1118.03	0.606046
1121.4	0.574542
1124.78	0.461013
1128.15	0.557113
1131.53	0.64991
1134.9	0.428535
1138.28	0.261114
1141.65	0.313251
1145.03	0.033076
1148.4	0.876789
1151.78	0.896039
1155.15	0.025276
1158.53	0.705526
1161.9	0.100859
1165.28	1.10506
1168.65	0.861961
1172.03	0.55855
1175.4	1.10898
1178.78	0.777581
1182.15	0.895713
1185.53	0.171839
1188.9	0.734481
1192.28	0.075246
1195.65	0.6069
1199.03	0.350433
1202.4	0.791113
1205.78	0.008848
1209.15	0.605549
1212.53	0.111998
1215.9	0.448624
1219.27	0.307379
1222.65	0.066809
1226.02	0.463305
1229.4	1.06136
1232.77	0.006252
1236.15	0.866718
1239.52	1.39113
1242.9	1.56424
1246.27	1.35388
1249.65	1.11085
1253.02	0.528246
1256.4	1.17443
1259.77	1.23545
1263.15	1.20881
1266.52	1.05693
1269.9	0.634855
1273.27	0.543861
1276.65	1.07428
1280.02	0.855778
1283.4	0.377663
