Measurement: Raman, 532 nm, unoriented, Raman Data Processed
Mineral: Plumbogummite
Rruff sample: R060684
Ideal chemistry: PbAl_3_(PO_4_)(PO_3_OH)(OH)_6_
Locality: unknown
Source: Bob Jenkins
Description: Pale blue crust associated with dark blue linarite and teal colored caledonite
Raman shift (cm-1)	intensity
129.235	0
132.61	18.227
135.985	155.02
139.36	416.719
142.735	369.777
146.109	419.299
149.484	422.618
152.859	482.088
156.234	601.092
159.609	945.74
162.984	1667.37
166.358	2627.96
169.733	3714.45
173.108	5090.02
176.483	6444.02
179.858	7252.94
183.232	7205.24
186.607	5928.68
189.982	3913.8
193.357	1959.33
196.732	776.001
200.107	175.364
203.481	29.2656
206.856	45.3447
210.231	87.9385
213.606	246.722
216.981	676.699
220.355	1049.72
223.73	1690.52
227.105	2295.13
230.48	3171.87
233.855	4186.62
237.23	5469.79
240.604	7046.2
243.979	8835.3
247.354	10218.5
250.729	11109.5
254.104	10751.7
257.478	9719.66
260.853	8358.44
264.228	7329.19
267.603	6675.2
270.978	6277.75
274.353	5762.53
277.727	4661.7
281.102	3587.01
284.477	2753.93
287.852	2000.59
291.227	1472.76
294.602	1003.05
297.976	613.072
301.351	468.991
304.726	308.959
308.101	176.487
311.476	125.301
314.85	35.0967
318.225	147.014
321.6	75.0283
324.975	26.8408
328.35	107.374
331.724	273.081
335.099	509.817
338.474	769.731
341.849	1002.49
345.224	1315.5
348.599	1746.74
351.973	2205.24
355.348	2766.11
358.723	3079.53
362.098	3236.22
365.473	3294.66
368.848	3057.67
372.222	2798.28
375.597	2297.72
378.972	1919.03
382.347	1497.54
385.722	1189.36
389.096	921.04
392.471	580.019
395.846	337.322
399.221	126.404
402.596	48.9219
405.971	102.436
409.345	76.1392
412.72	23.562
416.095	215.608
419.47	545.934
422.845	781.732
426.22	1217.64
429.594	1463.65
432.969	2088.96
436.344	2728.15
439.719	3418.64
443.094	4157.99
446.468	4779.58
449.843	5286.44
453.218	5753.68
456.593	6040.51
459.968	5722.86
463.342	5221.94
466.717	4387.67
470.092	3704.68
473.467	3142.92
476.842	2767.13
480.217	2540.72
483.591	2727.26
486.966	2843.89
490.341	3197.11
493.716	3809.84
497.091	4611.97
500.466	5498.87
503.84	5606.97
507.215	4635.19
510.59	3044.69
513.965	1581.76
517.34	624.987
520.714	79.3291
524.089	131.317
527.464	166.85
530.839	146.852
534.214	3.36865
537.589	105.135
540.963	383.633
544.338	587.4
547.713	772.694
551.088	1029.31
554.463	1186.32
557.838	1412
561.212	1622.95
564.587	1843.99
567.962	2078.57
571.337	2317.75
574.711	2520
578.086	2702.5
581.461	2808.7
584.836	3033.54
588.211	3126.74
591.586	3439.51
594.96	3887.81
598.335	4347.7
601.71	4788.91
605.085	5273.55
608.46	5907.85
611.834	5688.87
615.209	5070.85
618.584	4127.29
621.959	3575.96
625.334	2765.54
628.709	2419.91
632.083	2026.79
635.458	1706.64
638.833	1493.36
642.208	1344.67
645.583	1234.99
648.958	1051.87
652.332	928.145
655.707	810.072
659.082	562.705
662.457	389.812
665.832	150.356
669.206	27.4995
672.581	31.0454
675.956	41.206
679.331	38.2315
682.706	76.6914
686.081	68.5772
689.455	0.344727
692.83	11.3638
696.205	37.3848
699.58	22.6855
702.955	9.41162
706.33	10.7842
709.704	57.9815
713.079	48.6533
716.454	117.232
719.829	107.171
723.204	191.913
726.578	185.93
729.953	173.136
733.328	172.661
736.703	177.987
740.078	92.3315
743.453	41.5464
746.827	1.37256
750.202	4.84229
753.577	54.3042
756.952	112.384
760.327	41.2441
763.701	12.3247
767.076	44.7769
770.451	40.9111
773.826	13.0669
777.201	3.64551
780.576	35.6084
783.95	58.7812
787.325	172.831
790.7	201.058
794.075	301.66
797.45	398.567
800.825	432.368
804.199	529.61
807.574	699.56
810.949	852.249
814.324	952.72
817.698	1059.87
821.073	1109.9
824.448	1091.2
827.823	1076.24
831.198	1144.62
834.573	975.201
837.948	827.84
841.322	677.399
844.697	532.004
848.072	416.925
851.447	295.707
854.822	199.889
858.196	99.0767
861.571	92.6172
864.946	32.7539
868.321	29.0288
871.696	0.473633
875.07	68.3613
878.445	267.668
881.82	543.507
885.195	772.859
888.57	1069.71
891.945	1307.45
895.319	1542.08
898.694	1661.67
902.069	1568.82
905.444	1566.84
908.819	1349.88
912.193	1172.57
915.568	900.224
918.943	639.03
922.318	414.482
925.693	273.45
929.068	141.943
932.442	36.6958
935.817	135.948
939.192	231.795
942.567	137.166
945.942	33.8838
949.317	272.448
952.691	779.123
956.066	1639.14
959.441	2931.6
962.816	4770.35
966.191	7243.41
969.565	10043
972.94	13259.7
976.315	15980.5
979.69	17831.7
983.065	18165.5
986.44	17806.4
989.814	17446.3
993.189	17223
996.564	17080.7
999.939	16843
1003.31	16543
1006.69	16121.1
1010.06	15664
1013.44	15397.9
1016.81	15151.8
1020.19	14699.9
1023.56	13380.6
1026.94	11488.2
1030.31	9402.94
1033.69	7640.1
1037.06	6033.72
1040.44	4696.74
1043.81	3397.14
1047.19	2470.22
1050.56	1615.61
1053.94	1077.71
1057.31	562.373
1060.69	232.629
1064.06	3.18652
1067.43	200.048
1070.81	103.221
1074.18	126.732
1077.56	200.129
1080.93	365.94
1084.31	840.091
1087.68	1182.92
1091.06	1601.03
1094.43	2015.54
1097.81	2225.3
1101.18	2193.86
1104.56	2006.34
1107.93	1638.19
1111.31	1358.58
1114.68	953.49
1118.06	746.72
1121.43	595.727
1124.81	406.542
1128.18	321.299
1131.56	244.371
1134.93	196.081
1138.31	71.8354
1141.68	113.922
1145.06	33.3428
1148.43	69.2261
1151.81	66.0518
1155.18	74.3496
1158.56	69.0259
1161.93	48.6182
1165.31	123.308
1168.68	233.03
1172.06	280.824
1175.43	371.281
1178.8	459.334
1182.18	484.174
1185.55	593.98
1188.93	654.191
1192.3	616.679
1195.68	648.231
1199.05	654.749
1202.43	671.102
1205.8	602.104
1209.18	506.35
1212.55	380.627
1215.93	370.524
1219.3	241.397
1222.68	203.596
1226.05	193.209
1229.43	182.63
1232.8	211.769
1236.18	169.971
1239.55	246.613
1242.93	216.614
1246.3	352.066
1249.68	345.397
1253.05	360.731
1256.42	406.549
1259.8	396.101
1263.17	355.598
1266.55	293.046
1269.92	288.259
1273.3	306.568
1276.67	280.574
1280.05	199.02
1283.42	133.564
1286.8	88.5396
1290.17	17.1572
1293.55	23.8686
1296.92	0
