Measurement: Raman, 780 nm, unoriented, Raman Data Processed
Mineral: Plumbonacrite
Rruff sample: R130567
Ideal chemistry: Pb_5_(CO_3_)_3_O(OH)_2_
Locality: Merehead Quarry, Cranmore, Somerset, England, UK
Source: Rick Turner
Description: Colorless hexagonal bipyramidal crystal on cerussite
Raman shift (cm-1)	intensity
98.7917	0
102.166	97.3511
105.541	487.762
108.916	843.539
112.291	1119.2
115.666	1643.05
119.041	2256.1
122.415	2881.16
125.79	3304.02
129.165	3057.53
132.54	2337.03
135.915	1773.08
139.29	1628.43
142.664	1615.86
146.039	1403.29
149.414	948.77
152.789	482.751
156.163	171.685
159.538	18.4497
162.913	51.0071
166.288	53.3916
169.663	61.522
173.038	20.792
176.412	47.2512
179.787	140.335
183.162	280.991
186.537	412.948
189.912	533.231
193.286	535.021
196.661	461.663
200.036	354.159
203.411	236.317
206.786	160.69
210.161	105.793
213.535	76.9011
216.91	73.3917
220.285	59.3196
223.66	39.804
227.035	15.6659
230.409	7.97339
233.784	15.5179
237.159	21.9962
240.534	36.4448
243.909	40.931
247.284	40.7654
250.658	46.3459
254.033	66.24
257.408	89.866
260.783	140.178
264.158	201.43
267.532	266.827
270.907	334.217
274.282	393.795
277.657	459.129
281.032	528.847
284.406	620.562
287.781	727.313
291.156	864.508
294.531	957.608
297.906	995.691
301.281	950.049
304.655	871.731
308.03	755.353
311.405	609.241
314.78	447.48
318.155	313.724
321.529	224.297
324.904	167.818
328.279	143.789
331.654	118.91
335.029	99.8326
338.404	83.7125
341.778	58.9238
345.153	28.2974
348.528	11.6204
351.903	9.64056
355.278	19.4299
358.652	18.4949
362.027	15.3566
365.402	8.01935
368.777	3.58185
372.152	17.7608
375.526	44.9181
378.901	85.6984
382.276	134.23
385.651	199.156
389.026	276.167
392.401	371.423
395.775	463.314
399.15	532.698
402.525	580.198
405.9	572.854
409.275	537.886
412.649	490.289
416.024	456.338
419.399	419.338
422.774	389.734
426.149	357.817
429.524	312.451
432.898	270.46
436.273	236.61
439.648	204.016
443.023	187.399
446.398	186.24
449.772	198.125
453.147	240.775
456.522	323.606
459.897	435.899
463.272	500.525
466.647	462.407
470.021	356.741
473.396	241.143
476.771	161.172
480.146	116.864
483.521	90.5912
486.895	75.5264
490.27	63.6416
493.645	53.1615
497.02	43.5168
500.395	18.3405
503.769	4.52777
507.144	0.268097
510.519	5.97116
513.894	4.41965
517.269	3.78482
520.644	5.44557
524.018	2.42868
527.393	0.061569
530.768	1.62222
534.143	5.32002
537.518	3.89139
540.892	8.44638
544.267	8.22823
547.642	5.87993
551.017	7.41386
554.392	8.92601
557.766	11.2875
561.141	10.5464
564.516	13.0999
567.891	11.1309
571.266	13.6469
574.64	12.2402
578.015	8.54848
581.39	9.22407
584.765	9.28563
588.14	7.52594
591.515	6.98491
594.889	8.67519
598.264	9.02809
601.639	11.4814
605.014	8.83662
608.389	8.42598
611.764	14.2658
615.138	15.2068
618.513	16.1111
621.888	14.3324
625.263	9.0433
628.638	6.86461
632.012	7.87936
635.387	6.14636
638.762	2.233
642.137	1.17061
645.512	1.29076
648.886	1.26402
652.261	0.488235
655.636	0.376297
659.011	0.646149
662.386	0.75708
665.76	3.80241
669.135	0.881683
672.51	0.836357
675.885	3.57342
679.26	22.9679
682.635	60.7693
686.009	41.9921
689.384	14.4009
692.759	16.214
696.134	17.4767
699.509	22.7844
702.884	27.4102
706.258	33.64
709.633	30.4293
713.008	20.2675
716.383	7.7141
719.758	6.12216
723.132	5.48276
726.507	4.38264
729.882	7.21952
733.257	7.23261
736.632	16.9322
740.006	19.6081
743.381	34.0529
746.756	29.5776
750.131	17.1757
753.506	15.2056
756.88	16.7901
760.255	13.0367
763.63	13.5696
767.005	11.2168
770.38	15.8715
773.755	11.0276
777.129	6.57726
780.504	4.56838
783.879	6.65869
787.254	3.11666
790.629	7.8559
794.003	3.87978
797.378	3.27901
800.753	4.94527
804.128	3.11484
807.503	1.79105
810.878	1.37724
814.252	2.56867
817.627	3.22456
821.002	3.66325
824.377	1.79813
827.752	4.92451
831.126	4.80453
834.501	5.2346
837.876	11.1486
841.251	17.5403
844.626	34.4142
848	46.7474
851.375	43.2226
854.75	27.8678
858.125	21.8234
861.5	25.7239
864.875	53.4337
868.249	113.31
871.624	42.688
874.999	8.69703
878.374	3.24656
881.749	1.00687
885.123	3.45014
888.498	1.88573
891.873	1.00163
895.248	4.52207
898.623	6.35752
901.997	5.3606
905.372	14.4272
908.747	38.5673
912.122	96.1205
915.497	36.9581
918.872	10.9115
922.246	5.31078
925.621	3.63958
928.996	4.09196
932.371	1.87843
935.746	3.91624
939.12	2.8127
942.495	2.75726
945.87	2.97372
949.245	0.074379
952.62	1.05968
955.995	0.726334
959.369	2.93045
962.744	1.45683
966.119	0.237175
969.494	1.75232
972.869	7.86021
976.243	6.23011
979.618	22.0591
982.993	41.8054
986.368	30.1387
989.743	8.60389
993.117	6.25739
996.492	0.78746
999.867	2.97781
1003.24	2.53678
1006.62	0.236633
1009.99	0.05423
1013.37	0.665588
1016.74	2.52094
1020.12	0.249786
1023.49	2.70675
1026.87	6.67882
1030.24	22.3778
1033.62	14.679
1036.99	23.5107
1040.37	58.9921
1043.74	153.522
1047.12	588.015
1050.49	2115.62
1053.86	2629.33
1057.24	1742.52
1060.61	977.309
1063.99	139.95
1067.36	36.6403
1070.74	20.6368
1074.11	12.1967
1077.49	10.2114
1080.86	10.5864
1084.24	6.78947
1087.61	14.1976
1090.99	7.51669
1094.36	6.15475
1097.74	4.93392
1101.11	2.92055
1104.49	2.72713
1107.86	3.22665
1111.24	8.30373
1114.61	6.15427
1117.99	3.10929
1121.36	0.163879
1124.73	0.635712
1128.11	0.097496
1131.48	0.000916
1134.86	1.10123
1138.23	1.43043
1141.61	1.5088
1144.98	0.294548
1148.36	3.82855
1151.73	2.26994
1155.11	0.696899
1158.48	1.77193
1161.86	0.518295
1165.23	2.63554
1168.61	0.27459
1171.98	0.679184
1175.36	4.94301
1178.73	0.943253
1182.11	4.35224
1185.48	4.51176
1188.86	3.13151
1192.23	3.73997
1195.61	3.75359
1198.98	2.60665
1202.36	4.08228
1205.73	7.17398
1209.11	6.47215
1212.48	14.3127
1215.86	16.4188
1219.23	32.1415
1222.61	39.3305
1225.98	39.1154
1229.35	27.484
1232.73	14.4013
1236.1	6.15198
1239.48	2.76923
1242.85	3.14045
1246.23	2.30009
1249.6	2.10829
1252.98	3.01673
1256.35	5.97118
1259.73	5.31818
1263.1	5.96827
1266.48	10.1441
1269.85	5.04129
1273.23	1.81504
1276.6	3.56384
1279.98	3.07304
1283.35	0.792328
