Measurement: Raman, 532 nm, unoriented, Raman Data Processed
Mineral: Plumbotsumite
Rruff sample: R110157
Ideal chemistry: Pb_5_Si_4_O_8_(OH)_10_
Locality: Blue Bell claims, Baker, San Bernardino County, California, USA
Source: Donald M Doell
Description: Glassy pale blue massive, with a well-defined cleavage.
Raman shift (cm-1)	intensity
185.951	0
188.844	19.898
191.737	68.0327
194.629	110.157
197.522	144.015
200.415	150.063
203.308	150.095
206.2	140.293
209.093	126.596
211.986	120.561
214.878	132.465
217.771	153.584
220.664	161.309
223.556	144.417
226.449	119.428
229.342	82.5295
232.234	53.971
235.127	30.2787
238.02	15.1604
240.913	3.13953
243.805	10.4498
246.698	3.64197
249.591	7.55396
252.483	4.2356
255.376	13.2588
258.269	22.7128
261.161	36.8903
264.054	56.6948
266.947	82.312
269.84	104.115
272.732	132.649
275.625	149.988
278.518	161.883
281.41	161.868
284.303	146.19
287.196	133.332
290.089	115.06
292.981	104.58
295.874	86.0095
298.767	70.1086
301.659	54.7955
304.552	38.7341
307.445	25.9058
310.337	16.9826
313.23	14.293
316.123	7.19269
319.015	5.53394
321.908	1.77582
324.801	0.006104
327.694	3.48694
330.586	6.83343
333.479	11.7094
336.372	20.2394
339.264	24.6878
342.157	24.3686
345.05	17.132
347.942	17.3409
350.835	9.89984
353.728	10.0218
356.621	6.56207
359.513	4.72418
362.406	0.426941
365.299	4.09375
368.191	1.1109
371.084	3.29175
373.977	9.07153
376.87	10.5822
379.762	14.022
382.655	15.7382
385.548	19.3485
388.44	22.3406
391.333	18.4655
394.226	14.131
397.118	17.8068
400.011	16.3898
402.904	11.3785
405.796	10.5254
408.689	7.8692
411.582	13.5071
414.475	15.2583
417.367	24.2886
420.26	27.0418
423.153	32.6322
426.045	40.572
428.938	46.753
431.831	45.1638
434.724	35.6989
437.616	26.7958
440.509	21.0063
443.402	23.725
446.294	27.7319
449.187	38.0572
452.08	47.2673
454.972	55.0638
457.865	53.0076
460.758	46.4923
463.651	37.7562
466.543	31.425
469.436	26.9713
472.329	20.3724
475.221	25.3478
478.114	23.825
481.007	27.5745
483.899	27.697
486.792	20.7488
489.685	17.3307
492.577	11.9379
495.47	11.5772
498.363	10.3697
501.256	2.95429
504.148	0.049255
507.041	3.07666
509.934	0.028015
512.826	0.861145
515.719	0.055603
518.612	4.58588
521.505	1.44342
524.397	1.15509
527.29	5.08191
530.183	2.98377
533.075	2.6402
535.968	2.79474
538.861	3.20416
541.753	3.91766
544.646	6.79712
547.539	4.50482
550.432	12.0614
553.324	9.57312
556.217	12.5679
559.11	14.1478
562.002	19.6678
564.895	23.0155
567.788	27.8721
570.68	34.9833
573.573	40.3909
576.466	43.4772
579.359	43.6527
582.251	36.4518
585.144	30.0569
588.037	26.7261
590.929	27.0909
593.822	32.257
596.715	28.5547
599.607	34.433
602.5	37.6142
605.393	40.5991
608.285	42.1869
611.178	36.4
614.071	28.3051
616.964	18.1153
619.856	14.1982
622.749	8.84222
625.642	3.9068
628.534	1.45801
631.427	2.78546
634.32	1.69544
637.212	3.76208
640.105	0.486389
642.998	1.54553
645.891	0.372375
648.783	1.91492
651.676	0.492798
654.569	0.698364
657.461	2.95691
660.354	3.10852
663.247	5.8833
666.139	7.0957
669.032	10.6768
671.925	13.5826
674.818	18.9896
677.71	17.5071
680.603	15.343
683.496	15.6889
686.388	19.4519
689.281	28.9104
692.174	23.9547
695.067	19.0321
697.959	14.3442
700.852	5.62671
703.745	0.688232
706.637	4.75873
709.53	3.24188
712.423	4.5481
715.315	1.74237
718.208	1.86481
721.101	2.06116
723.994	3.23859
726.886	0.613831
729.779	3.12854
732.672	0.138977
735.564	0.936768
738.457	0.00415
741.35	2.57849
744.242	0.062561
747.135	2.83649
750.028	4.52301
752.92	8.34326
755.813	10.6426
758.706	14.1387
761.599	17.4189
764.491	24.0449
767.384	23.1748
770.277	22.8346
773.169	22.4124
776.062	15.3361
778.955	13.6891
781.847	10.4083
784.74	6.90137
787.633	2.51978
790.526	2.05725
793.418	2.52765
796.311	5.10577
799.204	0.062439
802.096	0.61615
804.989	1.15167
807.882	1.76599
810.774	0.334717
813.667	1.35504
816.56	2.30115
819.453	3.03247
822.345	5.23077
825.238	2.79474
828.131	7.39038
831.023	2.23358
833.916	3.82739
836.809	9.46283
839.702	8.31073
842.594	9.75031
845.487	13.6532
848.38	15.8685
851.272	23.6059
854.165	34.444
857.058	42.7901
859.95	33.0295
862.843	14.9243
865.736	5.42578
868.629	2.60944
871.521	5.29938
874.414	6.35968
877.307	3.71637
880.199	1.56622
883.092	0.515137
885.985	3.88629
888.877	3.78119
891.77	3.3913
894.663	3.66223
897.556	0.295288
900.448	0.821838
903.341	0.702515
906.234	2.93048
909.126	1.99237
912.019	0.967468
914.912	0.978149
917.804	3.04657
920.697	3.27576
923.59	0.666016
926.482	3.08142
929.375	3.48993
932.268	5.37494
935.161	2.0896
938.053	5.36548
940.946	10.7053
943.839	13.7758
946.731	19.1912
949.624	24.4877
952.517	29.2272
955.409	39.215
958.302	43.0712
961.195	54.7191
964.088	67.8949
966.98	77.7023
969.873	88.4592
972.766	81.9707
975.658	75.7955
978.551	63.2445
981.444	49.5402
984.337	29.4486
987.229	18.7658
990.122	9.87158
993.015	3.95996
995.907	2.30341
998.8	3.65601
1001.69	0.361755
1004.59	0.034912
1007.48	3.73242
1010.37	6.97369
1013.26	7.47546
1016.16	11.579
1019.05	19.1074
1021.94	31.3004
1024.83	44.233
1027.73	70.7169
1030.62	111.114
1033.51	230.892
1036.4	533.025
1039.3	846.981
1042.19	1218.62
1045.08	1816.29
1047.98	2136.15
1050.87	526.663
1053.76	236.071
1056.65	116.693
1059.55	41.4488
1062.44	31.2114
1065.33	39.5125
1068.22	53.5613
1071.12	72.1501
1074.01	86.0797
1076.9	95.9918
1079.8	84.1608
1082.69	61.1506
1085.58	41.2993
1088.47	25.0739
1091.37	16.8939
1094.26	11.7435
1097.15	8.25018
1100.04	8.49469
1102.94	6.00391
1105.83	0.860046
1108.72	0.445007
1111.62	4.91736
1114.51	0.169983
1117.4	2.43616
1120.29	1.17841
1123.19	0.324402
1126.08	2.34155
1128.97	0.473511
1131.86	0.74231
1134.76	2.07153
1137.65	1.03333
1140.54	3.03961
1143.43	2.70435
1146.33	3.34259
1149.22	2.15155
1152.11	0.922241
1155.01	1.6792
1157.9	1.90216
1160.79	2.67633
1163.68	3.61615
1166.58	3.66705
1169.47	1.86072
1172.36	4.55096
1175.26	2.68835
1178.15	5.90875
1181.04	3.4552
1183.93	5.09045
1186.83	6.07928
1189.72	7.00964
1192.61	8.41974
1195.5	6.13666
1198.4	7.58386
1201.29	6.15723
1204.18	9.78412
1207.07	9.33136
1209.97	9.04089
1212.86	8.90045
1215.75	6.36682
1218.64	3.59363
1221.54	4.60352
1224.43	5.63586
1227.32	5.92047
1230.22	3.14301
1233.11	2.37946
1236	0.660095
1238.89	0.142822
1241.79	0.157715
1244.68	1.49561
1247.57	0.48291
1250.46	0.783691
1253.36	2.52386
1256.25	1.76288
1259.14	3.58826
1262.04	4.28149
1264.93	2.23956
1267.82	4.19641
1270.71	1.83734
1273.61	0.286987
1276.5	1.14331
1279.39	0.242188
1282.29	1.75952
1285.18	5.19281
1288.07	7.28497
1290.96	13.254
1293.86	13.9404
1296.75	8.79108
1299.64	4.97504
1302.53	0.557312
