Measurement: Raman, 780 nm, unoriented, Raman Data Processed
Mineral: Poldervaartite
Rruff sample: R080080
Ideal chemistry: Ca_2_(SiO_3_OH)(OH)
Locality: Wessels mine, Hotazel, Kalahari Manganese Fields, Cape Province, South Africa
Source: William W. Pinch
Description: Colorless prismatic crystals
Raman shift (cm-1)	intensity
111.808	0
115.183	14.7678
118.558	92.4065
121.933	65.0285
125.307	74.2435
128.682	178.6
132.057	133.096
135.432	33.3417
138.807	0.79763
142.181	5.48173
145.556	4.63316
148.931	4.18121
152.306	1.41434
155.681	2.61359
159.055	3.9072
162.43	11.0999
165.805	24.9316
169.18	38.5391
172.555	46.3611
175.93	23.1358
179.304	8.20948
182.679	4.90474
186.054	4.84892
189.429	1.40604
192.804	5.44278
196.179	14.1652
199.553	24.5057
202.928	25.3586
206.303	12.1416
209.678	3.09842
213.053	7.93964
216.427	18.7598
219.802	32.1819
223.177	52.0231
226.552	88.7719
229.927	145.485
233.302	250.718
236.676	433.151
240.051	411.139
243.426	180.845
246.801	86.9307
250.176	52.2191
253.55	35.627
256.925	29.353
260.3	27.717
263.675	30.0036
267.05	36.0032
270.425	43.3718
273.799	40.4313
277.174	33.3703
280.549	25.4849
283.924	15.0385
287.299	8.75019
290.673	2.30637
294.048	1.70286
297.423	5.16957
300.798	4.17553
304.173	1.36204
307.548	8.10783
310.922	16.754
314.297	33.8761
317.672	56.5596
321.047	88.4881
324.421	139.892
327.796	193.267
331.171	195.207
334.546	154.727
337.921	126.622
341.296	95.8006
344.67	59.2029
348.045	32.9933
351.42	18.8899
354.795	7.46722
358.17	8.38814
361.545	15.8571
364.919	30.5365
368.294	59.7832
371.669	104.338
375.044	120.155
378.419	82.6371
381.793	51.1553
385.168	43.8676
388.543	49.7332
391.918	66.1483
395.293	101.671
398.668	155.796
402.042	207.512
405.417	215.239
408.792	154.12
412.167	98.3681
415.542	67.2888
418.916	49.4025
422.291	35.9096
425.666	29.2963
429.041	29.8616
432.416	27.2468
435.791	16.5791
439.165	4.02451
442.54	1.74948
445.915	3.089
449.29	4.80251
452.665	1.12518
456.039	2.27221
459.414	6.93621
462.789	16.3494
466.164	33.1957
469.539	50.9781
472.913	55.3449
476.288	46.0758
479.663	49.2245
483.038	63.8568
486.413	72.1856
489.788	65.9186
493.162	56.0534
496.537	58.6692
499.912	73.6056
503.287	106
506.662	156.266
510.036	194.737
513.411	164.78
516.786	106.882
520.161	68.2692
523.536	47.3655
526.91	30.2665
530.285	18.7326
533.66	10.6227
537.035	7.09491
540.41	4.86455
543.785	5.20789
547.159	0.458694
550.534	1.03621
553.909	0.538265
557.284	0.422447
560.659	1.01068
564.034	0.613388
567.408	0.037025
570.783	0.219555
574.158	1.01562
577.533	2.43979
580.908	2.7543
584.282	1.48283
587.657	2.07663
591.032	2.568
594.407	2.27689
597.782	2.95538
601.157	2.78577
604.531	2.21566
607.906	2.20555
611.281	0.706112
614.656	2.96852
618.031	1.88316
621.405	0.59988
624.78	1.24229
628.155	0.54977
631.53	0.629955
634.905	0.482418
638.279	0.591187
641.654	0.615273
645.029	1.00291
648.404	4.4254
651.779	5.57663
655.154	8.03856
658.528	12.2902
661.903	14.9909
665.278	18.4857
668.653	25.0131
672.028	29.4205
675.403	33.1049
678.777	37.985
682.152	38.8383
685.527	35.8109
688.902	30.9416
692.277	25.3886
695.651	19.5187
699.026	16.0933
702.401	14.4992
705.776	13.2988
709.151	11.9357
712.525	9.22768
715.9	3.77694
719.275	0.058769
722.65	2.2
726.025	2.2065
729.399	1.0125
732.774	10.3546
736.149	32.3257
739.524	69.9874
742.899	136.372
746.274	191.238
749.648	178.922
753.023	139.614
756.398	109.765
759.773	88.1758
763.148	68.2326
766.523	52.1497
769.897	37.5285
773.272	25.0886
776.647	20.4518
780.022	23.1538
783.397	21.8742
786.771	13.8871
790.146	4.01596
793.521	2.93283
796.896	4.24565
800.271	0.845894
803.645	2.89604
807.02	8.45291
810.395	7.54301
813.77	8.38545
817.145	11.9784
820.52	13.3764
823.894	16.428
827.269	27.0676
830.644	38.6195
834.019	65.564
837.394	107.766
840.768	182.337
844.143	298.92
847.518	489.537
850.893	786.369
854.268	1123.58
857.643	1249.72
861.017	1048.74
864.392	686.85
867.767	382.379
871.142	226.286
874.517	147.629
877.891	103.337
881.266	80.2711
884.641	67.7494
888.016	66.418
891.391	50.6538
894.765	31.724
898.14	20.9024
901.515	14.7614
904.89	13.7039
908.265	11.6529
911.64	11.2868
915.014	11.2423
918.389	2.88127
921.764	0.696518
925.139	2.79098
928.514	3.91947
931.889	1.74959
935.263	2.11429
938.638	9.55994
942.013	20.4719
945.388	34.4368
948.763	55.6189
952.137	85.0966
955.512	120.05
958.887	148.242
962.262	164.65
965.637	156.279
969.011	120.065
972.386	76.0379
975.761	49.5425
979.136	31.1288
982.511	20.5553
985.886	12.8329
989.26	7.14282
992.635	6.68886
996.01	6.55907
999.385	10.7715
1002.76	14.3106
1006.13	16.6029
1009.51	17.85
1012.88	15.8455
1016.26	12.01
1019.63	10.1177
1023.01	4.20303
1026.38	3.10703
1029.76	2.57664
1033.13	1.29356
1036.51	1.19498
1039.88	3.38071
1043.26	0.411575
1046.63	0.185242
1050.01	0.186226
1053.38	0.099453
1056.76	0.42482
1060.13	0.710892
1063.51	0.655254
1066.88	0.133617
1070.26	2.00701
1073.63	1.97867
1077.01	0.779518
1080.38	0.203892
1083.76	1.25158
1087.13	0.445221
1090.51	0.426359
1093.88	0.511427
1097.26	0.541418
1100.63	1.99304
1104	0.30262
1107.38	0.586531
1110.75	1.09958
1114.13	2.16604
1117.5	0.93309
1120.88	0.371513
1124.25	1.6027
1127.63	2.30854
1131	2.11277
1134.38	2.33575
1137.75	2.29484
1141.13	1.79495
1144.5	2.52643
1147.88	2.71985
1151.25	3.0291
1154.63	2.57236
1158	1.92148
1161.38	2.52107
1164.75	2.33365
1168.13	1.84603
1171.5	2.19545
1174.88	3.35219
1178.25	2.37826
1181.62	2.48819
1185	1.58893
1188.38	3.13233
1191.75	1.95504
1195.12	3.2157
1198.5	1.72595
1201.87	1.47237
1205.25	2.35745
1208.62	0.967487
1212	0.13052
1215.37	0.269581
1218.75	0.816208
1222.12	0.876003
1225.5	1.43589
1228.87	0.908112
1232.25	0.327469
1235.62	1.83018
1239	1.05134
1242.37	2.26912
1245.75	0.862297
1249.12	0.26767
1252.5	1.32451
1255.87	1.42444
1259.25	0.725121
1262.62	2.33321
1265.99	2.80874
1269.37	0.387234
1272.74	1.44096
1276.12	0.015198
