Measurement: Raman, 532 nm, unoriented, Raman Data Processed
Mineral: Poldervaartite
Rruff sample: R080080
Ideal chemistry: Ca_2_(SiO_3_OH)(OH)
Locality: Wessels mine, Hotazel, Kalahari Manganese Fields, Cape Province, South Africa
Source: William W. Pinch
Description: Colorless prismatic crystals
Raman shift (cm-1)	intensity
113.567	0
116.942	32.6805
120.316	49.0512
123.691	16.7514
127.066	33.1168
130.441	38.8897
133.816	7.60315
137.19	11.1006
140.565	24.9804
143.94	48.5281
147.315	49.7867
150.69	24.0225
154.065	18.3485
157.439	4.22174
160.814	3.35808
164.189	11.2353
167.564	21.1502
170.939	25.7038
174.313	15.2555
177.688	2.39059
181.063	4.12814
184.438	2.59262
187.813	8.12137
191.187	6.53184
194.562	5.02937
197.937	20.1902
201.312	36.6058
204.687	41.6467
208.061	51.8718
211.436	67.3725
214.811	74.9492
218.186	55.1122
221.561	60.3027
224.936	83.974
228.31	111.295
231.685	156.737
235.06	233.987
238.435	241.467
241.81	110.479
245.185	48.7569
248.559	22.789
251.934	14.979
255.309	13.6829
258.684	19.7539
262.059	30.6991
265.433	44.5478
268.808	53.8833
272.183	58.9264
275.558	61.3392
278.933	53.6857
282.308	43.5605
285.682	25.4376
289.057	8.91927
292.432	4.97829
295.807	11.7434
299.182	11.1296
302.556	1.39502
305.931	17.6194
309.306	41.6653
312.681	81.073
316.056	124.662
319.43	175.33
322.805	238.307
326.18	297.774
329.555	290.521
332.93	212.667
336.305	161.568
339.679	123.153
343.054	95.0338
346.429	74.7916
349.804	81.1579
353.179	123.284
356.553	206.597
359.928	312.865
363.303	440.625
366.678	626.7
370.053	865.894
373.428	926.322
376.802	640.617
380.177	362.832
383.552	233.834
386.927	175.959
390.302	166.837
393.676	194.756
397.051	250.528
400.426	314.887
403.801	308.601
407.176	219.163
410.55	128.807
413.925	83.3777
417.3	57.914
420.675	46.9496
424.05	45.006
427.425	49.307
430.799	46.1743
434.174	28.0462
437.549	6.46448
440.924	3.67213
444.299	7.52329
447.673	7.56583
451.048	6.29193
454.423	2.14909
457.798	4.50742
461.173	14.1602
464.548	30.0776
467.922	49.1148
471.297	62.1885
474.672	74.4035
478.047	89.0039
481.422	108.334
484.796	115.362
488.171	115.844
491.546	137.855
494.921	188.383
498.296	259.099
501.671	351.186
505.045	461.099
508.42	523.247
511.795	437.64
515.17	282.221
518.545	177.838
521.919	115.915
525.294	76.2964
528.669	46.6845
532.044	31.7898
535.419	20.8505
538.794	16.0036
542.168	10.5538
545.543	4.12052
548.918	2.71391
552.293	1.37887
555.668	0.515297
559.043	0.417183
562.417	0.913139
565.792	1.78951
569.167	0.47142
572.542	0.907639
575.917	2.08331
579.291	3.75307
582.666	3.5112
586.041	3.62636
589.416	5.34316
592.791	4.6755
596.165	3.88837
599.54	4.18946
602.915	4.44454
606.29	4.80914
609.665	5.06753
613.039	2.76983
616.414	2.74313
619.789	3.09586
623.164	0.240234
626.539	1.46378
629.914	0.665459
633.288	1.11211
636.663	0.28804
640.038	1.3703
643.413	2.78506
646.788	5.48125
650.163	10.6819
653.537	16.9775
656.912	24.5214
660.287	34.5453
663.662	44.796
667.037	60.511
670.411	75.7795
673.786	87.3936
677.161	96.2948
680.536	100.092
683.911	94.2992
687.285	81.8241
690.66	67.1867
694.035	59.16
697.41	51.5157
700.785	47.8142
704.159	42.1058
707.534	37.5407
710.909	28.7666
714.284	18.6953
717.659	9.08281
721.034	0.242035
724.408	3.53944
727.783	1.86606
731.158	17.2085
734.533	51.8498
737.908	109.643
741.283	188.628
744.657	254.355
748.032	251.998
751.407	215.273
754.782	183.728
758.157	146.39
761.531	117.716
764.906	90.8257
768.281	64.3081
771.656	41.2164
775.031	30.0553
778.405	28.8329
781.78	26.6963
785.155	16.082
788.53	3.85573
791.905	6.29038
795.28	7.49744
798.654	1.72488
802.029	3.91295
805.404	10.8929
808.779	13.5237
812.154	16.0621
815.529	16.1284
818.903	18.8954
822.278	25.222
825.653	41.3887
829.028	69.894
832.403	126.363
835.777	218.823
839.152	396.65
842.527	680.405
845.902	1092.03
849.277	1628.78
852.652	2176.67
856.026	2340.39
859.401	1932.03
862.776	1283.74
866.151	746.777
869.526	458.775
872.9	316.638
876.275	242.021
879.65	201.553
883.025	181.468
886.4	175.763
889.774	147.23
893.149	99.271
896.524	73.1958
899.899	67.8026
903.274	59.3592
906.649	55.5054
910.023	50.457
913.398	43.5366
916.773	26.2357
920.148	7.17064
923.523	7.53316
926.898	8.36774
930.272	3.28619
933.647	3.92752
937.022	13.695
940.397	23.482
943.771	40.6345
947.146	69.0546
950.521	100.821
953.896	136.171
957.271	154.376
960.646	147.574
964.02	118.456
967.395	83.5678
970.77	53.8425
974.145	31.7977
977.52	17.8187
980.894	9.9064
984.269	2.28598
987.644	6.12575
991.019	5.39043
994.394	11.7181
997.769	20.1192
1001.14	30.4063
1004.52	35.8697
1007.89	38.0788
1011.27	31.4661
1014.64	24.0004
1018.02	13.0255
1021.39	7.87395
1024.77	6.2426
1028.14	4.14374
1031.52	0.727783
1034.89	1.96617
1038.27	2.18626
1041.64	0.335373
1045.02	0.466705
1048.39	1.44633
1051.77	1.50684
1055.14	1.24988
1058.52	0.476578
1061.89	1.239
1065.27	2.74609
1068.64	2.93378
1072.02	0.338699
1075.39	1.70171
1078.76	2.95799
1082.14	0.937149
1085.51	1.2057
1088.89	0.205475
1092.26	1.554
1095.64	0.16835
1099.01	1.03638
1102.39	2.74867
1105.76	1.60496
1109.14	0.628937
1112.51	3.46674
1115.89	0.616501
1119.26	1.99696
1122.64	1.93018
1126.01	1.70323
1129.39	2.01308
1132.76	4.29127
1136.14	5.69325
1139.51	3.29587
1142.89	6.00282
1146.26	4.69086
1149.63	4.91675
1153.01	4.16367
1156.38	3.39677
1159.76	3.50446
1163.13	5.70866
1166.51	3.36989
1169.88	6.48341
1173.26	6.07646
1176.63	6.78552
1180.01	4.61539
1183.38	5.44339
1186.76	4.21489
1190.13	5.65604
1193.51	3.99197
1196.88	3.06015
1200.26	4.01282
1203.63	4.76106
1207.01	8.43466
1210.38	1.72656
1213.76	2.57513
1217.13	0.441071
1220.51	0.967636
1223.88	0.029526
1227.26	0.097397
1230.63	0.642578
1234.01	1.01349
1237.38	2.75027
1240.76	0.266388
1244.13	2.2735
1247.51	4.0412
1250.88	3.789
1254.26	2.67828
1257.63	1.69684
1261	3.40527
1264.38	2.18146
1267.75	1.58798
1271.13	1.58768
1274.5	2.04935
