Measurement: Raman, 514 nm, unoriented, Raman Data Processed
Mineral: Pollucite
Rruff sample: R050344
Ideal chemistry: Cs(Si_2_Al)O_6_nH_2_O
Locality: Konar Province, Afghanistan
Source: George Rossman
Description: Colorless fragment
Measured chemistry: (Cs_0.78_Na_0.21_Rb_0.01_)_Σ=1_(Si_2.13_Al_0.87_)_Σ=3_O_6_·H_2_O
Raman shift (cm-1)	intensity
98.947	0
103.124	83.418
107.3	277.529
111.473	277.037
115.644	765.207
119.813	519.286
123.981	748.108
128.146	902.799
132.309	973.893
136.47	1484.95
140.63	1640.23
144.787	1518.37
148.942	1208.57
153.096	885.789
157.247	792.289
161.396	763.947
165.544	751.369
169.689	650.968
173.833	595.061
177.974	574.951
182.114	892.631
186.251	893.949
190.387	964.339
194.52	1264.31
198.652	1341.15
202.782	1391.76
206.909	1632.06
211.035	1414.9
215.159	1019.21
219.281	943.925
223.4	753.951
227.518	607.111
231.634	384.309
235.748	251.543
239.86	135.507
243.97	58.168
248.079	98.031
252.185	1.185
256.289	3.077
260.391	225.066
264.492	2.586
268.59	1.816
272.687	31.324
276.781	22.287
280.874	389.358
284.964	319.45
289.053	1235.83
293.14	2586.35
297.225	3272.94
301.308	2231.51
305.389	1206.01
309.468	598.233
313.545	127.108
317.62	104.697
321.693	241.053
325.765	150.215
329.834	175.216
333.902	248.081
337.967	495.829
342.031	534.15
346.093	600.15
350.153	705.683
354.21	855.411
358.267	976.087
362.321	1287.86
366.373	1539.72
370.423	1919.65
374.471	2426.66
378.518	3549.79
382.563	4588.12
386.605	5420.54
390.646	5720.1
394.685	5169.76
398.722	3881.09
402.757	2933.96
406.79	2093.39
410.821	1703.83
414.851	1465.55
418.878	1151.24
422.904	800.27
426.927	978.512
430.949	723.895
434.969	862.449
438.987	1135.17
443.003	1172.48
447.018	1924.71
451.03	2690.99
455.041	4168.53
459.049	6876.3
463.056	11779
467.061	19946
471.064	31609.9
475.065	40279.9
479.064	39229.4
483.062	28325.1
487.057	18435.8
491.051	12382.4
495.043	8704.19
499.032	6131.84
503.02	4496.46
507.007	3269.06
510.991	2521.66
514.973	2122.27
518.954	1637.9
522.933	1089.57
526.91	765.383
530.885	826.502
534.858	727.758
538.829	442.395
542.799	585.715
546.766	295.832
550.732	101.723
554.696	73.57
558.658	213.082
562.618	106.391
566.576	114.477
570.533	228.568
574.488	186.119
578.44	51.434
582.391	22.389
586.341	21.773
590.288	229.951
594.233	92.828
598.177	186.275
602.119	59.906
606.059	36.766
609.997	44.082
613.933	123.434
617.868	248.395
621.801	17.143
625.731	374.648
629.66	137.197
633.588	215.068
637.513	229.814
641.437	495.812
645.358	191.547
649.278	110.486
653.196	601.928
657.113	196.734
661.027	466.697
664.94	693.98
668.851	665.338
672.76	516.668
676.667	416.219
680.572	528.713
684.476	349.084
688.378	85.953
692.278	231.045
696.176	18.24
700.072	294.025
703.967	94.156
707.86	169.355
711.751	39.018
715.64	293.58
719.527	137.951
723.413	145.406
727.297	162.387
731.179	137.818
735.059	137.707
738.937	27.854
742.814	167.609
746.689	303.432
750.562	49.396
754.433	114.648
758.303	354.219
762.17	140.273
766.036	146.078
769.901	288.773
773.763	382.695
777.624	332.498
781.482	299.559
785.339	333.709
789.195	284.035
793.048	368.877
796.9	263.617
800.75	29.885
804.598	600.721
808.445	65.207
812.289	136.369
816.132	255.125
819.973	177.74
823.813	151.139
827.65	172.912
831.486	382.336
835.32	274.357
839.152	252.941
842.983	133.383
846.812	235.453
850.639	367.447
854.464	107.971
858.288	440.99
862.11	108.67
865.93	152.516
869.748	101.141
873.564	182.592
877.379	84.506
881.192	176.016
885.004	205.604
888.813	249.227
892.621	300.523
896.427	19.521
900.232	168.939
904.034	8.367
907.835	197.752
911.634	115.182
915.432	371.314
919.227	323.477
923.021	115.068
926.813	106.076
930.604	301.348
934.393	74.959
938.18	424.516
941.965	450.48
945.749	339.279
949.53	126.516
953.311	290.533
957.089	301.449
960.866	360.533
964.641	113.178
968.414	22.648
972.185	28.68
975.955	245.605
979.723	252.641
983.49	580.533
987.254	797.832
991.017	516.994
994.779	568.945
998.538	545.377
1002.3	348.57
1006.05	635.191
1009.81	592.002
1013.56	423.756
1017.31	735.283
1021.06	520.523
1024.81	743.469
1028.55	601.023
1032.3	516.607
1036.04	648.539
1039.78	603.504
1043.52	757.582
1047.26	781.221
1050.99	1001.85
1054.73	700.688
1058.46	984.898
1062.19	981.133
1065.92	949.438
1069.65	975.211
1073.37	1327.01
1077.1	1236.78
1080.82	1593.42
1084.54	1755.18
1088.26	1969.85
1091.97	2054.97
1095.69	2274.55
1099.4	2356.76
1103.12	2441.14
1106.83	2249.3
1110.54	2661.78
1114.24	2672.24
1117.95	2513.83
1121.65	2543.19
1125.35	2419.94
1129.06	2071.9
1132.75	2041.54
1136.45	2147.26
1140.15	1740.98
1143.84	1425.44
1147.53	1460.08
1151.22	1106.54
1154.91	1109
1158.6	787.102
1162.28	558.992
1165.97	944.547
1169.65	529.707
1173.33	417.301
1177.01	416.719
1180.69	212.855
1184.36	381.746
1188.04	169.848
1191.71	209.277
1195.38	1.738
1199.05	63.203
1202.71	391.023
1206.38	243.848
1210.04	23.254
1213.71	248.965
1217.37	63.395
1221.03	257.629
1224.68	207.73
1228.34	293.309
1231.99	58.211
1235.65	187.234
1239.3	3.246
1242.95	277.164
1246.59	401.535
1250.24	352.488
1253.88	256.129
1257.53	73.602
1261.17	49.551
1264.81	77.836
1268.45	88
1272.08	96.82
1275.72	67.121
1279.35	269.199
1282.98	67.625
1286.61	118.199
1290.24	134.941
1293.87	108.074
1297.49	30.141
1301.11	260.301
1304.73	225.176
1308.36	376.41
1311.97	95.305
1315.59	589.418
1319.2	74.977
1322.82	174.645
1326.43	414.93
1330.04	354.387
1333.65	244.145
1337.26	361.402
1340.86	518.277
1344.47	339.105
1348.07	655.621
1351.67	777.621
1355.27	723.09
1358.87	722.352
1362.46	472.199
1366.06	462.723
1369.65	606.414
1373.24	489.355
1376.83	509.762
1380.42	466.746
1384	542.934
1387.59	401.344
1391.17	508.992
1394.75	552.883
1398.33	438.125
1401.91	400.715
1405.49	238.945
1409.06	365.73
1412.64	555.832
1416.21	359.047
1419.78	0
