Measurement: Raman, 532 nm, unoriented, Raman Data Processed
Mineral: Pollucite
Rruff sample: R050345
Ideal chemistry: Cs(Si_2_Al)O_6_nH_2_O
Locality: Bernic Lake, Manitoba, Canada
Source: California Institute of Technology
Description: Colorless to white fragment
Measured chemistry: (Cs_0.79_Na_0.19_Rb_0.02_)_Σ=1_(Si_2.10_Al_0.90_)_Σ=3_O_6_·H_2_O
Raman shift (cm-1)	intensity
116.459	0
119.834	3.81157
123.209	23.4134
126.584	28.6062
129.959	52.5346
133.333	82.784
136.708	97.891
140.083	106.31
143.458	95.5561
146.833	82.4575
150.208	59.074
153.582	46.8529
156.957	40.0438
160.332	35.4331
163.707	34.8907
167.082	36.3988
170.456	42.8632
173.831	41.2504
177.206	43.2989
180.581	51.167
183.956	61.9069
187.331	66.9589
190.705	77.0186
194.08	88.8164
197.455	102.578
200.83	111.383
204.205	117.365
207.579	111.254
210.954	97.308
214.329	87.7501
217.704	75.2996
221.079	57.0207
224.453	49.9639
227.828	39.9887
231.203	29.1372
234.578	20.4233
237.953	11.2121
241.328	7.75482
244.702	4.65671
248.077	1.46298
251.452	0.017334
254.827	0.029144
258.202	6.87248
261.577	5.29681
264.951	2.99164
268.326	1.39777
271.701	0.279449
275.076	6.39439
278.451	16.8874
281.825	34.1668
285.2	54.4863
288.575	83.1728
291.95	130.756
295.325	173.618
298.7	144.1
302.074	77.573
305.449	41.0557
308.824	17.7922
312.199	10.9117
315.574	6.02643
318.948	2.62396
322.323	0.233002
325.698	0.529388
329.073	2.51248
332.448	2.38693
335.822	2.2536
339.197	4.69977
342.572	8.07675
345.947	11.5302
349.322	20.6699
352.697	22.1467
356.071	26.1949
359.446	39.7741
362.821	55.2491
366.196	72.9734
369.571	101.218
372.945	130.029
376.32	168.15
379.695	207.393
383.07	240.226
386.445	267.3
389.82	270.057
393.194	246.983
396.569	198.593
399.944	150.952
403.319	107.93
406.694	76.6952
410.068	54.8002
413.443	36.2847
416.818	21.7312
420.193	10.2865
423.568	2.16894
426.942	4.72498
430.317	5.36328
433.692	1.70117
437.067	5.14484
440.442	18.6836
443.817	46.0127
447.191	94.6892
450.566	177.286
453.941	307.982
457.316	494.539
460.691	756.675
464.065	1090.85
467.44	1502.92
470.815	1950.27
474.19	2249.48
477.565	2104.38
480.94	1598.29
484.314	1098.14
487.689	751.632
491.064	529.877
494.439	384.469
497.814	282.472
501.188	206.012
504.563	147.992
507.938	111.494
511.313	84.3849
514.688	63.6619
518.063	49.8006
521.437	34.6128
524.812	27.3148
528.187	20.3968
531.562	17.8768
534.937	12.7753
538.312	9.67987
541.686	4.59445
545.061	4.64148
548.436	3.20074
551.811	0.579712
555.186	1.97118
558.56	2.84946
561.935	0.757782
565.31	1.34798
568.685	3.50452
572.06	4.23555
575.434	7.69832
578.809	10.2385
582.184	8.98015
585.559	9.55652
588.934	9.10101
592.308	10.7123
595.683	10.3314
599.058	12.4816
602.433	14.3918
605.808	11.7298
609.183	14.2606
612.557	16.5437
615.932	15.1821
619.307	15.2188
622.682	9.88574
626.057	9.03766
629.432	7.99992
632.806	6.86844
636.181	3.62869
639.556	5.78455
642.931	8.39914
646.306	6.54321
649.68	10.0928
653.055	13.5687
656.43	15.1872
659.805	20.1905
663.18	23.6895
666.554	24.8992
669.929	26.6384
673.304	22.7831
676.679	20.9741
680.054	12.965
683.428	8.56226
686.803	6.14712
690.178	3.38007
693.553	3.10922
696.928	0.094971
700.303	0.888809
703.677	1.57803
707.052	1.52951
710.427	0.062256
713.802	3.90224
717.177	1.01201
720.552	2.25656
723.926	0.397568
727.301	1.64636
730.676	0.172745
734.051	1.75818
737.426	0.092529
740.8	1.25825
744.175	1.19191
747.55	0.090439
750.925	2.10295
754.3	1.7509
757.674	4.62972
761.049	4.63188
764.424	9.62143
767.799	11.8161
771.174	11.9707
774.549	13.4552
777.923	15.5161
781.298	13.6094
784.673	12.6153
788.048	13.3955
791.423	11.3978
794.798	9.09529
798.172	6.61424
801.547	6.66649
804.922	6.71913
808.297	3.60666
811.672	3.79597
815.046	3.23381
818.421	1.60033
821.796	2.95616
825.171	2.1322
828.546	2.28371
831.92	0.784042
835.295	2.0094
838.67	1.0294
842.045	3.78557
845.42	3.51997
848.795	1.99144
852.169	4.67693
855.544	7.19382
858.919	3.44994
862.294	1.27281
865.669	2.95216
869.043	1.88049
872.418	1.64728
875.793	2.16878
879.168	0.709732
882.543	2.04694
885.918	1.83589
889.292	1.77591
892.667	1.51662
896.042	0.443741
899.417	2.5345
902.792	5.58849
906.166	1.97385
909.541	1.23575
912.916	0.883759
916.291	5.91493
919.666	5.85269
923.04	6.73848
926.415	7.69818
929.79	8.86507
933.165	5.56213
936.54	3.91478
939.915	4.82958
943.289	3.59631
946.664	4.96227
950.039	2.78435
953.414	3.69652
956.789	4.30019
960.163	2.14937
963.538	2.92401
966.913	0.544373
970.288	0.391876
973.663	3.37042
977.038	1.37848
980.412	2.49777
983.787	0.184448
987.162	4.41617
990.537	2.77151
993.912	4.71979
997.287	4.95166
1000.66	1.61905
1004.04	5.83237
1007.41	4.71243
1010.79	3.74085
1014.16	5.19498
1017.53	3.79279
1020.91	1.6788
1024.29	4.11148
1027.66	1.42328
1031.04	1.47061
1034.41	0.508972
1037.78	0.591003
1041.16	1.37866
1044.53	2.16669
1047.91	4.77048
1051.28	3.98712
1054.66	0.95282
1058.03	5.20282
1061.41	8.76477
1064.78	9.73642
1068.16	13.4362
1071.53	20.5011
1074.91	30.2261
1078.28	37.4051
1081.66	45.4443
1085.03	56.9814
1088.41	70.8729
1091.78	76.1283
1095.16	85.7169
1098.53	98.5581
1101.91	106.47
1105.28	102.619
1108.65	101.454
1112.03	104.502
1115.4	102.638
1118.78	98.1044
1122.15	94.6973
1125.53	87.9528
1128.9	85.443
1132.28	77.222
1135.65	69.6916
1139.03	61.3527
1142.4	56.8561
1145.78	44.231
1149.15	37.0579
1152.53	27.2429
1155.9	22.1301
1159.28	19.3438
1162.65	13.1395
1166.03	9.54279
1169.4	4.48697
1172.78	4.74884
1176.15	4.05795
1179.53	2.39142
1182.9	0.829529
1186.28	0.146057
1189.65	0.387726
1193.03	0.584412
1196.4	0.773956
1199.78	0.681763
1203.15	1.48575
1206.53	2.33783
1209.9	0.879303
1213.28	2.04077
1216.65	2.56747
1220.02	3.62649
1223.4	4.07275
1226.77	5.64481
1230.15	6.73117
1233.52	7.23459
1236.9	5.09604
1240.27	3.38934
1243.65	3.07605
1247.02	2.70783
1250.4	6.34018
1253.77	3.26373
1257.15	2.86581
1260.52	5.93277
1263.9	5.30615
1267.27	2.54703
1270.65	1.04657
1274.02	2.91837
1277.4	0.513214
