Measurement: Raman, 532 nm, unoriented, Raman Data Processed
Mineral: Pollucite
Rruff sample: R050344
Ideal chemistry: Cs(Si_2_Al)O_6_nH_2_O
Locality: Konar Province, Afghanistan
Source: George Rossman
Description: Colorless fragment
Measured chemistry: (Cs_0.78_Na_0.21_Rb_0.01_)_Σ=1_(Si_2.13_Al_0.87_)_Σ=3_O_6_·H_2_O
Raman shift (cm-1)	intensity
119.352	0
122.727	3.46617
126.102	6.88988
129.476	24.1404
132.851	57.7302
136.226	76.8686
139.601	95.6967
142.976	90.9026
146.351	69.6374
149.725	50.7503
153.1	38.1128
156.475	25.0395
159.85	17.7688
163.225	18.3699
166.6	19.4443
169.974	20.0434
173.349	22.0402
176.724	24.4702
180.099	30.4817
183.474	34.4817
186.848	39.1115
190.223	47.8119
193.598	58.9216
196.973	68.5663
200.348	80.7595
203.722	81.7704
207.097	86.5771
210.472	82.2218
213.847	70.6095
217.222	64.8093
220.596	50.9169
223.971	41.6985
227.346	33.26
230.721	26.572
234.096	19.6249
237.471	11.6016
240.845	8.29071
244.22	5.43019
247.595	3.31534
250.97	1.73096
254.345	0.679565
257.719	3.60323
261.094	2.19663
264.469	4.09062
267.844	0.69339
271.219	0.239609
274.594	3.15271
277.968	11.0791
281.343	25.6829
284.718	42.6834
288.093	68.8592
291.468	116.37
294.842	169.288
298.217	158.536
301.592	90.3293
304.967	45.7155
308.342	23.7375
311.717	10.7413
315.091	7.05481
318.466	3.66673
321.841	5.59424
325.216	1.727
328.591	0.650955
331.966	0.639709
335.34	3.17464
338.715	3.15334
342.09	7.20148
345.465	10.7212
348.84	13.0049
352.214	16.9311
355.589	21.6373
358.964	27.9008
362.339	38.2383
365.714	55.3141
369.089	74.6506
372.463	104.181
375.838	135.404
379.213	176.413
382.588	213.035
385.963	245.716
389.337	255.457
392.712	232.764
396.087	184.639
399.462	131.905
402.837	88.4327
406.212	56.8134
409.586	38.8267
412.961	25.3006
416.336	14.7445
419.711	5.90784
423.086	0.982986
426.46	3.29747
429.835	2.53126
433.21	2.53294
436.585	3.26663
439.96	11.912
443.334	30.5422
446.709	66.1965
450.084	121.116
453.459	220.11
456.834	360.039
460.209	568.245
463.583	846.595
466.958	1227.16
470.333	1678.29
473.708	2060.42
477.083	2076.61
480.457	1653.5
483.832	1148.92
487.207	777.463
490.582	545.74
493.957	393.309
497.332	281.874
500.706	199.079
504.081	142.091
507.456	107.675
510.831	79.3131
514.206	61.7863
517.58	48.0156
520.955	33.9418
524.33	23.6626
527.705	16.9797
531.08	15.5863
534.455	11.4698
537.829	9.51079
541.204	7.02832
544.579	4.89454
547.954	1.59587
551.329	1.57844
554.703	0.244202
558.078	4.24983
561.453	0.71846
564.828	1.42971
568.203	0.89225
571.577	3.47987
574.952	4.51514
578.327	7.14236
581.702	10.176
585.077	9.54743
588.452	8.99558
591.826	8.67314
595.201	8.78693
598.576	9.69941
601.951	10.4353
605.326	10.2923
608.7	11.0518
612.075	12.1661
615.45	10.6782
618.825	9.87804
622.2	6.39917
625.574	7.3702
628.949	6.4329
632.324	5.40722
635.699	3.50896
639.074	4.93088
642.449	6.12646
645.823	8.35893
649.198	8.11396
652.573	10.8886
655.948	11.1822
659.323	17.1737
662.697	21.8232
666.072	24.5656
669.447	24.7856
672.822	24.809
676.197	22.6506
679.572	14.7556
682.946	11.2257
686.321	5.97855
689.696	2.69375
693.071	2.35171
696.446	0.963661
699.821	0.558838
703.195	1.19192
706.57	1.09878
709.945	2.28488
713.32	3.16942
716.695	0.887848
720.069	1.36882
723.444	0.43631
726.819	0.21273
730.194	0.157562
733.569	0.840508
736.943	0.666252
740.318	0.550842
743.693	0.45694
747.068	0.397743
750.443	0.213081
753.818	1.77914
757.192	4.25825
760.567	4.73983
763.942	7.21182
767.317	7.78903
770.692	9.69463
774.067	11.0294
777.441	10.5052
780.816	11.4399
784.191	12.8654
787.566	10.5321
790.941	9.27779
794.315	8.3587
797.69	6.78222
801.065	5.36322
804.44	3.85582
807.815	4.68829
811.189	3.04553
814.564	2.20435
817.939	3.06455
821.314	2.9279
824.689	1.48099
828.063	3.39967
831.438	0.678284
834.813	3.56362
838.188	2.07958
841.563	1.80103
844.938	3.24326
848.312	1.51927
851.687	2.47059
855.062	3.10089
858.437	1.8503
861.812	3.71374
865.187	3.10873
868.561	2.36528
871.936	0.872238
875.311	0.572647
878.686	2.0869
882.061	1.02253
885.435	0.72168
888.81	1.3215
892.185	0.817169
895.56	0.46949
898.935	0.546021
902.309	0.981918
905.684	0.324883
909.059	1.63854
912.434	2.43472
915.809	2.75034
919.184	1.71165
922.558	4.50821
925.933	4.37102
929.308	3.96011
932.683	4.8644
936.058	4.65468
939.433	2.08939
942.807	4.21465
946.182	1.64935
949.557	3.20313
952.932	0.529007
956.307	0.320961
959.681	2.03249
963.056	0.515953
966.431	0.752083
969.806	0.267876
973.181	0.117332
976.556	1.11419
979.93	0.578239
983.305	0.177452
986.68	0.949974
990.055	2.50281
993.43	3.86591
996.804	3.58717
1000.18	3.42374
1003.55	5.99
1006.93	4.34783
1010.3	3.8755
1013.68	3.79086
1017.05	4.1244
1020.43	0.301109
1023.8	2.01726
1027.18	1.55044
1030.55	1.13216
1033.93	0.243034
1037.3	1.04237
1040.68	1.47887
1044.05	0.063614
1047.43	0.147705
1050.8	2.4588
1054.18	2.02274
1057.55	2.76354
1060.93	4.67042
1064.3	6.87222
1067.68	10.1946
1071.05	17.1034
1074.42	22.7198
1077.8	31.3102
1081.17	38.7999
1084.55	49.7182
1087.92	56.611
1091.3	65.7686
1094.67	75.0169
1098.05	80.8671
1101.42	86.9369
1104.8	93.0294
1108.17	94.6506
1111.55	94.8936
1114.92	93.8528
1118.3	92.1053
1121.67	90.8115
1125.05	88.9313
1128.42	84.4891
1131.8	78.4934
1135.17	70.805
1138.55	64.1493
1141.92	58.9069
1145.3	49.3162
1148.67	41.1061
1152.05	33.3565
1155.42	26.5273
1158.8	21.6462
1162.17	16.7186
1165.55	12.606
1168.92	8.8892
1172.3	6.83369
1175.67	1.57526
1179.04	1.52195
1182.42	0.99276
1185.79	0.307014
1189.17	0.315247
1192.54	1.41233
1195.92	0.995911
1199.29	1.00629
1202.67	0.647583
1206.04	0.31152
1209.42	0.338081
1212.79	0.49794
1216.17	1.37757
1219.54	2.30437
1222.92	2.22937
1226.29	4.6268
1229.67	2.95304
1233.04	6.33348
1236.42	6.25411
1239.79	4.87225
1243.17	5.12326
1246.54	3.28351
1249.92	3.39745
1253.29	3.06099
1256.66	3.75162
1260.04	3.20785
1263.41	1.31984
1266.79	2.03175
1270.16	0.406448
1273.54	0.799644
1276.91	1.25878
