Measurement: Raman, 780 nm, unoriented, Raman Data Processed
Mineral: Pollucite
Rruff sample: R050345
Ideal chemistry: Cs(Si_2_Al)O_6_nH_2_O
Locality: Bernic Lake, Manitoba, Canada
Source: California Institute of Technology
Description: Colorless to white fragment
Measured chemistry: (Cs_0.79_Na_0.19_Rb_0.02_)_Σ=1_(Si_2.10_Al_0.90_)_Σ=3_O_6_·H_2_O
Raman shift (cm-1)	intensity
116.147	0
119.522	1.92148
122.897	3.53918
126.272	8.52841
129.646	13.7082
133.021	15.3552
136.396	23.7861
139.771	30.7631
143.146	28.1761
146.52	16.994
149.895	8.14078
153.27	2.53076
156.645	1.03351
160.02	0.117523
163.395	0.40506
166.769	3.2988
170.144	2.95767
173.519	9.62552
176.894	14.6404
180.269	20.7821
183.643	24.6183
187.018	36.5154
190.393	44.5642
193.768	55.4175
197.143	63.1217
200.518	68.8073
203.892	67.7072
207.267	67.9339
210.642	63.559
214.017	53.697
217.392	48.128
220.766	40.1747
224.141	35.5489
227.516	26.6673
230.891	20.659
234.266	17.6419
237.641	13.1028
241.015	9.67038
244.39	4.05283
247.765	3.81973
251.14	1.22861
254.515	2.99597
257.889	1.37363
261.264	0.095032
264.639	2.44342
268.014	0.641968
271.389	4.43729
274.764	8.4574
278.138	20.2595
281.513	29.8131
284.888	44.0934
288.263	61.715
291.638	85.1146
295.012	106.299
298.387	100.587
301.762	57.0303
305.137	26.4158
308.512	15.2061
311.887	7.8175
315.261	3.31902
318.636	2.56949
322.011	0.514053
325.386	1.37364
328.761	0.220963
332.135	1.35258
335.51	2.64305
338.885	2.48657
342.26	4.72591
345.635	7.02154
349.01	10.0025
352.384	11.3931
355.759	19.5667
359.134	27.7301
362.509	37.7943
365.884	48.2692
369.258	67.9424
372.633	86.5315
376.008	105.531
379.383	128.257
382.758	149.985
386.132	166.082
389.507	168.022
392.882	156.036
396.257	126.791
399.632	96.2992
403.007	70.2772
406.381	49.9314
409.756	33.9097
413.131	20.4323
416.506	12.3209
419.881	4.72368
423.255	1.12129
426.63	1.96008
430.005	2.29155
433.38	0.309296
436.755	3.72935
440.13	14.7172
443.504	35.468
446.879	68.8949
450.254	121.827
453.629	205.003
457.004	330.249
460.378	489.425
463.753	676.173
467.128	900.184
470.503	1138.09
473.878	1313.84
477.252	1274.81
480.627	992.161
484.002	690.329
487.377	470.413
490.752	331.935
494.127	239.885
497.501	174.132
500.876	126.83
504.251	89.2893
507.626	67.1949
511.001	53.2235
514.375	39.2667
517.75	28.1617
521.125	21.1301
524.5	15.9097
527.875	11.8108
531.25	9.55487
534.624	7.83546
537.999	6.74567
541.374	2.7196
544.749	0.455902
548.124	0.237762
551.498	1.55615
554.873	0.35643
558.248	1.43276
561.623	0.831757
564.998	0.178024
568.372	0.129654
571.747	4.55173
575.122	4.21306
578.497	4.87711
581.872	6.76593
585.247	5.89455
588.621	5.73126
591.996	6.77206
595.371	7.49257
598.746	9.13402
602.121	7.45337
605.495	8.92693
608.87	7.85138
612.245	8.0164
615.62	8.87277
618.995	9.00856
622.37	7.86876
625.744	7.44398
629.119	6.50929
632.494	4.73033
635.869	4.55434
639.244	3.91321
642.619	5.8932
645.993	5.83798
649.368	7.36814
652.743	7.68208
656.118	10.0967
659.493	11.6639
662.867	12.8568
666.242	13.638
669.617	15.3047
672.992	13.3957
676.367	11.2426
679.741	8.05915
683.116	4.85609
686.491	4.35257
689.866	2.4501
693.241	1.19994
696.615	0.57003
699.99	0.741776
703.365	1.10303
706.74	0.862907
710.115	2.14047
713.49	2.07637
716.864	0.212639
720.239	0.556755
723.614	1.22139
726.989	0.686707
730.364	0.606842
733.739	0.994598
737.113	0.551514
740.488	0.423805
743.863	0.742134
747.238	0.538155
750.612	1.43106
753.987	0.936783
757.362	1.99953
760.737	4.01231
764.112	4.37922
767.487	6.20224
770.861	5.78033
774.236	7.47617
777.611	6.72952
780.986	6.88693
784.361	7.81404
787.736	6.35197
791.11	3.78776
794.485	3.57143
797.86	4.66709
801.235	3.93034
804.61	1.45404
807.984	2.18749
811.359	2.95589
814.734	2.57805
818.109	3.54839
821.484	1.74973
824.859	2.38725
828.233	2.85142
831.608	2.01791
834.983	4.46992
838.358	2.4008
841.733	3.98505
845.107	4.5649
848.482	3.37135
851.857	3.46893
855.232	3.05901
858.607	2.82941
861.981	2.86912
865.356	2.87671
868.731	4.12498
872.106	3.32128
875.481	1.79008
878.856	0.806595
882.23	1.37552
885.605	1.5499
888.98	0.823509
892.355	0.826523
895.73	0.474945
899.105	0.545349
902.479	0.91468
905.854	0.137169
909.229	1.02442
912.604	1.27154
915.979	2.59597
919.353	2.57148
922.728	2.91727
926.103	2.35606
929.478	2.77842
932.853	1.90747
936.227	2.19394
939.602	2.26102
942.977	2.84262
946.352	1.19021
949.727	0.447166
953.102	0.952187
956.476	0.312698
959.851	0.328117
963.226	1.71767
966.601	0.558273
969.976	0.170685
973.35	0.582382
976.725	1.29788
980.1	0.856331
983.475	1.77589
986.85	2.43779
990.225	2.99825
993.599	0.79731
996.974	2.74132
1000.35	3.01793
1003.72	3.18777
1007.1	3.11669
1010.47	1.50655
1013.85	2.14822
1017.22	1.04769
1020.6	2.35772
1023.97	1.10086
1027.35	0.137329
1030.72	0.916435
1034.1	0.714668
1037.47	0.727951
1040.85	0.329834
1044.22	1.04098
1047.6	2.19008
1050.97	1.70939
1054.35	2.75462
1057.72	2.39253
1061.1	3.92652
1064.47	5.46143
1067.85	6.19618
1071.22	8.97388
1074.6	12.0038
1077.97	14.7936
1081.34	18.0101
1084.72	22.8535
1088.09	28.3223
1091.47	29.7814
1094.84	33.7808
1098.22	37.0131
1101.59	40.0911
1104.97	40.2611
1108.34	41.9355
1111.72	41.0961
1115.09	40.4
1118.47	39.2747
1121.84	36.5599
1125.22	36.2816
1128.59	32.4496
1131.97	30.0629
1135.34	27.1837
1138.72	22.1309
1142.09	19.7206
1145.47	16.3883
1148.84	12.8221
1152.22	10.3976
1155.59	8.31547
1158.96	4.39974
1162.34	3.81548
1165.71	2.58379
1169.09	1.98206
1172.46	1.19687
1175.84	0.880257
1179.21	0.399765
1182.59	0.020172
1185.96	0.617599
1189.34	0.030754
1192.71	0.075623
1196.09	0.455307
1199.46	1.30188
1202.84	0.686928
1206.21	0.658485
1209.59	0.887405
1212.96	2.45026
1216.34	1.53646
1219.71	0.140869
1223.09	1.8158
1226.46	1.3356
1229.84	2.4285
1233.21	1.83696
1236.59	3.06065
1239.96	1.61147
1243.34	1.38683
1246.71	3.35355
1250.09	2.43471
1253.46	3.06079
1256.84	0.891052
1260.21	0.508018
1263.59	1.17143
1266.96	1.36656
1270.33	0.704391
1273.71	0.017189
1277.08	5.43706
1280.46	0
