Measurement: Raman, 780 nm, unoriented, Raman Data Processed
Mineral: Pollucite
Rruff sample: R050344
Ideal chemistry: Cs(Si_2_Al)O_6_nH_2_O
Locality: Konar Province, Afghanistan
Source: George Rossman
Description: Colorless fragment
Measured chemistry: (Cs_0.78_Na_0.21_Rb_0.01_)_Σ=1_(Si_2.13_Al_0.87_)_Σ=3_O_6_·H_2_O
Raman shift (cm-1)	intensity
117.111	0
120.004	0.868057
122.897	2.7715
125.79	5.56203
128.682	7.77127
131.575	15.0724
134.468	19.7047
137.36	26.7025
140.253	33.846
143.146	34.8296
146.038	30.4442
148.931	19.444
151.824	10.3777
154.716	4.34898
157.609	0.089706
160.502	0.375519
163.395	0.183304
166.287	0.415802
169.18	0.945877
172.073	3.49701
174.965	4.58495
177.858	4.14851
180.751	9.44081
183.643	10.9152
186.536	15.3215
189.429	19.107
192.322	23.2906
195.214	28.6832
198.107	34.1615
201	34.8314
203.892	40.4563
206.785	38.7662
209.678	36.2286
212.571	33.1083
215.463	30.092
218.356	28.2558
221.249	22.6824
224.141	19.15
227.034	16.0587
229.927	12.2453
232.819	11.0682
235.712	7.61626
238.605	5.79575
241.498	6.10857
244.39	2.72929
247.283	3.23723
250.176	1.84126
253.068	0.382828
255.961	0.595779
258.854	0.214317
261.746	0.565842
264.639	1.57351
267.532	1.11937
270.425	2.39459
273.317	5.35625
276.21	9.9378
279.103	17.0022
281.995	22.8174
284.888	31.0291
287.781	44.5466
290.673	64.8531
293.566	87.2888
296.459	101.872
299.351	83.8702
302.244	49.1822
305.137	28.1409
308.03	15.0878
310.922	9.23946
313.815	5.29942
316.708	1.51008
319.6	0.358757
322.493	0.675201
325.386	1.02494
328.279	0.823151
331.171	0.70575
334.064	0.041672
336.957	2.53048
339.849	2.63528
342.742	3.69871
345.635	4.78887
348.527	7.12598
351.42	8.97361
354.313	11.0843
357.205	13.5601
360.098	17.5952
362.991	26.2787
365.884	33.4051
368.776	45.1973
371.669	56.8875
374.562	70.8241
377.454	87.6518
380.347	101.734
383.24	119.468
386.132	129.856
389.025	133.597
391.918	123.567
394.81	105.441
397.703	83.5156
400.596	60.3081
403.489	39.8025
406.381	25.7821
409.274	19.0819
412.167	10.5467
415.059	5.90813
417.952	1.97115
420.845	2.71471
423.738	1.66177
426.63	3.16293
429.523	2.63045
432.416	0.602219
435.308	2.35655
438.201	7.89307
441.094	13.2761
443.986	25.9827
446.879	47.5594
449.772	78.3496
452.665	124.909
455.557	187.183
458.45	276.789
461.343	382.846
464.235	507.935
467.128	660.909
470.021	840.776
472.913	1005.99
475.806	1077.78
478.699	976.083
481.592	762.239
484.484	559.025
487.377	400.059
490.27	292.498
493.162	220.958
496.055	164.585
498.948	121.301
501.841	90.8698
504.733	70.8865
507.626	53.982
510.519	42.9843
513.411	34.2452
516.304	26.0035
519.197	21.3418
522.089	16.8608
524.982	11.7227
527.875	9.7451
530.768	8.03599
533.66	6.38802
536.553	4.92367
539.446	4.26549
542.338	3.46748
545.231	0.656128
548.124	0.900406
551.016	0.688278
553.909	0.483719
556.802	1.69206
559.694	1.04879
562.587	1.47694
565.48	0.171715
568.373	1.03166
571.265	3.14153
574.158	3.49823
577.051	5.28369
579.943	5.22408
582.836	4.52078
585.729	5.1395
588.621	5.89322
591.514	5.21563
594.407	5.72706
597.299	4.7661
600.192	6.4609
603.085	6.72171
605.978	6.24986
608.87	5.27897
611.763	6.44037
614.656	5.66674
617.548	6.09859
620.441	4.90988
623.334	4.19856
626.226	3.86434
629.119	3.19396
632.012	3.28132
634.905	3.4307
637.797	3.34541
640.69	2.76882
643.583	3.82293
646.475	4.55985
649.368	5.12987
652.261	6.11919
655.154	8.0543
658.046	8.9589
660.939	9.50518
663.832	10.7746
666.724	11.6993
669.617	13.0134
672.51	13.0169
675.402	11.7132
678.295	8.93611
681.188	6.52163
684.081	5.01237
686.973	3.09491
689.866	2.13792
692.759	1.34684
695.651	1.00013
698.544	1.11871
701.437	0.630131
704.329	1.57319
707.222	0.455421
710.115	1.45409
713.008	1.38302
715.9	0.1045
718.793	2.1386
721.686	0.466366
724.578	0.828094
727.471	0.8064
730.364	0.420048
733.256	0.688839
736.149	0.163521
739.042	0.724155
741.934	0.012611
744.827	0.470764
747.72	0.076439
750.613	1.23344
753.505	1.62814
756.398	0.675522
759.291	2.3126
762.183	1.80588
765.076	2.89016
767.969	3.59196
770.861	3.09676
773.754	3.89971
776.647	4.93838
779.54	5.15456
782.432	4.98349
785.325	4.04222
788.218	3.68747
791.11	3.47284
794.003	3.21003
796.896	2.75324
799.788	2.31813
802.681	2.6682
805.574	2.66777
808.467	2.64914
811.359	1.90614
814.252	1.5931
817.145	1.6739
820.037	1.58518
822.93	3.2284
825.823	1.7592
828.716	1.58112
831.608	2.92263
834.501	2.82564
837.394	3.24615
840.286	2.94654
843.179	3.72908
846.072	2.48783
848.964	1.59698
851.857	3.20901
854.75	2.84181
857.643	1.99405
860.535	1.42336
863.428	3.08135
866.321	1.63306
869.213	3.13528
872.106	1.45063
874.999	1.19404
877.891	1.66659
880.784	0.554966
883.677	0.901855
886.569	1.23191
889.462	0.799145
892.355	0.465538
895.248	0.224087
898.14	0.075993
901.033	0.097805
903.926	0.547752
906.818	0.375271
909.711	0.469906
912.604	0.519505
915.496	2.0218
918.389	1.16412
921.282	0.614597
924.175	1.51922
927.067	1.42337
929.96	1.22339
932.853	1.48059
935.745	1.57571
938.638	0.348701
941.531	1.41287
944.423	2.09663
947.316	1.34507
950.209	0.014286
953.102	0.392723
955.994	0.061893
958.887	0.864197
961.78	0.086384
964.672	1.0309
967.565	0.40554
970.458	0.564064
973.351	0.354416
976.243	0.019623
979.136	0.272572
982.029	0.058464
984.921	1.59372
987.814	1.5777
990.707	1.74406
993.599	2.95069
996.492	3.02436
999.385	2.51313
1002.28	1.62288
1005.17	2.16279
1008.06	2.99467
1010.96	1.52497
1013.85	2.08109
1016.74	0.953175
1019.63	1.40899
1022.53	1.96243
1025.42	0.148376
1028.31	0.648388
1031.2	0.52425
1034.1	0.969757
1036.99	0.239338
1039.88	0.210159
1042.78	0.44627
1045.67	0.452705
1048.56	0.883778
1051.45	1.05271
1054.35	0.507378
1057.24	0.709988
1060.13	0.559654
1063.02	2.22808
1065.92	2.82534
1068.81	5.20303
1071.7	7.46351
1074.6	8.57304
1077.49	10.2741
1080.38	12.9452
1083.27	14.5798
1086.17	17.7216
1089.06	20.9117
1091.95	22.8341
1094.84	25.3306
1097.74	27.4266
1100.63	29.6443
1103.52	31.9389
1106.41	32.3864
1109.31	33.455
1112.2	31.8134
1115.09	32.3236
1117.98	30.6734
1120.88	29.7107
1123.77	29.5984
1126.66	28.9443
1129.56	27.6393
1132.45	25.5196
1135.34	23.297
1138.23	22.4924
1141.13	19.6687
1144.02	16.3503
1146.91	14.1546
1149.81	12.0771
1152.7	10.0355
1155.59	7.01749
1158.48	7.40345
1161.38	4.56506
1164.27	4.15347
1167.16	3.53726
1170.05	2.10522
1172.95	0.819206
1175.84	0.443039
1178.73	0.366158
1181.62	0.39473
1184.52	0.347649
1187.41	0.113976
1190.3	0.472794
1193.2	0.063057
1196.09	0.072586
1198.98	0.913742
1201.87	0.755791
1204.77	0.913155
1207.66	1.81493
1210.55	1.55563
1213.44	1.34441
1216.34	1.58638
1219.23	3.22743
1222.12	3.42393
1225.02	4.70713
1227.91	3.64218
1230.8	3.89698
1233.69	2.75912
1236.59	2.44904
1239.48	2.61661
1242.37	2.57278
1245.26	1.25327
1248.16	0.368423
1251.05	2.26806
1253.94	1.42562
1256.84	0.764755
1259.73	0.779243
1262.62	0.258888
1265.51	0.253838
1268.41	0.904251
1271.3	0.352692
