Measurement: Raman, 514 nm, unoriented, Raman Data Processed
Mineral: Pollucite
Rruff sample: R050345
Ideal chemistry: Cs(Si_2_Al)O_6_nH_2_O
Locality: Bernic Lake, Manitoba, Canada
Source: California Institute of Technology
Description: Colorless to white fragment
Measured chemistry: (Cs_0.79_Na_0.19_Rb_0.02_)_Σ=1_(Si_2.10_Al_0.90_)_Σ=3_O_6_·H_2_O
Raman shift (cm-1)	intensity
93.375	0
97.554	50.129
101.732	127.977
105.908	637.952
110.082	720.953
114.254	1192.88
118.424	1427.49
122.592	1214.79
126.758	1114.98
130.922	1188.78
135.083	929.036
139.243	1382.53
143.401	1126.51
147.557	1067.87
151.711	808.689
155.863	729.881
160.013	628.687
164.161	593.514
168.308	557.936
172.452	674.977
176.594	652.907
180.734	755.131
184.872	912.906
189.008	1119.48
193.143	1240.74
197.275	1562.6
201.405	1591.95
205.534	1602.05
209.66	1293.52
213.784	1064.21
217.907	856.5
222.027	666.874
226.146	592.199
230.263	295.454
234.377	298.644
238.49	181.777
242.601	61.872
246.709	112.938
250.816	34.997
254.921	31.969
259.024	55.543
263.125	116.072
267.224	23.487
271.321	106.089
275.416	184.364
279.51	90.591
283.601	299.189
287.69	787.973
291.778	1812.69
295.863	2429.33
299.947	1553.83
304.029	698.081
308.108	362.952
312.186	189.484
316.262	141.726
320.336	11.699
324.408	205.573
328.478	156.906
332.546	243.229
336.612	343.205
340.677	256.627
344.739	435.048
348.799	437.162
352.858	614.093
356.915	695.735
360.969	818.218
365.022	1049.26
369.073	1352.25
373.122	1745.73
377.169	2209.93
381.215	2867.36
385.258	3389.82
389.299	3734.57
393.339	3636.1
397.376	3227.68
401.412	2186.54
405.446	1923.28
409.478	1311.77
413.508	965.303
417.536	861.522
421.562	770.636
425.586	810.192
429.609	687.643
433.629	778.338
437.648	701.383
441.665	857.392
445.68	1194.62
449.693	1797.24
453.704	3232.58
457.713	5326.48
461.721	9413.92
465.726	14218.3
469.73	22142.4
473.731	30050
477.731	28298
481.729	20053.4
485.725	13218.7
489.72	8707.73
493.712	6159.1
497.703	4364.81
501.691	3140.22
505.678	2377.45
509.663	1796.01
513.646	1348.56
517.627	1180.06
521.607	903.498
525.584	622.893
529.56	516.227
533.534	208.627
537.506	545.934
541.476	232.441
545.444	30.639
549.41	166.543
553.375	247.697
557.337	77.648
561.298	237.219
565.257	3.014
569.214	240.707
573.17	6.191
577.123	80.701
581.075	177.73
585.024	69.779
588.972	112.121
592.918	132.457
596.863	206.965
600.805	93.592
604.746	202.818
608.685	136.848
612.621	92.766
616.557	269.4
620.49	225.502
624.421	130.594
628.351	484.09
632.279	345.877
636.205	275.748
640.129	233.449
644.051	8.67
647.972	286.861
651.89	221.422
655.807	348.719
659.722	214.57
663.636	360.992
667.547	588.357
671.457	315.57
675.365	233.404
679.271	365.336
683.175	319.998
687.077	210.477
690.978	233.93
694.877	335.738
698.774	78.055
702.669	166.695
706.562	442.088
710.454	253.881
714.344	98.877
718.232	117.117
722.118	69.658
726.002	160.336
729.885	188.988
733.766	26.189
737.645	99.299
741.522	116.16
745.397	197.252
749.271	287.498
753.143	22.002
757.013	71.965
760.881	192.328
764.748	204.506
768.613	38.246
772.476	19.273
776.337	276.414
780.196	161.551
784.054	171.059
787.91	184.668
791.764	171.119
795.616	350.805
799.467	1.82
803.316	188.393
807.163	256.805
811.008	23.045
814.851	193.482
818.693	30.977
822.533	136.211
826.371	152.135
830.208	285.805
834.042	133.238
837.875	72.418
841.706	308.266
845.536	308.273
849.363	24.949
853.189	85.371
857.013	348.641
860.836	87.338
864.656	343.438
868.475	238.77
872.292	279.924
876.108	101.295
879.922	248.043
883.733	4.641
887.544	128.688
891.352	82.951
895.159	139.012
898.964	411.787
902.767	149.053
906.568	60.512
910.368	7.51
914.166	4.629
917.962	50.621
921.757	305.535
925.55	425.145
929.341	116.65
933.13	96.293
936.918	185.752
940.703	155.689
944.488	135.16
948.27	185.898
952.051	255.566
955.83	470.885
959.607	160.008
963.383	297.039
967.156	416.656
970.928	206.918
974.699	73.547
978.468	118.781
982.234	208.398
986	503.969
989.763	389.682
993.525	524.18
997.285	452.789
1001.04	791.539
1004.8	551.863
1008.55	497.838
1012.31	532.768
1016.06	294.736
1019.81	185.66
1023.56	463.135
1027.31	701.619
1031.05	693.486
1034.79	604.592
1038.53	722.611
1042.27	900.393
1046.01	832.324
1049.75	1023.64
1053.48	913.734
1057.22	1018.29
1060.95	653.66
1064.68	944.396
1068.4	1289.41
1072.13	1115.97
1075.86	1339.3
1079.58	1496.64
1083.3	1336.95
1087.02	1471.75
1090.74	1699.04
1094.45	1583.35
1098.17	1718.56
1101.88	1763.12
1105.59	2020.53
1109.3	1815.48
1113.01	1829.7
1116.71	1745.44
1120.42	1575.39
1124.12	1896.26
1127.82	1823.54
1131.52	1584.27
1135.22	1356.28
1138.91	1388.19
1142.61	940.332
1146.3	969.494
1149.99	751.959
1153.68	864.633
1157.37	571.488
1161.06	367.184
1164.74	366.146
1168.42	532.051
1172.1	161.383
1175.78	384.188
1179.46	136.211
1183.14	234.426
1186.81	289.293
1190.48	279.211
1194.15	38.301
1197.83	362.062
1201.49	20.449
1205.16	195.266
1208.82	139.562
1212.49	52.961
1216.15	261.105
1219.81	297.168
1223.46	14.926
1227.12	222.625
1230.78	197.273
1234.43	358.691
1238.08	529.668
1241.73	402.512
1245.38	155.184
1249.03	66.23
1252.67	243.312
1256.31	98.676
1259.95	251.871
1263.6	447.02
1267.23	332.688
1270.87	120.812
1274.51	133.613
1278.14	320.426
1281.77	323.902
1285.4	410.953
1289.03	301.379
1292.66	243.129
1296.28	382.148
1299.91	285.781
1303.53	131.605
1307.15	241.188
1310.77	547.375
1314.38	53.176
1318	424.668
1321.61	332.199
1325.23	344.668
1328.84	4.035
1332.45	526.367
1336.06	281.543
1339.66	330.621
1343.27	170.578
1346.87	0.961
1350.47	52.184
1354.07	52.426
