Measurement: Raman, 780 nm, unoriented, Raman Data Processed
Mineral: Polylithionite
Rruff sample: R060215
Ideal chemistry: KLi_2_AlSi_4_O_10_F_2_
Locality: Mont Saint-Hilaire, Rouville County, Quebec, Canada
Source: Royal Ontario Museum
Description: Tan to colorless micaceous fragment
Measured chemistry: (K_0.99_Na_0.01_)Li_2.00_(Al_0.88_Ti_0.06_Mg_0.06_)Si_4.00_O_10_(F_0.89_(OH)_0.11_)_2_
Raman shift (cm-1)	intensity
120.754	0
123.647	0.674088
126.54	1.86472
129.432	4.68272
132.325	4.74321
135.218	0.422119
138.11	2.17964
141.003	0.768356
143.896	2.52187
146.788	7.24371
149.681	11.1519
152.574	15.3803
155.466	22.6838
158.359	35.7569
161.252	49.8584
164.145	68.7342
167.037	89.3599
169.93	100.716
172.823	116.32
175.715	140.657
178.608	148.212
181.501	107.87
184.393	59.3057
187.286	33.8645
190.179	24.5851
193.072	13.7279
195.964	8.67525
198.857	3.63765
201.75	0.714798
204.642	3.1317
207.535	2.24722
210.428	1.33698
213.321	0.018921
216.213	3.57729
219.106	6.7361
221.999	11.1655
224.891	17.5275
227.784	25.297
230.677	36.4642
233.569	44.8046
236.462	57.9307
239.355	79.2091
242.248	105.889
245.14	142.961
248.033	129.734
250.926	86.1341
253.818	60.8562
256.711	42.8921
259.604	37.4763
262.496	37.5867
265.389	41.2638
268.282	39.473
271.175	36.6567
274.067	29.747
276.96	26.7042
279.853	25.9524
282.745	28.4062
285.638	32.9631
288.531	41.7675
291.423	47.303
294.316	56.3314
297.209	62.2879
300.101	67.5853
302.994	70.933
305.887	73.3984
308.78	73.0602
311.672	70.8
314.565	61.1484
317.458	50.7518
320.35	43.6079
323.243	33.8622
326.136	25.0049
329.029	19.4174
331.921	13.5408
334.814	10.1436
337.707	6.44327
340.599	7.41057
343.492	2.96152
346.385	0.023254
349.277	4.53786
352.17	3.57379
355.063	1.46941
357.955	1.7957
360.848	6.68288
363.741	5.68361
366.634	3.84029
369.526	3.48898
372.419	2.36174
375.312	2.84822
378.204	4.4361
381.097	4.66388
383.99	11.1249
386.882	15.2811
389.775	23.1398
392.668	34.8228
395.561	42.5372
398.453	60.1681
401.346	75.3237
404.239	98.4849
407.131	117.145
410.024	121.297
412.917	112.077
415.81	95.3311
418.702	76.7866
421.595	60.2381
424.488	41.071
427.38	23.4763
430.273	12.2113
433.166	3.14594
436.058	1.55905
438.951	1.20726
441.844	0.431274
444.736	3.21262
447.629	3.85448
450.522	3.80421
453.415	2.79515
456.307	0.422714
459.2	1.72365
462.093	7.55714
464.985	12.8016
467.878	23.6713
470.771	30.6868
473.663	29.2148
476.556	12.3578
479.449	3.93758
482.342	0.823395
485.234	0.230362
488.127	2.17377
491.02	-0.226069
493.912	1.37695
496.805	1.10443
499.698	0.198715
502.591	0.592438
505.483	1.94205
508.376	5.48741
511.269	7.10407
514.161	11.3074
517.054	15.2141
519.947	21.6534
522.839	26.5346
525.732	35.1064
528.625	43.035
531.518	55.3763
534.41	69.6704
537.303	91.0095
540.196	109.764
543.088	137.498
545.981	174.086
548.874	205.453
551.766	209.219
554.659	171.493
557.552	119.602
560.444	80.3698
563.337	54.6404
566.23	42.7545
569.123	35.0723
572.015	28.78
574.908	25.8445
577.801	24.6289
580.693	21.9452
583.586	22.4852
586.479	18.3718
589.371	18.0557
592.264	14.7723
595.157	9.80161
598.05	11.7624
600.942	8.4562
603.835	7.94255
606.728	6.33859
609.62	4.56989
612.513	3.2982
615.406	0.281113
618.298	0.481735
621.191	1.18203
624.084	0.684502
626.977	1.15724
629.869	0.85424
632.762	0.820465
635.655	2.30557
638.547	0.703064
641.44	0.46624
644.333	2.24193
647.226	0.170593
650.118	1.95606
653.011	1.63033
655.904	1.06969
658.796	1.10654
661.689	3.00506
664.582	4.39927
667.474	8.09728
670.367	9.72864
673.26	12.6353
676.153	15.7732
679.045	19.8343
681.938	25.0355
684.831	35.8204
687.723	45.1294
690.616	62.5549
693.509	87.0293
696.401	125.069
699.294	188.769
702.187	265.523
705.08	350.554
707.972	479.903
710.865	650.833
713.758	766.503
716.65	636.094
719.543	368.994
722.436	192.491
725.328	110.182
728.221	66.8571
731.114	40.2042
734.006	25.823
736.899	14.904
739.792	8.05092
742.685	0.731453
745.577	0.902451
748.47	0.099602
751.363	0.317467
754.255	3.68628
757.148	5.1156
760.041	14.9688
762.933	21.3019
765.826	27.8374
768.719	29.2393
771.612	30.2066
774.504	35.5431
777.397	44.486
780.29	45.883
783.182	34.5267
786.075	24.5374
788.968	14.971
791.861	10.3968
794.753	5.01499
797.646	2.44552
800.539	2.75929
803.431	1.03382
806.324	0.472054
809.217	0.542282
812.109	1.05166
815.002	0.333984
817.895	3.66525
820.788	5.7229
823.68	7.38873
826.573	8.0565
829.466	21.7866
832.358	30.797
835.251	45.1058
838.144	84.5463
841.036	130.978
843.929	80.1767
846.822	28.7103
849.715	22.507
852.607	37.1439
855.5	58.5574
858.393	90.1899
861.285	140.848
864.178	207.309
867.071	300.007
869.963	379.126
872.856	371.812
875.749	268.064
878.641	156.686
881.534	86.1421
884.427	54.7381
887.32	42.5128
890.212	33.5594
893.105	24.0335
895.998	14.3415
898.89	8.8073
901.783	3.52386
904.676	1.62969
907.568	1.35939
910.461	0.979757
913.354	2.26268
916.247	1.84536
919.139	0.663185
922.032	0.879607
924.925	0.171986
927.817	1.30824
930.71	1.22573
933.603	0.194401
936.495	0.141167
939.388	1.68648
942.281	1.41232
945.174	6.75231
948.066	5.04015
950.959	7.01829
953.852	9.25777
956.744	13.2552
959.637	13.5844
962.53	16.853
965.423	19.0062
968.315	19.6678
971.208	23.0849
974.101	22.6386
976.993	24.9959
979.886	21.8101
982.779	17.2723
985.671	17.432
988.564	16.5327
991.457	12.4302
994.35	14.9849
997.242	12.0811
1000.13	13.4007
1003.03	12.1525
1005.92	11.6893
1008.81	12.2446
1011.71	10.167
1014.6	10.6039
1017.49	11.4464
1020.38	9.37147
1023.28	9.43781
1026.17	8.60642
1029.06	8.2632
1031.95	7.31027
1034.85	6.15123
1037.74	8.20808
1040.63	7.25127
1043.53	7.3943
1046.42	9.58819
1049.31	11.6222
1052.2	11.3575
1055.1	12.8756
1057.99	11.1749
1060.88	11.7355
1063.77	13.28
1066.67	13.9111
1069.56	15.8184
1072.45	15.1329
1075.35	14.5412
1078.24	14.8686
1081.13	15.9735
1084.02	16.6188
1086.92	15.7091
1089.81	11.7044
1092.7	9.09078
1095.59	5.62677
1098.49	2.1573
1101.38	2.06419
1104.27	0.382431
1107.16	1.31526
1110.06	1.07919
1112.95	1.25046
1115.84	1.64833
1118.74	5.85254
1121.63	5.60681
1124.52	6.21191
1127.41	8.76475
1130.31	9.53615
1133.2	5.87286
1136.09	3.97507
1138.98	2.32648
1141.88	3.68262
1144.77	4.15015
1147.66	5.90564
1150.56	4.1485
1153.45	5.73138
1156.34	2.86072
1159.23	0
