Measurement: Raman, 532 nm, unoriented, Raman Data Processed
Mineral: Polyhalite
Rruff sample: R070209
Ideal chemistry: K_2_Ca_2_Mg(SO_4_)_4_2H_2_O
Locality: West Texas, Texas, USA
Source: Michael Scott
Description: Colorless to brick red massive
Raman shift (cm-1)	intensity
118.806	0
122.181	5.01867
125.556	9.0907
128.931	6.27919
132.306	34.4866
135.68	90.5288
139.055	157.106
142.43	149.333
145.805	162.272
149.18	167.134
152.554	189.561
155.929	250.296
159.304	290.601
162.679	172.88
166.054	180.397
169.429	316.171
172.803	333.52
176.178	187.231
179.553	135.395
182.928	131.798
186.303	96.886
189.678	61.1118
193.052	45.0135
196.427	63.9249
199.802	61.6776
203.177	66.5816
206.552	60.0311
209.926	64.1332
213.301	76.8407
216.676	104.183
220.051	144.259
223.426	266.69
226.8	385.488
230.175	432.396
233.55	515.632
236.925	578.85
240.3	431.102
243.675	230.158
247.049	135.929
250.424	96.1091
253.799	85.8226
257.174	44.3719
260.549	25.0296
263.923	12.5527
267.298	2.13786
270.673	6.66594
274.048	6.87291
277.423	2.56973
280.798	9.93143
284.173	7.00581
287.547	0.328522
290.922	12.7458
294.297	9.71481
297.672	5.60164
301.046	5.73479
304.421	1.39874
307.796	3.76308
311.171	15.0415
314.546	13.2871
317.921	9.1994
321.295	5.78716
324.67	7.80714
328.045	8.03153
331.42	14.4678
334.795	19.0726
338.17	18.1594
341.544	36.6084
344.919	30.1991
348.294	37.4407
351.669	46.9326
355.044	58.4783
358.418	64.9351
361.793	94.1541
365.168	125.655
368.543	173.157
371.918	165.951
375.293	156.935
378.667	82.4982
382.042	33.9503
385.417	13.6883
388.792	1.80064
392.167	5.16718
395.541	4.34663
398.916	8.53256
402.291	8.91426
405.666	9.76642
409.041	13.9514
412.416	21.0935
415.79	22.2264
419.165	24.7988
422.54	56.672
425.915	123.373
429.29	207.146
432.664	334.376
436.039	595.22
439.414	721.787
442.789	645.288
446.164	884.741
449.538	1418.74
452.913	1816.36
456.288	2747.48
459.663	4273.89
463.038	5948.29
466.413	6111.59
469.787	3751.73
473.162	2350.45
476.537	1753.27
479.912	1157.51
483.287	753.991
486.661	499.06
490.036	333.688
493.411	243.055
496.786	186.917
500.161	162.964
503.536	143.505
506.911	104.272
510.285	99.3461
513.66	84.4403
517.035	71.0518
520.41	59.9953
523.784	43.4606
527.159	23.8777
530.534	9.37753
533.909	17.8272
537.284	6.87553
540.659	13.3256
544.033	1.16048
547.408	8.31868
550.783	3.45869
554.158	20.7985
557.533	9.44655
560.908	4.49976
564.282	4.07606
567.657	25.0916
571.032	24.8422
574.407	34.0429
577.782	48.6831
581.156	51.8229
584.531	82.8325
587.906	111.862
591.281	143.471
594.656	209.807
598.031	268.78
601.405	349.254
604.78	480.456
608.155	636.282
611.53	918.093
614.905	1382.32
618.279	1957.78
621.654	2569.28
625.029	2494.5
628.404	2003.18
631.779	1664.76
635.154	1207.99
638.528	984.707
641.903	949.77
645.278	933.674
648.653	1001.47
652.028	1095.96
655.403	1094.09
658.777	644.158
662.152	275.465
665.527	157.555
668.902	114.365
672.277	94.5736
675.651	68.9433
679.026	52.6517
682.401	34.5417
685.776	25.2006
689.151	7.81459
692.525	6.10529
695.9	7.64088
699.275	6.5188
702.65	8.93468
706.025	4.97598
709.399	3.23347
712.774	17.9776
716.149	6.57024
719.524	20.615
722.899	17.2296
726.274	40.4277
729.648	31.3928
733.023	42.4989
736.398	35.567
739.773	42.0505
743.148	10.6606
746.523	15.4491
749.897	11.4162
753.272	17.0271
756.647	2.575
760.022	7.66136
763.397	6.23532
766.771	2.64668
770.146	0.175613
773.521	0.381058
776.896	9.83662
780.271	2.15652
783.646	1.10205
787.02	8.62178
790.395	1.14223
793.77	2.30722
797.145	15.5349
800.52	10.138
803.894	9.63286
807.269	18.4697
810.644	2.60521
814.019	15.3893
817.394	13.742
820.769	9.33388
824.143	18.2383
827.518	21.8645
830.893	11.291
834.268	14.9209
837.643	13.8702
841.018	17.7213
844.392	17.7424
847.767	0.60228
851.142	21.2292
854.517	14.1365
857.891	16.1421
861.266	29.2726
864.641	24.7175
868.016	31.945
871.391	28.9016
874.766	34.3415
878.14	30.8019
881.515	29.29
884.89	25.8611
888.265	32.8695
891.64	29.0267
895.015	23.3569
898.389	20.8551
901.764	15.9461
905.139	6.60159
908.514	7.58847
911.889	4.43762
915.264	3.73003
918.638	0.974564
922.013	6.67847
925.388	7.24635
928.763	14.1439
932.138	8.07221
935.512	5.84531
938.887	6.92731
942.262	1.67133
945.637	24.8904
949.012	10.1954
952.386	29.9431
955.761	30.9271
959.136	43.5379
962.511	64.9119
965.886	80.6925
969.261	131.718
972.635	188.249
976.01	403.635
979.385	1111.75
982.76	3012.59
986.135	6440.94
989.51	11499.1
992.884	5337.45
996.259	1977.13
999.634	1628.22
1003.01	1933.71
1006.38	3382.83
1009.76	7124.41
1013.13	13284.3
1016.51	19484.2
1019.88	9258.51
1023.26	2606.21
1026.63	959.408
1030.01	444.189
1033.38	227.39
1036.76	107.423
1040.13	21.8098
1043.51	4.87216
1046.88	26.3511
1050.26	14.6369
1053.63	6.87976
1057.01	60.3595
1060.38	205.826
1063.76	533.144
1067.13	1041.53
1070.51	1478.29
1073.88	1282.09
1077.26	808.661
1080.63	637.957
1084	713.943
1087.38	821.935
1090.75	1014.92
1094.13	1033.54
1097.5	835.538
1100.88	464.848
1104.25	222.387
1107.63	76.036
1111	2.1853
1114.38	2.86942
1117.75	56.3501
1121.13	290.466
1124.5	663.729
1127.88	1277.92
1131.25	1713.74
1134.63	788.688
1138	278.13
1141.38	175.979
1144.75	187.349
1148.13	98.2083
1151.5	33.4912
1154.88	40.0893
1158.25	185.838
1161.62	490.224
1165	887.533
1168.38	427.399
1171.75	120.792
1175.12	73.3162
1178.5	92.5186
1181.87	115.767
1185.25	50.0871
1188.62	1.34111
1192	17.194
1195.37	3.3302
1198.75	4.55225
1202.12	3.90807
1205.5	12.2906
1208.87	13.5733
1212.25	0.280807
1215.62	16.2386
1219	11.9809
1222.37	24.5043
1225.75	29.224
1229.12	27.3779
1232.5	36.8876
1235.87	41.3618
1239.25	56.43
1242.62	46.4795
1246	34.6164
1249.37	35.5913
1252.74	29.3235
1256.12	38.8835
1259.49	35.506
1262.87	27.5574
1266.24	30.3997
1269.62	11.1606
1272.99	6.95519
1276.37	9.63855
1279.74	7.56532
1283.12	10.2994
1286.49	9.54225
1289.87	21.6959
1293.24	7.7746
1296.62	0.961777
1299.99	11.7461
1303.37	15.5762
1306.74	7.70653
1310.12	16.5152
