Measurement: Raman, 780 nm, unoriented, Raman Data Processed
Mineral: Polylithionite
Rruff sample: R060225
Ideal chemistry: KLi_2_AlSi_4_O_10_F_2_
Locality: Mont Saint-Hilaire, Rouville County, Quebec, Canada
Source: Royal Ontario Museum
Description: Tan colored hexagonal shaped mica
Measured chemistry: (K_0.95_[box]_0.05_)_Σ=1_(Li_1.95_Mg_0.04_Mn_0.01_)_Σ=2_(Al_0.97_Fe^3+^_0.03_)_Σ=1_Si_4.00_O_10_(F_1.40_(OH)_0.60_)_Σ=2_
Raman shift (cm-1)	intensity
150.163	0
153.056	0.008712
155.949	0.543781
158.841	1.19666
161.734	1.96845
164.627	2.6966
167.519	4.13417
170.412	5.28947
173.305	5.11096
176.198	5.26804
179.09	5.45491
181.983	3.55171
184.876	1.88544
187.768	0.52855
190.661	0.027273
193.554	0.11003
196.446	0.829551
199.339	0.055906
202.232	0.583029
205.125	0.062578
208.017	0.362114
210.91	0.489162
213.803	0.470418
216.695	2.58341
219.588	1.05617
222.481	1.38867
225.374	2.41669
228.266	4.62959
231.159	6.03272
234.052	7.02976
236.944	7.18438
239.837	7.3801
242.73	9.4826
245.622	8.28681
248.515	4.51494
251.408	2.69569
254.3	1.74153
257.193	1.80958
260.086	0.921828
262.978	1.09137
265.871	0.109925
268.764	1.42999
271.657	0.236567
274.549	0.236339
277.442	1.23798
280.335	0.884957
283.227	2.30985
286.12	1.85652
289.013	2.29469
291.906	2.32059
294.798	2.5958
297.691	1.68475
300.584	1.04695
303.476	1.69162
306.369	0.357179
309.262	1.03706
312.154	0.27103
315.047	0.054609
317.94	0.791766
320.833	0.133492
323.725	0.727931
326.618	0.420762
329.511	0.141402
332.403	0.21189
335.296	1.03775
338.189	0.326958
341.082	1.21146
343.974	0.379884
346.867	0.061095
349.76	0.336223
352.652	1.03587
355.545	0.926548
358.438	0.629112
361.33	2.25532
364.223	0.003294
367.116	0.581162
370.009	0.363153
372.901	0.341472
375.794	0.15966
378.687	0.027238
381.579	0.673719
384.472	0.965913
387.365	2.06736
390.257	2.23378
393.15	4.19816
396.043	4.27903
398.935	5.40542
401.828	6.79956
404.721	6.91983
407.614	6.96988
410.506	5.67537
413.399	4.56395
416.292	3.56127
419.184	2.51551
422.077	1.63821
424.97	1.92725
427.863	0.149157
430.755	0.225174
433.648	0.103042
436.541	0.508895
439.433	0.338596
442.326	0.388841
445.219	0.237738
448.111	0.396132
451.004	1.10815
453.897	1.23724
456.789	0.930655
459.682	1.23262
462.575	1.66593
465.467	1.94856
468.36	2.83434
471.253	1.94279
474.146	1.4913
477.038	1.07591
479.931	0.732131
482.824	0.755467
485.716	0.359982
488.609	0.644228
491.502	0.031936
494.394	0.194262
497.287	0.811501
500.18	0.041093
503.073	0.208894
505.965	0.066311
508.858	0.008744
511.751	0.786262
514.643	0.683468
517.536	1.66229
520.429	1.64717
523.322	3.07946
526.214	3.55722
529.107	4.90269
532	5.8315
534.892	9.32245
537.785	12.7418
540.678	13.973
543.57	16.2196
546.463	17.38
549.356	17.7213
552.249	14.1571
555.141	11.5684
558.034	7.72399
560.927	5.00978
563.819	2.64312
566.712	1.89377
569.605	2.08224
572.497	1.68455
575.39	0.749164
578.283	1.15601
581.176	1.41931
584.068	1.2355
586.961	0.668146
589.854	0.808384
592.746	1.19269
595.639	0.220445
598.532	0.474498
601.424	0.629038
604.317	1.43922
607.21	0.352062
610.102	0.506865
612.995	0.113469
615.888	0.076811
618.781	0.611263
621.673	0.196731
624.566	0.069011
627.459	0.015408
630.351	0.764179
633.244	0.106882
636.137	0.451927
639.029	0.080799
641.922	0.105888
644.815	0.080508
647.708	0.655093
650.6	0.843719
653.493	0.897436
656.386	0.7194
659.278	0.245664
662.171	0.008967
665.064	0.461081
667.957	0.473778
670.849	0.096851
673.742	0.539171
676.635	1.01263
679.527	0.729159
682.42	1.48568
685.313	2.90525
688.205	3.00806
691.098	5.17749
693.991	8.51044
696.884	13.0396
699.776	19.766
702.669	27.5644
705.562	33.6758
708.454	38.4959
711.347	40.6579
714.24	36.4776
717.132	24.2923
720.025	12.8743
722.918	7.41674
725.811	3.75913
728.703	1.90396
731.596	1.39359
734.489	0.65924
737.381	0.123983
740.274	0.611366
743.167	0.533437
746.059	0.397795
748.952	0.371988
751.845	0.179434
754.737	0.046943
757.63	0.439062
760.523	0.871597
763.416	0.776235
766.308	2.08409
769.201	2.95654
772.094	2.89424
774.986	3.75411
777.879	3.83135
780.772	3.50182
783.665	2.16745
786.557	0.115796
789.45	0.028852
792.343	0.008052
795.235	0.540839
798.128	0.500844
801.021	0.162019
803.913	0.126544
806.806	0.174017
809.699	0.254463
812.592	0.293124
815.484	0.269322
818.377	0.161679
821.27	0.170843
824.162	0.623346
827.055	0.90055
829.948	0.946398
832.84	0.977222
835.733	1.18697
838.626	1.42187
841.519	1.78515
844.411	0.936251
847.304	1.08257
850.197	1.47403
853.089	1.5307
855.982	1.87486
858.875	2.10651
861.767	1.50789
864.66	2.20719
867.553	3.20296
870.446	2.19235
873.338	1.77022
876.231	1.61988
879.124	1.21177
882.016	1.46817
884.909	1.40954
887.802	1.485
890.694	0.911637
893.587	0.778319
896.48	0.760672
899.372	0.540521
902.265	0.81965
905.158	0.83978
908.051	0.614684
910.943	0.545523
913.836	0.679851
916.729	0.22534
919.621	0.464768
922.514	0.05353
925.407	0.189915
928.299	0.398257
931.192	0.048626
934.085	0.396558
936.978	0.050789
939.87	0.093208
942.763	0.311485
945.656	0.500317
948.548	0.243564
951.441	0.026863
954.334	0.386293
957.226	0.017399
960.119	0.122418
963.012	0.892362
965.905	0.008699
968.797	0.374986
971.69	1.06687
974.583	0.236986
977.475	0.956507
980.368	0.815469
983.261	0.594513
986.154	0.844992
989.046	0.65835
991.939	0.815452
994.832	0.053253
997.724	0.880293
1000.62	0.446302
1003.51	0.712218
1006.4	0.390524
1009.29	0.63213
1012.19	1.41192
1015.08	0.733582
1017.97	1.11726
1020.87	0.965941
1023.76	0.571609
1026.65	0.702954
1029.54	0.54839
1032.44	1.58291
1035.33	0.589505
1038.22	0.709749
1041.12	1.27456
1044.01	0.013228
1046.9	0.357752
1049.79	0.039378
1052.69	0.485249
1055.58	0.758354
1058.47	0.461201
1061.36	0.15817
1064.26	0.903662
1067.15	0.731076
1070.04	1.01164
1072.93	0.708128
1075.83	1.14899
1078.72	0.431495
1081.61	0.781057
1084.51	0.671497
1087.4	1.34564
1090.29	0.094707
1093.18	1.42361
1096.08	0.896012
1098.97	0.271907
1101.86	0.879725
1104.75	0.445031
1107.65	1.00918
1110.54	0.047747
1113.43	0.009213
1116.33	0.770483
1119.22	0.85676
1122.11	0.057403
1125	0.800191
1127.9	0.133872
1130.79	0.067832
1133.68	0.727705
1136.57	0.094766
1139.47	0.087387
1142.36	0.110173
1145.25	0.580062
1148.14	0.67065
1151.04	0.418871
1153.93	0.089131
1156.82	0.781858
1159.71	1.31135
1162.61	0.510749
1165.5	0.73072
1168.39	0.434628
1171.29	0.577921
1174.18	0.613875
1177.07	0.580167
1179.96	0.291494
1182.86	0.384672
1185.75	0.496617
1188.64	1.20263
1191.54	1.26265
1194.43	0.360651
1197.32	0.371482
1200.21	0.541841
1203.11	1.51729
1206	1.08834
1208.89	0.028902
1211.78	0.88874
1214.68	0.260193
1217.57	1.15684
1220.46	0.70265
1223.36	0.985506
1226.25	0.646526
1229.14	0.819499
1232.03	0.257831
1234.93	0.187865
1237.82	0.621757
1240.71	0.611739
1243.6	0.228093
1246.5	0.813161
1249.39	0.566523
1252.28	0.017854
1255.17	0.231818
1258.07	0.610262
1260.96	0.525188
1263.85	0.460063
1266.74	1.30335
1269.64	0.598784
1272.53	0.178631
1275.42	0.584214
1278.32	0.043771
1281.21	0.058216
1284.1	0.419948
