Measurement: Raman, 780 nm, unoriented, Raman Data Processed
Mineral: Polylithionite
Rruff sample: R060172
Ideal chemistry: KLi_2_AlSi_4_O_10_F_2_
Locality: Mont Saint-Hilaire, Quebec, Canada
Source: Guy Ouellet
Description: Pseudohexagonal micaceous crystals with small white natrolite, red rhodochrosite and white albite
Measured chemistry: (K_0.98_Na_0.02_)Li_2.00_(Al_0.84_Ti_0.10_Mg_0.04_Mn_0.02_)(Si_0.99_Al_0.01_)_4_O_10_(F_0.82_(OH)_0.18_)_2_
Raman shift (cm-1)	intensity
139.755	0
142.648	1.91254
145.54	1.70837
148.433	1.96252
151.326	4.78589
154.218	7.29047
157.111	6.20526
160.004	13.0587
162.897	9.63141
165.789	12.4484
168.682	15.2881
171.575	18.7271
174.467	29.1498
177.36	40.3091
180.253	47.8095
183.145	35.2156
186.038	17.6598
188.931	7.26117
191.823	3.28918
194.716	1.35699
197.609	0.639893
200.502	0.412537
203.394	0.427185
206.287	0.044861
209.18	2.12451
212.072	1.84711
214.965	5.30713
217.858	4.85754
220.75	4.50165
223.643	9.58606
226.536	13.2178
229.429	13.8078
232.321	12.8965
235.214	20.0973
238.107	16.6665
240.999	25.3481
243.892	34.9919
246.785	48.5789
249.677	38.9092
252.57	18.3195
255.463	5.76898
258.356	3.87665
261.248	7.68115
264.141	9.62824
267.034	12.1185
269.926	16.6285
272.819	16.888
275.712	13.917
278.604	14.0548
281.497	12.0115
284.39	12.2416
287.283	12.2037
290.175	16.3679
293.068	14.7472
295.961	13.5147
298.853	14.4901
301.746	10.9973
304.639	8.90985
307.531	7.85968
310.424	5.26312
313.317	1.2478
316.209	5.12433
319.102	0.712708
321.995	3.23291
324.888	6.08411
327.78	8.70459
330.673	7.67358
333.566	7.0119
336.458	11.0758
339.351	9.43878
342.244	9.16907
345.137	7.07306
348.029	4.77759
350.922	0.774414
353.815	1.76196
356.707	2.1358
359.6	6.49817
362.493	10.6386
365.385	6.51032
368.278	7.53656
371.171	1.6568
374.063	2.60089
376.956	1.34155
379.849	0.501648
382.741	1.37408
385.634	0.989075
388.527	3.57306
391.42	7.8512
394.312	15.623
397.205	22.0042
400.098	27.7828
402.99	33.2941
405.883	40.3284
408.776	44.8019
411.668	45.2175
414.561	38.2554
417.454	37.4114
420.347	22.6663
423.239	13.8247
426.132	8.28998
429.025	2.685
431.917	0.922974
434.81	0.888306
437.703	2.98273
440.596	0.898926
443.488	3.99499
446.381	6.58264
449.274	11.3384
452.166	12.1783
455.059	11.9246
457.952	11.1654
460.844	8.81586
463.737	4.50742
466.63	3.93976
469.522	9.77487
472.415	12.2557
475.308	13.7942
478.201	6.53015
481.093	2.34735
483.986	0.700317
486.879	0.814911
489.771	1.86789
492.664	0.33902
495.557	1.95609
498.45	1.80725
501.342	0.011108
504.235	0.952545
507.128	0.567078
510.02	0.97821
512.913	3.59638
515.806	5.62515
518.698	5.5137
521.591	4.92932
524.484	5.22763
527.376	6.66638
530.269	7.33557
533.162	13.4343
536.055	17.4583
538.947	24.068
541.84	27.7604
544.733	39.393
547.625	53.9525
550.518	67.9226
553.411	77.4056
556.303	63.722
559.196	44.2699
562.089	26.2605
564.981	17.4072
567.874	13.3615
570.767	12.5828
573.66	10.6874
576.552	12.6932
579.445	12.9787
582.338	12.8271
585.23	11.2468
588.123	6.90134
591.016	6.84775
593.909	6.49554
596.801	0.158356
599.694	1.966
602.587	-0.433193
605.479	0.841978
608.372	0.271576
611.265	2.29315
614.157	0.440063
617.05	0.189026
619.943	2.50671
622.836	2.45804
625.728	3.82791
628.621	5.12216
631.514	5.52252
634.406	7.32562
637.299	6.68262
640.192	6.44327
643.084	4.57208
645.977	2.6788
648.87	3.89688
651.763	1.42123
654.655	1.10446
657.548	0.292023
660.441	0.889893
663.333	0.954529
666.226	0.150085
669.119	0.500824
672.011	1.31509
674.904	3.35275
677.797	4.98456
680.689	7.93323
683.582	8.41333
686.475	11.1424
689.368	12.5933
692.26	13.9949
695.153	19.3304
698.046	27.3072
700.938	37.4242
703.831	50.6627
706.724	70.9684
709.616	108.412
712.509	168.068
715.402	223.514
718.294	191.321
721.187	108.054
724.08	55.9087
726.973	30.2137
729.865	17.5295
732.758	10.8952
735.651	5.41464
738.543	4.84183
741.436	2.3613
744.329	1.31045
747.221	0.297668
750.114	1.18512
753.007	1.06982
755.9	0.236298
758.792	0.277161
761.685	4.81613
764.578	4.97748
767.47	4.48498
770.363	2.33704
773.256	3.95276
776.149	8.6763
779.041	13.2128
781.934	16.8479
784.827	12.8462
787.719	6.7612
790.612	7.05515
793.505	3.70938
796.397	2.46079
799.29	2.05286
802.183	1.52209
805.075	0.978882
807.968	0.375488
810.861	1.77414
813.754	0.447998
816.646	1.0235
819.539	1.91345
822.432	2.96011
825.324	0.114166
828.217	2.24005
831.11	0.656281
834.002	0.879944
836.895	2.30096
839.788	1.76331
842.681	1.03235
845.573	1.00687
848.466	0.83786
851.359	1.6582
854.251	2.41495
857.144	3.17456
860.037	5.28668
862.929	10.8615
865.822	18.2669
868.715	32.5706
871.607	47.8563
874.5	52.5005
877.393	39.9534
880.286	25.9814
883.178	17.2435
886.071	16.2878
888.964	9.50159
891.856	9.11435
894.749	6.20734
897.642	2.77777
900.534	0.542786
903.427	0.841797
906.32	0.812286
909.213	0.371429
912.105	1.61118
914.998	1.35055
917.891	2.66809
920.783	2.05487
923.676	2.22308
926.569	3.68924
929.462	2.45975
932.354	4.57294
935.247	2.8399
938.14	4.23923
941.032	3.46585
943.925	3.9155
946.818	0.831146
949.71	0.784698
952.603	2.1391
955.496	2.51749
958.388	1.61505
961.281	3.28058
964.174	4.05652
967.067	3.26123
969.959	3.8045
972.852	5.18063
975.745	6.82816
978.637	2.58539
981.53	5.64896
984.423	8.06955
987.315	1.17825
990.208	1.23853
993.101	0.673096
995.994	2.41919
998.886	3.36041
1001.78	5.66586
1004.67	4.63589
1007.56	5.00667
1010.46	5.79742
1013.35	4.88745
1016.24	4.89056
1019.13	2.27237
1022.03	1.66635
1024.92	1.38571
1027.81	0.985962
1030.71	0.717621
1033.6	0.981262
1036.49	1.36057
1039.38	5.23877
1042.28	3.73865
1045.17	7.36908
1048.06	8.51813
1050.95	7.92609
1053.85	6.06244
1056.74	3.76077
1059.63	2.85178
1062.53	4.71088
1065.42	2.82156
1068.31	1.35397
1071.2	1.52154
1074.1	1.49713
1076.99	3.03928
1079.88	2.99207
1082.77	5.22897
1085.67	6.92642
1088.56	7.87939
1091.45	6.45157
1094.35	5.17752
1097.24	4.92047
1100.13	3.93704
1103.02	5.45453
1105.92	3.24713
1108.81	1.58139
1111.7	3.42596
1114.59	1.41779
1117.49	0.914795
1120.38	2.34534
1123.27	3.55081
1126.16	2.30685
1129.06	0.799011
1131.95	2.81622
1134.84	1.44763
1137.74	0.326721
1140.63	1.48749
1143.52	0.126434
1146.41	1.74011
1149.31	0.808807
1152.2	1.11783
1155.09	2.422
1157.98	4.37894
1160.88	3.63547
1163.77	6.25293
1166.66	3.70416
1169.56	2.06476
1172.45	3.27811
1175.34	3.31277
1178.23	4.1633
1181.13	6.13644
1184.02	3.99481
1186.91	2.51648
1189.8	2.62137
1192.7	5.15585
1195.59	3.28748
1198.48	1.84534
1201.38	1.66156
1204.27	0.682404
1207.16	4.76504
1210.05	2.38193
1212.95	4.82136
1215.84	6.27734
1218.73	5.32651
1221.62	5.48416
1224.52	4.19879
1227.41	6.68497
1230.3	6.55475
1233.19	6.37314
1236.09	3.75513
1238.98	3.67654
1241.87	1.57114
1244.77	0.710663
1247.66	0.177307
1250.55	0.077118
1253.44	1.15967
1256.34	0.056824
1259.23	0.705383
1262.12	2.44391
1265.01	1.91552
1267.91	2.66083
1270.8	3.20578
1273.69	3.37906
1276.59	2.6481
1279.48	0.154938
1282.37	1.29376
1285.26	0.479889
