Measurement: Raman, 532 nm, unoriented, Raman Data Processed
Mineral: Polylithionite
Rruff sample: R060225
Ideal chemistry: KLi_2_AlSi_4_O_10_F_2_
Locality: Mont Saint-Hilaire, Rouville County, Quebec, Canada
Source: Royal Ontario Museum
Description: Tan colored hexagonal shaped mica
Measured chemistry: (K_0.95_[box]_0.05_)_Σ=1_(Li_1.95_Mg_0.04_Mn_0.01_)_Σ=2_(Al_0.97_Fe^3+^_0.03_)_Σ=1_Si_4.00_O_10_(F_1.40_(OH)_0.60_)_Σ=2_
Raman shift (cm-1)	intensity
150.414	0
153.307	1.58164
156.2	5.30184
159.092	1.48914
161.985	1.64569
164.878	7.01634
167.77	9.52111
170.663	14.4461
173.556	16.0469
176.448	21.0785
179.341	31.9721
182.234	34.4524
185.127	21.5407
188.019	12.2812
190.912	5.87783
193.805	3.42563
196.697	1.58581
199.59	0.962091
202.483	0.114562
205.375	0.38829
208.268	0.055779
211.161	0.552894
214.054	0.364438
216.946	0.101054
219.839	0.081081
222.732	0.388295
225.624	0.912975
228.517	3.04193
231.41	7.88348
234.303	9.12925
237.195	10.9331
240.088	17.8126
242.981	32.6297
245.873	47.7411
248.766	36.303
251.659	16.6471
254.551	8.88275
257.444	8.62861
260.337	7.3345
263.229	8.27103
266.122	9.37859
269.015	11.2137
271.908	7.58192
274.8	3.97339
277.693	2.01635
280.586	2.23832
283.478	2.74833
286.371	3.20655
289.264	5.81527
292.156	7.19241
295.049	9.7188
297.942	9.9007
300.835	8.28909
303.727	6.07675
306.62	4.423
309.513	3.85362
312.405	2.91981
315.298	1.68109
318.191	1.09752
321.084	0.032866
323.976	0.07723
326.869	0.230698
329.762	0.19611
332.654	0.328704
335.547	1.6913
338.44	1.75043
341.332	4.66533
344.225	3.41282
347.118	0.900839
350.01	1.39444
352.903	5.18644
355.796	7.83947
358.689	11.1326
361.581	15.4667
364.474	10.4587
367.367	5.84365
370.259	1.91751
373.152	0.751153
376.045	0.277176
378.938	0.200387
381.83	0.118203
384.723	0.132203
387.616	0.680497
390.508	1.59214
393.401	5.87652
396.294	7.97865
399.186	14.3153
402.079	21.4998
404.972	29.9902
407.865	36.3311
410.757	37.9673
413.65	32.5015
416.543	25.7959
419.435	21.7226
422.328	15.0265
425.221	10.5072
428.113	3.403
431.006	1.65453
433.899	0.261521
436.791	0.187954
439.684	0.17266
442.577	1.33125
445.469	3.06831
448.362	5.4336
451.255	9.95784
454.148	4.88629
457.04	0.976331
459.933	0.323586
462.826	2.82779
465.718	4.29237
468.611	8.41773
471.504	13.6957
474.397	15.2846
477.289	7.52001
480.182	2.04764
483.075	1.77294
485.967	2.08022
488.86	3.12094
491.753	1.46558
494.645	0.03022
497.538	0.141729
500.431	0.004408
503.324	0.020381
506.216	0.032977
509.109	0.698715
512.002	1.76056
514.894	3.28295
517.787	3.16695
520.68	5.64702
523.572	8.81683
526.465	10.3589
529.358	14.017
532.25	17.3054
535.143	24.9612
538.036	29.3348
540.929	36.6949
543.821	46.7114
546.714	62.2447
549.607	79.4053
552.5	88.8718
555.392	78.1217
558.285	52.7947
561.178	34.2984
564.07	19.9937
566.963	16.6954
569.856	10.6123
572.748	8.46085
575.641	7.06174
578.534	5.22814
581.427	5.13559
584.319	5.4901
587.212	5.08496
590.105	2.43829
592.997	2.93204
595.89	2.98157
598.783	1.8378
601.675	1.93379
604.568	1.58271
607.461	0.492554
610.353	0.183887
613.246	0.535237
616.139	0.270924
619.032	0.396922
621.924	0.430543
624.817	0.399633
627.71	0.253896
630.602	0.418895
633.495	0.124208
636.388	0.288263
639.28	0.560218
642.173	0.150985
645.066	0.156434
647.958	0.188087
650.851	0.661603
653.744	0.64996
656.637	0.972026
659.529	1.27362
662.422	0.894927
665.315	1.04567
668.207	1.711
671.1	2.63325
673.993	2.16452
676.885	3.93369
679.778	4.85461
682.671	5.48799
685.564	8.61442
688.456	11.0141
691.349	15.25
694.242	22.575
697.134	33.5973
700.027	50.3357
702.92	74.0955
705.812	106.507
708.705	150.5
711.598	210.759
714.491	260.038
717.383	250.174
720.276	151.703
723.169	78.721
726.061	44.9019
728.954	24.8438
731.847	15.0007
734.74	9.29409
737.632	4.86791
740.525	2.01571
743.418	0.603164
746.31	0.338293
749.203	0.004174
752.096	0.331407
754.988	0.45823
757.881	1.87411
760.774	2.38206
763.667	4.55731
766.559	7.83684
769.452	9.53575
772.345	11.4456
775.237	17.63
778.13	25.0836
781.023	31.1837
783.915	27.3615
786.808	18.0369
789.701	10.6139
792.593	4.98309
795.486	1.86754
798.379	0.647634
801.271	1.68717
804.164	0.062633
807.057	0.169349
809.95	0.137809
812.842	0.199744
815.735	0.040941
818.628	0.957865
821.52	0.700372
824.413	0.278505
827.306	0.192102
830.198	0.339951
833.091	1.04112
835.984	2.04138
838.877	2.90988
841.769	2.97223
844.662	2.1402
847.555	2.51058
850.447	1.47187
853.34	2.14442
856.233	2.34522
859.125	2.07789
862.018	4.15159
864.911	6.61077
867.804	8.45555
870.696	11.8523
873.589	14.4418
876.482	10.4183
879.375	6.89427
882.267	5.43232
885.16	4.03291
888.053	4.54026
890.945	4.65893
893.838	2.57401
896.731	1.76758
899.623	1.57751
902.516	1.02677
905.409	0.08855
908.302	0.025001
911.194	0.181991
914.087	0.877726
916.98	0.14016
919.872	0.079688
922.765	0.085592
925.658	0.062516
928.55	0.257003
931.443	0.315264
934.336	0.081036
937.229	0.091128
940.121	0.169636
943.014	0.572986
945.907	0.122952
948.799	1.06819
951.692	0.655376
954.585	1.93715
957.477	2.02476
960.37	1.94134
963.263	2.77501
966.155	1.36776
969.048	1.61736
971.941	1.53387
974.834	1.2642
977.726	1.06835
980.619	3.03349
983.512	1.617
986.404	2.7496
989.297	2.26656
992.19	1.66353
995.082	1.99934
997.975	1.15709
1000.87	1.4551
1003.76	1.73785
1006.65	2.12623
1009.55	0.754698
1012.44	1.50172
1015.33	1.03974
1018.22	1.7009
1021.12	1.01091
1024.01	1.15176
1026.9	1.80064
1029.8	1.55622
1032.69	1.74258
1035.58	0.816995
1038.47	0.944838
1041.37	0.780116
1044.26	0.102627
1047.15	1.00392
1050.04	0.441983
1052.94	1.15093
1055.83	0.810192
1058.72	0.505522
1061.62	1.0269
1064.51	0.250613
1067.4	0.129449
1070.29	0.469044
1073.18	0.20718
1076.08	0.978685
1078.97	0.470757
1081.86	0.983489
1084.76	0.91172
1087.65	1.75288
1090.54	1.506
1093.43	1.46979
1096.33	0.944835
1099.22	2.29758
1102.11	0.357586
1105.01	2.20078
1107.9	1.77045
1110.79	1.56682
1113.68	1.33334
1116.58	1.51956
1119.47	1.06126
1122.36	1.2356
1125.25	0.881586
1128.15	0.357711
1131.04	0.436574
1133.93	1.91252
1136.83	0.886344
1139.72	1.96496
1142.61	1.34804
1145.5	1.38924
1148.4	2.65097
1151.29	3.30409
1154.18	4.39911
1157.07	6.08132
1159.97	6.35844
1162.86	3.17908
1165.75	1.47843
1168.64	0.10515
1171.54	0.081207
1174.43	1.32623
1177.32	1.23518
1180.21	1.02902
1183.11	0.669414
1186	0.229537
1188.89	0.188487
1191.79	0.100638
1194.68	0.200916
1197.57	1.2974
1200.46	0.127395
1203.36	0.193893
1206.25	0.683921
1209.14	0.799374
1212.04	1.26903
1214.93	0.079268
1217.82	0.896883
1220.71	0.576555
1223.61	0.426832
1226.5	0.360654
1229.39	0.807781
1232.28	0.515306
1235.18	0.677359
1238.07	0.896993
1240.96	0.134637
1243.86	0.241557
1246.75	2.07153
1249.64	0.617469
1252.53	0.098731
1255.42	0.567169
1258.32	1.54072
1261.21	1.09072
1264.1	1.53317
1267	1.85915
1269.89	0.000114
1272.78	1.03457
1275.67	1.46802
1278.57	0.899372
1281.46	1.22555
1284.35	1.3676
1287.24	0.188759
1290.14	0.443017
1293.03	0.181505
1295.92	1.18364
1298.82	1.3849
1301.71	0.843981
