Measurement: Raman, 785 nm, unoriented, Raman Data Processed
Mineral: Polyhalite
Rruff sample: R070209
Ideal chemistry: K_2_Ca_2_Mg(SO_4_)_4_2H_2_O
Locality: West Texas, Texas, USA
Source: Michael Scott
Description: Colorless to brick red massive
Raman shift (cm-1)	intensity
103.663	0
106.556	6.5302
109.449	0.320692
112.341	0.951437
115.234	0.485622
118.127	9.68176
121.019	7.08797
123.912	6.39228
126.805	22.7123
129.697	27.9845
132.59	68.684
135.483	87.6016
138.376	106.478
141.268	100.451
144.161	70.657
147.054	100.979
149.946	132.858
152.839	169.091
155.732	167.329
158.625	133.565
161.517	125.648
164.41	117.135
167.303	118.41
170.195	162.605
173.088	166.811
175.981	106.123
178.873	72.2164
181.766	54.5872
184.659	52.5257
187.552	43.449
190.444	39.0297
193.337	25.2041
196.23	31.1297
199.122	27.4989
202.015	30.8129
204.908	30.4604
207.8	22.4643
210.693	22.352
213.586	27.3837
216.478	26.6166
219.371	41.9854
222.264	48.3403
225.157	77.1984
228.049	101.228
230.942	105.04
233.835	121.203
236.727	127.891
239.62	129.582
242.513	71.6388
245.405	43.0084
248.298	32.145
251.191	25.1833
254.084	27.4932
256.976	26.8389
259.869	8.4969
262.762	5.86615
265.654	4.7271
268.547	1.98802
271.44	6.89529
274.332	2.88506
277.225	4.11981
280.118	0.395866
283.011	1.95435
285.903	1.20111
288.796	2.46887
291.689	0.201393
294.581	7.78909
297.474	4.71699
300.367	1.82365
303.26	2.41478
306.152	2.8981
309.045	1.24703
311.938	9.33152
314.83	7.7998
317.723	7.41457
320.616	0.986572
323.508	2.36622
326.401	8.99303
329.294	6.6229
332.187	3.26981
335.079	14.4767
337.972	5.47194
340.865	11.2738
343.757	20.294
346.65	19.2393
349.543	17.7097
352.435	23.8225
355.328	25.5847
358.221	28.5486
361.113	33.7542
364.006	34.0234
366.899	49.8744
369.792	55.7478
372.684	45.1331
375.577	45.351
378.47	40.0056
381.362	31.22
384.255	16.522
387.148	4.30712
390.041	0.966309
392.933	4.41765
395.826	3.12681
398.719	2.72946
401.611	0.795425
404.504	0.389549
407.397	1.09528
410.289	4.77006
413.182	5.68752
416.075	0.582626
418.967	5.68727
421.86	18.5876
424.753	16.8635
427.646	34.4665
430.538	42.3436
433.431	72.9365
436.324	130.056
439.216	173.775
442.109	155.536
445.002	184.93
447.894	271.139
450.787	381.168
453.68	407.464
456.573	493.661
459.465	692.418
462.358	1025.71
465.251	1206.59
468.143	1041.35
471.036	685.958
473.929	489.994
476.822	390.675
479.714	308.099
482.607	203.726
485.5	129.292
488.392	84.6589
491.285	72.1632
494.178	58.5192
497.07	43.1534
499.963	42.1181
502.856	30.4159
505.748	32.5248
508.641	24.0917
511.534	23.8851
514.427	21.5033
517.319	21.3239
520.212	9.58474
523.105	16.8676
525.997	10.97
528.89	10.507
531.783	6.08743
534.676	0.169434
537.568	1.01427
540.461	5.08527
543.354	1.79772
546.246	0.169144
549.139	5.55616
552.032	0.103985
554.924	4.16582
557.817	2.41833
560.71	5.47648
563.602	0.563854
566.495	3.35003
569.388	4.48558
572.281	7.49443
575.173	6.15176
578.066	7.41195
580.959	11.3067
583.851	16.5227
586.744	22.0409
589.637	26.4613
592.529	44.6806
595.422	47.0786
598.315	62.2329
601.208	72.4163
604.1	106.888
606.993	130.413
609.886	161.823
612.778	225.689
615.671	321.616
618.564	434.274
621.457	555.992
624.349	601.772
627.242	548.519
630.135	492.134
633.027	412.371
635.92	302.641
638.813	265.338
641.705	258.274
644.598	240.279
647.491	214.126
650.384	206.504
653.276	208.795
656.169	187.901
659.062	128.375
661.954	62.2073
664.847	35.0478
667.74	29.9269
670.632	22.7585
673.525	17.9788
676.418	14.7681
679.311	18.3188
682.203	7.56462
685.096	6.45945
687.989	0.84626
690.881	3.39496
693.774	0.608269
696.667	1.48286
699.559	4.94133
702.452	3.75142
705.345	1.84156
708.237	2.31259
711.13	7.21925
714.023	7.67596
716.916	1.2825
719.808	11.3628
722.701	13.8336
725.594	5.7248
728.486	6.26303
731.379	10.9285
734.272	11.0459
737.164	13.8257
740.057	15.3188
742.95	10.1373
745.843	13.703
748.735	8.72673
751.628	6.00295
754.521	10.7496
757.413	0.002003
760.306	9.69955
763.199	8.03807
766.091	6.29013
768.984	6.67973
771.877	6.17627
774.77	0.798317
777.662	7.63665
780.555	3.28491
783.448	1.65309
786.34	1.59635
789.233	2.1636
792.126	4.86665
795.019	1.47855
797.911	5.89248
800.804	5.73363
803.697	6.42759
806.589	3.96701
809.482	8.90115
812.375	2.53028
815.267	6.90842
818.16	2.10673
821.053	5.41285
823.946	6.67446
826.838	8.02797
829.731	4.60232
832.624	9.21639
835.516	4.88822
838.409	8.30149
841.302	1.79579
844.194	9.10937
847.087	1.02005
849.98	8.89572
852.872	5.31676
855.765	5.08849
858.658	1.71907
861.551	1.70481
864.443	8.24365
867.336	6.03112
870.229	3.09557
873.121	9.06963
876.014	8.47217
878.907	9.28532
881.799	7.8762
884.692	12.0154
887.585	5.57016
890.478	6.96659
893.37	10.3167
896.263	3.8156
899.156	6.06591
902.048	7.77461
904.941	0.986866
907.834	5.40642
910.726	9.73536
913.619	6.98264
916.512	0.735016
919.405	5.27987
922.297	2.99598
925.19	1.67145
928.083	2.76465
930.975	0.724098
933.868	4.49308
936.761	2.72078
939.654	5.40538
942.546	4.49843
945.439	5.26619
948.332	4.11305
951.224	8.45115
954.117	2.19394
957.01	11.2332
959.902	9.9954
962.795	29.2119
965.688	15.2427
968.581	25.1217
971.473	36.715
974.366	56.8841
977.259	129.398
980.151	328.347
983.044	651.38
985.937	1221.43
988.829	2485.86
991.722	2382.46
994.615	950.049
997.508	475.484
1000.4	421.929
1003.29	495.046
1006.19	771.96
1009.08	1343.71
1011.97	2335.76
1014.86	3963.98
1017.76	4667.15
1020.65	2257.88
1023.54	788.476
1026.43	330.162
1029.33	167.191
1032.22	89.9617
1035.11	48.6648
1038.01	21.3643
1040.9	6.42467
1043.79	4.38067
1046.68	3.38484
1049.58	10.4929
1052.47	1.48199
1055.36	4.66429
1058.25	20.4483
1061.15	65.2659
1064.04	131.352
1066.93	218.064
1069.83	344.13
1072.72	376.467
1075.61	273.954
1078.5	179.438
1081.4	135.601
1084.29	127.811
1087.18	144.503
1090.07	158.204
1092.97	168.074
1095.86	175.033
1098.75	125.065
1101.64	77.838
1104.54	35.6509
1107.43	19.2995
1110.32	4.52367
1113.21	6.46024
1116.11	0.612854
1119	17.8796
1121.89	43.391
1124.79	101.143
1127.68	180.527
1130.57	287.61
1133.46	228.848
1136.36	83.5383
1139.25	40.5304
1142.14	25.0626
1145.04	35.778
1147.93	22.682
1150.82	7.70027
1153.71	3.15537
1156.61	10.4708
1159.5	30.1836
1162.39	64.4398
1165.28	122.299
1168.18	79.0552
1171.07	33.0601
1173.96	11.9489
1176.86	7.92042
1179.75	20.6301
1182.64	27.211
1185.53	7.83336
1188.43	3.12893
1191.32	5.96941
1194.21	1.38182
1197.1	0.458084
1200	1.67464
1202.89	2.84621
1205.78	6.70604
1208.67	5.82527
1211.57	6.16364
1214.46	11.9048
1217.35	12.3624
1220.24	1.99439
1223.14	14.0208
1226.03	8.86116
1228.92	3.83588
1231.82	7.64343
