Measurement: Raman, 780 nm, unoriented, Raman Data Processed
Mineral: Polylithionite
Rruff sample: R050132
Ideal chemistry: KLi_2_AlSi_4_O_10_F_2_
Locality: Brown Derby mine, Ohio City, Gunnison County, Colorado, USA
Source: Dave Bunk Minerals
Description: Purple scaly aggregate, polytype 2M1
Measured chemistry: (K_0.90_Rb_0.10_)(Li_0.62_Al_0.38_)_3_(Si_0.93_Al_0.07_)_4_O_10_(F_0.69_(OH)_0.31_)_2_
Raman shift (cm-1)	intensity
150.457	0
153.35	0.019073
156.243	0.486145
159.135	3.26675
162.028	12.8055
164.921	24.0682
167.813	44.2102
170.706	64.4852
173.599	94.1032
176.491	128.009
179.384	149.256
182.277	146.228
185.169	120.043
188.062	93.1589
190.955	77.8739
193.848	84.558
196.74	97.8119
199.633	93.303
202.526	72.0469
205.418	53.3574
208.311	44.1671
211.204	43.0757
214.096	49.2645
216.989	34.2281
219.882	9.57584
222.775	6.27087
225.667	4.54333
228.56	3.26794
231.453	24.4445
234.345	50.0802
237.238	84.6597
240.131	131.748
243.024	197.152
245.916	257.567
248.809	307.629
251.702	370.174
254.594	452.277
257.487	562.348
260.38	697.665
263.272	751.676
266.165	625.483
269.058	423.805
271.95	267.355
274.843	164.927
277.736	102.921
280.629	69.1168
283.521	46.5379
286.414	36.4023
289.307	27.5699
292.199	22.9802
295.092	20.575
297.985	18.6414
300.877	21.2779
303.77	17.5691
306.663	18.2337
309.556	13.2727
312.448	12.1123
315.341	13.2409
318.234	11.846
321.126	13.7811
324.019	12.4526
326.912	14.5265
329.805	9.23367
332.697	6.93295
335.59	0.761719
338.483	2.16036
341.375	3.92134
344.268	9.13109
347.161	2.21425
350.053	3.69038
352.946	2.61769
355.839	8.2359
358.731	22.6139
361.624	30.0518
364.517	42.4258
367.41	53.923
370.302	69.4062
373.195	88.271
376.088	106.797
378.98	128.272
381.873	141.665
384.766	157.003
387.659	168.609
390.551	186.924
393.444	201.216
396.337	219.776
399.229	235.191
402.122	245.656
405.015	238.756
407.907	222.815
410.8	194.529
413.693	162.5
416.586	132.713
419.478	109.181
422.371	90.143
425.264	77.3352
428.156	68.9703
431.049	63.7571
433.942	60.8377
436.834	59.1704
439.727	54.473
442.62	49.2189
445.512	46.6649
448.405	42.6854
451.298	40.6702
454.191	39.1938
457.083	38.7292
459.976	41.5681
462.869	39.6976
465.761	42.5414
468.654	45.0493
471.547	47.9906
474.44	51.6457
477.332	52.0005
480.225	48.4209
483.118	37.9824
486.01	27.0555
488.903	18.2847
491.796	12.5267
494.688	5.54712
497.581	0.909637
500.474	2.68645
503.366	4.64636
506.259	5.14879
509.152	2.86162
512.045	2.54277
514.937	0.499756
517.83	1.16249
520.723	4.6295
523.615	8.80507
526.508	11.7981
529.401	15.5494
532.293	20.6975
535.186	24.2924
538.079	31.649
540.972	39.3711
543.864	46.9385
546.757	56.1746
549.65	66.6101
552.542	76.0805
555.435	85.9666
558.328	89.5693
561.221	88.2581
564.113	86.036
567.006	76.0767
569.899	60.1708
572.791	45.2533
575.684	30.1144
578.577	20.2178
581.469	10.3412
584.362	5.05801
587.255	3.13556
590.148	0.577713
593.04	1.37926
595.933	5.88008
598.826	10.1129
601.718	10.952
604.611	18.4605
607.504	20.9373
610.396	25.3879
613.289	30.5373
616.182	32.5025
619.074	34.3983
621.967	35.1564
624.86	38.9393
627.753	39.0861
630.645	35.3255
633.538	32.4819
636.431	29.3422
639.323	19.0336
642.216	10.4743
645.109	1.78413
648.001	2.5623
650.894	5.55124
653.787	6.44521
656.68	3.06506
659.572	0.283096
662.465	6.16258
665.358	10.1323
668.25	15.2464
671.143	26.7585
674.036	38.2271
676.928	53.7729
679.821	78.1001
682.714	112.559
685.607	148.328
688.499	206.068
691.392	278.609
694.285	373.118
697.177	481.906
700.07	600.839
702.963	722.036
705.856	854.084
708.748	957.829
711.641	950.001
714.534	757.582
717.426	509.967
720.319	321.444
723.212	206.76
726.104	137.923
728.997	94.4849
731.89	71.9644
734.783	56.5632
737.675	53.887
740.568	56.6384
743.461	62.9693
746.353	69.4524
749.246	72.1274
752.139	72.2643
755.031	64.3129
757.924	56.8551
760.817	46.5676
763.71	37.2514
766.602	27.6709
769.495	17.9179
772.388	15.891
775.28	13.0091
778.173	10.3864
781.066	12.719
783.958	12.4455
786.851	12.3705
789.744	11.4566
792.636	8.63611
795.529	6.33021
798.422	3.4519
801.315	0.193916
804.207	1.12969
807.1	1.22657
809.993	2.36155
812.885	1.9051
815.778	3.16989
818.671	2.75488
821.563	0.859573
824.456	0.615547
827.349	0.163429
830.242	0.710106
833.134	2.1422
836.027	2.87847
838.92	5.61974
841.812	4.44119
844.705	4.84452
847.598	4.65612
850.49	5.94951
853.383	6.78848
856.276	5.04557
859.169	6.13672
862.061	4.49784
864.954	7.13268
867.847	4.80641
870.739	6.01479
873.632	3.72376
876.525	1.31136
879.418	1.26581
882.31	2.19923
885.203	1.31199
888.096	3.03303
890.988	2.69891
893.881	6.13201
896.774	7.5351
899.666	10.9051
902.559	16.4836
905.452	22.421
908.345	26.3704
911.237	31.0837
914.13	32.7049
917.023	30.9123
919.915	26.2336
922.808	22.6261
925.701	16.8602
928.593	12.78
931.486	12.3278
934.379	9.97838
937.271	9.86179
940.164	10.3445
943.057	12.7411
945.95	15.5877
948.842	16.3775
951.735	21.226
954.628	20.5293
957.52	19.4087
960.413	15.2667
963.306	12.9796
966.198	6.90062
969.091	2.72157
971.984	2.499
974.877	1.06709
977.769	0.62188
980.662	0.341644
983.555	1.12015
986.447	2.17505
989.34	0.55954
992.233	0.001038
995.125	0.415184
998.018	2.65588
1000.91	0.299408
1003.8	1.77693
1006.7	2.56635
1009.59	3.78723
1012.48	1.92425
1015.37	3.47086
1018.27	2.92036
1021.16	3.11047
1024.05	1.69693
1026.94	1.17206
1029.84	1.04449
1032.73	0.979858
1035.62	0.04966
1038.52	0.189323
1041.41	0.835197
1044.3	0.280823
1047.19	3.21145
1050.09	4.98934
1052.98	8.17116
1055.87	8.73672
1058.77	10.7902
1061.66	11.643
1064.55	15.0773
1067.44	18.8015
1070.34	19.8769
1073.23	23.0989
1076.12	28.0642
1079.01	31.8388
1081.91	37.4149
1084.8	38.2978
1087.69	40.4922
1090.59	40.3605
1093.48	42.0994
1096.37	41.8152
1099.26	43.9124
1102.15	43.8958
1105.05	46.836
1107.94	50.1335
1110.83	50.3259
1113.73	50.4727
1116.62	47.5516
1119.51	45.9672
1122.4	39.6641
1125.3	36.2122
1128.19	31.687
1131.08	26.3599
1133.97	20.3919
1136.87	16.4612
1139.76	11.8433
1142.65	7.41618
1145.55	4.53134
1148.44	3.18983
1151.33	0.767433
1154.22	0.966858
1157.12	0.06385
1160.01	0.664505
1162.9	0.401962
1165.8	0.218864
1168.69	0.195328
1171.58	0.65287
1174.47	0.897903
1177.37	0.092194
1180.26	0.139
1183.15	0.199173
1186.04	0.288582
1188.94	1.09802
1191.83	2.64614
1194.72	0.844269
1197.62	2.56839
1200.51	1.53151
1203.4	1.24629
1206.29	2.45085
1209.18	1.70901
1212.08	2.01025
1214.97	2.13852
1217.86	2.02344
1220.76	2.76068
1223.65	0.83427
1226.54	1.0175
1229.43	1.89558
1232.33	1.88155
1235.22	2.88837
1238.11	2.15483
1241.01	1.52365
1243.9	0.170998
1246.79	1.18439
1249.68	1.25699
1252.58	0.696579
1255.47	1.55398
1258.36	1.85126
1261.25	1.38483
1264.15	0.680641
1267.04	2.58266
1269.93	2.35437
1272.83	0.842506
1275.72	0.861893
1278.61	1.64185
1281.5	0.065582
1284.4	2.23803
