Measurement: Raman, 532 nm, unoriented, Raman Data Processed
Mineral: Polylithionite
Rruff sample: R060172
Ideal chemistry: KLi_2_AlSi_4_O_10_F_2_
Locality: Mont Saint-Hilaire, Quebec, Canada
Source: Guy Ouellet
Description: Pseudohexagonal micaceous crystals with small white natrolite, red rhodochrosite and white albite
Measured chemistry: (K_0.98_Na_0.02_)Li_2.00_(Al_0.84_Ti_0.10_Mg_0.04_Mn_0.02_)(Si_0.99_Al_0.01_)_4_O_10_(F_0.82_(OH)_0.18_)_2_
Raman shift (cm-1)	intensity
140.404	0
143.779	0.29961
147.154	5.80415
150.528	13.3116
153.903	16.8165
157.278	20.3741
160.653	26.94
164.028	34.5303
167.403	41.3299
170.777	45.9639
174.152	54.4143
177.527	62.2776
180.902	48.9188
184.277	27.215
187.651	15.6737
191.026	11.0791
194.401	7.46618
197.776	4.90233
201.151	2.08386
204.525	1.44832
207.9	1.01811
211.275	0.970024
214.65	1.55488
218.025	0.056366
221.4	0.424576
224.774	5.5956
228.149	9.50577
231.524	16.0813
234.899	24.498
238.274	35.2933
241.649	52.3147
245.023	68.1887
248.398	49.1162
251.773	28.1722
255.148	20.4934
258.523	22.16
261.897	24.6781
265.272	29.8577
268.647	28.4459
272.022	22.9106
275.397	18.3762
278.772	17.9432
282.146	17.5535
285.521	19.9574
288.896	21.8241
292.271	25.9921
295.646	26.4544
299.021	27.6171
302.395	27.5088
305.77	28.9414
309.145	29.9397
312.52	24.0893
315.895	18.477
319.269	13.8404
322.644	12.1219
326.019	9.00795
329.394	5.41671
332.769	3.86034
336.144	2.65547
339.518	2.29994
342.893	0.908333
346.268	1.73348
349.643	3.61701
353.018	4.37878
356.392	6.87364
359.767	8.41811
363.142	5.48487
366.517	2.59415
369.892	1.01857
373.267	0.635056
376.641	1.65734
380.016	0.983185
383.391	1.74303
386.766	5.09215
390.141	10.9425
393.515	19.0492
396.89	29.2657
400.265	43.6572
403.64	61.0092
407.015	70.3954
410.39	68.7848
413.764	60.3348
417.139	47.8099
420.514	33.4491
423.889	19.7942
427.264	9.00734
430.639	4.04756
434.013	1.23476
437.388	0.386124
440.763	1.47428
444.138	3.84413
447.513	6.21207
450.887	5.05093
454.262	0.456238
457.637	1.89368
461.012	5.56984
464.387	11.3858
467.762	19.6084
471.136	24.5395
474.511	16.2281
477.886	4.28803
481.261	1.5201
484.636	1.67602
488.01	0.698738
491.385	0.653595
494.76	0.711311
498.135	1.32919
501.51	1.04965
504.885	2.79614
508.259	4.56659
511.634	6.16349
515.009	9.75183
518.384	13.667
521.759	17.1629
525.134	21.9125
528.508	26.8172
531.883	36.256
535.258	46.9539
538.633	62.9264
542.008	82.0668
545.382	104.07
548.757	124.211
552.132	123.672
555.507	90.0287
558.882	56.1724
562.256	36.2025
565.631	24.7895
569.006	20.148
572.381	16.7026
575.756	14.9242
579.131	13.2893
582.505	12.8964
585.88	12.3419
589.255	10.6465
592.63	10.4319
596.005	8.55193
599.38	8.39989
602.754	5.85685
606.129	4.90814
609.504	3.30488
612.879	1.59415
616.254	1.6487
619.629	0.683739
623.003	0.516449
626.378	0.393101
629.753	0.928936
633.128	1.29546
636.503	0.488728
639.877	0.396835
643.252	0.078522
646.627	0.030354
650.002	0.035759
653.377	0.232563
656.751	1.06585
660.126	2.49498
663.501	3.6866
666.876	5.97728
670.251	8.73463
673.626	10.8939
677	13.1362
680.375	17.4554
683.75	21.7626
687.125	29.9872
690.5	38.3188
693.875	54.4145
697.249	86.0017
700.624	143.089
703.999	217.416
707.374	310.567
710.749	425.451
714.124	470.869
717.498	325.33
720.873	155.007
724.248	78.0332
727.623	41.3413
730.998	23.4783
734.372	12.7843
737.747	6.24822
741.122	2.10596
744.497	0.080276
747.872	1.10531
751.246	1.71391
754.621	0.281776
757.996	5.0659
761.371	9.72229
764.746	15.8621
768.121	17.9359
771.495	19.9569
774.87	25.1716
778.245	32.8569
781.62	31.3026
784.995	22.104
788.37	14.6625
791.744	8.2988
795.119	4.23875
798.494	1.7889
801.869	2.81557
805.244	3.04055
808.619	3.15649
811.993	4.40939
815.368	6.68113
818.743	6.91547
822.118	7.77397
825.493	5.75946
828.867	4.26755
832.242	2.84471
835.617	2.93281
838.992	4.25807
842.367	4.57536
845.741	0.503975
849.116	0.600014
852.491	6.14962
855.866	19.4757
859.241	45.6736
862.616	85.4353
865.99	137.522
869.365	193.782
872.74	199.239
876.115	130.561
879.49	73.1937
882.865	51.6833
886.239	45.1193
889.614	36.9529
892.989	24.9391
896.364	14.412
899.739	7.16853
903.114	2.97713
906.488	0.276688
909.863	0.863117
913.238	0.69883
916.613	0.576332
919.988	0.352654
923.362	0.666687
926.737	0.802837
930.112	1.00067
933.487	2.16961
936.862	2.80303
940.236	2.38478
943.611	3.8377
946.986	4.5986
950.361	5.02188
953.736	5.2686
957.111	7.52399
960.486	8.85774
963.86	9.03933
967.235	9.53143
970.61	11.656
973.985	12.1127
977.36	12.5621
980.734	10.6378
984.109	10.2611
987.484	9.09355
990.859	7.06907
994.234	6.86041
997.609	7.13913
1000.98	7.3637
1004.36	5.90981
1007.73	5.0679
1011.11	4.8031
1014.48	3.7977
1017.86	3.20335
1021.23	2.79045
1024.61	3.05287
1027.98	1.60614
1031.36	2.0691
1034.73	0.983704
1038.11	1.15607
1041.48	0.516846
1044.86	0.30405
1048.23	0.516155
1051.61	0.11581
1054.98	1.31962
1058.36	0.927254
1061.73	1.50464
1065.11	1.89212
1068.48	2.56608
1071.85	2.26887
1075.23	2.90131
1078.6	4.05388
1081.98	5.16558
1085.35	4.96866
1088.73	5.56015
1092.1	3.59564
1095.48	2.50138
1098.85	2.39854
1102.23	1.30987
1105.6	0.047623
1108.98	0.680393
1112.35	0.449902
1115.73	1.21872
1119.1	0.111412
1122.48	0.033508
1125.85	1.08096
1129.23	0.459202
1132.6	0.59024
1135.98	0.999336
1139.35	0.628666
1142.73	2.95992
1146.1	3.99872
1149.47	7.23957
1152.85	9.25012
1156.22	9.73208
1159.6	5.40339
1162.97	1.97845
1166.35	0.75433
1169.72	0.111626
1173.1	0.789158
1176.47	0.789265
1179.85	1.11052
1183.22	0.159332
1186.6	1.31213
1189.97	0.854572
1193.35	0.732754
1196.72	1.13544
1200.1	1.03972
1203.47	1.03511
1206.85	0.428841
1210.22	0.19149
1213.6	0.215137
1216.97	1.24864
1220.35	1.13912
1223.72	0.81041
1227.1	0.879753
1230.47	0.58614
1233.85	0.186844
1237.22	1.01988
1240.6	0.082256
1243.97	0.328403
1247.35	1.59998
1250.72	1.38494
1254.1	1.13029
1257.47	1.26247
1260.84	0.465931
1264.22	1.54018
1267.59	1.1685
1270.97	0.880627
1274.34	0.739094
1277.72	0.831615
1281.09	0.845684
1284.47	0.555511
1287.84	3.70015
1291.22	1.24374
1294.59	1.27624
1297.97	0.576
1301.34	0.253746
