Measurement: Raman, 532 nm, unoriented, Raman Data Processed
Mineral: Polylithionite
Rruff sample: R060215
Ideal chemistry: KLi_2_AlSi_4_O_10_F_2_
Locality: Mont Saint-Hilaire, Rouville County, Quebec, Canada
Source: Royal Ontario Museum
Description: Tan to colorless micaceous fragment
Measured chemistry: (K_0.99_Na_0.01_)Li_2.00_(Al_0.88_Ti_0.06_Mg_0.06_)Si_4.00_O_10_(F_0.89_(OH)_0.11_)_2_
Raman shift (cm-1)	intensity
138.843	0
142.218	0.632767
145.593	7.65802
148.968	22.7713
152.343	44.9323
155.718	63.7993
159.092	76.4527
162.467	106.663
165.842	142.042
169.217	181.984
172.592	218.731
175.966	276.815
179.341	291.09
182.716	194.571
186.091	101.07
189.466	61.0311
192.84	38.8935
196.215	24.2603
199.59	15.1959
202.965	4.32642
206.34	1.65115
209.715	2.929
213.089	4.22913
216.464	3.92448
219.839	2.37855
223.214	3.98952
226.589	11.5847
229.964	26.4851
233.338	44.3812
236.713	68.1969
240.088	108.127
243.463	176.406
246.838	229.429
250.212	169.493
253.587	102.737
256.962	69.0312
260.337	60.3918
263.712	62.0313
267.086	66.8904
270.461	66.1252
273.836	51.1542
277.211	36.8096
280.586	35.3031
283.961	35.7348
287.335	44.8392
290.71	58.7479
294.085	75.744
297.46	86.2792
300.835	86.84
304.209	88.873
307.584	92.9834
310.959	86.2854
314.334	74.1432
317.709	56.2401
321.084	42.0754
324.458	34.2704
327.833	22.0692
331.208	15.2043
334.583	10.5592
337.958	10.3854
341.332	12.6696
344.707	12.6225
348.082	11.3417
351.457	7.86159
354.832	9.90843
358.207	14.8642
361.581	22.4251
364.956	18.4874
368.331	7.98827
371.706	0.686935
375.08	5.20752
378.455	4.14017
381.83	1.57837
385.205	6.50613
388.58	20.3824
391.955	42.9207
395.329	69.9378
398.704	111.877
402.079	167.04
405.454	230.467
408.829	275.542
412.204	279.437
415.578	241.27
418.953	192.676
422.328	137.016
425.703	84.9566
429.078	44.3311
432.452	18.3037
435.827	5.57089
439.202	2.10953
442.577	2.54942
445.952	2.86894
449.327	9.23595
452.701	11.5597
456.076	6.54224
459.451	11.4005
462.826	24.0182
466.201	47.2086
469.575	78.5304
472.95	87.9037
476.325	53.3727
479.7	21.0821
483.075	10.1317
486.45	8.49786
489.824	6.94496
493.199	1.85916
496.574	0.872742
499.949	2.99396
503.324	1.38876
506.698	3.83746
510.073	7.89148
513.448	16.5311
516.823	24.3538
520.198	40.4592
523.572	54.7687
526.947	73.8095
530.322	96.9677
533.697	131.789
537.072	183.946
540.447	256.075
543.821	354.503
547.196	461.99
550.571	537.616
553.946	493.538
557.321	345.339
560.695	219.11
564.07	147.266
567.445	109.418
570.82	87.3182
574.195	77.4454
577.569	71.9458
580.944	69.8314
584.319	64.5574
587.694	59.0642
591.069	51.4915
594.443	44.7351
597.818	37.1917
601.193	30.3907
604.568	26.7792
607.943	18.8697
611.318	13.7226
614.692	10.4917
618.067	5.62524
621.442	2.69119
624.817	1.99808
628.192	0.708588
631.567	1.8738
634.941	0.790085
638.316	2.02132
641.691	1.09677
645.066	0.233856
648.441	2.50908
651.815	0.214462
655.19	1.91353
658.565	4.9885
661.94	8.28616
665.315	14.5663
668.689	20.6063
672.064	31.1351
675.439	40.0961
678.814	54.0095
682.189	69.536
685.564	91.4711
688.938	125.313
692.313	174.209
695.688	253.449
699.063	393.244
702.438	638.977
705.812	980.607
709.187	1463.74
712.562	2010.65
715.937	2066.11
719.312	1250.67
722.687	599.505
726.061	313.659
729.436	181.201
732.811	106.543
736.186	61.5613
739.561	32.4443
742.936	15.1132
746.31	2.34683
749.685	2.52792
753.06	1.53149
756.435	6.86377
759.81	24.5326
763.184	49.9726
766.559	72.7798
769.934	76.6555
773.309	99.6858
776.684	130.298
780.058	136.465
783.433	100.274
786.808	61.2171
790.183	30.3982
793.558	15.8837
796.933	6.24564
800.307	3.54926
803.682	1.4005
807.057	0.344818
810.432	2.49222
813.807	3.06351
817.181	6.62271
820.556	16.652
823.931	14.7393
827.306	18.7883
830.681	56.0519
834.056	107.636
837.43	222.937
840.805	398.249
844.18	317.992
847.555	88.3875
850.93	64.8759
854.304	98.6222
857.679	174.456
861.054	326.872
864.429	582.664
867.804	939.959
871.178	1197.64
874.553	1058
877.928	627.814
881.303	309.66
884.678	170.327
888.053	123.854
891.427	94.376
894.802	61.9333
898.177	33.6027
901.552	17.1266
904.927	6.28879
908.302	1.96561
911.676	0.334625
915.051	0.62674
918.426	2.21324
921.801	0.677719
925.176	1.17563
928.55	2.29553
931.925	1.4919
935.3	2.94356
938.675	3.53473
942.05	5.40953
945.424	7.1669
948.799	10.6093
952.174	13.7749
955.549	20.6441
958.924	25.6428
962.298	30.4618
965.673	39.7475
969.048	43.505
972.423	50.7394
975.798	53.586
979.173	51.1114
982.547	43.3181
985.922	37.3625
989.297	33.1541
992.672	30.4053
996.047	29.3922
999.421	27.1316
1002.8	23.6902
1006.17	20.5065
1009.55	19.87
1012.92	16.3642
1016.3	13.8342
1019.67	11.3883
1023.04	9.76936
1026.42	8.549
1029.8	4.06009
1033.17	4.21847
1036.54	1.59167
1039.92	0.068298
1043.29	0.164749
1046.67	1.88373
1050.04	0.592499
1053.42	0.12796
1056.79	0.084076
1060.17	0.601624
1063.54	0.91925
1066.92	1.76044
1070.29	3.25232
1073.67	6.09699
1077.04	8.39661
1080.42	9.80023
1083.79	13.4565
1087.17	13.0238
1090.54	10.5072
1093.92	5.75591
1097.29	4.60451
1100.67	2.01909
1104.04	0.148987
1107.42	0.377579
1110.79	0.040359
1114.16	0.503983
1117.54	0.147705
1120.91	1.56609
1124.29	1.05336
1127.66	0.413361
1131.04	2.18085
1134.41	3.32843
1137.79	5.53035
1141.16	9.08153
1144.54	14.7911
1147.91	25.9049
1151.29	40.4646
1154.66	55.1305
1158.04	50.1304
1161.41	28.921
1164.79	11.6873
1168.16	6.10262
1171.54	4.09064
1174.91	2.62773
1178.29	1.80144
1181.66	2.24141
1185.04	1.4122
1188.41	0.539536
1191.79	1.41155
1195.16	1.09866
1198.54	1.36426
1201.91	0.04863
1205.29	1.61745
1208.66	1.27537
1212.04	0.707657
1215.41	1.66075
1218.79	0.241333
1222.16	1.08728
1225.53	2.46382
1228.91	1.28465
1232.28	1.55054
1235.66	0.766434
1239.03	1.85438
1242.41	2.27312
1245.78	1.80093
1249.16	1.95198
1252.53	2.95619
1255.91	1.35075
1259.28	2.5824
1262.66	1.76251
1266.03	2.63271
1269.41	2.24092
1272.78	1.80234
1276.16	1.74941
1279.53	2.3338
1282.91	1.84453
1286.28	2.2834
1289.66	1.24455
1293.03	1.56679
1296.4	1.14247
1299.78	0.294846
1303.15	0.600555
