Measurement: Raman, 532 nm, unoriented, Raman Data Processed
Mineral: Polylithionite
Rruff sample: R050132
Ideal chemistry: KLi_2_AlSi_4_O_10_F_2_
Locality: Brown Derby mine, Ohio City, Gunnison County, Colorado, USA
Source: Dave Bunk Minerals
Description: Purple scaly aggregate, polytype 2M1
Measured chemistry: (K_0.90_Rb_0.10_)(Li_0.62_Al_0.38_)_3_(Si_0.93_Al_0.07_)_4_O_10_(F_0.69_(OH)_0.31_)_2_
Raman shift (cm-1)	intensity
144.507	0
147.882	0.167786
151.257	1.49768
154.631	0.78949
158.006	1.4505
161.381	20.4334
164.756	50.2726
168.131	96.7706
171.506	156.582
174.88	219.622
178.255	284.839
181.63	317.86
185.005	271.288
188.38	212.022
191.754	185.308
195.129	203.071
198.504	229.762
201.879	207.019
205.254	142.704
208.629	108.424
212.003	117.66
215.378	120.519
218.753	73.1159
222.128	5.76611
225.503	15.4471
228.877	3.23669
232.252	23.1728
235.627	64.5043
239.002	120.379
242.377	210.673
245.751	315.535
249.126	422.215
252.501	527.355
255.876	717.218
259.251	996.737
262.626	1244.18
266	1148.71
269.375	776.911
272.75	451.318
276.125	259.41
279.5	159.753
282.875	104.837
286.249	78.3888
289.624	69.9318
292.999	68.9601
296.374	72.5524
299.748	67.6072
303.123	66.1569
306.498	56.4584
309.873	53.0014
313.248	48.082
316.623	40.6499
319.997	39.8241
323.372	33.9182
326.747	25.4027
330.122	20.5546
333.497	15.9079
336.872	4.46612
340.246	6.58826
343.621	9.48791
346.996	9.68768
350.371	7.34863
353.746	4.3363
357.12	13.3287
360.495	36.2145
363.87	53.63
367.245	78.7537
370.62	106.058
373.995	139.899
377.369	178.074
380.744	210.596
384.119	241.427
387.494	278.08
390.869	326.107
394.243	385.551
397.618	441.812
400.993	494.416
404.368	516.881
407.743	500.558
411.118	447.271
414.492	367.528
417.867	287.878
421.242	223.553
424.617	185.658
427.991	158.268
431.366	156.924
434.741	156.057
438.116	160.422
441.491	157.506
444.866	152.025
448.24	145.606
451.615	139.882
454.99	125.834
458.365	118.281
461.74	109.52
465.115	105.611
468.489	103.242
471.864	112.428
475.239	118.126
478.614	119.203
481.989	94.8682
485.363	67.2306
488.738	40.283
492.113	27.9494
495.488	6.3551
498.863	2.47784
502.238	6.8725
505.612	12.3845
508.987	9.41376
512.362	4.86261
515.737	2.79266
519.112	12.1455
522.486	22.0829
525.861	26.4291
529.236	43.7158
532.611	55.0119
535.986	69.4365
539.361	92.8505
542.735	112.888
546.11	136.552
549.485	169.369
552.86	203.635
556.235	231.858
559.609	245.365
562.984	244.774
566.359	218.738
569.734	173.078
573.109	123.675
576.484	78.9771
579.858	51.3893
583.233	27.4054
586.608	11.8696
589.983	6.74744
593.357	1.87457
596.732	5.44147
600.107	16.6683
603.482	26.3957
606.857	37.4987
610.232	43.4474
613.606	52.7678
616.981	62.5733
620.356	65.7814
623.731	69.6343
627.106	71.4037
630.481	73.8976
633.855	67.386
637.23	51.2414
640.605	32.2266
643.98	15.7245
647.355	7.45593
650.729	12.2451
654.104	11.0225
657.479	7.81158
660.854	2.93811
664.229	10.1368
667.604	17.8634
670.978	33.1757
674.353	60.5612
677.728	100.274
681.103	158.971
684.478	233.124
687.852	342.748
691.227	493.207
694.602	707.303
697.977	987.684
701.352	1337.69
704.726	1732.44
708.101	2128.97
711.476	2314.04
714.851	1930.02
718.226	1235.01
721.601	717.585
724.975	428.784
728.35	264.553
731.725	174.892
735.1	128.258
738.475	118.137
741.849	133.344
745.224	152.813
748.599	178.871
751.974	194.535
755.349	192.99
758.723	168.502
762.098	136.704
765.473	105.972
768.848	77.707
772.223	59.7496
775.598	49.0482
778.972	46.1038
782.347	47.3307
785.722	53.1039
789.097	59.488
792.472	52.2197
795.846	37.5695
799.221	20.8422
802.596	12.7315
805.971	5.15851
809.346	2.43951
812.721	4.12714
816.095	6.20001
819.47	7.16327
822.845	7.82678
826.22	3.37524
829.595	2.63403
832.97	2.74146
836.344	1.99445
839.719	5.24152
843.094	2.39703
846.469	5.16077
849.844	6.86047
853.218	10.4222
856.593	7.61468
859.968	6.3399
863.343	8.45477
866.718	8.60437
870.092	4.5473
873.467	5.45172
876.842	5.01898
880.217	3.73462
883.592	2.17145
886.967	3.18878
890.341	0.527588
893.716	6.50836
897.091	13.0041
900.466	24.6783
903.841	42.563
907.216	52.6755
910.59	69.6008
913.965	76.8684
917.34	80.0637
920.715	68.2956
924.09	50.4376
927.464	36.5446
930.839	26.7988
934.214	26.1984
937.589	23.9239
940.964	24.2861
944.338	26.8791
947.713	40.7084
951.088	46.4359
954.463	57.7287
957.838	58.0646
961.212	48.5971
964.587	30.9296
967.962	16.4835
971.337	12.9206
974.712	1.22028
978.087	0.529785
981.461	3.83221
984.836	10.588
988.211	6.58496
991.586	8.03693
994.961	5.5896
998.335	5.69104
1001.71	12.9901
1005.09	9.32947
1008.46	9.56988
1011.84	14.6481
1015.21	16.0327
1018.58	13.3497
1021.96	13.0126
1025.33	13.3374
1028.71	11.5627
1032.08	5.60541
1035.46	3.23047
1038.83	4.74737
1042.21	4.31079
1045.58	3.25366
1048.96	5.88104
1052.33	12.3736
1055.71	17.0573
1059.08	24.3464
1062.46	33.753
1065.83	39.6766
1069.21	49.6442
1072.58	62.207
1075.96	75.5134
1079.33	84.6923
1082.71	97.4181
1086.08	102.252
1089.45	115.504
1092.83	110.986
1096.2	114.292
1099.58	117.424
1102.95	116.686
1106.33	124.912
1109.7	128.909
1113.08	126.796
1116.45	120.483
1119.83	114.85
1123.2	105.692
1126.58	91.871
1129.95	78.1616
1133.33	58.954
1136.7	43.4846
1140.08	30.2094
1143.45	20.3379
1146.83	8.40179
1150.2	3.50867
1153.58	4.71967
1156.95	0.240906
1160.33	2.13263
1163.7	2.02301
1167.08	0.416443
1170.45	1.25513
1173.83	4.30103
1177.2	0.829285
1180.58	2.01605
1183.95	5.46771
1187.33	0.134094
1190.7	3.15973
1194.08	4.67688
1197.45	1.23688
1200.82	7.65424
1204.2	5.97156
1207.57	10.3481
1210.95	8.64771
1214.32	4.6037
1217.7	7.51459
1221.07	12.2776
1224.45	8.40802
1227.82	6.05115
1231.2	5.11633
1234.57	4.78686
1237.95	4.56696
1241.32	7.16125
1244.7	5.20868
1248.07	4.73889
1251.45	7.84387
1254.82	3.48328
1258.2	3.42084
1261.57	5.32575
1264.95	6.33276
1268.32	8.01373
1271.7	0.478271
1275.07	1.92444
1278.44	2.04394
1281.82	5.2937
1285.19	4.56018
1288.57	6.20734
1291.94	4.75513
1295.32	5.04559
1298.69	0.037598
1302.07	2.77881
1305.44	0
