Measurement: Raman, 785 nm, unoriented, Raman Data Processed
Mineral: Portlandite
Rruff sample: R070210
Ideal chemistry: Ca(OH)_2_
Locality: N'Chwaning II mine, Kalahari Manganese Field, northern Cape Province, South Africa
Source: Michael Scott
Description: White flexible platy crystals associated with calcite
Measured chemistry: Ca_1.00_(OH)_2_
Raman shift (cm-1)	intensity
153.321	0
156.214	49.9118
159.107	1.71967
161.999	59.3898
164.892	46.2729
167.785	29.8973
170.677	35.4738
173.57	61.2217
176.463	32.9059
179.356	24.2273
182.248	14.8611
185.141	17.1507
188.034	33.1053
190.926	4.12244
193.819	36.4678
196.712	16.3451
199.604	8.35877
202.497	15.2474
205.39	14.6206
208.282	26.6124
211.175	7.22815
214.068	6.62146
216.961	7.85297
219.853	29.7872
222.746	9.31335
225.639	1.24933
228.531	14.9352
231.424	1.89862
234.317	22.4826
237.209	44.5248
240.102	98.0845
242.995	141.551
245.888	207.01
248.78	307.65
251.673	542.419
254.566	716.302
257.458	353.753
260.351	130.374
263.244	75.8878
266.137	62.8516
269.029	26.2293
271.922	24.2429
274.815	21.4567
277.707	20.1206
280.6	9.79517
283.493	3.73144
286.385	15.8309
289.278	7.85437
292.171	0.083191
295.063	8.02588
297.956	14.9206
300.849	0.548218
303.742	19.6583
306.634	2.75604
309.527	20.001
312.42	20.9998
315.312	18.9025
318.205	18.3713
321.098	29.905
323.99	38.2893
326.883	55.0859
329.776	86.5277
332.669	128.561
335.561	199.059
338.454	301.482
341.347	510.437
344.239	785.78
347.132	1217.38
350.025	1794.08
352.918	2585.85
355.81	3356.48
358.703	3428.83
361.596	2439.25
364.488	1470.75
367.381	866.011
370.274	562.746
373.166	386.175
376.059	273.482
378.952	172.377
381.844	150.51
384.737	99.4347
387.63	72.4388
390.523	69.942
393.415	57.9731
396.308	25.0881
399.201	18.3874
402.093	30.1273
404.986	16.8837
407.879	8.41193
410.772	14.0632
413.664	18.6493
416.557	11.7728
419.45	8.87524
422.342	17.6705
425.235	8.45044
428.128	2.92517
431.02	5.29364
433.913	1.13586
436.806	8.23498
439.699	4.8161
442.591	2.4997
445.484	5.07776
448.377	35.5414
451.269	5.53394
454.162	17.4453
457.055	3.93799
459.947	26.9
462.84	14.2155
465.733	22.5998
468.625	29.0822
471.518	37.3373
474.411	20.7628
477.304	40.7191
480.196	40.7927
483.089	37.2818
485.982	51.7728
488.874	44.2603
491.767	33.0787
494.66	34.6428
497.553	40.205
500.445	37.6747
503.338	19.7153
506.231	31.4434
509.123	24.5641
512.016	5.93396
514.909	21.6949
517.802	2.93024
520.694	19.2109
523.587	1.37787
526.48	23.7908
529.372	8.14203
532.265	6.31207
535.158	6.98334
538.05	1.38025
540.943	3.26276
543.836	18.4017
546.729	1.20166
549.621	20.4023
552.514	2.36145
555.407	6.56958
558.299	5.09454
561.192	19.7308
564.085	5.35034
566.977	1.7821
569.87	6.1524
572.763	4.11096
575.655	22.9271
578.548	3.00623
581.441	3.29761
584.333	7.23236
587.226	16.9737
590.119	19.6504
593.012	17.7506
595.904	34.4877
598.797	27.4044
601.69	43.282
604.582	54.6844
607.475	60.7731
610.368	84.2913
613.26	90.3273
616.153	87.8607
619.046	85.7413
621.939	117.575
624.831	132.555
627.724	127.776
630.617	142.644
633.509	176.451
636.402	162.12
639.295	157.454
642.188	178.375
645.08	205.565
647.973	165.644
650.866	189.366
653.758	203.423
656.651	185.543
659.544	226.768
662.436	188.414
665.329	233.968
668.222	218.363
671.115	247.692
674.007	231.038
676.9	250.137
679.793	235.391
682.685	246.622
685.578	223.069
688.471	222.008
691.363	204.795
694.256	158.867
697.149	169.779
700.042	161.285
702.934	150.431
705.827	120.89
708.72	127.062
711.612	71.2737
714.505	85.0565
717.398	56.1012
720.29	53.0298
723.183	34.1235
726.076	30.1183
728.968	12.2734
731.861	20.6797
734.754	9.66449
737.647	2.91553
740.539	11.0082
743.432	5.72522
746.325	2.12872
749.217	2.83899
752.11	0.722107
755.003	9.94537
757.895	4.44183
760.788	17.1677
763.681	15.8669
766.574	22.3153
769.466	18.6821
772.359	0.996399
775.252	4.34778
778.144	31.1918
781.037	34.3718
783.93	38.5971
786.822	44.2499
789.715	48.4973
792.608	29.6534
795.501	23.2646
798.393	19.496
801.286	24.2818
804.179	8.57428
807.071	19.2923
809.964	18.2475
812.857	15.7424
815.75	18.3797
818.642	3.1329
821.535	11.4966
824.428	0.851349
827.32	12.2252
830.213	9.15454
833.106	8.14127
835.998	9.26718
838.891	13.8056
841.784	29.8526
844.677	36.4516
847.569	34.2517
850.462	18.4677
853.355	16.3068
856.247	20.165
859.14	25.0053
862.033	22.9208
864.925	11.8211
867.818	19.3758
870.711	18.7789
873.604	14.8287
876.496	18.4594
879.389	14.0939
882.282	22.2028
885.174	37.6587
888.067	14.635
890.96	7.39612
893.852	4.72729
896.745	22.8011
899.638	7.55719
902.53	8.35837
905.423	3.39935
908.316	28.8683
911.209	25.8044
914.101	8.28857
916.994	37.088
919.887	27.8555
922.779	30.7002
925.672	10.4804
928.565	20.4303
931.457	3.02844
934.35	17.6411
937.243	25.2673
940.136	10.7938
943.028	28.3892
945.921	31.6926
948.814	14.4878
951.706	18.7842
954.599	32.2315
957.492	20.6684
960.385	10.2882
963.277	10.44
966.17	9.94708
969.063	24.3962
971.955	7.29977
974.848	0.359009
977.741	5.37857
980.633	2.06549
983.526	19.877
986.419	8.94601
989.312	9.78696
992.204	9.65247
995.097	7.65521
997.99	27.8176
1000.88	1.672
1003.77	12.2376
1006.67	13.0715
1009.56	16.9191
1012.45	1.68228
1015.35	4.46716
1018.24	1.64905
1021.13	0.406311
1024.02	11.978
1026.92	28.5672
1029.81	4.23968
1032.7	21.9424
1035.6	11.7827
1038.49	29.8501
1041.38	18.2
1044.27	11.1481
1047.17	4.90964
1050.06	7.25607
1052.95	18.0567
1055.84	16.0353
1058.74	22.2426
1061.63	25.928
1064.52	13.0517
1067.41	26.4799
1070.31	20.2066
1073.2	33.2583
1076.09	63.71
1078.98	51.7316
1081.88	72.4081
1084.77	83.5729
1087.66	43.8192
1090.56	49.1896
1093.45	20.7422
1096.34	9.26709
1099.23	10.1371
1102.13	21.4287
1105.02	26.1364
1107.91	13.3955
1110.81	18.3657
1113.7	21.1898
1116.59	17.9225
1119.48	27.7559
1122.38	25.0633
1125.27	10.9737
1128.16	23.4337
1131.05	5.19699
1133.95	18.1994
1136.84	35.1504
1139.73	14.265
1142.62	10.5916
1145.52	11.7075
1148.41	8.36115
1151.3	34.1277
1154.19	9.48914
1157.09	19.0266
1159.98	10.0906
1162.87	10.8286
1165.77	21.2086
1168.66	2.32315
1171.55	31.7516
1174.44	9.18265
1177.34	2.87601
1180.23	26.2442
1183.12	22.7302
1186.02	30.6992
1188.91	21.8517
1191.8	7.97931
1194.69	25.8844
1197.59	6.84189
1200.48	32.8838
1203.37	15.8519
1206.26	3.20966
1209.16	4.52655
1212.05	2.26669
1214.94	32.4724
1217.84	17.5552
1220.73	17.8524
1223.62	5.28406
1226.51	9.18439
1229.41	9.07745
1232.3	0.477386
1235.19	3.35141
