Measurement: Raman, 532 nm, unoriented, Raman Data Processed
Mineral: Portlandite
Rruff sample: R070210
Ideal chemistry: Ca(OH)_2_
Locality: N'Chwaning II mine, Kalahari Manganese Field, northern Cape Province, South Africa
Source: Michael Scott
Description: White flexible platy crystals associated with calcite
Measured chemistry: Ca_1.00_(OH)_2_
Raman shift (cm-1)	intensity
160.268	0
163.161	0.516602
166.054	24.752
168.946	97.5332
171.839	186.912
174.732	180.885
177.625	223.345
180.517	198.26
183.41	158.758
186.303	241.433
189.195	239.125
192.088	286.354
194.981	239.026
197.874	252.482
200.766	275.807
203.659	182.732
206.552	262.722
209.444	230.901
212.337	245.464
215.23	291.486
218.122	215.658
221.015	165.159
223.908	165.832
226.8	148.53
229.693	160.095
232.586	230.922
235.479	197.778
238.371	163.293
241.264	279.965
244.157	330.988
247.049	516.277
249.942	811.175
252.835	1297.11
255.727	1055.4
258.62	445.034
261.513	200.481
264.406	199.06
267.298	116.409
270.191	62.3691
273.084	17.5273
275.976	15.959
278.869	49.1924
281.762	5.58203
284.655	21.4355
287.547	31.8252
290.44	13.3242
293.333	53.0772
296.225	20.6016
299.118	21.2783
302.011	40.9092
304.904	10.9307
307.796	19.4707
310.689	14.6475
313.582	9.66309
316.474	29.9395
319.367	28.1221
322.26	11.6133
325.152	49.2305
328.045	84.7129
330.938	185.826
333.83	158.973
336.723	295.839
339.616	637.743
342.509	1120.56
345.401	1735.26
348.294	2779.26
351.187	4499.74
354.079	6785.12
356.972	8091.48
359.865	6606.17
362.757	4110.41
365.65	2357.14
368.543	1473.24
371.436	926.642
374.328	662.597
377.221	495.655
380.114	337.554
383.006	200.321
385.899	186.775
388.792	144.344
391.685	146.184
394.577	81.9873
397.47	40.1865
400.363	31.667
403.255	98.1914
406.148	91.9502
409.041	44.0381
411.933	29.6973
414.826	103.116
417.719	47.04
420.611	23.4609
423.504	56.3369
426.397	90.1611
429.29	63.0508
432.182	22.748
435.075	85.8877
437.968	69.9258
440.86	192.289
443.753	72.543
446.646	16.9131
449.538	81.4473
452.431	27.4834
455.324	74.3477
458.217	27.7148
461.109	136.123
464.002	135.825
466.895	86.5713
469.787	113.127
472.68	56.1416
475.573	78.3828
478.466	62.7627
481.358	119.389
484.251	48.4228
487.144	112.272
490.036	90.6738
492.929	98.8613
495.822	198.447
498.714	87.1797
501.607	128.411
504.5	72.6514
507.393	156.744
510.285	57.2188
513.178	18.167
516.071	113.446
518.963	78.0635
521.856	40.9258
524.749	62.5752
527.641	60.831
530.534	41.1699
533.427	57.6123
536.32	32.956
539.212	46.1221
542.105	22.6211
544.998	3.81836
547.89	14.0449
550.783	56.6846
553.676	36.6211
556.568	45.7637
559.461	39.4238
562.354	52.3652
565.247	36.1719
568.139	4.58594
571.032	159.324
573.925	17.3926
576.817	75.5449
579.71	53.5156
582.603	87.0527
585.495	105.732
588.388	112.049
591.281	101.906
594.174	11.2227
597.066	188.262
599.959	106.045
602.852	114.127
605.744	185.781
608.637	239.141
611.53	364.676
614.423	320.67
617.315	323.598
620.208	434.711
623.101	411.481
625.993	377.928
628.886	451.815
631.779	434.268
634.671	455.533
637.564	594.027
640.457	595.518
643.35	553.633
646.242	557.893
649.135	544.5
652.028	580.061
654.92	491.07
657.813	609.256
660.706	554.807
663.598	609.346
666.491	628.715
669.384	697.594
672.277	661.408
675.169	621.156
678.062	654.898
680.955	591.574
683.847	625.121
686.74	577.65
689.633	528.068
692.525	576.68
695.418	488.326
698.311	457.166
701.204	405.387
704.096	252.568
706.989	291.988
709.882	270.547
712.774	201.779
715.667	144.342
718.56	193.41
721.452	91.5684
724.345	73.0644
727.238	18.4902
730.131	32.9531
733.023	17.1914
735.916	36.8164
738.809	2.5625
741.701	64.3848
744.594	70.4668
747.487	38.9141
750.38	35.9629
753.272	12.6738
756.165	46.4062
759.058	14.3672
761.95	4.11133
764.843	15.1914
767.736	112.314
770.628	8.01562
773.521	19.7266
776.414	2.58008
779.307	23.6738
782.199	33.248
785.092	13.8555
787.985	205.281
790.877	15.791
793.77	56.3008
796.663	51.0996
799.555	78.959
802.448	105.713
805.341	160.541
808.234	92.0684
811.126	99.5977
814.019	92.6406
816.912	189.606
819.804	76.2207
822.697	65.5488
825.59	133.824
828.482	75.6465
831.375	123.637
834.268	135.812
837.16	4.66211
840.053	79.5
842.946	161.695
845.839	112.352
848.731	79.5039
851.624	46.2891
854.517	51.8594
857.409	167.137
860.302	93.125
863.195	39.9062
866.087	132.525
868.98	46.248
871.873	27.5879
874.766	49.6367
877.658	227.92
880.551	94.1602
883.444	78.5293
886.337	151.07
889.229	93.6309
892.122	142.045
895.015	66.0234
897.907	82.9512
900.8	119.299
903.693	129.816
906.585	127.295
909.478	8.94727
912.371	118.019
915.264	128.34
918.156	20.9844
921.049	75.8398
923.942	86.6445
926.834	79.5723
929.727	49.1387
932.62	100.906
935.512	33.4395
938.405	30.0352
941.298	12.9824
944.191	11.4258
947.083	62.166
949.976	12.3105
952.869	204.467
955.761	80.8984
958.654	46.9102
961.547	77.8164
964.439	107.676
967.332	48.6582
970.225	26.6191
973.117	34.8848
976.01	146.19
978.903	22.2012
981.796	95.0019
984.688	50.6875
987.581	63.7461
990.474	1.51758
993.366	53.1582
996.259	73.5117
999.152	37.9258
1002.04	13.2031
1004.94	38.8945
1007.83	3.45508
1010.72	32.1953
1013.62	8.84375
1016.51	129.283
1019.4	56.3438
1022.29	160.666
1025.19	69.543
1028.08	26.5723
1030.97	18.0957
1033.86	156.766
1036.76	90.4785
1039.65	43.4766
1042.54	17.0605
1045.43	114.939
1048.33	15.5273
1051.22	74.5703
1054.11	21.4434
1057.01	47.9492
1059.9	136.514
1062.79	133.867
1065.68	62.6758
1068.58	32.7441
1071.47	24.9473
1074.36	54.8379
1077.26	206.047
1080.15	57.8086
1083.04	162.129
1085.93	196.312
1088.83	30.7441
1091.72	151.648
1094.61	87.291
1097.5	94.8945
1100.4	99.6172
1103.29	115.248
1106.18	134.668
1109.07	75.4023
1111.97	34.9492
1114.86	123.525
1117.75	70.6856
1120.64	73.9707
1123.54	77.3965
1126.43	127.412
1129.32	21.5996
1132.22	136.674
1135.11	41.4648
1138	83.4356
1140.89	125.781
1143.79	107.234
1146.68	53.543
1149.57	63.002
1152.46	73.8613
1155.36	88.6875
1158.25	4.22266
1161.14	103.531
1164.04	30.7949
1166.93	113.059
1169.82	50.2832
1172.71	19.0605
1175.61	47.1816
1178.5	102.518
1181.39	119.746
1184.29	125.92
1187.18	163.434
1190.07	114.062
1192.96	62.5078
1195.86	15.4219
1198.75	10.4277
1201.64	69.1406
1204.53	146.916
1207.43	133.316
1210.32	170.69
1213.21	148.969
1216.1	37.6504
1219	103.176
1221.89	52.2617
1224.78	29.7012
1227.67	56.6445
1230.57	86.2324
1233.46	186.945
1236.35	111.668
1239.25	120.068
1242.14	183.742
1245.03	13.0723
1247.92	47.1543
1250.82	143.016
1253.71	86.8555
1256.6	124.65
1259.49	96.584
1262.39	94.8086
1265.28	102.795
1268.17	111.223
1271.07	141.269
1273.96	156.225
1276.85	117.463
1279.74	122.035
1282.64	78.8496
1285.53	222.469
1288.42	27.9258
