Measurement: Raman, 532 nm, unoriented, Raman Data Processed
Mineral: Posnjakite
Rruff sample: R110172
Ideal chemistry: Cu_4_SO_4_(OH)_6_H_2_O
Locality: Yellow Rose of Texas mine, Animas District, San Juan County, Colorado, USA
Source: George Stevens
Description: Blocky light blue crystals associated with dark blue linarite
Raman shift (cm-1)	intensity
170.041	0
172.934	21.6484
175.827	74.9103
178.72	117.837
181.612	92.9436
184.505	57.5635
187.398	31.5434
190.29	17.3426
193.183	13.2965
196.076	8.62729
198.968	4.42856
201.861	8.04526
204.754	9.31396
207.647	10.351
210.539	0.040161
213.432	5.34299
216.325	10.1466
219.217	25.5457
222.11	39.915
225.003	61.0378
227.895	90.4173
230.788	142.631
233.681	172.334
236.573	138.524
239.466	114.083
242.359	119.958
245.252	134.871
248.144	149.324
251.037	153.727
253.93	152.081
256.822	146.462
259.715	142.338
262.608	129.134
265.5	111.507
268.393	92.5572
271.286	77.1281
274.179	54.9452
277.071	44.6245
279.964	38.8329
282.857	30.6964
285.75	21.4874
288.642	9.25757
291.535	5.46661
294.428	1.16959
297.32	3.68832
300.213	2.62219
303.106	0.519928
305.998	1.47507
308.891	6.375
311.784	12.9584
314.676	18.7801
317.569	29.7079
320.462	39.9896
323.355	49.8952
326.247	67.7021
329.14	83.5607
332.033	95.4028
334.925	101.606
337.818	91.8697
340.711	76.8832
343.603	54.0241
346.496	33.9945
349.389	23.6206
352.281	17.4378
355.174	12.9598
358.067	10.548
360.96	7.03699
363.852	5.06732
366.745	5.91812
369.638	1.11151
372.53	0.459961
375.423	0.537292
378.316	3.78982
381.209	5.17896
384.101	3.94125
386.994	3.67221
389.887	0.841705
392.779	4.42728
395.672	15.072
398.565	38.3614
401.457	56.9399
404.35	93.2114
407.243	128.072
410.135	170.814
413.028	213.695
415.921	241.5
418.814	265.621
421.706	284.068
424.599	309.552
427.492	351.827
430.384	395.211
433.277	447.362
436.17	514.931
439.062	583.066
441.955	630.971
444.848	619.66
447.741	561.994
450.633	507.345
453.526	442.269
456.419	355.917
459.311	264.883
462.204	203.157
465.097	155.258
467.99	134.966
470.882	112.765
473.775	99.6511
476.668	87.2051
479.56	89.6941
482.453	94.2883
485.346	109.547
488.238	127.972
491.131	157.694
494.024	183.989
496.916	206.097
499.809	225.332
502.702	234.542
505.595	228.252
508.487	210.816
511.38	170.576
514.273	132.597
517.165	96.2777
520.058	65.4693
522.951	44.4526
525.844	27.1846
528.736	14.7786
531.629	6.48871
534.522	2.21957
537.414	0.603088
540.307	3.03157
543.2	5.28427
546.092	6.60996
548.985	1.2878
551.878	3.03593
554.771	0.952057
557.663	2.43324
560.556	0.115845
563.449	0.36235
566.341	4.6627
569.234	5.11978
572.127	6.14612
575.019	12.9304
577.912	18.3639
580.805	22.7141
583.697	30.6404
586.59	42.7902
589.483	56.7499
592.376	79.4624
595.268	98.9837
598.161	117.986
601.054	127.583
603.946	128.468
606.839	127.544
609.732	124.264
612.625	118.629
615.517	107.327
618.41	94.5252
621.303	79.226
624.195	63.2282
627.088	48.9664
629.981	36.3385
632.873	26.1244
635.766	15.4777
638.659	13.79
641.552	9.7048
644.444	6.71585
647.337	3.787
650.23	0.285446
653.122	1.36858
656.015	0.915451
658.908	1.12825
661.8	1.05637
664.693	1.15997
667.586	0.709488
670.479	2.00104
673.371	0.875107
676.264	2.28213
679.157	3.03137
682.049	2.07875
684.942	5.13258
687.835	6.57587
690.727	1.61139
693.62	4.59726
696.513	6.80394
699.405	4.77669
702.298	4.14336
705.191	3.78009
708.084	3.07906
710.976	6.64304
713.869	1.21884
716.762	1.89807
719.654	1.98561
722.547	0.761047
725.44	2.17389
728.332	4.5746
731.225	1.33481
734.118	4.79686
737.011	4.60733
739.903	4.29674
742.796	3.82788
745.689	7.39659
748.581	3.87778
751.474	6.02605
754.367	2.96638
757.26	2.92551
760.152	1.72003
763.045	0.290665
765.938	0.988785
768.83	1.02411
771.723	1.14131
774.616	0.455048
777.508	0.392166
780.401	0.286011
783.294	1.89015
786.187	1.89644
789.079	3.53224
791.972	2.7865
794.865	3.47708
797.757	0.575241
800.65	2.6871
803.543	3.40282
806.435	6.52194
809.328	5.09409
812.221	5.4552
815.114	3.78468
818.006	4.18362
820.899	6.37924
823.792	7.23282
826.684	8.72589
829.577	4.22729
832.47	7.36345
835.362	5.17098
838.255	4.40675
841.148	6.82697
844.04	5.94693
846.933	0.213058
849.826	5.07863
852.719	1.35486
855.611	5.32436
858.504	1.91745
861.397	1.54405
864.289	3.36433
867.182	0.859344
870.075	1.51283
872.967	1.078
875.86	4.19369
878.753	1.49663
881.646	1.02367
884.538	3.04074
887.431	3.54776
890.324	2.48344
893.216	1.75937
896.109	1.68419
899.002	1.78906
901.894	1.42184
904.787	2.87181
907.68	2.14247
910.573	0.458099
913.465	1.82907
916.358	2.15988
919.251	1.26527
922.143	3.81569
925.036	3.46886
927.929	1.37334
930.822	1.91637
933.714	1.57953
936.607	0.224075
939.5	2.60315
942.392	6.78123
945.285	7.88895
948.178	12.9613
951.07	21.8364
953.963	36.6001
956.856	62.9997
959.749	113.797
962.641	202.714
965.534	327.317
968.427	492.008
971.319	681.62
974.212	797.143
977.105	687.443
979.997	481.15
982.89	322.106
985.783	218.628
988.676	159.601
991.568	117.444
994.461	90.3124
997.354	67.1593
1000.25	52.3455
1003.14	38.1937
1006.03	25.8212
1008.92	18.692
1011.82	8.728
1014.71	7.94547
1017.6	1.30255
1020.5	0.401886
1023.39	0.602768
1026.28	2.11832
1029.17	1.52086
1032.07	5.85069
1034.96	12.0968
1037.85	20.4183
1040.74	31.7467
1043.64	47.7077
1046.53	64.842
1049.42	79.2555
1052.32	88.5229
1055.21	83.7413
1058.1	71.1437
1060.99	59.2871
1063.89	43.4745
1066.78	30.4401
1069.67	21.8517
1072.56	17.3644
1075.46	11.4696
1078.35	4.87587
1081.24	0.504517
1084.13	1.38147
1087.03	0.508087
1089.92	2.49152
1092.81	3.17738
1095.7	7.76089
1098.6	12.6037
1101.49	16.6227
1104.38	23.6047
1107.28	27.8302
1110.17	32.4997
1113.06	35.1184
1115.95	32.9094
1118.85	30.7705
1121.74	26.2825
1124.63	22.7738
1127.53	21.9228
1130.42	21.4084
1133.31	21.268
1136.2	28.8485
1139.1	28.6561
1141.99	35.6678
1144.88	38.8895
1147.77	41.5065
1150.67	42.5237
1153.56	41.6515
1156.45	37.0869
1159.35	30.989
1162.24	21.3055
1165.13	15.3222
1168.02	8.2968
1170.92	7.35303
1173.81	6.95055
1176.7	4.2852
1179.59	4.85027
1182.49	1.26794
1185.38	0.291092
1188.27	0.653915
1191.16	0.39064
1194.06	1.00409
1196.95	1.88602
1199.84	0.466492
1202.73	0.02446
1205.63	0.259598
1208.52	0.937347
1211.41	0.150635
1214.31	2.08743
1217.2	2.6515
1220.09	1.66266
1222.98	4.94167
1225.88	7.30627
1228.77	3.14377
1231.66	3.31839
1234.56	2.30495
1237.45	4.20677
1240.34	4.25217
1243.23	0.322647
1246.13	5.01138
1249.02	2.63708
1251.91	2.32434
1254.8	2.70415
1257.7	2.98975
1260.59	2.41876
1263.48	5.51459
1266.38	3.64983
1269.27	3.1152
1272.16	3.44489
1275.05	2.86362
1277.95	0.411911
1280.84	1.47479
1283.73	1.32993
1286.62	2.97508
1289.52	2.23492
1292.41	0.789307
1295.3	2.83424
1298.19	1.66417
1301.09	1.17578
