Measurement: Raman, 780 nm, unoriented, Raman Data Processed
Mineral: Potassium Dihydrogen Phosphate
Rruff sample: R120165
Ideal chemistry: KH_2_PO_4_
Locality: Synthetic, by Alvin Van Valkenburg at the National Bureau of Standards
Source: Eric Van Valkenburg
Description: Colorless transparent prismatic single crystal, also known as KDP (is this archerite???)
Raman shift (cm-1)	intensity
102.77	0
106.145	6.87885
109.52	21.7806
112.895	54.9746
116.27	91.2128
119.644	126.573
123.019	160.256
126.394	163.483
129.769	131.605
133.144	79.3761
136.518	34.6006
139.893	3.53284
143.268	4.73614
146.643	4.3194
150.018	22.9554
153.393	49.8628
156.767	78.6102
160.142	118.639
163.517	155.8
166.892	192.43
170.267	228.216
173.642	260.381
177.016	278.551
180.391	276.63
183.766	252.385
187.141	210.762
190.516	160.332
193.89	109.041
197.265	71.8585
200.64	40.7787
204.015	15.5124
207.39	6.69547
210.764	1.84866
214.139	6.7486
217.514	4.71869
220.889	3.55368
224.264	0.833557
227.638	5.65433
231.013	13.9374
234.388	25.2292
237.763	38.0526
241.138	50.282
244.513	67.3582
247.887	82.3019
251.262	94.001
254.637	104.218
258.012	111.034
261.387	113.829
264.762	107.474
268.136	96.2684
271.511	79.3787
274.886	63.7237
278.261	52.7648
281.635	45.8441
285.01	41.24
288.385	41.6598
291.76	42.9911
295.135	45.4106
298.51	46.0226
301.884	51.6555
305.259	54.849
308.634	63.727
312.009	73.5319
315.384	85.4789
318.759	100.192
322.133	116.854
325.508	137.702
328.883	160.682
332.258	181.356
335.633	197.26
339.007	206.248
342.382	198.812
345.757	180.712
349.132	148.703
352.507	115.361
355.882	87.177
359.256	62.9107
362.631	44.8685
366.006	28.2498
369.381	18.9396
372.755	9.71117
376.13	5.30704
379.505	2.35875
382.88	2.94279
386.255	1.55728
389.63	3.12942
393.004	3.91498
396.379	2.74135
399.754	1.6369
403.129	0.211197
406.504	2.82378
409.878	1.87125
413.253	3.53398
416.628	6.72347
420.003	9.35178
423.378	10.1412
426.753	14.8221
430.127	19.4143
433.502	21.7058
436.877	25.957
440.252	30.1726
443.627	34.2922
447.001	39.6519
450.376	45.9939
453.751	51.6464
457.126	57.6166
460.501	62.1475
463.875	69.0367
467.25	74.54
470.625	78.6006
474	78.501
477.375	73.5454
480.75	65.563
484.124	52.7221
487.499	37.1834
490.874	24.4194
494.249	12.3226
497.624	3.79565
500.998	0.614197
504.373	1.72223
507.748	0.774399
511.123	2.00865
514.498	7.07806
517.873	12.3223
521.247	19.9408
524.622	25.5111
527.997	34.766
531.372	38.6976
534.747	45.6916
538.121	51.89
541.496	57.9684
544.871	63.4074
548.246	69.5264
551.621	73.0043
554.995	78.0797
558.37	82.6099
561.745	84.7902
565.12	87.2556
568.495	87.4062
571.87	86.2583
575.244	79.0825
578.619	70.9319
581.994	61.1327
585.369	48.5054
588.744	38.2553
592.119	28.4441
595.493	20.882
598.868	13.9855
602.243	7.65903
605.618	5.97718
608.993	4.18433
612.367	1.30665
615.742	0.819107
619.117	0.787262
622.492	1.58547
625.867	0.449791
629.241	0.427269
632.616	3.42352
635.991	0.59272
639.366	0.935715
642.741	2.37118
646.115	1.54453
649.49	3.64927
652.865	4.48258
656.24	5.06905
659.615	5.12102
662.99	6.26025
666.364	6.23102
669.739	8.37514
673.114	10.689
676.489	8.06621
679.864	9.11881
683.239	8.57421
686.613	8.50162
689.988	7.50771
693.363	5.53342
696.738	5.74573
700.112	5.79905
703.487	3.8557
706.862	3.55064
710.237	3.16929
713.612	1.32877
716.987	0.730568
720.361	0.376419
723.736	0.439552
727.111	1.25159
730.486	0.82737
733.861	0.173401
737.236	0.325737
740.61	1.0831
743.985	1.64223
747.36	4.34925
750.735	7.55583
754.11	12.1577
757.484	18.3917
760.859	28.0458
764.234	39.3923
767.609	54.4079
770.984	72.0206
774.359	94.201
777.733	114.179
781.108	129.129
784.483	134.272
787.858	130.455
791.232	118.41
794.607	104.483
797.982	88.3655
801.357	75.4975
804.732	65.5793
808.107	54.6022
811.481	47.7333
814.856	38.1248
818.231	31.7309
821.606	26.822
824.981	22.5072
828.356	16.4747
831.73	12.508
835.105	8.40656
838.48	5.10016
841.855	2.8838
845.23	0.449722
848.604	0.998047
851.979	2.47966
855.354	2.7346
858.729	3.45557
862.104	0.287292
865.479	1.87874
868.853	6.56549
872.228	12.9257
875.603	21.2643
878.978	33.885
882.352	49.1499
885.727	69.3191
889.102	98.4065
892.477	133.438
895.852	179.597
899.227	242.085
902.601	322.369
905.976	424.096
909.351	550.888
912.726	689.057
916.101	821.44
919.476	893.153
922.85	860.548
926.225	734.004
929.6	576.167
932.975	428.22
936.35	316.86
939.724	229.415
943.099	171.031
946.474	127.152
949.849	97.0957
953.224	73.6226
956.598	54.9981
959.973	42.8292
963.348	31.1349
966.723	23.1805
970.098	18.7087
973.472	11.9248
976.847	9.24654
980.222	6.73958
983.597	4.2359
986.972	2.6687
990.347	1.72238
993.721	0.596588
997.096	0.081711
1000.47	2.38286
1003.85	0.414291
1007.22	0.868164
1010.6	0.54686
1013.97	0.13475
1017.35	1.34206
1020.72	0.909912
1024.1	0.738754
1027.47	0.757935
1030.84	0.370178
1034.22	0.152313
1037.59	1.8477
1040.97	0.630478
1044.34	0.378998
1047.72	1.0576
1051.09	0.003082
1054.47	1.29729
1057.84	0.329285
1061.22	1.26578
1064.59	1.25855
1067.97	0.597168
1071.34	0.953857
1074.72	0.98288
1078.09	1.29858
1081.47	1.24316
1084.84	3.48756
1088.22	3.5177
1091.59	5.29777
1094.97	6.0346
1098.34	8.9519
1101.71	10.0129
1105.09	11.1624
1108.46	12.3654
1111.84	14.2855
1115.21	16.1505
1118.59	17.6177
1121.96	18.5871
1125.34	19.9672
1128.71	18.8816
1132.09	17.6835
1135.46	17.4194
1138.84	17.2384
1142.21	14.6409
1145.59	12.0205
1148.96	11.4009
1152.34	10.4834
1155.71	7.93178
1159.09	7.11761
1162.46	5.79868
1165.84	2.74802
1169.21	4.25678
1172.59	2.16001
1175.96	1.64175
1179.34	1.35875
1182.71	1.25503
1186.09	1.13047
1189.46	0.920963
1192.84	1.51284
1196.21	0.51812
1199.59	0.244022
1202.96	0.631779
1206.34	0.436096
1209.71	1.01379
1213.08	2.46709
1216.46	0.046207
1219.83	0.585751
1223.21	0.764996
1226.58	0.196369
1229.96	2.76113
1233.33	1.65674
1236.71	1.50766
1240.08	1.04032
1243.46	1.18673
1246.83	0.984577
1250.21	1.21422
1253.58	0.357944
1256.96	1.22475
1260.33	1.253
1263.71	0.860847
1267.08	0.543888
1270.46	1.30152
1273.83	0.165901
1277.21	0.158272
1280.58	1.25098
1283.95	0
