Measurement: Raman, 780 nm, unoriented, Raman Data Processed
Mineral: Potassic-fluoro-richterite
Rruff sample: R060034
Ideal chemistry: K(NaCa)Mg_5_Si_8_O_22_F_2_
Locality: Walgidee, Western Australia, Australia
Source: University of Arizona Mineral Museum
Description: Transparent brown water worn crystal fragment
Measured chemistry: (K_0.98_Na_0.02_)_Σ=1_(Ca_1.10_Na_0.90_)_Σ=2_(Mg_4.69_Fe^2+^_0.30_Mn_0.01_)_Σ=5_(Si_7.50_Ti_0.40_Al_0.10_)_Σ=8_O_22_((F_0.74_(OH)_0.26_)_2_
Raman shift (cm-1)	intensity
95.4169	0
98.7917	7.79004
102.166	2.3291
105.541	7.96729
108.916	44.1069
112.291	29.3398
115.666	41.4497
119.041	30.3911
122.415	1.08594
125.79	4.36475
129.165	0.155762
132.54	3.98877
135.915	9.59326
139.29	29.7895
142.664	61.7315
146.039	88.6372
149.414	96.0542
152.789	106.824
156.163	118.13
159.538	82.8257
162.913	58.1103
166.288	24.2227
169.663	28.1074
173.038	23.3496
176.412	17.1577
179.787	16.0425
183.162	24.5283
186.537	33.584
189.912	23.8115
193.286	40.1245
196.661	51.2832
200.036	67.0742
203.411	77.1392
206.786	94.5972
210.161	109
213.535	135.602
216.91	154.324
220.285	191.671
223.66	235.564
227.035	273.234
230.409	304.392
233.784	302.413
237.159	241.465
240.534	162.226
243.909	110.967
247.284	81.543
250.658	47.7026
254.033	25.7007
257.408	10.2876
260.783	3.51514
264.158	4.21875
267.532	5.00513
270.907	2.69971
274.282	0.019775
277.657	0.845459
281.032	0.378418
284.406	2.33398
287.781	0.641846
291.156	13.0779
294.531	28.1226
297.906	37.8674
301.281	44.03
304.655	55.2419
308.03	61.272
311.405	54.0864
314.78	56.1377
318.155	41.085
321.529	27.927
324.904	3.03272
328.279	8.11499
331.654	1.53833
335.029	10.6223
338.404	9.70459
341.778	15.1335
345.153	19.519
348.528	15.0525
351.903	16.041
355.278	28.1457
358.652	40.3648
362.027	57.3174
365.402	63.1394
368.777	63.063
372.152	55.8472
375.526	53.0168
378.901	48.292
382.276	52.6245
385.651	40.6909
389.026	54.0442
392.401	44.7341
395.775	50.7
399.15	43.2278
402.525	41.4695
405.9	46.6453
409.275	35.7341
412.649	26.8704
416.024	15.2554
419.399	11.593
422.774	22.1575
426.149	9.48511
429.524	25.917
432.898	15.7522
436.273	10.271
439.648	8.34668
443.023	4.03027
446.398	0.777344
449.772	7.53809
453.147	1.15869
456.522	8.73975
459.897	11.2847
463.272	9.91846
466.647	4.84497
470.021	8.08594
473.396	8.54077
476.771	12.5015
480.146	12.3962
483.521	16.4924
486.895	16.2139
490.27	14.8142
493.645	17.7222
497.02	9.79443
500.395	5.41626
503.769	13.6548
507.144	14.8215
510.519	20.7227
513.894	29.2725
517.269	27.1226
520.644	36.144
524.018	33.3738
527.393	29.3613
530.768	27.8733
534.143	28.458
537.518	32.6418
540.892	29.5491
544.267	24.0903
547.642	19.2659
551.017	19.8286
554.392	14.5974
557.766	10.2981
561.141	8.43335
564.516	6.65332
567.891	15.53
571.266	21.8799
574.64	10.8845
578.015	17.6838
581.39	10.2429
584.765	10.6707
588.14	1.76245
591.515	8.64795
594.889	0.731689
598.264	0.894775
601.639	2.40918
605.014	6.35303
608.389	6.56763
611.764	3.40747
615.138	4.76587
618.513	3.50122
621.888	5.55054
625.263	4.41992
628.638	4.74805
632.012	4.38477
635.387	0.962891
638.762	2.55322
642.137	8.62866
645.512	6.84277
648.886	7.1355
652.261	17.3252
655.636	32.2007
659.011	55.5049
662.386	77.7419
665.76	134.14
669.135	206.964
672.51	310.72
675.885	460.435
679.26	637.686
682.635	738.174
686.009	588.237
689.384	338.242
692.759	185.365
696.134	101.092
699.509	52.5686
702.884	31.3284
706.258	23.4827
709.633	21.9346
713.008	14.0007
716.383	11.9207
719.758	14.2434
723.132	16.9434
726.507	9.81006
729.882	10.249
733.257	19.6289
736.632	18.071
740.006	16.2537
743.381	15.7324
746.756	10.8403
750.131	11.2317
753.506	16.5102
756.88	19.6392
760.255	21.2515
763.63	14.971
767.005	14.915
770.38	14.2666
773.755	23.9236
777.129	17.3955
780.504	12.8169
783.879	9.85449
787.254	2.93481
790.629	7.52515
794.003	4.62744
797.378	4.29346
800.753	0.849854
804.128	2.47583
807.503	6.32373
810.878	2.77954
814.252	2.68213
817.627	9.43872
821.002	12.79
824.377	20.6799
827.752	15.9016
831.126	21.4363
834.501	25.6038
837.876	29.2908
841.251	32.2871
844.626	33.0918
848	35.9072
851.375	33.5217
854.75	33.2659
858.125	24.0713
861.5	20.7183
864.875	10.7268
868.249	4.76172
871.624	10.0122
874.999	5.97949
878.374	5.77466
881.749	15.4509
885.123	20.1773
888.498	41.7036
891.873	30.8689
895.248	36.0007
898.623	39.471
901.997	31.5979
905.372	22.1025
908.747	18.3345
912.122	19.4165
915.497	20.9646
918.872	24.0488
922.246	21.4141
925.621	30.0261
928.996	30.5544
932.371	39.2429
935.746	31.1038
939.12	30.8481
942.495	24.7288
945.87	21.6475
949.245	21.8125
952.62	19.2127
955.995	11.9827
959.369	15.0298
962.744	7.03735
966.119	0.760742
969.494	0.845215
972.869	3.89917
976.243	2.27588
979.618	6.98926
982.993	1.63428
986.368	0.125977
989.743	2.14746
993.117	1.68213
996.492	1.73438
999.867	8.03491
1003.24	9.67114
1006.62	10.0708
1009.99	11.3345
1013.37	13.28
1016.74	16.0466
1020.12	16.7715
1023.49	14.4705
1026.87	22.4385
1030.24	23.4817
1033.62	26.8438
1036.99	34.7092
1040.37	32.1384
1043.74	38.3855
1047.12	39.8484
1050.49	44.2754
1053.86	49.6721
1057.24	55.4004
1060.61	63.647
1063.99	77.1497
1067.36	77.1624
1070.74	71.8784
1074.11	71.5317
1077.49	53.9646
1080.86	52.2766
1084.24	48.3057
1087.61	40.5703
1090.99	29.4561
1094.36	10.8401
1097.74	12.2383
1101.11	12.7517
1104.49	5.29956
1107.86	5.35693
1111.24	8.26733
1114.61	4.46753
1117.99	3.89392
1121.36	0.826782
1124.73	0.860352
1128.11	3.05029
1131.48	2.98157
1134.86	3.96484
1138.23	5.29394
1141.61	4.96619
1144.98	1.71509
1148.36	4.90015
1151.73	14.5039
1155.11	19.2023
1158.48	9.73315
1161.86	4.91663
1165.23	9.3739
1168.61	15.376
1171.98	10.7904
1175.36	14.4318
1178.73	14.7468
1182.11	16.2024
1185.48	11.9917
1188.86	9.59924
1192.23	17.1018
1195.61	16.2687
1198.98	26.6437
1202.36	21.8464
1205.73	7.46985
1209.11	14.5967
1212.48	20.6676
1215.86	9.78638
1219.23	4.10815
1222.61	2.19702
1225.98	3.14636
1229.35	8.7135
1232.73	6.06982
1236.1	3.38428
1239.48	1.82959
1242.85	0.213989
1246.23	5.71936
1249.6	0.166992
1252.98	4.17822
1256.35	8.66248
1259.73	10.4448
1263.1	7.15064
1266.48	10.0184
1269.85	8.68872
1273.23	3.72693
1276.6	5.58814
1279.98	8.87646
1283.35	3.1969
