Measurement: Raman, 532 nm, unoriented, Raman Data Processed
Mineral: Potassium Dihydrogen Phosphate
Rruff sample: R120165
Ideal chemistry: KH_2_PO_4_
Locality: Synthetic, by Alvin Van Valkenburg at the National Bureau of Standards
Source: Eric Van Valkenburg
Description: Colorless transparent prismatic single crystal, also known as KDP (is this archerite???)
Raman shift (cm-1)	intensity
188.678	0
191.57	24.4941
194.463	55.6399
197.356	54.6196
200.249	41.6152
203.141	24.6995
206.034	9.10156
208.927	5.15668
211.819	4.55524
214.712	1.35382
217.605	3.11279
220.497	0.196167
223.39	3.51978
226.283	5.53925
229.175	0.663269
232.068	4.18604
234.961	11.4273
237.854	25.0736
240.746	42.3572
243.639	61.8323
246.532	84.9626
249.424	104.104
252.317	120.079
255.21	139.589
258.103	143.382
260.995	139.932
263.888	134.717
266.781	114.505
269.673	93.9225
272.566	73.3087
275.459	59.8607
278.351	48.3444
281.244	41.7652
284.137	35.6239
287.029	40.6065
289.922	43.629
292.815	50.011
295.708	59.3089
298.6	67.9379
301.493	78.6102
304.386	90.8899
307.278	108.22
310.171	133.811
313.064	155.309
315.957	177.871
318.849	201.759
321.742	232.691
324.635	266.954
327.527	306.201
330.42	340.951
333.313	372.1
336.205	393.859
339.098	401.644
341.991	382.881
344.884	347.681
347.776	298.367
350.669	242.783
353.562	190.616
356.454	146.698
359.347	107.391
362.24	76.3945
365.132	53.8719
368.025	35.5811
370.918	20.3221
373.81	8.56641
376.703	8.11951
379.596	1.63232
382.489	4.63733
385.381	6.39111
388.274	7.50201
391.167	1.83606
394.059	2.1983
396.952	3.36212
399.845	7.99536
402.738	8.45941
405.63	16.8247
408.523	18.7298
411.416	26.2443
414.308	34.3741
417.201	41.3965
420.094	46.3437
422.986	55.8272
425.879	65.2875
428.772	82.2452
431.664	87.0676
434.557	96.4471
437.45	105.542
440.343	120.917
443.235	133.34
446.128	142.65
449.021	157.668
451.913	173.073
454.806	187.318
457.699	206.903
460.591	223.892
463.484	239.927
466.377	252.942
469.27	263.655
472.162	269.749
475.055	265.133
477.948	249.515
480.84	224.354
483.733	187.764
486.626	147.3
489.519	107.253
492.411	69.7167
495.304	38.9641
498.197	19.0929
501.089	4.27728
503.982	2.04828
506.875	6.2876
509.767	1.31592
512.66	1.93219
515.553	8.94898
518.446	15.752
521.338	24.6842
524.231	37.0527
527.124	46.9489
530.016	56.6617
532.909	64.9639
535.802	77.3466
538.694	85.1561
541.587	91.6584
544.48	95.6538
547.372	101.316
550.265	106.463
553.158	109.145
556.051	108.608
558.943	108.528
561.836	109.153
564.729	105.037
567.621	102.396
570.514	97.8713
573.407	91.2753
576.299	83.3327
579.192	72.5515
582.085	59.67
584.978	48.9138
587.87	39.3944
590.763	32.8549
593.656	22.6887
596.548	14.0799
599.441	10.0109
602.334	5.70026
605.226	1.21783
608.119	1.49576
611.012	0.8479
613.905	0.661011
616.797	0.030579
619.69	0.496674
622.583	0.199188
625.475	2.90717
628.368	0.968536
631.261	0.874969
634.154	1.00751
637.046	2.02722
639.939	3.66727
642.832	4.66827
645.724	5.45245
648.617	5.65851
651.51	10.0612
654.402	13.2953
657.295	9.1796
660.188	11.6533
663.081	13.0239
665.973	13.8445
668.866	13.3029
671.759	10.8806
674.651	15.0994
677.544	13.7301
680.437	12.4555
683.329	12.1831
686.222	13.3792
689.115	12.8174
692.008	10.6908
694.9	9.98978
697.793	9.93027
700.686	6.78503
703.578	6.05991
706.471	5.08566
709.364	2.07257
712.256	6.41653
715.149	6.41937
718.042	3.42026
720.934	1.68094
723.827	0.01651
726.72	1.58054
729.613	3.4245
732.505	1.7066
735.398	0.680756
738.291	1.50964
741.183	3.03833
744.076	1.07181
746.969	6.73151
749.861	14.1867
752.754	16.7918
755.647	24.3799
758.54	39.0773
761.432	59.3249
764.325	81.5197
767.218	110.985
770.11	147.114
773.003	189.271
775.896	232.49
778.788	271.604
781.681	298.957
784.574	309.824
787.467	310.635
790.359	290.375
793.252	266.033
796.145	238.704
799.037	202.434
801.93	175.631
804.823	150.855
807.716	131.335
810.608	114.522
813.501	98.5127
816.394	82.3356
819.286	69.3106
822.179	62.1104
825.072	49.8294
827.964	38.5557
830.857	29.7879
833.75	19.2833
836.643	15.1113
839.535	13.7192
842.428	5.74414
845.321	0.835266
848.213	1.90192
851.106	7.23914
853.999	4.23389
856.891	2.58063
859.784	5.74701
862.677	2.35529
865.569	2.94708
868.462	13.0281
871.355	26.8876
874.248	37.5529
877.14	55.4268
880.033	79.4066
882.926	112.737
885.818	151.49
888.711	207.768
891.604	271.241
894.496	353.156
897.389	454.639
900.282	585.066
903.175	744.997
906.067	947.972
908.96	1189.02
911.853	1460.18
914.745	1734.18
917.638	1962.77
920.531	2074.71
923.423	1997.09
926.316	1762.74
929.209	1442.99
932.102	1133.24
934.994	873.137
937.887	667.79
940.78	509.032
943.672	389.072
946.565	302.773
949.458	232.31
952.351	180.328
955.243	134.573
958.136	105.172
961.029	85.1347
963.921	67.1891
966.814	52.7829
969.707	42.4518
972.599	31.5961
975.492	22.0374
978.385	15.2521
981.278	11.7219
984.17	7.25421
987.063	5.45355
989.956	3.19232
992.848	1.12744
995.741	2.04468
998.634	5.39832
1001.53	2.15082
1004.42	2.86621
1007.31	1.1286
1010.21	0.236572
1013.1	0.262634
1015.99	0.309326
1018.88	0.6651
1021.77	1.55865
1024.67	3.15576
1027.56	4.70673
1030.45	4.14154
1033.35	2.22174
1036.24	6.53265
1039.13	4.84051
1042.02	3.08026
1044.92	3.6507
1047.81	3.95862
1050.7	4.23383
1053.6	0.372437
1056.49	1.00122
1059.38	2.30859
1062.27	2.16528
1065.17	0.509338
1068.06	0.384094
1070.95	0.539368
1073.84	1.17371
1076.74	0.082153
1079.63	2.17908
1082.52	3.38892
1085.41	3.22522
1088.31	5.20212
1091.2	6.12872
1094.09	6.62042
1096.99	8.1684
1099.88	12.195
1102.77	14.097
1105.66	15.0939
1108.56	18.4564
1111.45	23.5619
1114.34	25.0794
1117.23	26.0841
1120.13	26.0041
1123.02	31.1094
1125.91	28.6981
1128.81	28.3919
1131.7	27.5474
1134.59	28.084
1137.48	26.9922
1140.38	23.5568
1143.27	21.7817
1146.16	20.9919
1149.05	21.4742
1151.95	18.7727
1154.84	12.603
1157.73	9.79636
1160.62	9.30072
1163.52	7.16052
1166.41	8.40335
1169.3	9.40976
1172.2	5.83325
1175.09	4.89584
1177.98	4.80212
1180.87	3.69644
1183.77	4.35071
1186.66	3.45383
1189.55	1.34494
1192.44	1.15726
1195.34	4.26514
1198.23	3.76657
1201.12	3.09695
1204.02	3.18774
1206.91	4.17612
1209.8	4.99087
1212.69	3.76529
1215.59	1.9371
1218.48	2.39886
1221.37	3.71222
1224.26	3.01929
1227.16	2.8215
1230.05	1.13022
1232.94	1.50232
1235.84	1.93411
1238.73	1.01886
1241.62	0.931732
1244.51	0.071442
1247.41	0.261475
1250.3	0.338776
1253.19	0.230225
1256.08	1.48865
1258.98	2.8346
1261.87	3.617
1264.76	5.45975
1267.65	3.83868
1270.55	2.51328
1273.44	3.34549
1276.33	2.84317
1279.23	3.76984
1282.12	4.38351
1285.01	2.70255
1287.9	1.84036
1290.8	2.50479
1293.69	3.46728
1296.58	0.075623
1299.47	1.90802
