Measurement: Raman, 532 nm, unoriented, Raman Data Processed
Mineral: Potassic-fluoro-richterite
Rruff sample: R060034
Ideal chemistry: K(NaCa)Mg_5_Si_8_O_22_F_2_
Locality: Walgidee, Western Australia, Australia
Source: University of Arizona Mineral Museum
Description: Transparent brown water worn crystal fragment
Measured chemistry: (K_0.98_Na_0.02_)_Σ=1_(Ca_1.10_Na_0.90_)_Σ=2_(Mg_4.69_Fe^2+^_0.30_Mn_0.01_)_Σ=5_(Si_7.50_Ti_0.40_Al_0.10_)_Σ=8_O_22_((F_0.74_(OH)_0.26_)_2_
Raman shift (cm-1)	intensity
96.5328	0
99.9077	1.68982
103.282	15.8547
106.657	70.7398
110.032	164.411
113.407	206.271
116.782	247.241
120.157	238.706
123.531	216.406
126.906	206.308
130.281	198.445
133.656	177.251
137.031	166.314
140.405	189.32
143.78	181.632
147.155	178.783
150.53	186.227
153.905	192.737
157.28	166.18
160.654	121.055
164.029	85.8583
167.404	60.1455
170.779	53.4032
174.154	47.4528
177.528	35.6898
180.903	18.4467
184.278	19.0138
187.653	34.147
191.028	26.7566
194.403	34.2602
197.777	39.0911
201.152	52.3601
204.527	64.3506
207.902	71.0276
211.277	91.6289
214.651	126.208
218.026	152.7
221.401	193.19
224.776	238.119
228.151	285.133
231.525	290.631
234.9	249.522
238.275	182.282
241.65	123.473
245.025	76.9514
248.4	37.4133
251.774	11.0041
255.149	2.45117
258.524	2.06201
261.899	1.88428
265.274	7.63306
268.649	6.35693
272.023	4.74585
275.398	6.29102
278.773	2.59253
282.148	4.35303
285.523	0.230469
288.897	8.9895
292.272	18.2803
295.647	24.2498
299.022	25.5427
302.397	31.3823
305.772	49.0212
309.146	54.489
312.521	59.5205
315.896	39.5991
319.271	26.0269
322.646	22.0781
326.02	20.0181
329.395	18.7168
332.77	14.3452
336.145	16.6582
339.52	17.9231
342.894	23.2034
346.269	20.5325
349.644	20.5544
353.019	25.1821
356.394	32.0769
359.769	50.2681
363.143	68.9292
366.518	62.2082
369.893	58.1414
373.268	50.8897
376.643	54.9028
380.017	50.7188
383.392	44.5996
386.767	39.1392
390.142	41.7012
393.517	37.9414
396.892	50.8574
400.266	52.1201
403.641	54.5156
407.016	47.3599
410.391	35.126
413.766	28.53
417.14	33.4841
420.515	36.0037
423.89	26.3945
427.265	26.0117
430.64	25.6006
434.014	9.92651
437.389	10.093
440.764	9.48413
444.139	5.11011
447.514	6.03662
450.889	4.08301
454.263	5.07495
457.638	2.27563
461.013	6.37305
464.388	9.13648
467.763	13.8447
471.137	11.4473
474.512	8.2041
477.887	7.44238
481.262	21.9849
484.637	24.0896
488.012	28.3276
491.386	32.1113
494.761	24.5576
498.136	20.4978
501.511	29.0378
504.886	28.554
508.26	39.8518
511.635	48.481
515.01	60.5312
518.385	59.6052
521.76	69.9548
525.135	54.511
528.509	44.8083
531.884	46.3425
535.259	31.2605
538.634	27.3791
542.009	17.4409
545.384	26.7666
548.758	29.2886
552.133	29.5029
555.508	18.9658
558.883	21.1497
562.258	29.4639
565.632	26.5051
569.007	20.4592
572.382	24.1111
575.757	22.9585
579.132	30.123
582.506	32.2815
585.881	25.4712
589.256	12.407
592.631	7.43823
596.006	1.32373
599.381	1.81592
602.755	3.68872
606.13	0.21875
609.505	10.4185
612.88	5.05273
616.255	3.1167
619.63	0.826172
623.004	1.00342
626.379	1.9939
629.754	7.04932
633.129	1.88794
636.504	0.424316
639.878	5.06616
643.253	4.65845
646.628	13.5725
650.003	29.6033
653.378	47.646
656.752	56.6782
660.127	91.7612
663.502	142.158
666.877	237.086
670.252	372.235
673.626	543.009
677.001	754.586
680.376	924.46
683.751	868.461
687.126	566.35
690.501	314.412
693.875	173.655
697.25	109.956
700.625	70.8843
704	60.1577
707.375	57.2751
710.75	58.7236
714.124	58.5269
717.499	79.5776
720.874	83.3442
724.249	89.3691
727.624	98.5151
730.998	93.262
734.373	89.1006
737.748	84.604
741.123	84.7808
744.498	92.2258
747.872	92.0576
751.247	100.136
754.622	100.249
757.997	90.5056
761.372	88.3162
764.747	79.5769
768.121	85.1533
771.496	81.6294
774.871	73.4087
778.246	55.675
781.621	48.4477
784.995	40.2742
788.37	21.4739
791.745	7.51807
795.12	1.89233
798.495	10.7183
801.87	6.76733
805.244	6.20044
808.619	4.94629
811.994	3.43677
815.369	2.17114
818.744	20.1802
822.119	24.2227
825.493	23.4905
828.868	25.7368
832.243	39.9382
835.618	39.1833
838.993	46.0059
842.367	51.251
845.742	59.1885
849.117	56.7502
852.492	44.2102
855.867	40.9155
859.241	44.0732
862.616	36.0395
865.991	15.0842
869.366	19.052
872.741	16.3989
876.115	13.333
879.49	12.616
882.865	28.855
886.24	40.4326
889.615	63.2747
892.99	77.9392
896.364	88.8652
899.739	74.5557
903.114	73.9429
906.489	61.3223
909.864	48.3315
913.239	38.8357
916.613	44.6387
919.988	43.0066
923.363	49.169
926.738	52.2288
930.113	49.8179
933.487	58.8806
936.862	40.8586
940.237	40.7883
943.612	36.0532
946.987	38.7339
950.361	34.0239
953.736	22.6763
957.111	0.338135
960.486	8.04492
963.861	1.24585
967.236	2.02148
970.61	2.97388
973.985	5.36719
977.36	5.31299
980.735	4.39429
984.11	8.60889
987.485	7.73657
990.859	5.46753
994.234	5.71094
997.609	5.45386
1000.98	16.6562
1004.36	3.61133
1007.73	7.08765
1011.11	10.0185
1014.48	24.4451
1017.86	19.0381
1021.23	10.9126
1024.61	13.9707
1027.98	27.4722
1031.36	21.5295
1034.73	37.8835
1038.11	49.4658
1041.48	55.1619
1044.86	58.0862
1048.23	63.8323
1051.61	74.2197
1054.98	79.8032
1058.36	79.6189
1061.73	95.5542
1065.11	104.767
1068.48	126.576
1071.86	104.305
1075.23	90.9497
1078.6	80.2041
1081.98	68.2022
1085.35	63.5703
1088.73	44.831
1092.1	38.0156
1095.48	21.1724
1098.85	13.6499
1102.23	19.8193
1105.6	24.2564
1108.98	12.3755
1112.35	12.1924
1115.73	13.6021
1119.1	12.6851
1122.48	15.7651
1125.85	7.82568
1129.23	4.71289
1132.6	1.52344
1135.98	1.479
1139.35	3.92481
1142.73	11.9849
1146.1	5.85059
1149.48	1.2124
1152.85	22.1118
1156.22	22.585
1159.6	14.6494
1162.97	13.9854
1166.35	10.0415
1169.72	2.7583
1173.1	13.8218
1176.47	26.1899
1179.85	22.5161
1183.22	17.9297
1186.6	21.4795
1189.97	15.3433
1193.35	17.2974
1196.72	14.5698
1200.1	13.2778
1203.47	12.4834
1206.85	20.5254
1210.22	15.9453
1213.6	10.5903
1216.97	9.48145
1220.35	11.4917
1223.72	8.52685
1227.1	1.45459
1230.47	6.97412
1233.85	11.752
1237.22	15.334
1240.6	11.2515
1243.97	11.4404
1247.35	13.0005
1250.72	15.5005
1254.1	19.3379
1257.47	21.2856
1260.85	12.5781
1264.22	11.481
1267.59	10.1685
1270.97	6.84521
1274.34	13.5586
1277.72	13.5322
1281.09	6.33838
1284.47	11.6567
1287.84	18.2417
1291.22	11.5957
1294.59	16.9614
1297.97	16.7173
1301.34	3.55176
