Measurement: Raman, 780 nm, unoriented, Raman Data Processed
Mineral: Poudretteite
Rruff sample: R080009
Ideal chemistry: KNa_2_(B_3_Si_12_)O_30_
Locality: Pyant-gyi mine, near Pein-pyit, Mogok, Sagaing Region, Mandalay Division, Burma
Source: William W. Pinch
Description: Pale pink gem fragment
Raman shift (cm-1)	intensity
128.74	0
132.115	6.17377
135.49	54.8602
138.865	108.409
142.24	241.07
145.614	493.195
148.989	446.823
152.364	117.337
155.739	97.0137
159.114	180.592
162.488	522.717
165.863	156.727
169.238	19.2429
172.613	8.16074
175.988	10.9957
179.363	17.8124
182.737	48.0441
186.112	67.9749
189.487	10.8796
192.862	5.27405
196.237	7.74142
199.612	1.19843
202.986	2.95373
206.361	4.33417
209.736	5.00851
213.111	5.1691
216.486	8.45001
219.86	4.78748
223.235	7.07375
226.61	21.5324
229.985	23.3786
233.36	24.6165
236.734	28.4835
240.109	34.7094
243.484	45.2954
246.859	67.5083
250.234	94.7987
253.609	91.736
256.983	42.962
260.358	27.5567
263.733	17.7321
267.108	20.4037
270.483	22.3298
273.858	31.2114
277.232	61.3636
280.607	39.4824
283.982	17.4533
287.357	10.4859
290.731	15.082
294.106	19.1837
297.481	36.4676
300.856	45.2761
304.231	56.7957
307.606	84.5592
310.98	135.474
314.355	256.572
317.73	310.264
321.105	84.6566
324.48	23.6991
327.854	9.89702
331.229	6.10452
334.604	3.57349
337.979	0.368774
341.354	0.672379
344.729	1.35269
348.103	0.647446
351.478	5.1407
354.853	9.16173
358.228	15.2802
361.603	23.9567
364.978	37.0267
368.352	46.5185
371.727	30.2594
375.102	13.4524
378.477	11.4656
381.852	9.4041
385.226	11.5728
388.601	9.11127
391.976	8.39526
395.351	2.66802
398.726	7.33672
402.101	10.603
405.475	11.0504
408.85	0.121979
412.225	3.7218
415.6	2.76822
418.975	2.1828
422.349	11.7673
425.724	35.9413
429.099	47.7127
432.474	33.8291
435.849	56.0069
439.224	49.7774
442.598	23.0461
445.973	18.9189
449.348	17.9128
452.723	19.6595
456.098	29.7625
459.472	35.4556
462.847	33.6269
466.222	61.8009
469.597	145.823
472.972	336.568
476.346	471.003
479.721	670.037
483.096	1033.46
486.471	1720.17
489.846	2584.69
493.221	1539.01
496.595	503.722
499.97	225.998
503.345	118.965
506.72	69.8152
510.095	39.3929
513.469	18.333
516.844	5.4207
520.219	0.125931
523.594	5.31354
526.969	1.39273
530.343	16.085
533.718	59.1127
537.093	107.561
540.468	160.812
543.843	258.237
547.218	426.704
550.592	628.685
553.967	452.734
557.342	192.441
560.717	93.6228
564.092	52.2161
567.466	30.0192
570.841	13.4384
574.216	8.2121
577.591	4.00166
580.966	5.80025
584.341	0.250488
587.715	3.63666
591.09	6.36699
594.465	4.55235
597.84	4.83072
601.215	0.832092
604.59	0.324234
607.964	3.20586
611.339	1.55386
614.714	2.22644
618.089	1.73569
621.464	2.12735
624.838	5.00816
628.213	3.42732
631.588	3.99947
634.963	4.23937
638.338	5.50694
641.712	5.85373
645.087	8.19011
648.462	7.82932
651.837	9.3857
655.212	12.4117
658.587	14.0197
661.961	17.0872
665.336	10.246
668.711	7.09521
672.086	9.58276
675.461	18.5597
678.835	21.0618
682.21	28.9948
685.585	46.8289
688.96	64.8075
692.335	93.5331
695.71	103.407
699.084	56.9145
702.459	24.2698
705.834	9.69778
709.209	5.0894
712.584	5.65175
715.958	3.46407
719.333	4.6259
722.708	1.57957
726.083	0.376633
729.458	1.1548
732.832	0.878326
736.207	0.192642
739.582	2.72751
742.957	0.693573
746.332	6.39781
749.707	0.310944
753.081	2.11119
756.456	1.13413
759.831	2.91101
763.206	3.70049
766.581	2.32593
769.956	4.57103
773.33	4.53136
776.705	7.84479
780.08	5.81874
783.455	10.8514
786.83	11.9412
790.204	7.59499
793.579	9.65776
796.954	4.59456
800.329	4.50821
803.704	3.55786
807.078	5.51541
810.453	10.2315
813.828	7.38287
817.203	1.35024
820.578	4.03854
823.953	0.233017
827.327	1.72777
830.702	5.58964
834.077	8.05598
837.452	4.15799
840.827	4.97223
844.201	8.71378
847.576	12.0889
850.951	7.70515
854.326	4.88413
857.701	4.79565
861.076	2.07513
864.45	3.71867
867.825	3.53052
871.2	6.31952
874.575	0.556732
877.95	1.83725
881.324	2.00806
884.699	3.54219
888.074	4.17792
891.449	3.43956
894.824	11.1157
898.198	6.68518
901.573	3.19536
904.948	4.42631
908.323	2.21049
911.698	2.79834
915.073	1.30081
918.447	2.3446
921.822	5.34567
925.197	8.57698
928.572	14.4662
931.947	22.019
935.322	33.1777
938.696	37.895
942.071	17.7658
945.446	9.53635
948.821	6.21239
952.196	2.40788
955.57	1.06014
958.945	2.62767
962.32	0.945908
965.695	0.672394
969.07	0.598312
972.444	1.71373
975.819	5.76584
979.194	0.581558
982.569	3.90309
985.944	7.69344
989.318	9.32433
992.693	16.1762
996.068	17.709
999.443	20.1893
1002.82	10.1533
1006.19	12.6495
1009.57	12.8995
1012.94	7.07604
1016.32	1.30283
1019.69	1.6929
1023.07	4.56653
1026.44	8.03036
1029.82	13.3508
1033.19	25.5409
1036.57	40.9319
1039.94	66.0362
1043.32	90.3541
1046.69	73.7956
1050.07	37.3103
1053.44	23.7352
1056.82	16.4131
1060.19	9.91155
1063.57	10.0484
1066.94	3.70563
1070.31	3.73068
1073.69	2.44566
1077.06	0.816956
1080.44	3.13048
1083.81	3.82866
1087.19	0.365875
1090.56	0.496719
1093.94	0.838181
1097.31	1.10162
1100.69	1.04997
1104.06	0.307739
1107.44	2.62424
1110.81	2.297
1114.19	3.50647
1117.56	1.09024
1120.94	6.71591
1124.31	3.64171
1127.69	8.65832
1131.06	11.566
1134.44	17.0238
1137.81	27.3752
1141.18	36.3075
1144.56	45.2072
1147.93	37.5744
1151.31	29.1248
1154.68	22.3588
1158.06	29.8889
1161.43	42.2586
1164.81	59.6901
1168.18	86.609
1171.56	129.097
1174.93	158.922
1178.31	132.896
1181.68	84.8346
1185.06	61.6793
1188.43	37.6681
1191.81	21.379
1195.18	17.5386
1198.56	14.4885
1201.93	11.8757
1205.31	11.0054
1208.68	5.46307
1212.06	5.07399
1215.43	5.84856
1218.81	0.1306
1222.18	1.09114
1225.56	0.112564
1228.93	0.750793
1232.31	2.44373
1235.68	5.21405
1239.06	0.184967
1242.43	2.4823
1245.81	0.426208
1249.18	2.91629
1252.55	1.13568
1255.93	1.06825
1259.3	1.99286
1262.68	1.797
1266.05	2.45398
1269.43	1.43842
1272.8	3.67891
1276.18	2.20409
1279.55	1.76768
1282.93	4.61197
1286.3	0.633224
