Measurement: Raman, 532 nm, unoriented, Raman Data Processed
Mineral: Poudretteite
Rruff sample: R080009
Ideal chemistry: KNa_2_(B_3_Si_12_)O_30_
Locality: Pyant-gyi mine, near Pein-pyit, Mogok, Sagaing Region, Mandalay Division, Burma
Source: William W. Pinch
Description: Pale pink gem fragment
Raman shift (cm-1)	intensity
127.636	0
131.011	18.4967
134.386	74.4297
137.761	175.74
141.136	394.536
144.511	1003.63
147.885	1183.71
151.26	292.43
154.635	185.236
158.01	293.185
161.385	884.619
164.76	392.648
168.134	51.6213
171.509	17.2248
174.884	18.7853
178.259	24.934
181.634	80.1226
185.008	149.412
188.383	43.4264
191.758	3.26965
195.133	11.0505
198.508	7.56403
201.882	8.20697
205.257	0.529541
208.632	5.92248
212.007	11.7518
215.382	16.9416
218.757	22.2434
222.131	26.2977
225.506	41.2579
228.881	41.349
232.256	42.5018
235.631	53.7459
239.006	69.0082
242.38	85.8588
245.755	117.564
249.13	160.893
252.505	156.514
255.88	76.6098
259.254	52.4169
262.629	45.1231
266.004	39.2488
269.379	57.8705
272.754	83.8235
276.128	125.857
279.503	120.113
282.878	45.8291
286.253	28.5489
289.628	34.8565
293.002	29.1929
296.377	44.6169
299.752	96.8021
303.127	122.468
306.502	179.207
309.877	270.653
313.251	499.271
316.626	699.188
320.001	229.662
323.376	69.8466
326.751	22.6169
330.125	7.78857
333.5	9.05603
336.875	3.26318
340.25	2.11334
343.625	2.63629
347	0.624451
350.374	5.20453
353.749	13.9861
357.124	7.55255
360.499	20.7266
363.874	42.9315
367.248	51.6515
370.623	37.386
373.998	6.7218
377.373	4.9585
380.748	10.7609
384.123	12.7529
387.497	11.2528
390.872	17.91
394.247	1.84589
397.622	11.7357
400.997	3.16852
404.371	7.41248
407.746	0.932251
411.121	2.75519
414.496	12.7946
417.871	37.8644
421.245	90.9379
424.62	187.019
427.995	283.432
431.37	83.4848
434.745	55.6902
438.12	53.2178
441.494	22.3432
444.869	19.7435
448.244	23.8461
451.619	29.832
454.994	32.2942
458.368	48.3245
461.743	29.9332
465.118	35.3682
468.493	117.273
471.868	321.404
475.243	672.617
478.617	980.137
481.992	1485.65
485.367	2509.5
488.742	3803.63
492.117	2733.84
495.491	895.918
498.866	384.677
502.241	197.812
505.616	106.23
508.991	67.2192
512.365	30.6127
515.74	1.83069
519.115	0.960205
522.49	3.96606
525.865	2.35132
529.24	18.1177
532.614	76.8162
535.989	192.589
539.364	318.261
542.739	493.297
546.114	828.273
549.489	1199.19
552.863	991.434
556.238	426.641
559.613	195.852
562.988	111.117
566.363	59.1703
569.737	40.4783
573.112	21.5701
576.487	12.3446
579.862	9.42334
583.237	7.91223
586.611	6.71716
589.986	11.2867
593.361	6.95569
596.736	0.129761
600.111	2.53003
603.486	2.41052
606.86	3.87427
610.235	3.39209
613.61	0.955322
616.985	2.96905
620.36	2.54724
623.735	6.04224
627.109	2.67908
630.484	7.0033
633.859	10.1155
637.234	7.90918
640.609	12.2415
643.983	17.852
647.358	17.7839
650.733	25.0431
654.108	25.6936
657.483	35.9309
660.857	42.045
664.232	28.2109
667.607	17.5018
670.982	21.2003
674.357	24.8337
677.732	37.9331
681.106	60.4342
684.481	92.5375
687.856	141.138
691.231	203.773
694.606	236.577
697.981	137.322
701.355	51.197
704.73	32.8131
708.105	17.0056
711.48	11.1663
714.855	3.47534
718.229	7.9563
721.604	3.52246
724.979	9.71643
728.354	5.71851
731.729	3.74963
735.103	5.48889
738.478	12.3285
741.853	0.206665
745.228	5.80725
748.603	14.2079
751.977	0.861206
755.352	6.84045
758.727	1.54712
762.102	5.64221
765.477	8.52246
768.852	8.95435
772.226	12.0029
775.601	19.6348
778.976	18.5658
782.351	34.5842
785.726	38.1802
789.101	32.0179
792.475	21.8984
795.85	17.7638
799.225	15.868
802.6	6.93494
805.975	8.02637
809.349	16.7616
812.724	10.2977
816.099	8.3833
819.474	7.9624
822.849	4.26221
826.223	1.91699
829.598	2.70435
832.973	0.669678
836.348	7.76782
839.723	1.41064
843.097	10.7537
846.472	15.4961
849.847	13.2217
853.222	4.35913
856.597	0.630981
859.972	5.12244
863.346	11.7915
866.721	8.11951
870.096	6.47607
873.471	3.71765
876.846	1.77258
880.221	0.253296
883.595	1.31726
886.97	1.51294
890.345	5.42737
893.72	11.3951
897.095	2.49475
900.469	13.8229
903.844	15.9017
907.219	13.2704
910.594	2.46362
913.969	0.191528
917.343	8.18957
920.718	12.3097
924.093	16.609
927.468	21.6834
930.843	45.6943
934.218	45.8993
937.592	60.0542
940.967	37.0073
944.342	20.2848
947.717	12
951.092	3.71753
954.466	7.68604
957.841	7.01843
961.216	0.817505
964.591	0.34082
967.966	5.2771
971.341	7.52942
974.715	0.0354
978.09	0.83606
981.465	17.6016
984.84	13.2169
988.215	19.9851
991.589	22.9904
994.964	36.9807
998.339	39.085
1001.71	31.2737
1005.09	37.0227
1008.46	42.2245
1011.84	33.2833
1015.21	13.891
1018.59	7.80335
1021.96	17.4428
1025.34	16.4624
1028.71	26.4646
1032.09	43.3539
1035.46	60.795
1038.84	94.5953
1042.21	131.268
1045.59	123.296
1048.96	59.5537
1052.34	41.5518
1055.71	28.79
1059.09	23.4817
1062.46	9.99402
1065.84	12.9474
1069.21	1.26306
1072.59	4.08154
1075.96	2.00696
1079.34	7.75793
1082.71	3.5083
1086.08	2.23486
1089.46	5.41321
1092.83	8.0011
1096.21	4.94556
1099.58	2.18713
1102.96	0.459351
1106.33	3.43225
1109.71	0.452515
1113.08	7.61121
1116.46	10.848
1119.83	1.91602
1123.21	11.8938
1126.58	19.37
1129.96	30.7424
1133.33	35.7562
1136.71	59.51
1140.08	82.2978
1143.46	108.026
1146.83	103.207
1150.21	74.2738
1153.58	60.4299
1156.95	61.7819
1160.33	76.3991
1163.7	115.232
1167.08	172.448
1170.45	248.588
1173.83	349.602
1177.2	316.082
1180.58	203.792
1183.95	125.346
1187.33	80.2987
1190.7	60.4026
1194.08	40.2861
1197.45	30.2766
1200.83	32.6411
1204.2	30.9346
1207.58	16.7412
1210.95	21.6331
1214.33	15.1977
1217.7	8.86658
1221.08	8.29993
1224.45	5.63464
1227.83	3.98999
1231.2	1.36475
1234.58	0.505493
1237.95	1.23975
1241.33	2.85474
1244.7	2.15442
1248.08	6.474
1251.45	10.1977
1254.83	5.97498
1258.2	4.48816
1261.58	5.13147
1264.95	12.8209
1268.32	4.7937
1271.7	4.44958
1275.07	3.00928
1278.45	4.17346
1281.82	0.392944
1285.2	5.92847
1288.57	11.6291
1291.95	7.40283
1295.32	0.823608
1298.7	3.1001
1302.07	2.90149
