Measurement: Raman, 532 nm, unoriented, Raman Data Processed
Mineral: Poughite
Rruff sample: R080026
Ideal chemistry: Fe^3+^_2_(Te^4+^O_3_)_2_SO_4_3H_2_O
Locality: Mina Candelaria, Moctezuma, Sonora, Mexico
Source: William W. Pinch
Description: Bright-yellow to honey-yellow drusy crusts associated with green emmonsite
Raman shift (cm-1)	intensity
138.663	0
142.038	20.3311
145.413	133.216
148.788	313.143
152.163	294.875
155.537	442.219
158.912	328.551
162.287	191.232
165.662	32.6162
169.037	57.5806
172.411	79.5049
175.786	49.4053
179.161	374.157
182.536	824.633
185.911	1437.35
189.286	2080.76
192.66	2763.95
196.035	3437.43
199.41	3956.46
202.785	4724.6
206.16	4897.68
209.534	3524.45
212.909	2898.36
216.284	3086.91
219.659	2986.2
223.034	2365.18
226.409	1628.82
229.783	980.906
233.158	686.461
236.533	643.045
239.908	878.182
243.283	1183.4
246.657	1416.45
250.032	1228.87
253.407	1005.57
256.782	1101.71
260.157	1461.82
263.531	1821.9
266.906	1777.72
270.281	1319.91
273.656	1057.7
277.031	1052.7
280.406	1041.47
283.78	925.918
287.155	812.931
290.53	691.335
293.905	634.273
297.28	610.459
300.654	605.759
304.029	578.183
307.404	602.399
310.779	567.602
314.154	537.469
317.529	547.871
320.903	614.926
324.278	454.602
327.653	209.328
331.028	9.18018
334.403	127.939
337.777	194.852
341.152	133.013
344.527	29.0249
347.902	123.963
351.277	326.97
354.651	587.188
358.026	969.606
361.401	1473.77
364.776	2143.02
368.151	2951.25
371.526	3821.7
374.9	4717.22
378.275	5325.32
381.65	5087.5
385.025	4056.56
388.4	2924.83
391.774	2048.67
395.149	1471.41
398.524	1154.56
401.899	1063.23
405.274	1084.97
408.649	1268.78
412.023	1411.38
415.398	1613.22
418.773	1638.29
422.148	1418.71
425.523	1010.95
428.897	640.135
432.272	431.581
435.647	307.685
439.022	276.741
442.397	323.944
445.772	413.265
449.146	458.127
452.521	412.616
455.896	177.764
459.271	22.8164
462.646	29.1074
466.02	121.519
469.395	174.304
472.77	304.873
476.145	474.746
479.52	658.743
482.894	800.329
486.269	730.001
489.644	516.93
493.019	270.688
496.394	113.982
499.769	29.1382
503.143	3.74512
506.518	6.76269
509.893	9.9458
513.268	34.8262
516.643	46.5835
520.018	46.354
523.392	12.5952
526.767	0.869629
530.142	4.83594
533.517	36.2353
536.891	30.9077
540.266	32.9443
543.641	42.4453
547.016	14.3589
550.391	35.4956
553.766	20.5488
557.14	12.6763
560.515	24.1543
563.89	9.39893
567.265	17.5327
570.64	8.95508
574.014	41.2661
577.389	62.0601
580.764	67.1641
584.139	75.5542
587.514	73.6089
590.889	104.211
594.263	88.04
597.638	83.6074
601.013	87.2144
604.388	68.6602
607.763	75.1709
611.138	109.143
614.512	145.71
617.887	200.848
621.262	241.131
624.637	233.091
628.011	163.079
631.386	179.413
634.761	314.728
638.136	508.215
641.511	798.744
644.886	1177.44
648.26	1695.02
651.635	2265.89
655.01	2866.33
658.385	3508.2
661.76	4035.69
665.135	4520.15
668.509	4728.04
671.884	4551.38
675.259	3935.52
678.634	3147.33
682.009	2446.18
685.383	1944.76
688.758	1525.76
692.133	1202.93
695.508	922.161
698.883	708.51
702.257	615.412
705.632	583.038
709.007	534.184
712.382	480.339
715.757	358.905
719.131	249.467
722.506	139.51
725.881	54.456
729.256	27.0708
732.631	16.2251
736.006	41.6216
739.38	22.8481
742.755	25.854
746.13	0.472168
749.505	19.251
752.88	32.5845
756.255	53.8384
759.629	96.3608
763.004	105.199
766.379	157.149
769.754	212.867
773.129	295.246
776.503	408.694
779.878	463.068
783.253	546.762
786.628	543.397
790.003	539.904
793.377	508.125
796.752	502.368
800.127	440.826
803.502	343.082
806.877	270.623
810.251	194.688
813.626	122.467
817.001	89.0449
820.376	26.7534
823.751	46.6787
827.126	26.7446
830.5	26.0493
833.875	38.7441
837.25	4.60107
840.625	3.69141
844	13.8354
847.375	20.8755
850.749	12.3955
854.124	3.43701
857.499	0.396973
860.874	25.46
864.249	42.146
867.623	28.4639
870.998	33.1782
874.373	68.542
877.748	34.6284
881.123	36.0674
884.497	42.1504
887.872	30.9605
891.247	47.8613
894.622	49.603
897.997	76.0649
901.371	64.6499
904.746	62.0308
908.121	63.7656
911.496	51.7266
914.871	65.645
918.246	62.0488
921.62	62.9736
924.995	41.8184
928.37	44.2256
931.745	29.1577
935.12	16.9634
938.495	32.8687
941.869	13.4273
945.244	17.2861
948.619	2.70459
951.994	4.80371
955.369	12.2827
958.743	7.0625
962.118	9.18555
965.493	55.8603
968.868	74.8213
972.243	175.484
975.617	285.538
978.992	381.226
982.367	287.641
985.742	99.9697
989.117	46.1826
992.492	19.1768
995.866	6.15527
999.241	35.2383
1002.62	53.6006
1005.99	124.561
1009.37	101.644
1012.74	16.7256
1016.12	15.9658
1019.49	11.4668
1022.87	0.979492
1026.24	30.5156
1029.62	67.4941
1032.99	163.192
1036.36	209.321
1039.74	272.736
1043.11	287.04
1046.49	343.96
1049.86	298.958
1053.24	221.35
1056.61	147.64
1059.99	79.3789
1063.36	16.4043
1066.74	70.6748
1070.11	78.6885
1073.49	76.1191
1076.86	127.613
1080.24	128.924
1083.61	131.011
1086.99	107.157
1090.36	110.693
1093.74	112.119
1097.11	162.831
1100.49	235.454
1103.86	213.334
1107.23	140.376
1110.61	74.5527
1113.98	0.416992
1117.36	1.21484
1120.73	26.8818
1124.11	42.6455
1127.48	88.4141
1130.86	174.394
1134.23	248.127
1137.61	318.163
1140.98	351.97
1144.36	370.429
1147.73	295.269
1151.11	265.021
1154.48	233.301
1157.86	185.851
1161.23	135.002
1164.61	84.7402
1167.98	62.7188
1171.36	36.2363
1174.73	21.4707
1178.11	1
1181.48	2.70898
1184.86	0.525391
1188.23	13.4209
1191.61	0.022461
1194.98	8.56934
1198.36	9.25977
1201.73	31.4814
1205.11	18.9102
1208.48	25.1982
1211.85	5.4209
1215.23	25.4756
1218.6	0.545898
1221.98	22.6289
1225.35	69.5557
1228.73	53.9785
1232.1	16.7793
1235.48	7.90137
1238.85	10.498
1242.23	21.167
1245.6	12.0527
1248.98	0.599609
1252.35	40.3945
1255.73	37.1777
1259.1	23.667
1262.48	30.6621
1265.85	59.3818
1269.23	35.7432
1272.6	47.167
1275.98	11.96
1279.35	45.9326
1282.73	56.3281
1286.1	49.6484
1289.47	40.9287
1292.85	41.8672
1296.22	44.627
1299.6	23.6758
1302.97	17.7812
