Measurement: Raman, 780 nm, unoriented, Raman Data Processed
Mineral: Poughite
Rruff sample: R080026
Ideal chemistry: Fe^3+^_2_(Te^4+^O_3_)_2_SO_4_3H_2_O
Locality: Mina Candelaria, Moctezuma, Sonora, Mexico
Source: William W. Pinch
Description: Bright-yellow to honey-yellow drusy crusts associated with green emmonsite
Raman shift (cm-1)	intensity
136.044	0
138.937	19.1134
141.829	7.64282
144.722	13.7395
147.615	27.6655
150.507	41.1748
153.4	84.6332
156.293	82.9537
159.186	59.8315
162.078	38.1876
164.971	1.27747
167.864	16.2824
170.756	12.9082
173.649	7.89758
176.542	32.7408
179.435	85.5032
182.327	153.785
185.22	242.09
188.113	301.352
191.005	374.961
193.898	461.13
196.791	534.634
199.683	599.892
202.576	666.423
205.469	658.217
208.362	507.404
211.254	412.812
214.147	411.216
217.04	419.389
219.932	387.967
222.825	330.684
225.718	252.922
228.61	182.174
231.503	139.073
234.396	128.821
237.288	147.91
240.181	189.444
243.074	230.361
245.967	247.619
248.859	225.194
251.752	192.1
254.645	190.692
257.537	220.363
260.43	270.486
263.323	299.986
266.216	285.806
269.108	200.981
272.001	143.482
274.894	119.077
277.786	109.395
280.679	113.18
283.572	100.636
286.464	94.3937
289.357	85.2012
292.25	80.6429
295.142	74.6544
298.035	77.1187
300.928	78.1589
303.82	73.0206
306.713	69.5032
309.606	61.5912
312.499	58.2379
315.391	62.459
318.284	60.7116
321.177	53.5721
324.069	37.4406
326.962	17.5316
329.855	5.63464
332.748	20.1055
335.64	26.0669
338.533	17.2504
341.426	14.2782
344.318	3.68396
347.211	21.3729
350.104	46.2129
352.996	76.9672
355.889	118.384
358.782	162.864
361.675	225.613
364.567	290.215
367.46	355.116
370.353	434.7
373.245	507.786
376.138	570.122
379.031	579.449
381.923	511.639
384.816	409.95
387.709	297.6
390.601	208.737
393.494	154.243
396.387	119.854
399.28	100.976
402.172	100.004
405.065	111.181
407.958	125.641
410.85	156.546
413.743	179.204
416.636	192.081
419.529	195.394
422.421	179.193
425.314	143.289
428.207	119.438
431.099	112.033
433.992	111.576
436.885	115.273
439.777	115.308
442.67	115.135
445.563	126.043
448.455	129.881
451.348	115.044
454.241	81.6221
457.134	45.4517
460.026	41.8469
462.919	35.0997
465.812	38.9802
468.704	41.6172
471.597	46.0898
474.49	58.2063
477.382	69.2275
480.275	73.0079
483.168	74.8243
486.06	68.6963
488.953	46.5703
491.846	32.0233
494.739	10.4562
497.631	2.38049
500.524	1.88061
503.417	1.35156
506.309	3.31567
509.202	5.09229
512.095	3.62195
514.987	1.38586
517.88	3.56763
520.773	1.21814
523.666	3.94336
526.558	0.116089
529.451	2.33496
532.344	2.33679
535.236	2.1283
538.129	2.42248
541.022	0.283325
543.914	1.77783
546.807	0.834839
549.7	5.23065
552.593	10.0267
555.485	10.3758
558.378	11.1281
561.271	15.8639
564.163	11.2707
567.056	13.2061
569.949	12.39
572.841	15.5989
575.734	12.4171
578.627	5.4975
581.52	4.60767
584.412	7.16022
587.305	3.74915
590.198	6.79144
593.09	2.56226
595.983	0.347168
598.876	1.02301
601.768	0.361328
604.661	0.180847
607.554	7.37506
610.447	14.5723
613.339	18.8483
616.232	26.9825
619.125	34.061
622.017	38.1172
624.91	36.9607
627.803	25.2741
630.695	26.3444
633.588	37.8379
636.481	57.5126
639.374	82.1261
642.266	116.605
645.159	156.523
648.052	206.684
650.944	260.177
653.837	313.932
656.73	362.088
659.622	400.887
662.515	433.25
665.408	457.114
668.301	461.827
671.193	440.079
674.086	392.255
676.979	321.237
679.871	255.991
682.764	205.666
685.657	164.531
688.549	136.437
691.442	106.293
694.335	90.6166
697.227	73.6641
700.12	62.4297
703.013	52.142
705.906	50.94
708.798	44.2792
711.691	37.7794
714.584	29.4381
717.476	20.7125
720.369	13.3896
723.262	4.08936
726.154	1.61231
729.047	0.875916
731.94	5.84619
734.833	1.54333
737.725	1.63355
740.618	0.72699
743.511	0.186951
746.403	3.53522
749.296	10.5281
752.189	15.2139
755.082	18.5742
757.974	24.9631
760.867	32.6727
763.76	43.2715
766.652	54.5066
769.545	66.51
772.438	87.1511
775.33	107.783
778.223	125.394
781.116	140.522
784.008	149.829
786.901	150.361
789.794	149.772
792.687	144.539
795.579	142.881
798.472	135.247
801.365	120.122
804.257	98.5078
807.15	74.6941
810.043	57.1033
812.935	41.9001
815.828	31.0214
818.721	24.6849
821.614	19.5651
824.506	14.043
827.399	10.3128
830.292	9.23791
833.184	7.63837
836.077	3.36017
838.97	1.37756
841.862	1.97034
844.755	1.61511
847.648	2.48956
850.54	3.71234
853.433	0.328857
856.326	0.96991
859.219	1.2431
862.111	2.55487
865.004	1.55884
867.897	0.336182
870.789	3.81049
873.682	2.41699
876.575	3.25128
879.467	4.45746
882.36	1.83118
885.253	3.99799
888.146	4.00104
891.038	5.27356
893.931	3.89667
896.824	7.71698
899.716	6.35706
902.609	4.09564
905.502	4.60229
908.394	6.1947
911.287	3.77002
914.18	4.77631
917.073	4.32098
919.965	5.51587
922.858	2.5694
925.751	0.82428
928.643	3.4581
931.536	0.791992
934.429	0.11203
937.322	0.500702
940.214	0.822266
943.107	2.85007
946	2.47845
948.892	0.356995
951.785	2.56982
954.678	1.94321
957.57	4.87735
960.463	2.63837
963.356	11.2168
966.248	18.3426
969.141	29.9121
972.034	42.4917
974.927	60.7606
977.819	79.1103
980.712	67.4475
983.605	32.5972
986.497	12.5436
989.39	6.73245
992.283	11.3561
995.175	13.8097
998.068	14.3119
1000.96	25.0207
1003.85	38.0226
1006.75	45.1247
1009.64	28.5049
1012.53	11.9908
1015.42	3.83585
1018.32	0.263428
1021.21	0.980865
1024.1	0.802673
1026.99	0.68692
1029.89	1.67062
1032.78	7.72656
1035.67	12.0043
1038.57	19.8519
1041.46	20.2804
1044.35	23.2469
1047.24	24.8506
1050.14	23.0467
1053.03	17.8004
1055.92	12.9643
1058.82	6.28986
1061.71	1.96756
1064.6	2.69797
1067.49	1.44519
1070.39	0.671112
1073.28	2.81357
1076.17	5.22794
1079.06	7.9592
1081.96	6.84317
1084.85	10.1651
1087.74	12.8193
1090.63	19.1385
1093.53	26.789
1096.42	36.9305
1099.31	41.5609
1102.2	41.918
1105.1	31.9882
1107.99	21.8392
1110.88	9.96841
1113.78	3.67114
1116.67	0.339508
1119.56	1.53302
1122.45	0.20813
1125.35	3.22916
1128.24	6.09015
1131.13	11.4334
1134.03	18.2052
1136.92	21.8027
1139.81	22.2488
1142.7	26.4095
1145.6	26.695
1148.49	27.4396
1151.38	24.8241
1154.27	24.2678
1157.17	19.0252
1160.06	14.4094
1162.95	11.4226
1165.85	12.0326
1168.74	5.84103
1171.63	3.20413
1174.52	2.64581
1177.41	1.06692
1180.31	2.04611
1183.2	3.42715
1186.09	0.713013
1188.99	0.067902
1191.88	1.15793
1194.77	0.8974
1197.66	1.41382
1200.56	0.247742
1203.45	4.05054
1206.34	1.62112
1209.23	1.22965
1212.13	1.38205
1215.02	0.408691
1217.91	0.788879
1220.81	1.90262
1223.7	1.00385
1226.59	0.915588
1229.48	2.34473
1232.38	3.8287
1235.27	4.97037
1238.16	5.45904
1241.06	3.68884
1243.95	3.22003
1246.84	5.23663
1249.73	3.27072
1252.63	2.32761
1255.52	4.67056
1258.41	3.20129
1261.3	2.39389
1264.2	0.614777
1267.09	2.61697
1269.98	1.72433
1272.87	2.27374
1275.77	0.990845
1278.66	0.397766
1281.55	0.372437
1284.44	3.89188
