Measurement: Raman, 780 nm, unoriented, Raman Data Processed
Mineral: Powellite
Rruff sample: R050355
Ideal chemistry: CaMoO_4_
Locality: Nasik, India
Source: George Rossman
Description: Light brown fragment
Measured chemistry: Ca_1.00_Mo_1.00_O_4_
Raman shift (cm-1)	intensity
127.236	0
130.129	1.4071
133.021	98.9469
135.914	220.32
138.807	462.237
141.699	1170.75
144.592	1016.88
147.485	150.227
150.377	34.6155
153.27	9.28418
156.163	4.53552
159.055	17.6691
161.948	49.8519
164.841	44.0189
167.734	77.199
170.626	99.7767
173.519	121.934
176.412	209.249
179.304	371.912
182.197	560.739
185.09	967.117
187.982	1318.35
190.875	1590.3
193.768	1951.5
196.661	2466.09
199.553	3406
202.446	5046.46
205.339	5512.62
208.231	3206.19
211.124	1743.22
214.017	1141.65
216.91	810.366
219.802	474.454
222.695	280.142
225.588	174.868
228.48	102.137
231.373	43.7344
234.266	11.0891
237.158	9.86291
240.051	7.78564
242.944	11.1511
245.837	40.3103
248.729	26.5712
251.622	0.739868
254.515	3.00842
257.407	6.70752
260.3	8.77808
263.193	80.5735
266.085	105.256
268.978	87.7159
271.871	42.0541
274.764	76.8558
277.656	78.9564
280.549	109.152
283.442	145.319
286.334	192.577
289.227	310.997
292.12	380.185
295.012	568.311
297.905	803.678
300.798	1226.85
303.69	1895.11
306.583	2638.12
309.476	3554.82
312.369	4709.6
315.261	6059.12
318.154	8033.99
321.047	10156.6
323.939	10634
326.832	9384.49
329.725	7526.68
332.618	4996.8
335.51	3137.09
338.403	1908.77
341.296	1150.62
344.188	699.522
347.081	446.566
349.974	302.358
352.866	223.293
355.759	121.679
358.652	107.525
361.545	108.772
364.437	139.114
367.33	267.932
370.223	557.165
373.115	1160.12
376.008	1541.65
378.901	1901.16
381.793	2470.83
384.686	3422.72
387.579	5086.12
390.471	7488.83
393.364	5764.25
396.257	2213.64
399.15	999.846
402.042	613.972
404.935	388.743
407.828	216.824
410.72	91.5471
413.613	40.9821
416.506	19.1514
419.399	32.3668
422.291	14.5359
425.184	12.5803
428.077	19.0709
430.969	5.0061
433.862	7.91321
436.755	5.47961
439.647	2.57324
442.54	19.1901
445.433	19.1014
448.325	29.3901
451.218	26.3204
454.111	11.9345
457.004	26.0186
459.896	54.7129
462.789	53.5684
465.682	52.254
468.574	73.3179
471.467	76.4451
474.36	61.5931
477.252	56.8216
480.145	68.6653
483.038	80.0122
485.931	58.9987
488.823	73.4618
491.716	57.2335
494.609	52.7939
497.501	61.1235
500.394	29.4446
503.287	47.6415
506.18	23.8173
509.072	47.3336
511.965	20.3779
514.857	59.9635
517.75	32.8998
520.643	17.9581
523.536	38.7323
526.428	29.8259
529.321	9.86389
532.214	25.1838
535.106	10.9716
537.999	28.8369
540.892	18.7076
543.784	9.2605
546.677	24.6943
549.57	1.69537
552.463	4.90149
555.355	8.94568
558.248	25.4091
561.141	25.02
564.033	8.84638
566.926	16.2864
569.819	19.9793
572.712	1.48578
575.604	5.51904
578.497	9.55621
581.39	22.801
584.282	14.4082
587.175	20.5568
590.068	22.9287
592.96	15.2892
595.853	11.3422
598.746	10.4051
601.639	27.6343
604.531	37.0539
607.424	10.1054
610.317	22.9169
613.209	41.2441
616.102	25.4922
618.995	12.7594
621.888	1.61426
624.78	16.0391
627.673	21.8209
630.566	26.6011
633.458	0.303101
636.351	18.0858
639.244	19.058
642.136	7.39258
645.029	2.11798
647.922	24.0446
650.814	32.0679
653.707	39.8263
656.6	10.6602
659.493	23.5525
662.385	31.3679
665.278	19.4055
668.171	6.31006
671.063	27.2247
673.956	31.6622
676.849	25.1102
679.741	34.0383
682.634	41.427
685.527	35.7621
688.42	48.5624
691.312	32.5866
694.205	39.2659
697.098	41.4307
699.99	42.4428
702.883	47.78
705.776	47.3068
708.668	54.1385
711.561	22.4163
714.454	32.1173
717.346	29.7864
720.239	39.2962
723.132	32.7216
726.025	20.2762
728.917	18.2254
731.81	1.40863
734.703	2.44727
737.595	31.3613
740.488	13.0598
743.381	23.4976
746.274	5.41125
749.166	2.06238
752.059	7.84882
754.952	13.3211
757.844	4.5329
760.737	1.6853
763.63	1.22986
766.522	6.51392
769.415	11.3057
772.308	15.7643
775.201	36.3844
778.093	125.442
780.986	218.148
783.879	301.455
786.771	457.457
789.664	811.42
792.557	1271.24
795.449	941.1
798.342	297.854
801.235	87.6119
804.128	7.61658
807.02	9.28961
809.913	10.843
812.806	14.0226
815.698	1.82037
818.591	36.0898
821.484	53.4682
824.376	127.05
827.269	220.579
830.162	533.089
833.054	1167.22
835.947	1696.32
838.84	2398.52
841.733	3755.93
844.625	6537.43
847.518	9092.28
850.411	3775.07
853.303	1510.02
856.196	1301.54
859.089	1723.75
861.981	3193.36
864.874	6070.38
867.767	8719.64
870.66	12487.3
873.552	18825.5
876.445	29623.3
879.338	30819
882.23	14763.6
885.123	6424.8
888.016	3286.09
890.909	1837.33
893.801	1114.76
896.694	722.564
899.587	482.691
902.479	303.374
905.372	211.794
908.265	161.531
911.157	118.592
914.05	98.3284
916.943	116.444
919.836	128.7
922.728	51.8499
925.621	7.3783
928.514	8.96222
931.406	12.8212
934.299	14.6262
937.192	4.93817
940.084	11.5602
942.977	1.52887
945.87	3.52533
948.763	2.73444
951.655	1.68274
954.548	11.3799
957.441	3.10059
960.333	19.6205
963.226	15.7871
966.119	0.999268
969.011	32.8722
971.904	19.3219
974.797	20.1883
977.689	38.746
980.582	20.8253
983.475	29.7014
986.368	20.4752
989.26	24.1068
992.153	22.304
995.046	41.4988
997.938	21.7897
1000.83	14.3851
1003.72	26.3311
1006.62	24.1527
1009.51	0.307861
1012.4	18.6974
1015.29	29.1476
1018.19	18.261
1021.08	31.716
1023.97	20.9505
1026.87	28.3051
1029.76	35.6688
1032.65	29.0201
1035.54	24.6202
1038.44	4.7533
1041.33	21.4832
1044.22	12.2236
1047.11	26.0969
1050.01	20.4866
1052.9	19.9734
1055.79	26.3094
1058.68	16.3255
1061.58	29.5058
1064.47	23.037
1067.36	12.7372
1070.26	25.832
1073.15	27.0496
1076.04	36.1342
1078.93	28.5538
1081.83	19.4121
1084.72	2.72076
1087.61	9.62836
1090.51	16.4359
1093.4	40.1347
1096.29	26.4581
1099.18	36.7255
1102.08	24.2027
1104.97	22.6727
1107.86	29.6832
1110.75	8.3512
1113.65	31.7983
1116.54	6.52686
1119.43	18.832
1122.32	1.86578
1125.22	22.4355
1128.11	1.19721
1131	15.8762
1133.89	16.9341
1136.79	17.7478
1139.68	5.69153
1142.57	9.73151
1145.47	1.02441
1148.36	2.43903
1151.25	18.5441
1154.14	26.4609
1157.04	19.4039
1159.93	14.8483
1162.82	48.347
1165.71	19.1008
1168.61	17.4396
1171.5	17.5469
1174.39	39.5784
1177.29	30.7742
1180.18	40.6132
1183.07	28.6074
1185.96	30.4434
1188.86	22.0786
1191.75	30.191
1194.64	31.6162
1197.54	31.5076
1200.43	44.8295
1203.32	35.1401
1206.21	38.553
1209.11	21.9786
1212	18.6104
1214.89	27.4462
1217.78	23.1656
1220.68	35.5981
1223.57	12.6741
1226.46	10.3858
1229.35	43.984
1232.25	35.1665
1235.14	36.2624
1238.03	36.6628
1240.92	24.4706
1243.82	43.7881
1246.71	39.6297
1249.6	28.9323
1252.5	25.8856
1255.39	30.9275
1258.28	21.7938
1261.17	37.2321
1264.07	11.9825
1266.96	31.4101
1269.85	47.4405
1272.74	12.1418
