Measurement: Raman, 532 nm, unoriented, Raman Data Processed
Mineral: Powellite
Rruff sample: R100180
Ideal chemistry: CaMoO_4_
Locality: Carlota mine, Pinto Creek, Gila, Arizona, USA
Source: Joe Ruiz
Description: Pale green thick tabular crystals, associated with blue azurite, green elongated szenicsite (R100179) and colorless granular prosopite (R100181).
Raman shift (cm-1)	intensity
91.0352	0
94.41	0.102558
97.7848	4.73461
101.16	11.9618
104.534	9.63493
107.909	17.118
111.284	29.8024
114.659	21.7623
118.034	15.6867
121.409	9.05838
124.783	3.73896
128.158	4.45372
131.533	1.24776
134.908	16.7671
138.283	44.7065
141.657	155.552
145.032	329.564
148.407	128.319
151.782	82.3846
155.157	88.167
158.532	104.393
161.906	102.722
165.281	118.413
168.656	145.242
172.031	191.901
175.406	219.596
178.78	262.769
182.155	332.079
185.53	474.807
188.905	700.393
192.28	774.256
195.655	773.174
199.029	954.744
202.404	1362.14
205.779	1518.58
209.154	912.745
212.529	529.817
215.904	371.511
219.278	238.938
222.653	131.009
226.028	77.6885
229.403	41.5718
232.778	14.503
236.152	6.71254
239.527	6.17995
242.902	7.00966
246.277	11.9902
249.652	8.73358
253.026	2.52837
256.401	12.0695
259.776	39.1258
263.151	73.7538
266.526	104.899
269.901	83.651
273.276	39.0374
276.65	23.6056
280.025	20.0522
283.4	31.3741
286.775	52.4572
290.15	84.2733
293.524	130.182
296.899	207.177
300.274	337.059
303.649	583.449
307.024	970.357
310.399	1446.06
313.773	2067.79
317.148	2956.51
320.523	4049.38
323.898	4455.8
327.273	3734.43
330.647	2815.75
334.022	1783.55
337.397	1017.94
340.772	576.388
344.147	327.358
347.522	191.654
350.896	107.715
354.271	60.0909
357.646	25.8937
361.021	12.5065
364.396	7.90018
367.77	7.785
371.145	41.4247
374.52	133.494
377.895	262.149
381.27	387.757
384.644	601.771
388.019	1024.32
391.394	1477.02
394.769	1044.89
398.144	583.148
401.519	537.199
404.894	449.927
408.268	244.851
411.643	113.033
415.018	51.866
418.393	19.8548
421.767	5.37795
425.142	1.80811
428.517	6.53545
431.892	7.28075
435.267	6.32898
438.642	4.18604
442.017	0.744156
445.391	3.18358
448.766	8.01204
452.141	10.5918
455.516	13.5984
458.891	9.49701
462.265	14.7087
465.64	20.0373
469.015	14.2924
472.39	17.1088
475.765	18.3701
479.139	19.5807
482.514	20.4289
485.889	20.0883
489.264	17.9569
492.639	15.9447
496.014	11.9719
499.388	13.1671
502.763	10.2606
506.138	9.01421
509.513	9.50429
512.888	7.56941
516.263	8.61238
519.637	9.30711
523.012	5.28276
526.387	6.03546
529.762	7.2583
533.137	4.56827
536.511	6.47728
539.886	5.83173
543.261	1.52975
546.636	1.5567
550.011	2.39209
553.386	3.5247
556.76	0.614243
560.135	0.313004
563.51	2.40822
566.885	1.36353
570.26	0.908371
573.635	7.03192
577.009	2.88718
580.384	3.59544
583.759	0.85408
587.134	1.46379
590.509	1.07837
593.883	0.913055
597.258	1.47609
600.633	0.854431
604.008	0.884613
607.383	1.57135
610.758	1.23267
614.132	2.25767
617.507	1.07194
620.882	2.80373
624.257	0.447464
627.632	3.73784
631.006	2.93983
634.381	3.81769
637.756	6.3503
641.131	10.0948
644.506	10.5691
647.881	9.46094
651.255	9.18271
654.63	12.4573
658.005	14.5695
661.38	15.4582
664.755	16.153
668.13	17.5533
671.504	18.5756
674.879	23.122
678.254	25.101
681.629	27.6111
685.004	31.7339
688.378	36.5996
691.753	38.3965
695.128	40.3089
698.503	42.7625
701.878	39.9159
705.253	37.3863
708.627	37.2972
712.002	23.1221
715.377	17.8998
718.752	10.2602
722.127	9.7527
725.501	7.13359
728.876	4.3775
732.251	0.679932
735.626	1.39677
739.001	2.19543
742.375	1.95972
745.75	3.29524
749.125	1.70421
752.5	2.58688
755.875	4.47286
759.25	7.08444
762.625	16.2451
765.999	31.183
769.374	50.2884
772.749	88.2791
776.124	168.72
779.499	373.407
782.873	732.102
786.248	1159.67
789.623	1976.22
792.998	2934.96
796.373	2295.05
799.747	775.277
803.122	273.339
806.497	111.569
809.872	40.7551
813.247	8.83243
816.621	4.34619
819.996	12.0212
823.371	1.35382
826.746	27.3847
830.121	86.6
833.496	247.894
836.87	558.109
840.245	904.577
843.62	1669.22
846.995	2634.46
850.37	1655.58
853.745	602.824
857.119	523.332
860.494	787.917
863.869	1582.05
867.244	3351.12
870.619	5609.35
873.994	9593.07
877.368	15113.2
880.743	13711.3
884.118	5701.69
887.493	2531.96
890.868	1342.6
894.242	803.165
897.617	524.946
900.992	367.466
904.367	276.557
907.742	216.08
911.116	159.602
914.491	91.9402
917.866	47.2824
921.241	24.0633
924.616	12.3912
927.991	8.95163
931.365	5.06686
934.74	0.71875
938.115	1.46594
941.49	6.78845
944.865	5.36502
948.24	8.19908
951.614	1.80608
954.989	2.62732
958.364	7.13119
961.739	5.78011
965.114	10.36
968.489	12.7835
971.863	16.9007
975.238	14.1025
978.613	16.7751
981.988	19.7022
985.362	17.5587
988.737	20.882
992.112	23.1899
995.487	19.7064
998.862	18.6608
1002.24	14.0377
1005.61	12.7621
1008.99	10.0021
1012.36	10.5408
1015.74	7.59215
1019.11	10.8342
1022.49	9.80118
1025.86	8.26683
1029.23	12.9934
1032.61	8.47287
1035.98	10.3998
1039.36	9.64989
1042.73	9.08087
1046.11	8.46332
1049.48	5.53142
1052.86	5.79408
1056.23	2.81891
1059.61	4.15704
1062.98	3.17445
1066.36	1.23091
1069.73	0.070297
1073.11	2.35284
1076.48	2.8268
1079.86	1.48109
1083.23	1.26686
1086.61	2.96132
1089.98	1.83043
1093.36	0.751724
1096.73	2.36685
1100.11	0.605682
1103.48	3.6649
1106.86	2.37402
1110.23	1.71603
1113.61	2.5202
1116.98	2.67833
1120.36	1.38638
1123.73	2.67282
1127.11	1.54907
1130.48	0.405151
1133.86	2.01562
1137.23	2.50995
1140.6	1.07593
1143.98	0.968735
1147.35	1.92809
1150.73	0.827637
1154.1	2.1557
1157.48	2.96593
1160.85	3.89282
1164.23	2.56697
1167.6	5.26021
1170.98	4.23708
1174.35	4.47107
1177.73	5.68266
1181.1	7.84584
1184.48	6.53821
1187.85	5.99837
1191.23	6.34419
1194.6	7.01994
1197.98	4.55096
1201.35	4.84729
1204.73	5.82137
1208.1	4.86336
1211.48	7.39002
1214.85	3.52025
1218.22	3.31946
1221.6	4.96416
1224.97	5.27527
1228.35	9.19083
1231.72	3.21881
1235.1	1.59042
1238.47	1.59468
1241.85	1.38266
1245.22	2.12764
1248.6	0.145081
1251.97	2.2644
1255.35	2.24687
1258.72	3.97034
1262.1	3.17912
1265.47	2.452
1268.85	3.55716
1272.22	0.161972
1275.6	4.28734
1278.97	4.56102
1282.35	3.51347
1285.72	4.84555
1289.1	3.02676
1292.47	0.793076
1295.85	0.844437
1299.22	2.75328
1302.6	0
