Measurement: Raman, 532 nm, unoriented, Raman Data Processed
Mineral: Powellite
Rruff sample: R050355
Ideal chemistry: CaMoO_4_
Locality: Nasik, India
Source: George Rossman
Description: Light brown fragment
Measured chemistry: Ca_1.00_Mo_1.00_O_4_
Raman shift (cm-1)	intensity
128.03	0
130.923	41.6421
133.816	305.308
136.708	486.044
139.601	857.697
142.494	1872.36
145.386	1703.68
148.279	324.496
151.172	83.5504
154.065	38.7154
156.957	13.5427
159.85	62.9762
162.743	19.3954
165.635	8.72351
168.528	25.3762
171.421	85.4198
174.313	89.1759
177.206	114.998
180.099	187.92
182.992	325.629
185.884	530.502
188.777	878.427
191.67	1106.09
194.562	1249.78
197.455	1552.93
200.348	2216.69
203.24	3331.54
206.133	3643.54
209.026	2100.18
211.918	1208.15
214.811	852.211
217.704	612.069
220.596	344.615
223.489	195.51
226.382	125.115
229.275	37.3749
232.167	34.0764
235.06	18.4855
237.953	7.0249
240.845	25.7623
243.738	4.41797
246.631	36.6743
249.524	5.23828
252.416	4.60168
255.309	23.7379
258.202	5.40442
261.094	24.3772
263.987	94.2704
266.88	146.574
269.772	83.7405
272.665	70.0774
275.558	44.7703
278.451	67.9972
281.343	52.1596
284.236	74.2755
287.129	120.649
290.021	157.283
292.914	222.874
295.807	277.159
298.7	387.125
301.592	579.852
304.485	849.212
307.378	1301.65
310.27	1880.83
313.163	2650.37
316.056	3659.97
318.948	4821.77
321.841	6172.4
324.734	7083.41
327.627	7059.12
330.519	5957.56
333.412	4081.83
336.305	2514.01
339.197	1547.62
342.09	893.431
344.983	554.839
347.875	337.026
350.768	238.793
353.661	137.368
356.553	98.5969
359.446	97.8169
362.339	51.1218
365.231	74.1448
368.124	104.8
371.017	175.213
373.91	410.273
376.802	774.176
379.695	1070.3
382.588	1464.12
385.48	2161.95
388.373	3409.47
391.266	4970.76
394.159	3767.69
397.051	1537.54
399.944	840.299
402.837	673.362
405.729	435.963
408.622	261.106
411.515	120.521
414.407	48.6538
417.3	25.4639
420.193	1.71179
423.086	13.9231
425.978	33.2263
428.871	11.3259
431.764	0.0271
434.656	15.6838
437.549	8.3147
440.442	16.3142
443.334	28.3032
446.227	18.5511
449.12	19.1672
452.012	23.6848
454.905	32.3423
457.798	11.4076
460.691	47.2449
463.583	27.9713
466.476	27.5949
469.369	38.7207
472.261	48.587
475.154	39.5648
478.047	58.5006
480.94	65.549
483.832	49.9484
486.725	52.9844
489.618	77.8842
492.51	26.38
495.403	23.1509
498.296	22.7086
501.188	49.3865
504.081	34.7141
506.974	45.1028
509.866	18.4883
512.759	37.9342
515.652	43.7828
518.545	27.6995
521.437	32.4221
524.33	38.0098
527.223	3.89062
530.115	38.9318
533.008	10.5171
535.901	41.2123
538.794	39.7637
541.686	19.9048
544.579	8.11999
547.472	7.57922
550.364	10.8519
553.257	18.7256
556.15	33.6837
559.043	10.415
561.935	12.4868
564.828	23.6182
567.721	40.5298
570.613	42.016
573.506	8.29285
576.399	7.6239
579.291	26.9229
582.184	23.5983
585.077	15.3672
587.969	13.7679
590.862	30.066
593.755	10.3993
596.648	19.3673
599.54	17.1913
602.433	31.4992
605.326	16.3599
608.218	18.2897
611.111	7.79529
614.004	24.1477
616.896	4.03882
619.789	20.7747
622.682	28.5721
625.574	23.8848
628.467	14.9722
631.36	33.7744
634.253	10.949
637.145	18.1367
640.038	32.311
642.931	40.6836
645.823	42.6572
648.716	41.1587
651.609	5.21387
654.501	45.9582
657.394	33.5791
660.287	26.5737
663.18	61.3828
666.072	26.1223
668.965	23.5291
671.858	17.252
674.75	56.0496
677.643	20.4104
680.536	63.9722
683.428	39.4702
686.321	47.5977
689.214	17.2996
692.107	50.1641
694.999	35.2493
697.892	69.8354
700.785	68.9453
703.677	50.9573
706.57	5.44653
709.463	53.3879
712.356	7.77856
715.248	28.4739
718.141	37.1492
721.034	4.39966
723.926	35.5832
726.819	31.2293
729.712	26.5967
732.604	21.7913
735.497	11.0095
738.39	20.9319
741.283	3.68457
744.175	11.8984
747.068	3.69067
749.961	1.06128
752.853	25.9692
755.746	16.1548
758.639	58.8557
761.531	36.3462
764.424	33.762
767.317	21.8386
770.21	60.9883
773.102	30.6111
775.995	147.531
778.888	254.347
781.78	451.709
784.673	755.246
787.566	1296.33
790.458	2209.13
793.351	3308.61
796.244	2385.55
799.136	792.571
802.029	244.943
804.922	120.815
807.815	41.8415
810.707	27.2168
813.6	28.4397
816.493	3.44922
819.385	26.7476
822.278	26.1252
825.171	83.2639
828.063	144.925
830.956	336.477
833.849	723.813
836.742	1312.7
839.634	1928.64
842.527	3154.36
845.42	5416.17
848.312	7138.01
851.205	2851.69
854.098	1208.25
856.99	998.322
859.883	1342.11
862.776	2361.52
865.669	4636.08
868.561	7808.32
871.454	12091.1
874.347	19584.8
877.239	30893.9
880.132	31922.6
883.025	15038.2
885.918	6657.19
888.81	3447.04
891.703	1930.83
894.596	1212.26
897.488	782.746
900.381	488.111
903.274	383.827
906.166	251.31
909.059	206.147
911.952	130.538
914.845	137.698
917.737	132.306
920.63	156.165
923.523	80.6719
926.415	25.5762
929.308	19.439
932.201	30.6311
935.093	26.2661
937.986	7.51245
940.879	5.68994
943.771	11.6223
946.664	4.45386
949.557	40.7439
952.45	51.9216
955.342	9.69287
958.235	31.2605
961.128	23.0549
964.02	24.6912
966.913	6.25171
969.806	10.8262
972.698	24.4468
975.591	56.6697
978.484	37.4009
981.377	50.1182
984.269	45.9292
987.162	46.1863
990.055	49.1594
992.947	58.7402
995.84	39.262
998.733	53.249
1001.63	61.4622
1004.52	47.687
1007.41	24.5801
1010.3	30.5166
1013.2	20.8528
1016.09	24.9243
1018.98	56.4978
1021.87	30.7422
1024.77	51.6206
1027.66	36.9072
1030.55	42.4585
1033.44	64.0427
1036.34	51.6138
1039.23	34.6443
1042.12	45.2324
1045.02	58.2332
1047.91	37.3401
1050.8	16.7158
1053.69	32.3091
1056.59	36.2295
1059.48	12.6099
1062.37	39.5269
1065.27	12.0229
1068.16	53.2769
1071.05	51.5352
1073.94	54.3852
1076.84	47.8198
1079.73	9.84692
1082.62	23.168
1085.51	24.0039
1088.41	10.2837
1091.3	21.2463
1094.19	15.471
1097.09	47.6072
1099.98	79.1196
1102.87	50.0295
1105.76	46.926
1108.65	45.0493
1111.55	43.0806
1114.44	23.4922
1117.33	23.3049
1120.23	66.5293
1123.12	16.9995
1126.01	19.1345
1128.9	17.1421
1131.8	41.0698
1134.69	44.2041
1137.58	39.877
1140.47	14.5308
1143.37	49.8813
1146.26	32.6052
1149.15	2.77222
1152.05	28.2378
1154.94	0.922852
1157.83	30.9373
1160.72	58.012
1163.62	19.4993
1166.51	20.2866
1169.4	63.7398
1172.3	12.2522
1175.19	33.6257
1178.08	70.5979
1180.97	10.7173
1183.87	12.7739
1186.76	15.1438
1189.65	27.2815
1192.54	40.5496
1195.44	39.7688
1198.33	13.1533
1201.22	33.6089
1204.12	45.3655
1207.01	52.7107
1209.9	18.8254
1212.79	1.42749
1215.68	58.9853
1218.58	0.582764
1221.47	26.1494
1224.36	40.3525
1227.26	29.2695
1230.15	16.1575
1233.04	18.6352
1235.93	25.9949
1238.83	17.7334
1241.72	18.3303
1244.61	21.3462
1247.51	53.2827
1250.4	14.1594
1253.29	28.3269
1256.18	30.8686
1259.08	40.3782
1261.97	55.4853
1264.86	20.353
1267.75	5.53882
1270.65	29.5549
1273.54	8.16479
1276.43	21.261
