Measurement: Raman, 514 nm, unoriented, Raman Data Processed
Mineral: Powellite
Rruff sample: R050355
Ideal chemistry: CaMoO_4_
Locality: Nasik, India
Source: George Rossman
Description: Light brown fragment
Measured chemistry: Ca_1.00_Mo_1.00_O_4_
Raman shift (cm-1)	intensity
52.866	0
57.065	17.218
61.262	7.518
65.458	6.43
69.651	0.417
73.842	33.589
78.031	106.378
82.218	156.094
86.404	195.148
90.587	281.147
94.768	367.824
98.947	513.915
103.124	1274.14
107.3	2900.33
111.473	6338.38
115.644	2667.23
119.813	710.824
123.981	436.135
128.146	389.129
132.309	393.776
136.47	598.019
140.63	1049.46
144.787	1304.01
148.942	573.763
153.096	364.788
157.247	312.113
161.396	277.755
165.544	285.728
169.689	296.037
173.833	300.69
177.974	285.696
182.114	377.069
186.251	494.858
190.387	688.959
194.52	1020.38
198.652	1942.19
202.782	3778.35
206.909	3977.79
211.035	1929.46
215.159	1003.37
219.281	595.864
223.4	352.425
227.518	227.329
231.634	199.565
235.748	184.355
239.86	171.955
243.97	124.987
248.079	133.408
252.185	92.163
256.289	98.222
260.391	119.585
264.492	215.227
268.59	191.131
272.687	167.374
276.781	196.744
280.874	170.645
284.964	168.53
289.053	174.731
293.14	218.494
297.225	302.256
301.308	404.714
305.389	570.665
309.468	990.862
313.545	1831.3
317.62	3674.98
321.693	6044.41
325.765	5367.8
329.834	3699.32
333.902	2160.54
337.967	1256.47
342.031	686.706
346.093	440.757
350.153	322.83
354.21	237.828
358.267	196.387
362.321	173.821
366.373	148.335
370.423	163.925
374.471	247.978
378.518	271.166
382.563	512.565
386.605	1361.63
390.646	3050.68
394.685	2268.2
398.722	928.594
402.757	576.667
406.79	355.445
410.821	198.065
414.851	129.775
418.878	59.848
422.904	38.488
426.927	30.826
430.949	28.866
434.969	52.054
438.987	7.281
443.003	0.559
447.018	2.41
451.03	3.714
455.041	10.919
459.049	13.271
463.056	9.132
467.061	21.722
471.064	10.363
475.065	6.537
479.064	4.888
483.062	5.476
487.057	12.423
491.051	9.74
495.043	21.675
499.032	1.269
503.02	41.048
507.007	7.149
510.991	9.9
514.973	1.067
518.954	12.184
522.933	17.839
526.91	20.869
530.885	12.465
534.858	49.005
538.829	14.449
542.799	20.098
546.766	18.906
550.732	13.474
554.696	8.747
558.658	66.139
562.618	12.009
566.576	55.01
570.533	39.827
574.488	90.787
578.44	5.351
582.391	27.349
586.341	29.619
590.288	70.117
594.233	27.44
598.177	27.427
602.119	42.373
606.059	41.463
609.997	57.347
613.933	44.51
617.868	52.297
621.801	24.966
625.731	55.919
629.66	9.686
633.588	2.836
637.513	21.944
641.437	87.402
645.358	46.133
649.278	8.01
653.196	42.433
657.113	12.495
661.027	33.275
664.94	3.644
668.851	21.385
672.76	21.962
676.667	31.682
680.572	16.344
684.476	43.946
688.378	33.491
692.278	13.59
696.176	24.247
700.072	30.348
703.967	17.476
707.86	54.665
711.751	0.206
715.64	11.507
719.527	10.546
723.413	46.504
727.297	35.359
731.179	40.143
735.059	33.764
738.937	13.583
742.814	32.646
746.689	46.23
750.562	15.476
754.433	31.872
758.303	82.344
762.17	87.114
766.036	76.438
769.901	129.702
773.763	135.134
777.624	178.959
781.482	254.369
785.339	481.999
789.195	1259.03
793.048	3119.12
796.9	1867.47
800.75	661.929
804.598	429.733
808.445	296.272
812.289	279.572
816.132	259.596
819.973	333.772
823.813	461.444
827.65	459.937
831.486	720.312
835.32	1087.45
839.152	1878.98
842.983	5431.89
846.812	15717.7
850.639	8037.71
854.464	2624.55
858.288	1764.69
862.11	2038.89
865.93	3239.72
869.748	6838.84
873.564	18319.2
877.379	49360.6
881.192	39465
885.004	14349.2
888.813	6018.91
892.621	3136.32
896.427	1857.78
900.232	1299.27
904.034	918.2
907.835	788.835
911.634	584.429
915.432	559.097
919.227	650.749
923.021	420.458
926.813	400.173
930.604	327.918
934.393	241.773
938.18	292.737
941.965	226.66
945.749	203.706
949.53	183.036
953.311	189.629
957.089	211.715
960.866	168.813
964.641	163.392
968.414	150.727
972.185	39.134
975.955	51.316
979.723	106.281
983.49	119.156
987.254	64.986
991.017	30.861
994.779	96.74
998.538	34.536
1002.3	30.211
1006.05	62.711
1009.81	36.216
1013.56	56.362
1017.31	94.313
1021.06	72.854
1024.81	54.645
1028.55	36.599
1032.3	29.198
1036.04	35.81
1039.78	80.38
1043.52	40.84
1047.26	54.383
1050.99	5.735
1054.73	14.418
1058.46	53.018
1062.19	14.494
1065.92	55.768
1069.65	14.069
1073.37	32.423
1077.1	78.896
1080.82	34.042
1084.54	22.118
1088.26	29.817
1091.97	13.315
1095.69	54.76
1099.4	64.556
1103.12	56.985
1106.83	19.247
1110.54	36.469
1114.24	25.075
1117.95	14.525
1121.65	6.13
1125.35	18.203
1129.06	5.876
1132.75	38.159
1136.45	39.824
1140.15	30.737
1143.84	33.281
1147.53	20.003
1151.22	54.088
1154.91	16.372
1158.6	1.262
1162.28	64.114
1165.97	102.619
1169.65	47.601
1173.33	39.883
1177.01	65.686
1180.69	21.282
1184.36	44.619
1188.04	51.679
1191.71	73.933
1195.38	68.494
1199.05	20.035
1202.71	125.163
1206.38	74.196
1210.04	55.8
1213.71	100.295
1217.37	53.803
1221.03	82.237
1224.68	120.589
1228.34	63.675
1231.99	72.592
1235.65	75.493
1239.3	6.138
1242.95	69.807
1246.59	37.961
1250.24	52.245
1253.88	68.231
1257.53	66.864
1261.17	65.526
1264.81	53.325
1268.45	27.079
1272.08	77.07
1275.72	59.731
1279.35	61.448
1282.98	50.266
1286.61	134.88
1290.24	57.41
1293.87	38.836
1297.49	17.616
1301.11	61.01
1304.73	78.961
1308.36	80.414
1311.97	15.314
1315.59	58.465
1319.2	6.298
1322.82	26.001
1326.43	12.644
1330.04	20.449
1333.65	29.879
1337.26	2.906
1340.86	4.356
1344.47	53.675
1348.07	56.07
1351.67	79.181
1355.27	78.249
1358.87	35.595
1362.46	86.708
1366.06	42.903
1369.65	85.702
1373.24	90.767
1376.83	79.879
1380.42	26.385
1384	66.115
1387.59	65.432
1391.17	126.93
1394.75	46.442
1398.33	62.522
1401.91	93.5
1405.49	103.201
1409.06	82.476
1412.64	116.714
1416.21	68.301
1419.78	139.561
1423.35	85.254
1426.91	121.595
1430.48	132.298
1434.05	94.527
1437.61	93.933
1441.17	113.51
1444.73	78.393
1448.29	128.492
1451.84	104.722
1455.4	122.5
1458.95	135.535
1462.5	86.524
1466.05	60.154
1469.6	125.593
1473.15	83.784
1476.69	59.465
1480.24	110.422
1483.78	122.09
1487.32	110.357
1490.86	101.65
1494.39	102.075
1497.93	81.907
1501.46	74.245
1505	73.454
1508.53	85.494
1512.06	117.815
1515.59	48.96
1519.11	11.28
1522.64	42.152
