Measurement: Raman, 780 nm, unoriented, Raman Data Processed
Mineral: Powellite
Rruff sample: R100180
Ideal chemistry: CaMoO_4_
Locality: Carlota mine, Pinto Creek, Gila, Arizona, USA
Source: Joe Ruiz
Description: Pale green thick tabular crystals, associated with blue azurite, green elongated szenicsite (R100179) and colorless granular prosopite (R100181).
Raman shift (cm-1)	intensity
120.497	0
123.871	52.345
127.246	54.8377
130.621	120.056
133.996	196.421
137.371	303.778
140.746	583.123
144.12	623.281
147.495	124.179
150.87	22.7813
154.245	1.37871
157.62	2.40927
160.994	4.68277
164.369	2.85959
167.744	20.682
171.119	44.8543
174.494	60.9348
177.869	100.463
181.243	164.546
184.618	260.702
187.993	332.785
191.368	355.256
194.743	350.49
198.117	388.224
201.492	460.301
204.867	429.711
208.242	258.337
211.617	159.52
214.992	106.208
218.366	58.4051
221.741	28.1371
225.116	16.3037
228.491	4.42535
231.866	2.49844
235.24	1.76737
238.615	4.79301
241.99	3.14
245.365	3.78136
248.74	4.2793
252.114	7.91164
255.489	7.33299
258.864	19.4967
262.239	32.1263
265.614	42.3924
268.988	27.3424
272.363	15.0552
275.738	9.10091
279.113	11.9872
282.488	21.0586
285.863	34.9472
289.237	58.7608
292.612	89.8127
295.987	146.091
299.362	249.458
302.737	424.401
306.111	629.304
309.486	848.564
312.861	1080.6
316.236	1349.73
319.611	1647.87
322.986	1681.65
326.36	1357.01
329.735	965.392
333.11	605.63
336.485	362.204
339.86	192.957
343.234	102.461
346.609	53.2224
349.984	25.2248
353.359	9.02023
356.734	3.07906
360.108	5.06473
363.483	13.5511
366.858	40.6696
370.233	105.747
373.608	244.69
376.983	314.841
380.357	380.459
383.732	472.068
387.107	611.083
390.482	769.151
393.857	536.867
397.231	282.937
400.606	223.66
403.981	175.474
407.356	97.9202
410.731	47.8385
414.106	24.1364
417.48	10.7524
420.855	4.24618
424.23	0.971832
427.605	1.90871
430.98	2.47977
434.354	2.79385
437.729	2.96469
441.104	0.287193
444.479	1.32742
447.854	1.34855
451.228	2.90101
454.603	5.10543
457.978	3.77879
461.353	7.2529
464.728	8.03488
468.103	8.03419
471.477	11.0303
474.852	14.178
478.227	14.4253
481.602	14.4649
484.977	16.3334
488.351	16.7993
491.726	15.4543
495.101	13.3692
498.476	15.4658
501.851	13.8857
505.226	12.1681
508.6	11.5217
511.975	9.40502
515.35	10.2217
518.725	11.3151
522.1	7.53011
525.474	5.39665
528.849	6.49766
532.224	5.44956
535.599	4.83351
538.974	4.26227
542.348	5.16751
545.723	5.87649
549.098	3.47339
552.473	6.85778
555.848	5.65796
559.222	6.07288
562.597	6.66795
565.972	10.0435
569.347	11.4255
572.722	14.1202
576.097	14.0814
579.471	15.955
582.846	11.9411
586.221	11.7515
589.596	10.0846
592.971	7.72662
596.346	5.54617
599.72	2.92504
603.095	1.44323
606.47	1.93207
609.845	1.33044
613.22	2.14817
616.594	0.592773
619.969	1.09368
623.344	0.105431
626.719	1.95825
630.094	0.447075
633.468	3.88013
636.843	2.85817
640.218	2.29909
643.593	1.99793
646.968	2.89368
650.342	3.3359
653.717	3.25959
657.092	2.56822
660.467	4.16981
663.842	4.52767
667.217	6.90825
670.591	7.96017
673.966	6.98946
677.341	5.23498
680.716	5.88666
684.091	7.58472
687.466	7.10578
690.84	5.61986
694.215	8.61221
697.59	5.96701
700.965	5.42842
704.34	3.80405
707.714	4.65012
711.089	5.14475
714.464	1.49374
717.839	2.33069
721.214	0.752037
724.588	1.14998
727.963	0.156982
731.338	0.204369
734.713	2.13644
738.088	0.930595
741.462	0.465675
744.837	0.684669
748.212	2.25452
751.587	2.84037
754.962	1.14913
758.337	4.19128
761.711	10.6363
765.086	14.2708
768.461	24.375
771.836	43.1455
775.211	90.8284
778.586	200.735
781.96	296.764
785.335	387.952
788.71	524.263
792.085	724.166
795.46	548.663
798.834	187.05
802.209	65.4787
805.584	24.2467
808.959	5.30208
812.334	3.28099
815.708	3.02571
819.083	4.35971
822.458	6.3822
825.833	17.3564
829.208	51.9031
832.582	145.038
835.957	228.041
839.332	306.712
842.707	440.451
846.082	666.279
849.457	424.462
852.831	202.474
856.206	236.221
859.581	426.835
862.956	931.894
866.331	1615.49
869.705	2097.82
873.08	2659.9
876.455	3399.34
879.83	2846.3
883.205	1276.51
886.58	588.606
889.954	319.985
893.329	190.836
896.704	126.36
900.079	85.6136
903.454	63.0705
906.828	45.8121
910.203	32.7371
913.578	18.533
916.953	7.94549
920.328	5.1979
923.702	2.40988
927.077	1.40353
930.452	0.606598
933.827	0.239845
937.202	1.23001
940.577	1.73521
943.951	1.05734
947.326	0.144279
950.701	2.09529
954.076	1.66292
957.451	0.322075
960.825	3.04223
964.2	3.84487
967.575	6.21419
970.95	5.25588
974.325	5.64419
977.699	5.64171
981.074	7.00224
984.449	6.99179
987.824	8.1674
991.199	8.90798
994.574	6.52966
997.948	6.63077
1001.32	4.50835
1004.7	5.3191
1008.07	4.76748
1011.45	4.62728
1014.82	6.01885
1018.2	3.84327
1021.57	4.65657
1024.95	2.64846
1028.32	2.71761
1031.7	3.86837
1035.07	4.65275
1038.45	4.58891
1041.82	3.59902
1045.2	3.53511
1048.57	3.0946
1051.94	2.10465
1055.32	0.774952
1058.69	0.315395
1062.07	2.45815
1065.44	4.15708
1068.82	1.93202
1072.19	1.56714
1075.57	1.56094
1078.94	2.34185
1082.32	2.34271
1085.69	0.945705
1089.07	0.339859
1092.44	0.472046
1095.82	2.05758
1099.19	4.04265
1102.57	2.7562
1105.94	2.24968
1109.32	3.46849
1112.69	2.96355
1116.07	1.4505
1119.44	7.26811
1122.82	2.10321
1126.19	1.81043
1129.57	0.340382
1132.94	2.75155
1136.32	1.22685
1139.69	1.13553
1143.07	1.30602
1146.44	2.7672
1149.82	2.7952
1153.19	2.629
1156.57	2.46934
1159.94	2.57694
1163.31	2.8924
1166.69	4.09957
1170.06	4.92764
1173.44	2.89543
1176.81	3.00684
1180.19	3.83315
1183.56	2.97221
1186.94	1.60588
1190.31	4.73769
1193.69	2.60108
1197.06	2.67176
1200.44	0.512218
1203.81	3.12471
1207.19	3.92269
1210.56	3.76667
1213.94	2.59743
1217.31	2.5404
1220.69	2.02444
1224.06	3.04284
1227.44	2.21225
1230.81	1.27231
1234.18	2.23879
1237.56	1.98836
1240.93	3.52425
1244.31	3.03719
1247.68	1.39701
1251.06	2.56754
1254.43	2.14269
1257.81	4.97911
1261.18	4.39781
1264.56	3.16515
1267.93	4.57185
1271.31	4.42887
1274.68	0.877556
1278.06	1.37929
1281.43	0.493706
1284.81	0
