Measurement: Raman, 780 nm, unoriented, Raman Data Processed
Mineral: Prehnite
Rruff sample: R130046
Ideal chemistry: Ca_2_Al(Si_3_Al)O_10_(OH)_2_
Locality: Eagle Head (Deep Cove), Cape Breton County, Nova Scotia, Canada
Source: Don Doell
Description: Colorless bladed crystals
Raman shift (cm-1)	intensity
133.144	0
136.036	2.49725
138.929	26.0407
141.822	23.1669
144.714	20.2672
147.607	13.5148
150.5	4.15137
153.393	14.7721
156.285	15.6676
159.178	25.3057
162.071	52.6621
164.963	34.9571
167.856	4.25311
170.749	0.034058
173.642	1.34827
176.534	4.92188
179.427	12.0564
182.32	23.1115
185.212	48.3524
188.105	56.0198
190.998	59.7452
193.89	82.6448
196.783	89.7003
199.676	105.366
202.569	113.683
205.461	98.9589
208.354	68.5263
211.247	71.131
214.139	98.4522
217.032	136.067
219.925	109.952
222.817	60.1168
225.71	30.9573
228.603	22.6661
231.495	18.876
234.388	19.692
237.281	24.5774
240.173	34.7223
243.066	26.4795
245.959	23.6522
248.852	11.6609
251.744	3.74762
254.637	1.83649
257.53	1.96716
260.422	0.120667
263.315	1.16394
266.208	4.55786
269.101	9.68536
271.993	12.1197
274.886	20.141
277.779	25.1675
280.671	37.3648
283.564	33.6957
286.457	38.3757
289.349	27.7607
292.242	15.5685
295.135	6.63635
298.027	15.6118
300.92	19.5273
303.813	31.1769
306.706	48.5847
309.598	82.1826
312.491	134.486
315.384	214.98
318.276	171.55
321.169	86.9559
324.062	41.6616
326.954	24.1116
329.847	21.3565
332.74	13.9188
335.633	10.3234
338.525	7.47082
341.418	0.679443
344.311	0.999817
347.203	0.069397
350.096	1.10791
352.989	2.19781
355.882	13.6201
358.774	20.3565
361.667	21.0853
364.56	20.5244
367.452	30.1971
370.345	50.5067
373.238	62.8842
376.13	71.8065
379.023	89.83
381.916	134.87
384.808	209.619
387.701	234.205
390.594	125.291
393.486	60.942
396.379	33.7864
399.272	26.5263
402.165	17.1448
405.057	11.0875
407.95	2.4306
410.843	0.857727
413.735	1.49872
416.628	2.99219
419.521	1.90369
422.413	1.0191
425.306	2.55127
428.199	3.30103
431.092	2.34815
433.984	5.17523
436.877	9.74384
439.77	16.6003
442.662	17.8248
445.555	11.3488
448.448	4.27991
451.341	8.50317
454.233	9.79047
457.126	19.9619
460.019	22.8638
462.911	29.6196
465.804	25.0504
468.697	30.2202
471.589	23.7115
474.482	27.1398
477.375	24.3771
480.267	37.165
483.16	32.0126
486.053	32.557
488.946	34.2255
491.838	38.9796
494.731	54.7884
497.624	68.9868
500.516	91.1296
503.409	130.85
506.302	187.788
509.195	258.882
512.087	354.224
514.98	478.397
517.873	574.774
520.765	522.083
523.658	367.363
526.551	238.22
529.443	160.887
532.336	126.315
535.229	118.403
538.121	124.056
541.014	114.043
543.907	79.786
546.799	47.9631
549.692	26.7072
552.585	17.9328
555.478	8.82367
558.37	5.58276
561.263	0.856506
564.156	1.14978
567.048	0.472046
569.941	2.76331
572.834	1.16461
575.726	2.1087
578.619	1.47565
581.512	5.09961
584.405	9.76532
587.297	17.8817
590.19	24.0311
593.083	37.3549
595.975	45.6627
598.868	41.829
601.761	48.5284
604.654	56.3737
607.546	58.4697
610.439	43.446
613.332	29.7526
616.224	21.6897
619.117	17.4703
622.01	20.7432
624.902	24.981
627.795	31.3132
630.688	30.3639
633.58	30.3099
636.473	19.0005
639.366	13.0814
642.259	6.28088
645.151	5.69562
648.044	2.83167
650.937	1.98328
653.829	0.052185
656.722	4.59235
659.615	0.764832
662.507	4.09967
665.4	3.87506
668.293	7.73853
671.186	8.31
674.078	9.55005
676.971	11.6096
679.864	18.6302
682.756	25.7334
685.649	33.751
688.542	35.0506
691.434	29.7838
694.327	20.1605
697.22	11.7496
700.112	6.0036
703.005	2.23187
705.898	2.16736
708.791	2.1203
711.683	0.052429
714.576	0.544983
717.469	1.76721
720.361	1.93024
723.254	2.06061
726.147	0.825378
729.039	2.33002
731.932	3.27594
734.825	2.91418
737.718	5.55335
740.61	8.95111
743.503	8.27356
746.396	12.9049
749.288	15.9462
752.181	15.3993
755.074	7.3472
757.966	9.70798
760.859	9.10562
763.752	11.8857
766.645	17.3157
769.537	19.8588
772.43	25.0912
775.323	32.6363
778.215	41.7192
781.108	45.4664
784.001	39.9157
786.894	23.5266
789.786	14.6949
792.679	11.0781
795.572	8.22235
798.464	3.2666
801.357	4.17432
804.25	6.21088
807.142	1.58701
810.035	5.81009
812.928	1.84799
815.82	4.9747
818.713	5.7413
821.606	5.20312
824.499	2.45993
827.391	3.17502
830.284	1.31384
833.177	2.04462
836.069	4.70242
838.962	3.80093
841.855	5.47107
844.747	3.92392
847.64	5.50415
850.533	4.91696
853.426	5.00452
856.318	5.01599
859.211	5.22568
862.104	5.57834
864.996	5.25137
867.889	3.87875
870.782	3.36319
873.674	0.773407
876.567	2.84793
879.46	0.144897
882.352	0.116547
885.245	2.51718
888.138	0.631012
891.031	0.508453
893.923	0.086548
896.816	1.75629
899.709	3.49115
902.601	1.09943
905.494	2.51126
908.387	3.56598
911.279	7.21399
914.172	11.0876
917.065	19.5428
919.958	30.7219
922.85	46.5022
925.743	70.5976
928.636	96.3839
931.528	103.347
934.421	93.3597
937.314	75.6693
940.207	61.5624
943.099	51.0212
945.992	50.1363
948.885	50.4143
951.777	48.6254
954.67	40.7184
957.563	32.4729
960.455	25.848
963.348	16.5169
966.241	17.9226
969.133	17.2394
972.026	22.8545
974.919	33.8815
977.812	53.7831
980.704	77.6895
983.597	96.7251
986.49	96.6177
989.382	88.4203
992.275	68.653
995.168	47.0575
998.06	28.709
1000.95	18.5767
1003.85	11.8732
1006.74	6.69501
1009.63	3.53717
1012.52	2.2027
1015.42	3.47858
1018.31	1.55276
1021.2	0.099152
1024.1	0.849274
1026.99	0.421356
1029.88	0.581512
1032.77	2.82996
1035.67	0.98764
1038.56	3.39722
1041.45	1.95163
1044.34	3.27704
1047.24	0.622192
1050.13	4.99255
1053.02	5.20197
1055.91	12.4215
1058.81	23.9789
1061.7	22.6415
1064.59	18.4244
1067.48	25.1386
1070.38	29.7812
1073.27	30.8935
1076.16	38.3442
1079.06	48.7715
1081.95	41.1637
1084.84	24.6981
1087.73	15.5046
1090.63	9.48547
1093.52	10.5866
1096.41	4.33252
1099.31	3.68872
1102.2	2.45975
1105.09	0.368347
1107.98	1.57944
1110.88	0.494751
1113.77	1.16901
1116.66	0.08078
1119.55	0.001831
1122.45	1.43131
1125.34	2.81348
1128.23	5.97992
1131.12	7.06754
1134.02	6.14862
1136.91	7.68112
1139.8	7.05411
1142.69	3.46188
1145.59	2.9335
1148.48	4.17114
1151.37	3.43231
1154.27	3.86566
1157.16	6.31732
1160.05	4.27786
1162.94	2.45459
1165.84	3.19
1168.73	4.93604
1171.62	4.09049
1174.52	3.10217
1177.41	3.12393
1180.3	2.19858
1183.19	4.84338
1186.09	3.13904
1188.98	1.89542
1191.87	4.42648
1194.76	1.79544
1197.66	4.46387
1200.55	4.77618
1203.44	5.07175
1206.34	2.76471
1209.23	1.2579
1212.12	1.61237
1215.01	1.21997
1217.91	5.67447
1220.8	1.34393
1223.69	2.33203
1226.58	4.0076
1229.48	0.608215
1232.37	0.990479
1235.26	2.98227
1238.15	2.27066
1241.05	0.225342
1243.94	2.5509
1246.83	0.446686
1249.72	0.764984
1252.62	2.16763
1255.51	0.274231
1258.4	0.364075
1261.3	3.31259
1264.19	2.96963
1267.08	4.64874
1269.97	2.55914
1272.87	2.3432
1275.76	1.60605
1278.65	1.13586
1281.55	0.015961
