Measurement: Raman, 785 nm, unoriented, Raman Data Processed
Mineral: Prehnite
Rruff sample: R050055
Ideal chemistry: Ca_2_Al(Si_3_Al)O_10_(OH)_2_
Locality: Diako, Sandare District, Mali
Source: Rock Currier
Description: Light green reniform aggregate
Measured chemistry: Ca_2_(Al_.886_Fe_.114_)_2_Si_3_O_10_(OH)_2_
Raman shift (cm-1)	intensity
125.359	0
128.251	3.36963
131.144	16.4787
134.037	35.7728
136.929	17.3966
139.822	1.44712
142.715	2.26936
145.607	21.7195
148.5	49.007
151.393	94.1266
154.286	93.5238
157.178	95.5739
160.071	141.961
162.964	319.788
165.856	279.791
168.749	56.1367
171.642	24.2554
174.534	34.9036
177.427	46.2901
180.32	68.5067
183.212	126.431
186.105	177.359
188.998	197.244
191.891	194.941
194.783	234.439
197.676	241.986
200.569	266.557
203.461	274.887
206.354	205.42
209.247	139.351
212.139	133.125
215.032	178.41
217.925	225.232
220.818	183.53
223.71	78.314
226.603	41.5213
229.496	31.795
232.388	34.7093
235.281	31.761
238.174	44.5108
241.066	68.9682
243.959	54.0539
246.852	27.6577
249.745	3.43982
252.637	-0.503253
255.53	0.862755
258.423	2.42358
261.315	5.31497
264.208	24.9669
267.101	52.3561
269.993	89.3048
272.886	138.109
275.779	185.724
278.672	212.743
281.564	248.962
284.457	261.39
287.35	323.216
290.242	301.87
293.135	168.197
296.028	89.5344
298.921	66.8677
301.813	92.4051
304.706	148.184
307.599	207.761
310.491	306.639
313.384	481.923
316.277	612.338
319.169	459.236
322.062	259.847
324.955	163.352
327.847	126.607
330.74	113.705
333.633	108.266
336.526	49.6894
339.418	1.4352
342.311	-0.452981
345.204	1.22568
348.096	3.20446
350.989	11.7762
353.882	43.614
356.774	72.6205
359.667	100.55
362.56	111.346
365.452	131.392
368.345	170.093
371.238	218.654
374.131	307.553
377.023	418.885
379.916	546.365
382.809	691.057
385.701	932.072
388.594	1021.81
391.487	628.683
394.38	297.594
397.272	154.274
400.165	97.5713
403.058	59.9302
405.95	33.6747
408.843	23.7184
411.736	25.6212
414.628	26.4853
417.521	34.2889
420.414	23.5456
423.307	23.1709
426.199	9.35318
429.092	27.7074
431.985	49.7974
434.877	81.0431
437.77	112.997
440.663	95.0494
443.555	52.5022
446.448	1.87285
449.341	0.472769
452.234	1.10465
455.126	2.16066
458.019	19.4596
460.912	43.3623
463.804	66.3223
466.697	94.0594
469.59	110.409
472.483	98.6212
475.375	79.117
478.268	102.633
481.161	128.051
484.053	128.017
486.946	125.684
489.839	159.845
492.731	194.988
495.624	250.892
498.517	312.042
501.409	394.008
504.302	567.934
507.195	808.339
510.088	1178.18
512.98	1576.77
515.873	2048.35
518.766	2259.56
521.658	1883.04
524.551	1252.16
527.444	790.98
530.337	592.154
533.229	488.656
536.122	471.947
539.015	483.164
541.907	428.763
544.8	294.968
547.693	167.458
550.585	88.818
553.478	48.2424
556.371	33.561
559.263	14.7342
562.156	4.38577
565.049	-1.07163
567.942	0.262085
570.834	1.89592
573.727	2.75494
576.62	2.84418
579.512	17.9667
582.405	34.6167
585.298	69.712
588.19	99.9328
591.083	153.759
593.976	191.87
596.869	212.427
599.761	188.584
602.654	157.233
605.547	128.387
608.439	101.139
611.332	77.7717
614.225	76.0336
617.117	87.6945
620.01	111.582
622.903	146.489
625.795	179.907
628.688	198.418
631.581	199.467
634.474	161.042
637.366	100.14
640.259	64.4241
643.152	36.9534
646.044	20.3487
648.937	10.3565
651.83	4.49108
654.722	2.63839
657.615	3.69228
660.508	11.3438
663.401	14.3821
666.293	40.4676
669.186	58.1961
672.079	92.8784
674.971	152.865
677.864	200.006
680.757	281.492
683.649	322.321
686.542	314.512
689.435	256.073
692.328	178.945
695.22	113.915
698.113	65.3882
701.006	37.077
703.898	28.202
706.791	7.9828
709.684	4.31773
712.577	0.947998
715.469	8.12922
718.362	3.81374
721.255	8.09916
724.147	7.29049
727.04	7.99925
729.933	6.94387
732.825	22.7956
735.718	29.6597
738.611	48.4394
741.504	72.9368
744.396	92.449
747.289	105.916
750.182	109.301
753.074	102.678
755.967	75.0464
758.86	81.4224
761.752	86.4581
764.645	108.379
767.538	159.152
770.431	221.035
773.323	286.093
776.216	351.924
779.109	401.447
782.001	368.635
784.894	265.757
787.787	178.529
790.679	113.382
793.572	96.5353
796.465	58.5885
799.357	49.4577
802.25	39.5253
805.143	34.1675
808.036	19.5619
810.928	23.3937
813.821	20.3703
816.714	18.4685
819.606	16.2427
822.499	18.8282
825.392	12.7813
828.284	1.32427
831.177	8.46628
834.07	7.89855
836.963	9.51768
839.855	0.766403
842.748	8.14011
845.641	4.4696
848.533	2.67354
851.426	2.91405
854.319	4.76794
857.212	7.42526
860.104	0.500664
862.997	8.82461
865.89	0.651611
868.782	4.24367
871.675	1.59503
874.568	1.91601
877.46	5.47411
880.353	5.87481
883.246	2.35168
886.139	2.82499
889.031	4.03093
891.924	1.27418
894.817	16.7322
897.709	26.3137
900.602	30.0809
903.495	46.3808
906.388	53.0273
909.28	87.3907
912.173	74.7472
915.066	109.09
917.958	150.033
920.851	226.128
923.744	325.108
926.636	426.465
929.529	495.911
932.422	510.662
935.314	488.523
938.207	449.528
941.1	393.817
943.993	375.088
946.885	368.22
949.778	385.101
952.671	359.204
955.563	328.68
958.456	268.628
961.349	201.063
964.241	147.404
967.134	132.031
970.027	121.929
972.92	149.005
975.812	190.281
978.705	254.801
981.598	322.045
984.49	408.944
987.383	416.894
990.276	384.267
993.168	291.016
996.061	210.836
998.954	125.591
1001.85	76.235
1004.74	42.6835
1007.63	27.753
1010.52	22.7556
1013.42	5.09476
1016.31	9.84985
1019.2	4.14912
1022.1	3.72794
1024.99	2.60945
1027.88	0.950729
1030.77	6.23183
1033.67	2.31466
1036.56	5.18645
1039.45	4.96692
1042.34	7.00154
1045.24	0.2239
1048.13	8.5283
1051.02	22.6346
1053.91	44.1364
1056.81	65.2464
1059.7	77.9297
1062.59	85.6645
1065.49	80.2176
1068.38	90.8908
1071.27	130.882
1074.16	164.472
1077.06	212.467
1079.95	238.562
1082.84	197.855
1085.73	138.46
1088.63	77.2593
1091.52	61.0477
1094.41	32.1082
1097.31	25.9724
1100.2	14.8551
1103.09	14.7713
1105.98	10.9629
1108.88	6.53728
1111.77	1.78297
1114.66	5.35191
1117.56	2.69762
1120.45	4.86642
1123.34	8.37185
1126.23	14.9178
1129.12	21.7177
1132.02	21.5928
1134.91	22.7811
1137.8	30.9448
1140.7	25.5014
1143.59	20.4882
1146.48	17.5231
1149.37	0.145302
1152.27	8.26122
1155.16	2.36703
1158.05	0.226307
1160.94	6.71966
1163.84	10.8056
1166.73	5.42096
1169.62	2.40118
1172.52	0.560707
1175.41	6.96009
1178.3	7.43004
1181.19	4.78838
1184.09	1.70025
1186.98	2.92407
1189.87	4.50598
1192.77	6.82331
1195.66	0.75502
1198.55	12.4521
1201.44	10.6777
1204.34	7.71692
1207.23	13.1914
1210.12	6.8913
1213.01	7.03342
1215.91	11.4331
1218.8	5.69723
1221.69	9.86712
1224.58	7.95883
1227.48	13.4821
1230.37	5.61728
1233.26	0.649216
1236.15	0
