Measurement: Raman, 514 nm, unoriented, Raman Data Processed
Mineral: Prehnite
Rruff sample: R040047
Ideal chemistry: Ca_2_Al(Si_3_Al)O_10_(OH)_2_
Locality: Mohave County, Arizona, USA
Source: University of Arizona Mineral Museum
Description: Green coarsely crystalline massive
Measured chemistry: Light bands: Ca_2.01_(Al_1.61_Fe_0.43_)Si_3.08_O_10_(OH)_2_; Dark bands: Ca_1.99_(Al_1.82_Fe_0.19_)Si_3.04_O_10_(OH)_2_
Raman shift (cm-1)	intensity
159.5	0
162.5	10.88
165.5	0.985
168.5	6.219
171.5	0.9
174.5	0.411
177.5	56.213
180.5	236.714
183.5	458.286
186.5	801.753
189.5	1221.48
192.5	1545.35
195.5	1845.97
198.5	1823.79
201.5	1346.75
204.5	944.861
207.5	787.008
210.5	957.012
213.5	1439.46
216.5	1513.28
219.5	1128.41
222.5	618.33
225.5	320.305
228.5	202.036
231.5	141.682
234.5	100.42
237.5	89.169
240.5	105.937
243.5	119.63
246.5	64.15
249.5	10.182
252.5	30.691
255.5	21.172
258.5	12.66
261.5	62.171
264.5	165.662
267.5	344.418
270.5	565.405
273.5	907.008
276.5	1004.08
279.5	1017.69
282.5	1117.84
285.5	1178.84
288.5	1012.82
291.5	715.932
294.5	386.346
297.5	267.12
300.5	211.721
303.5	252.757
306.5	583.458
309.5	1374.34
312.5	2882.64
315.5	3587.31
318.5	2452.08
321.5	1252.2
324.5	699.72
327.5	562.716
330.5	519.511
333.5	304.292
336.5	87.617
339.5	28.951
342.5	21.087
345.5	19.29
348.5	4.228
351.5	37.891
354.5	122.749
357.5	297.022
360.5	512.292
363.5	668.234
366.5	1101.32
369.5	1881.66
372.5	3081.84
375.5	4274.35
378.5	5345.68
381.5	6075.5
384.5	6150.01
387.5	5291.1
390.5	3173.68
393.5	2045.62
396.5	1536.69
399.5	1106.67
402.5	587.659
405.5	280.164
408.5	185.866
411.5	153.04
414.5	97.443
417.5	12.107
420.5	39.098
423.5	13.981
426.5	45.576
429.5	51.456
432.5	154.1
435.5	56.641
438.5	11.732
441.5	12.082
444.5	39.566
447.5	27.754
450.5	214.687
453.5	744.575
456.5	1611.45
459.5	2058.45
462.5	1369.1
465.5	795.955
468.5	567.182
471.5	522.363
474.5	653.494
477.5	808.969
480.5	1004.8
483.5	1115.79
486.5	1298.05
489.5	1705.3
492.5	2158.69
495.5	2568.96
498.5	3112.07
501.5	3984.61
504.5	5269.38
507.5	7549.42
510.5	11117.6
513.5	16534.1
516.5	19789.1
519.5	17321.8
522.5	12118.6
525.5	7692.48
528.5	5111.86
531.5	3927.11
534.5	3370.58
537.5	2990.62
540.5	2264.55
543.5	1506.26
546.5	942.06
549.5	586.743
552.5	374.877
555.5	251.421
558.5	129.531
561.5	45.974
564.5	14.282
567.5	15.916
570.5	36.14
573.5	24.779
576.5	9.389
579.5	1.358
582.5	62.823
585.5	150.535
588.5	276.179
591.5	491.916
594.5	684.553
597.5	895.841
600.5	1217.24
603.5	1612.56
606.5	1619.28
609.5	1173.98
612.5	729
615.5	471.402
618.5	411.885
621.5	423.221
624.5	472.607
627.5	461.197
630.5	379.129
633.5	273.234
636.5	212.971
639.5	189.919
642.5	48.655
645.5	26.505
648.5	11.47
651.5	50.216
654.5	84.806
657.5	126.38
660.5	247.315
663.5	268.317
666.5	317.949
669.5	379.776
672.5	463.372
675.5	545.645
678.5	584.678
681.5	621.066
684.5	516.408
687.5	355.327
690.5	193.031
693.5	98.827
696.5	51.255
699.5	20.388
702.5	8.811
705.5	23.033
708.5	1.31
711.5	14.965
714.5	0.156
717.5	2.119
720.5	49.943
723.5	9.839
726.5	55.307
729.5	115.106
732.5	156.4
735.5	198.299
738.5	269.853
741.5	348.587
744.5	385.488
747.5	519.458
750.5	567.477
753.5	532.402
756.5	444.284
759.5	354.533
762.5	389.426
765.5	470.188
768.5	539.428
771.5	656.854
774.5	759.108
777.5	804.687
780.5	717.334
783.5	548.3
786.5	381.209
789.5	287.732
792.5	239.45
795.5	216.768
798.5	194.467
801.5	151.508
804.5	158.009
807.5	167.747
810.5	147.423
813.5	156.727
816.5	167.056
819.5	159.006
822.5	155.773
825.5	108.953
828.5	98.555
831.5	104.809
834.5	91.304
837.5	94.049
840.5	55.248
843.5	43.249
846.5	15.002
849.5	69.82
852.5	40.946
855.5	25.635
858.5	10.851
861.5	13.909
864.5	13.711
867.5	0.614
870.5	7.045
873.5	4.565
876.5	2.837
879.5	1.985
882.5	28.049
885.5	37.146
888.5	22.343
891.5	6.843
894.5	15.129
897.5	16.38
900.5	69.776
903.5	165.372
906.5	271.364
909.5	339.89
912.5	412.608
915.5	562.759
918.5	738.35
921.5	1072.05
924.5	1644.71
927.5	2467.32
930.5	3127.72
933.5	3700.84
936.5	3951.07
939.5	3754.07
942.5	3562.52
945.5	3289.88
948.5	3001.23
951.5	2536.65
954.5	2015.25
957.5	1463.04
960.5	1201.15
963.5	892.776
966.5	756.406
969.5	778.176
972.5	959.602
975.5	1237.46
978.5	1652.67
981.5	2078.8
984.5	2549.27
987.5	2546.51
990.5	2294.88
993.5	1787.61
996.5	1282.01
999.5	770.496
1002.5	474.257
1005.5	247.055
1008.5	214.05
1011.5	231.167
1014.5	324.245
1017.5	317.153
1020.5	262.443
1023.5	161.728
1026.5	95.158
1029.5	37.525
1032.5	28.971
1035.5	19.476
1038.5	26.52
1041.5	7.811
1044.5	4.188
1047.5	27.052
1050.5	11.304
1053.5	94.462
1056.5	329.824
1059.5	581.273
1062.5	575.217
1065.5	552.033
1068.5	688.321
1071.5	920.897
1074.5	934.839
1077.5	1130.68
1080.5	1352.61
1083.5	1280.7
1086.5	942.118
1089.5	626.344
1092.5	365.195
1095.5	267.959
1098.5	164.016
1101.5	113.277
1104.5	47.519
1107.5	11.078
1110.5	7.896
1113.5	9.272
1116.5	15.417
1119.5	28.278
1122.5	1.151
1125.5	39.775
1128.5	49.445
1131.5	103.088
1134.5	166.543
1137.5	232.006
1140.5	207.697
1143.5	135.999
1146.5	99.546
1149.5	63.091
1152.5	60.523
1155.5	47.927
1158.5	13.474
1161.5	26.073
1164.5	62.501
1167.5	53.37
1170.5	24.458
1173.5	36.735
1176.5	25.71
1179.5	14.043
1182.5	10.164
1185.5	34.481
1188.5	4.291
1191.5	1.167
1194.5	38.323
1197.5	1.684
1200.5	25.811
1203.5	10.802
1206.5	12.112
1209.5	8.281
1212.5	53.085
1215.5	35.406
1218.5	21.978
1221.5	13.488
1224.5	41.984
1227.5	34.526
1230.5	3.453
1233.5	11.426
1236.5	40.096
1239.5	49.007
1242.5	3.111
1245.5	23.194
1248.5	26.838
1251.5	32.086
1254.5	45.076
1257.5	43.012
1260.5	35.68
1263.5	37.285
1266.5	52.102
1269.5	9.536
1272.5	17.493
1275.5	23.869
1278.5	38.427
1281.5	1.819
1284.5	16.474
1287.5	5.455
1290.5	6.177
1293.5	13.075
1296.5	36.713
1299.5	7.006
1302.5	35.633
1305.5	29.478
1308.5	36.503
1311.5	29.072
1314.5	36.429
1317.5	19.625
1320.5	18.092
1323.5	6.366
