Measurement: Raman, 532 nm, unoriented, Raman Data Processed
Mineral: Prehnite
Rruff sample: R050055
Ideal chemistry: Ca_2_Al(Si_3_Al)O_10_(OH)_2_
Locality: Diako, Sandare District, Mali
Source: Rock Currier
Description: Light green reniform aggregate
Measured chemistry: Ca_2_(Al_.886_Fe_.114_)_2_Si_3_O_10_(OH)_2_
Raman shift (cm-1)	intensity
146.287	0
149.662	32.8905
153.037	73.0597
156.411	144.39
159.786	323.85
163.161	676.363
166.536	228.468
169.911	5.39217
173.286	3.41307
176.66	28.0761
180.035	78.6399
183.41	154.245
186.785	228.289
190.16	245.392
193.535	255.438
196.909	218.121
200.284	249.437
203.659	234.326
207.034	146.849
210.409	110.442
213.783	160.815
217.158	217.455
220.533	152.038
223.908	54.8068
227.283	19.6262
230.657	24.5736
234.032	38.2066
237.407	82.584
240.782	96.5732
244.157	78.0071
247.532	15.0129
250.906	-0.851876
254.281	1.28247
257.656	3.36733
261.031	26.7867
264.406	40.3501
267.781	80.3857
271.155	154.047
274.53	223.33
277.905	315.631
281.28	403.196
284.655	535.881
288.029	655.142
291.404	424.186
294.779	146.805
298.154	69.8696
301.529	90.672
304.904	180.171
308.278	297.637
311.653	495.583
315.028	715.81
318.403	584.094
321.778	316.733
325.152	200.689
328.527	169.481
331.902	178.869
335.277	98.8332
338.652	0.834413
342.026	1.21424
345.401	2.0244
348.776	19.7436
352.151	60.7958
355.526	134.173
358.901	190.574
362.275	186.641
365.65	205.372
369.025	255.379
372.4	379.299
375.775	515.464
379.149	692.405
382.524	901.656
385.899	1141.24
389.274	941.292
392.649	441.563
396.024	198.252
399.398	93.8743
402.773	64.367
406.148	50.6973
409.523	81.9779
412.898	112.961
416.272	118.223
419.647	118.656
423.022	60.9767
426.397	84.8357
429.772	149.296
433.147	209.313
436.521	274.565
439.896	235.087
443.271	90.0858
446.646	4.20148
450.021	0.442425
453.396	7.04277
456.77	27.9512
460.145	95.058
463.52	136.785
466.895	205.815
470.27	182.605
473.644	168.898
477.019	186.146
480.394	226.818
483.769	202.705
487.144	236.506
490.519	286.672
493.893	380.458
497.268	462.898
500.643	636.126
504.018	943.547
507.393	1506.12
510.767	2217.72
514.142	3027.93
517.517	3498.77
520.892	2869.23
524.267	1723.61
527.641	1015.46
531.016	735.197
534.391	658.671
537.766	610.863
541.141	534.928
544.516	324.229
547.89	167.952
551.265	95.5698
554.64	50.2449
558.015	18.64
561.39	7.3746
564.764	16.9808
568.139	10.5732
571.514	2.93561
574.889	6.09839
578.264	16.745
581.639	61.915
585.013	120.107
588.388	176.679
591.763	248.6
595.138	294.337
598.513	261.828
601.888	204.385
605.262	160.781
608.637	126.243
612.012	108.028
615.387	106.865
618.762	144.7
622.136	191.496
625.511	222.424
628.886	248.426
632.261	201.815
635.636	125.316
639.01	83.593
642.385	39.5935
645.76	18.6629
649.135	4.25848
652.51	2.48767
655.885	16.385
659.259	35.1881
662.634	71.1578
666.009	117.492
669.384	229.185
672.759	356.469
676.134	540.055
679.508	738.185
682.883	872.485
686.258	805.276
689.633	575.611
693.008	357.816
696.382	216.958
699.757	91.7677
703.132	53.5169
706.507	20.1932
709.882	11.5936
713.256	5.44501
716.631	6.41775
720.006	5.64383
723.381	3.22833
726.756	12.0744
730.131	32.5951
733.505	71.5363
736.88	130.532
740.255	159.589
743.63	226.217
747.005	261.235
750.38	243.394
753.754	228.955
757.129	213.648
760.504	246.235
763.879	333.372
767.254	488.698
770.628	712.52
774.003	936.428
777.378	1095.5
780.753	1038.34
784.128	721.926
787.503	445.104
790.877	276.837
794.252	195.149
797.627	137.688
801.002	111.936
804.377	82.2702
807.751	66.9823
811.126	55.7637
814.501	45.7769
817.876	29.2312
821.251	32.8715
824.625	28.6386
828	15.0582
831.375	10.1431
834.75	0.154114
838.125	5.53165
841.5	1.66632
844.874	4.78677
848.249	10.6675
851.624	5.32294
854.999	6.25006
858.374	1.54996
861.749	0.012268
865.123	1.34067
868.498	0.637939
871.873	6.24414
875.248	5.42804
878.623	14.6387
881.997	0.627319
885.372	6.50522
888.747	7.46585
892.122	31.4682
895.497	59.1394
898.871	88.1832
902.246	137.924
905.621	198.986
908.996	235.076
912.371	262.962
915.746	304.445
919.12	452.844
922.495	668.285
925.87	985.909
929.245	1163.39
932.62	1193.03
935.995	1161.91
939.369	1013
942.744	940.843
946.119	896.619
949.494	866.368
952.869	786.021
956.243	642.798
959.618	484.954
962.993	359.624
966.368	295.436
969.743	288.361
973.117	334.768
976.492	446.523
979.867	615.481
983.242	753.222
986.617	830.817
989.992	710.804
993.366	470.839
996.741	294.658
1000.12	173.732
1003.49	77.0429
1006.87	50.9516
1010.24	28.3412
1013.62	9.35586
1016.99	7.37637
1020.37	7.79059
1023.74	13.1758
1027.12	15.1115
1030.49	14.8033
1033.86	1.43958
1037.24	4.50024
1040.61	4.90201
1043.99	9.55139
1047.36	24.1804
1050.74	51.6318
1054.11	87.7566
1057.49	134.098
1060.86	155.3
1064.24	177.519
1067.61	217.349
1070.99	308.553
1074.36	413.476
1077.74	480.052
1081.11	454.864
1084.49	294.604
1087.86	157.986
1091.24	102.996
1094.61	72.0085
1097.99	47.7061
1101.36	22.0133
1104.73	18.1198
1108.11	8.92133
1111.48	5.61487
1114.86	2.07547
1118.23	6.42868
1121.61	9.37991
1124.98	20.7592
1128.36	36.4782
1131.73	56.4503
1135.11	69.6299
1138.48	61.3159
1141.86	46.4425
1145.23	17.3211
1148.61	8.73746
1151.98	0.039795
1155.36	7.10138
1158.73	17.4535
1162.11	14.0051
1165.48	12.7299
1168.86	12.0657
1172.23	10.3465
1175.61	11.6461
1178.98	6.54376
1182.36	21.7046
1185.73	13.313
1189.11	9.40875
1192.48	0.261078
1195.86	18.7371
1199.23	21.5141
1202.61	15.1228
1205.98	12.579
1209.36	13.2457
1212.73	6.66873
1216.1	15.9715
1219.48	16.7843
1222.85	16.8612
1226.23	11.003
1229.6	3.97971
1232.98	13.8668
1236.35	7.92581
1239.73	33.5298
1243.1	19.9826
1246.48	22.5258
1249.85	23.9547
1253.23	21.3884
1256.6	8.21295
1259.98	19.866
1263.35	13.7332
1266.73	9.29965
1270.1	6.60492
1273.48	17.332
1276.85	8.01828
1280.23	1.42035
1283.6	2.74042
1286.98	5.60257
1290.35	2.01858
1293.72	15.4021
1297.1	7.94186
1300.47	2.51251
1303.85	10.643
1307.22	5.8652
1310.6	7.51041
