Measurement: Raman, 514 nm, unoriented, Raman Data Processed
Mineral: Prehnite
Rruff sample: R050410
Ideal chemistry: Ca_2_Al(Si_3_Al)O_10_(OH)_2_
Locality: Topel, Namibia
Source: John Lucking
Description: Aggregate of pale green prismatic crystals
Measured chemistry: Ca_1.98_Al_0.99_(Si_3.02_Al_0.99_)O_10_(OH)_2
Raman shift (cm-1)	intensity
98.947	0
103.124	33.797
107.3	345.41
111.473	537.392
115.644	567.285
119.813	672.986
123.981	738.794
128.146	631.65
132.309	489.723
136.47	348.299
140.63	760.265
144.787	995.668
148.942	1310.54
153.096	664.57
157.247	808.447
161.396	1976.05
165.544	3928.28
169.689	1533.09
173.833	599.322
177.974	266.012
182.114	454.342
186.251	539.869
190.387	736.865
194.52	1069.44
198.652	1054.25
202.782	693.496
206.909	670.865
211.035	416.377
215.159	529.015
219.281	1099.78
223.4	719.671
227.518	933.647
231.634	94.706
235.748	188.829
239.86	57.004
243.97	276.209
248.079	180.438
252.185	61.307
256.289	152.003
260.391	80.822
264.492	64.479
268.59	2.88
272.687	327.768
276.781	362.471
280.874	670.218
284.964	879.324
289.053	794.248
293.14	428.465
297.225	19.43
301.308	239.151
305.389	332.938
309.468	1007.84
313.545	3876.12
317.62	9386.34
321.693	7542.42
325.765	3145.64
329.834	1586.93
333.902	1721.3
337.967	1029.81
342.031	776.338
346.093	660.483
350.153	1206.48
354.21	2785.59
358.267	5802.7
362.321	5622.74
366.373	2522.68
370.423	1602.52
374.471	1482.25
378.518	1836.88
382.563	2869.39
386.605	6639.78
390.646	9923.14
394.685	8150.53
398.722	3729.13
402.757	1413.79
406.79	773.699
410.821	387.314
414.851	15.695
418.878	101.4
422.904	39.918
426.927	20.523
430.949	173.404
434.969	263.074
438.987	62.6
443.003	280.812
447.018	190.838
451.03	0.342
455.041	310.127
459.049	461.342
463.056	1220.31
467.061	729.412
471.064	455.814
475.065	488.385
479.064	401.582
483.062	991.49
487.057	1367.11
491.051	1188.68
495.043	1574.89
499.032	2315.16
503.02	3740.19
507.007	6722.73
510.991	12273.4
514.973	19594.7
518.954	30185.9
522.933	33066.9
526.91	23280.1
530.885	13334
534.858	8128.47
538.829	7152.66
542.799	6507.53
546.766	4644.94
550.732	2662.39
554.696	1853.33
558.658	1317.95
562.618	637.26
566.576	699.711
570.533	691.902
574.488	451.041
578.44	427.695
582.391	595.699
586.341	407.48
590.288	603.912
594.233	781.148
598.177	1352.98
602.119	1634.84
606.059	2200.94
609.997	2451.93
613.933	1698.91
617.868	1046.26
621.801	667.982
625.731	407.27
629.66	904.109
633.588	850.199
637.513	189.977
641.437	270.402
645.358	58.209
649.278	105.598
653.196	77.242
657.113	271.574
661.027	289.594
664.94	198.082
668.851	360.201
672.76	324.936
676.667	381.518
680.572	685.459
684.476	1645.43
688.378	1766.76
692.278	1453.81
696.176	1264.59
700.072	343.576
703.967	290.271
707.86	345.082
711.751	220.133
715.64	181.771
719.527	85.246
723.413	36.562
727.297	13.197
731.179	156.473
735.059	54.504
738.937	238.459
742.814	258.309
746.689	645.559
750.562	1050.56
754.433	638.5
758.303	668.143
762.17	542.49
766.036	934.564
769.901	957.414
773.763	1391
777.624	1932.31
781.482	2036.81
785.339	1545.86
789.195	921.053
793.048	771.955
796.9	585.207
800.75	185.242
804.598	287.664
808.445	738
812.289	194.969
816.132	374.84
819.973	70.316
823.813	28.918
827.65	71.246
831.486	314.48
835.32	3.535
839.152	328.766
842.983	587.066
846.812	314.312
850.639	184.5
854.464	29.043
858.288	589.816
862.11	300.645
865.93	395.828
869.748	284.129
873.564	121.293
877.379	103.699
881.192	77.301
885.004	58.812
888.813	70.082
892.621	260.461
896.427	261.246
900.232	694.852
904.034	313.527
907.835	661.281
911.634	745.113
915.432	1023.03
919.227	668.051
923.021	1633.15
926.813	2632.35
930.604	3581.64
934.393	4357.03
938.18	4746.53
941.965	5203.13
945.749	4725
949.53	3669.73
953.311	3249.63
957.089	2903.88
960.866	1987.83
964.641	1386.56
968.414	1525.65
972.185	1537.37
975.955	1482.47
979.723	1933.69
983.49	3025.71
987.254	4474.53
991.017	6261.72
994.779	6471.15
998.538	4190.66
1002.3	2891.3
1006.05	1672.65
1009.81	1119.93
1013.56	1036.91
1017.31	646.336
1021.06	667.305
1024.81	555.387
1028.55	891.75
1032.3	912.359
1036.04	1150
1039.78	938.148
1043.52	868.137
1047.26	918.078
1050.99	1089.32
1054.73	1364.71
1058.46	1437.35
1062.19	1146.22
1065.92	1484.62
1069.65	2713.22
1073.37	3486.75
1077.1	4735.16
1080.82	8152.36
1084.54	7840.55
1088.26	4455.39
1091.97	2314.76
1095.69	1227.12
1099.4	912.453
1103.12	498.688
1106.83	666.824
1110.54	146.895
1114.24	126.895
1117.95	394.918
1121.65	130.996
1125.35	323.211
1129.06	235.148
1132.75	548.898
1136.45	149.895
1140.15	498.254
1143.84	12.988
1147.53	222.211
1151.22	239.992
1154.91	125.066
1158.6	16.719
1162.28	35.285
1165.97	22.723
1169.65	396.379
1173.33	118.25
1177.01	531.324
1180.69	297.617
1184.36	311.191
1188.04	130.086
1191.71	220.395
1195.38	210.18
1199.05	715.5
1202.71	432.449
1206.38	714.066
1210.04	151.309
1213.71	580.25
1217.37	480.391
1221.03	405.52
1224.68	248.27
1228.34	614.527
1231.99	799.27
1235.65	712.055
1239.3	797.234
1242.95	614.094
1246.59	435.395
1250.24	170.121
1253.88	353.133
1257.53	1420.82
1261.17	769.348
1264.81	453.469
1268.45	804.41
1272.08	19.762
1275.72	294.043
1279.35	1.875
1282.98	659.719
