Measurement: Raman, 532 nm, unoriented, Raman Data Processed
Mineral: Prehnite
Rruff sample: R040047
Ideal chemistry: Ca_2_Al(Si_3_Al)O_10_(OH)_2_
Locality: Mohave County, Arizona, USA
Source: University of Arizona Mineral Museum
Description: Green coarsely crystalline massive
Measured chemistry: Light bands: Ca_2.01_(Al_1.61_Fe_0.43_)Si_3.08_O_10_(OH)_2_; Dark bands: Ca_1.99_(Al_1.82_Fe_0.19_)Si_3.04_O_10_(OH)_2_
Raman shift (cm-1)	intensity
145.197	0
148.09	5.95606
150.983	171.605
153.875	361.22
156.768	530.95
159.661	987.044
162.554	2121.07
165.446	1790.09
168.339	259.124
171.232	16.248
174.124	52.7578
177.017	91.5459
179.91	194.545
182.803	325.312
185.695	537.532
188.588	676.868
191.481	687.218
194.373	833.964
197.266	842.376
200.159	771.19
203.051	657.852
205.944	660.597
208.837	607.447
211.729	468.412
214.622	527.748
217.515	521.101
220.407	415.615
223.3	179.234
226.193	18.0566
229.086	14.0898
231.978	36.1992
234.871	70.6426
237.764	50.71
240.656	103.33
243.549	149.977
246.442	2.34766
249.334	66.7344
252.227	43.8965
255.12	117.588
258.013	107.551
260.905	120.278
263.798	229.108
266.691	509.208
269.583	677.579
272.476	803.877
275.369	905.477
278.262	1008.18
281.154	1128.19
284.047	1331.95
286.94	1574.35
289.832	1443.41
292.725	891.945
295.618	407.752
298.51	254.682
301.403	229.531
304.296	563.095
307.188	900.813
310.081	1106.63
312.974	1542.9
315.867	2033.36
318.759	1973.5
321.652	1272.48
324.545	902.19
327.437	810.791
330.33	770.129
333.223	563.414
336.115	234.374
339.008	26.8555
341.901	22.7979
344.794	19.4482
347.686	0.566406
350.579	153.968
353.472	310.884
356.364	657.462
359.257	886.626
362.15	992.238
365.043	931.909
367.935	1174.42
370.828	1590.98
373.721	1878.61
376.613	2073.51
379.506	2362.41
382.399	2729.64
385.291	2876.54
388.184	2564.9
391.077	1653.47
393.969	852.955
396.862	512.767
399.755	260.317
402.648	1.93945
405.54	59.2891
408.433	42.5576
411.326	98.9072
414.218	202.573
417.111	173.944
420.004	293.79
422.897	196.329
425.789	315.658
428.682	459.085
431.575	480.518
434.467	566.242
437.36	344.09
440.253	174.744
443.145	84.4961
446.038	45.8193
448.931	35.7412
451.824	5.62988
454.716	79.2373
457.609	228.023
460.502	287.771
463.394	261.832
466.287	176.726
469.18	121.493
472.072	289.062
474.965	388.657
477.858	474.608
480.75	660.23
483.643	770.451
486.536	869.812
489.429	938.461
492.321	1248.77
495.214	1572.9
498.107	2129.14
500.999	2801.54
503.892	3862.93
506.785	5097.85
509.678	6656.86
512.57	8431.58
515.463	9736.47
518.356	9612.59
521.248	8179.87
524.141	5875.52
527.034	3949.7
529.926	2875.64
532.819	2327.75
535.712	1895.63
538.604	1713.97
541.497	1399.78
544.39	885.546
547.283	568.912
550.175	384.372
553.068	207.657
555.961	78.6865
558.853	46.4385
561.746	54.0566
564.639	22.7588
567.531	38.2549
570.424	9.53418
573.317	30.4355
576.21	36.5156
579.102	48.6553
581.995	177.608
584.888	218.684
587.78	272.778
590.673	339.934
593.566	614.957
596.458	720.447
599.351	754.738
602.244	870.409
605.136	961.988
608.029	873.078
610.922	768.958
613.815	520.489
616.707	378.702
619.6	385.07
622.493	229.043
625.385	229.235
628.278	218.868
631.171	155.274
634.063	140.142
636.956	92.3633
639.849	24.8701
642.742	24.46
645.634	49.0215
648.527	55.3174
651.42	99.5713
654.312	106.92
657.205	273.414
660.098	344.618
662.99	493.256
665.883	675.948
668.776	803.356
671.669	1102.6
674.561	1080.66
677.454	1206.78
680.347	1334.14
683.239	1287.55
686.132	1008.58
689.025	766.879
691.918	500.791
694.81	344.274
697.703	97.6611
700.596	103.356
703.488	45.8428
706.381	36.9092
709.274	22.9609
712.166	22.3799
715.059	62.7871
717.952	14.9072
720.845	75.6924
723.737	99.5576
726.63	98.915
729.523	173.448
732.415	151.873
735.308	234.041
738.201	358.732
741.093	374.597
743.986	385.587
746.879	541.118
749.771	553.827
752.664	526.566
755.557	530.057
758.45	616.667
761.342	655.381
764.235	839.487
767.128	1044.71
770.02	1283.28
772.913	1415.04
775.806	1338.44
778.698	1215.53
781.591	1075.76
784.484	770.474
787.377	617.684
790.269	380.808
793.162	319.774
796.055	386.365
798.947	296.009
801.84	291.651
804.733	249.954
807.625	176.762
810.518	216.839
813.411	148.554
816.304	143.453
819.196	156.747
822.089	73.8457
824.982	156.079
827.874	89.2617
830.767	91.0703
833.66	109.526
836.552	67.8857
839.445	23.3418
842.338	19.5449
845.231	14.3232
848.123	65.1211
851.016	110.644
853.909	19.0234
856.801	64.7637
859.694	34.54
862.587	72.5459
865.479	18.8145
868.372	37.294
871.265	6.24414
874.158	7.76758
877.05	116.246
879.943	103.008
882.836	118.197
885.728	64.0156
888.621	72.7481
891.514	34.9912
894.406	42.9883
897.299	204.982
900.192	249.296
903.085	312.945
905.977	361.853
908.87	492.571
911.763	529.682
914.655	591.791
917.548	887.399
920.441	1189.53
923.333	1685.95
926.226	2134.99
929.119	2719.71
932.011	3275.74
934.904	3600.86
937.797	3515.03
940.69	3176.6
943.582	2739.72
946.475	2321.61
949.368	1937.43
952.26	1555.95
955.153	1237.04
958.046	894.097
960.938	731.469
963.831	506.763
966.724	497.881
969.617	611.041
972.509	852.438
975.402	928.271
978.295	1206.9
981.187	1380.06
984.08	1475.57
986.973	1508.65
989.865	1264.72
992.758	928.255
995.651	518.1
998.544	368.552
1001.44	295.622
1004.33	174.242
1007.22	58.085
1010.11	19.2666
1013.01	82.749
1015.9	41.71
1018.79	35.791
1021.68	26.6982
1024.58	27.6641
1027.47	21.8105
1030.36	28.5498
1033.26	7.38184
1036.15	71.8769
1039.04	13.7637
1041.93	43.3623
1044.83	24.002
1047.72	32.4863
1050.61	89.5859
1053.51	122.009
1056.4	269.649
1059.29	381.373
1062.18	443.701
1065.08	474.36
1067.97	648.196
1070.86	669.855
1073.75	894.492
1076.65	939.271
1079.54	1207.41
1082.43	1040.59
1085.33	736.668
1088.22	457.482
1091.11	311.015
1094	115.274
1096.89	184.141
1099.79	77.8633
1102.68	124.897
1105.57	17.6025
1108.47	56.6816
1111.36	14.96
1114.25	109.589
1117.14	10.8438
1120.04	117.725
1122.93	91.4961
1125.82	142.315
1128.71	175.953
1131.61	160.151
1134.5	250.489
1137.39	328.774
1140.29	120.394
1143.18	134.559
1146.07	68.374
1148.96	138.073
1151.86	62.0254
1154.75	103.993
1157.64	44.1465
1160.54	89.5215
1163.43	152.649
1166.32	4.20996
1169.21	16.3057
1172.11	70.7031
1175	62.2402
1177.89	148.424
1180.78	111.292
1183.68	32.3691
1186.57	120.042
1189.46	217.824
1192.35	111.147
1195.25	165.299
1198.14	10.4473
1201.03	113.203
1203.92	73.8633
1206.82	108.74
1209.71	58.7881
1212.6	137.693
1215.5	155.351
1218.39	135.133
1221.28	105.893
1224.17	80.9981
1227.07	40.6191
1229.96	53.5127
1232.85	30.5469
1235.74	15.1289
1238.64	183.295
1241.53	160.113
1244.42	206.625
1247.32	26.8594
1250.21	103.998
1253.1	174.352
1255.99	56.459
1258.89	178.887
1261.78	152.353
1264.67	179.205
1267.57	162.992
1270.46	86.6016
1273.35	113.184
1276.24	244.236
1279.13	9.85938
