Measurement: Raman, 532 nm, unoriented, Raman Data Processed
Mineral: Prehnite
Rruff sample: R130046
Ideal chemistry: Ca_2_Al(Si_3_Al)O_10_(OH)_2_
Locality: Eagle Head (Deep Cove), Cape Breton County, Nova Scotia, Canada
Source: Don Doell
Description: Colorless bladed crystals
Raman shift (cm-1)	intensity
198.802	0
201.695	22.9126
204.588	29.5956
207.48	23.4551
210.373	32.6731
213.266	73.1822
216.158	141.163
219.051	169.104
221.944	103.49
224.836	43.2025
227.729	30.1415
230.622	17.3174
233.514	13.4491
236.407	23.1732
239.3	23.6046
242.193	26.2855
245.085	23.2538
247.978	7.9519
250.871	1.73718
253.763	5.19214
256.656	2.70288
259.549	1.44812
262.442	5.7904
265.334	0.472412
268.227	11.7659
271.12	6.61365
274.012	14.036
276.905	18.0008
279.798	28.7144
282.69	26.5259
285.583	25.9533
288.476	20.6975
291.368	13.4244
294.261	6.91894
297.154	9.27393
300.047	20.1693
302.939	48.9866
305.832	73.4853
308.725	108.311
311.617	170.722
314.51	251.612
317.403	272.629
320.296	163.223
323.188	71.974
326.081	41.3669
328.974	22.6426
331.866	10.0457
334.759	6.08594
337.652	3.96045
340.544	5.39343
343.437	2.9679
346.33	2.48291
349.223	0.861328
352.115	3.31299
355.008	5.6814
357.901	14.6868
360.793	19.1337
363.686	27.8534
366.579	40.541
369.471	63.6642
372.364	96.1946
375.257	133.756
378.149	168.632
381.042	198.482
383.935	228.687
386.828	249.148
389.72	200.417
392.613	108.188
395.506	63.2699
398.398	41.5333
401.291	35.3215
404.184	22.3761
407.077	13.566
409.969	11.2979
412.862	8.52356
415.755	4.63061
418.647	0.609253
421.54	2.70679
424.433	3.22681
427.325	3.93555
430.218	1.18408
433.111	2.20508
436.003	1.55566
438.896	7.65723
441.789	13.6675
444.682	12.4276
447.574	15.9758
450.467	19.1915
453.36	15.4526
456.252	23.0513
459.145	42.1752
462.038	36.1885
464.93	36.2605
467.823	32.1311
470.716	40.0546
473.609	41.886
476.501	50.1732
479.394	67.6282
482.287	66.7195
485.179	63.1144
488.072	77.4974
490.965	95.765
493.858	112.876
496.75	141.862
499.643	179.806
502.536	255.493
505.428	369.785
508.321	511.129
511.214	684.548
514.106	865.414
516.999	1023.7
519.892	1024.15
522.784	799.867
525.677	530.089
528.57	346.812
531.463	253.6
534.355	209.792
537.248	195.949
540.141	168.125
543.033	123.956
545.926	82.433
548.819	48.7968
551.712	31.2196
554.604	16.7063
557.497	9.7207
560.39	5.08057
563.282	3.15332
566.175	2.73352
569.068	1.22998
571.96	3.10083
574.853	2.30823
577.746	2.32654
580.639	9.88574
583.531	19.0546
586.424	30.9436
589.317	49.9368
592.209	66.6205
595.102	81.7078
597.995	84.626
600.888	84.7485
603.78	80.2443
606.673	85.6152
609.566	76.2037
612.458	54.029
615.351	42.5255
618.244	39.5177
621.136	41.8796
624.029	41.4795
626.922	46.313
629.814	46.8076
632.707	42.9495
635.6	30.5109
638.493	20.0986
641.385	6.26672
644.278	2.64319
647.171	0.988159
650.063	1.60852
652.956	0.936646
655.849	1.29065
658.741	5.84436
661.634	2.9635
664.527	2.48926
667.42	1.04675
670.312	4.54053
673.205	2.47705
676.098	8.04395
678.99	7.6355
681.883	14.1905
684.776	12.453
687.668	14.7451
690.561	21.6674
693.454	20.5819
696.347	10.72
699.239	6.67676
702.132	8.06396
705.025	5.26013
707.917	1.42212
710.81	2.07532
713.703	3.48157
716.596	1.51526
719.488	0.104492
722.381	3.94385
725.274	7.05566
728.166	4.11255
731.059	1.62708
733.952	0.576782
736.844	4.9093
739.737	5.93555
742.63	11.0547
745.523	20.6802
748.415	22.7986
751.308	18.8926
754.201	13.6799
757.093	3.85388
759.986	3.9104
762.879	11.2104
765.771	3.77087
768.664	16.2876
771.557	13.671
774.449	22.8585
777.342	22.9078
780.235	28.1957
783.128	22.08
786.02	16.6022
788.913	8.20654
791.806	5.38892
794.698	9.14123
797.591	4.1604
800.484	1.3656
803.376	2.17493
806.269	2.07996
809.162	7.26856
812.055	5.74683
814.947	5.23193
817.84	4.63123
820.733	5.94995
823.625	9.66357
826.518	5.9303
829.411	4.099
832.303	1.31519
835.196	0.249268
838.089	5.67444
840.982	9.77466
843.874	7.43335
846.767	9.03003
849.66	1.00842
852.552	5.96643
855.445	9.62207
858.338	11.6289
861.231	9.07178
864.123	12.9797
867.016	12.3188
869.909	11.8329
872.801	11.8911
875.694	6.802
878.587	6.7428
881.479	1.22839
884.372	3.3197
887.265	1.02112
890.158	2.05896
893.05	2.32617
895.943	1.17175
898.836	1.02087
901.728	1.46545
904.621	3.74829
907.514	8.74646
910.406	19.9454
913.299	21.7266
916.192	36.9082
919.085	63.8458
921.977	97.1539
924.87	149.099
927.763	185.336
930.655	201.674
933.548	194.221
936.441	160.756
939.333	136.692
942.226	116.202
945.119	115.31
948.011	116.78
950.904	111.206
953.797	98.577
956.69	75.596
959.582	65.3533
962.475	59.6179
965.368	55.193
968.26	57.2053
971.153	60.3829
974.046	80.3219
976.938	112.404
979.831	148.549
982.724	185.919
985.617	200.4
988.509	179.056
991.402	146.448
994.295	125.017
997.187	106.184
1000.08	98.1819
1002.97	85.8828
1005.87	70.7864
1008.76	51.854
1011.65	46.5586
1014.54	37.8555
1017.44	32.9213
1020.33	22.113
1023.22	17.6274
1026.11	11.3044
1029.01	7.68689
1031.9	0.180298
1034.79	3.98767
1037.68	0.433472
1040.58	8.22729
1043.47	1.75305
1046.36	0.791626
1049.26	3.5835
1052.15	5.44092
1055.04	11.0145
1057.93	23.5399
1060.83	32.2501
1063.72	37.4543
1066.61	35.8632
1069.51	60.0574
1072.4	60.1855
1075.29	67.6633
1078.18	69.7207
1081.08	74.3063
1083.97	58.8055
1086.86	34.4866
1089.75	20.773
1092.65	11.2373
1095.54	8.77368
1098.43	3.72327
1101.33	0.300415
1104.22	1.27686
1107.11	1.90076
1110	0.793701
1112.89	2.11841
1115.79	3.224
1118.68	6.90991
1121.57	11.8387
1124.47	15.5725
1127.36	17.9189
1130.25	21.6976
1133.14	32.2059
1136.04	42.7493
1138.93	48.7535
1141.82	57.6332
1144.71	83.9394
1147.61	118.267
1150.5	167.402
1153.39	216.181
1156.29	237.587
1159.18	194.954
1162.07	122.084
1164.96	68.5559
1167.86	36.4871
1170.75	34.8451
1173.64	30.0946
1176.54	31.6654
1179.43	36.2412
1182.32	41.4333
1185.21	50.2422
1188.11	44.6484
1191	43.0971
1193.89	37.4899
1196.78	39.9733
1199.68	25.4153
1202.57	20.8763
1205.46	28.2275
1208.35	21.1976
1211.25	27.7108
1214.14	22.4974
1217.03	11.0159
1219.92	4.17481
1222.82	7.86182
1225.71	6.32935
1228.6	0.86145
1231.5	1.62012
1234.39	2.02148
1237.28	1.6261
1240.17	2.34033
1243.07	2.28577
1245.96	8.11291
1248.85	7.34912
1251.74	8.77344
1254.64	14.4565
1257.53	16.3699
1260.42	24.4731
1263.32	25.6439
1266.21	24.6455
1269.1	23.9302
1271.99	15.2621
1274.89	12.0479
1277.78	14.1738
1280.67	13.7737
1283.57	19.1547
1286.46	9.68909
1289.35	8.61108
1292.24	9.97253
1295.13	1.3949
1298.03	5.09155
1300.92	2.83215
