Measurement: Raman, 532 nm, unoriented, Raman Data Processed
Mineral: Prehnite
Rruff sample: R050410
Ideal chemistry: Ca_2_Al(Si_3_Al)O_10_(OH)_2_
Locality: Topel, Namibia
Source: John Lucking
Description: Aggregate of pale green prismatic crystals
Measured chemistry: Ca_1.98_Al_0.99_(Si_3.02_Al_0.99_)O_10_(OH)_2
Raman shift (cm-1)	intensity
137.673	0
140.565	3.74097
143.458	8.37756
146.351	84.8572
149.243	131.579
152.136	141.942
155.029	170.834
157.921	222.385
160.814	368.278
163.707	770.816
166.6	518.543
169.492	32.4932
172.385	3.58783
175.278	2.85986
178.17	25.0354
181.063	60.7905
183.956	87.7725
186.848	121.889
189.741	156.226
192.634	182.595
195.526	248.986
198.419	261.559
201.312	276.043
204.205	269.165
207.097	228.775
209.99	156.434
212.883	145.097
215.775	197.041
218.668	273.658
221.561	252.201
224.453	125.975
227.346	60.6492
230.239	44.392
233.132	45.2888
236.024	56.7595
238.917	69.9572
241.81	84.8513
244.702	68.6566
247.595	24.2362
250.488	0.896606
253.381	14.0632
256.273	9.98059
259.166	5.74139
262.059	1.42902
264.951	15.6375
267.844	43.8068
270.737	67.5754
273.629	91.8121
276.522	110.162
279.415	146.676
282.308	186.72
285.2	205.127
288.093	208.273
290.986	152.613
293.878	72.6085
296.771	38.7023
299.664	62.277
302.556	111.766
305.449	161.954
308.342	233.65
311.235	333.349
314.127	512.14
317.02	723.51
319.913	644.778
322.805	361.339
325.698	217.938
328.591	175.395
331.483	192.131
334.376	160.4
337.269	68.1266
340.161	18.4058
343.054	14.8495
345.947	21.2812
348.84	36.3337
351.732	60.2759
354.625	96.072
357.518	151.257
360.41	177.79
363.303	128.25
366.196	112.773
369.089	157.835
371.981	242.78
374.874	329.281
377.767	404.45
380.659	519.737
383.552	704.625
386.445	936.574
389.337	925.104
392.23	576.056
395.123	300.506
398.015	147.77
400.908	79.2943
403.801	44.8293
406.694	15.4081
409.586	8.3725
412.479	2.51886
415.372	5.88715
418.264	13.9305
421.157	8.479
424.05	5.40533
426.942	1.27441
429.835	9.52405
432.728	24.5837
435.621	41.1015
438.513	65.1342
441.406	75.572
444.299	50.846
447.191	10.9083
450.084	3.74652
452.977	0.583679
455.87	10.936
458.762	31.4509
461.655	47.2107
464.548	60.6679
467.44	75.2889
470.333	83.3979
473.226	87.6175
476.118	97.1205
479.011	123.028
481.904	153.383
484.796	152.537
487.689	130.686
490.582	140.786
493.475	187.048
496.367	259.306
499.26	366.805
502.153	529.462
505.045	764.907
507.938	1068.44
510.831	1424.37
513.723	1815.61
516.616	2211.82
519.509	2436.82
522.402	2215.24
525.294	1641.19
528.187	1110.85
531.08	780.912
533.972	622.437
536.865	569.269
539.758	542.435
542.65	463.448
545.543	322.691
548.436	188.157
551.329	112.845
554.221	66.986
557.114	36.843
560.007	21.3339
562.899	10.2202
565.792	0.797546
568.685	9.05664
571.577	9.10852
574.47	8.14722
577.363	0.408386
580.256	10.1327
583.148	30.7321
586.041	52.3438
588.934	81.7781
591.826	122.295
594.719	166.937
597.612	207.68
600.505	228.056
603.397	257.414
606.29	285.905
609.183	273.34
612.075	203.121
614.968	130.153
617.861	90.3795
620.753	83.1094
623.646	84.4711
626.539	86.9059
629.432	85.9985
632.324	74.4103
635.217	58.491
638.11	38.8708
641.002	22.9017
643.895	9.07825
646.788	2.61029
649.68	0.053955
652.573	3.24207
655.466	4.47382
658.359	11.1459
661.251	25.7913
664.144	46.7908
667.037	66.6579
669.929	86.8348
672.822	114.74
675.715	171.957
678.607	221.203
681.5	276.202
684.393	322.226
687.285	313.178
690.178	247.344
693.071	164.702
695.964	99.4709
698.856	54.3751
701.749	32.3192
704.642	15.538
707.534	7.78363
710.427	1.76184
713.32	2.38574
716.212	3.54047
719.105	4.70197
721.998	2.00391
724.891	1.55658
727.783	8.8844
730.676	20.0081
733.569	36.1098
736.461	53.2585
739.354	77.7136
742.247	106.772
745.139	126.513
748.032	154.232
750.925	166.487
753.818	156.954
756.71	133.906
759.603	135.792
762.496	153.125
765.388	191.705
768.281	256.09
771.174	302.583
774.067	338.405
776.959	344.555
779.852	332.314
782.745	297.496
785.637	227.676
788.53	154.725
791.423	110.405
794.315	87.894
797.208	75.196
800.101	67.5433
802.994	64.8583
805.886	66.3608
808.779	57.5583
811.672	44.9423
814.564	30.8686
817.457	20.7669
820.35	16.1312
823.242	14.0381
826.135	11.4688
829.028	7.52966
831.92	4.22894
834.813	4.52747
837.706	9.60474
840.599	0.217407
843.491	0.060425
846.384	4.33276
849.277	2.10358
852.169	2.59937
855.062	3.22321
857.955	5.11798
860.847	3.49841
863.74	0.647156
866.633	0.849182
869.526	0.530518
872.418	0.299316
875.311	1.50604
878.204	3.20819
881.096	2.96564
883.989	5.20502
886.882	0.222778
889.774	0.240295
892.667	6.77301
895.56	9.1123
898.453	16.4165
901.345	24.9808
904.238	34.7994
907.131	50.1877
910.023	60.8895
912.916	75.9598
915.809	102.337
918.702	136.287
921.594	193.199
924.487	267.074
927.38	363.894
930.272	455.234
933.165	499.757
936.058	523.818
938.95	547.612
941.843	572.68
944.736	557.247
947.629	520.73
950.521	481.565
953.414	424.04
956.307	335.058
959.199	246.424
962.092	174.938
964.985	132.07
967.877	108.936
970.77	114.909
973.663	144.089
976.556	196.671
979.448	269.776
982.341	358.688
985.234	439.893
988.126	474.501
991.019	456.224
993.912	373.468
996.804	248.316
999.697	142.151
1002.59	78.494
1005.48	38.5809
1008.38	23.9471
1011.27	12.7693
1014.16	10.8466
1017.05	5.86145
1019.95	1.39252
1022.84	3.44989
1025.73	3.88885
1028.62	4.00623
1031.52	3.79889
1034.41	7.28845
1037.3	14.9031
1040.19	21.8724
1043.09	18.5289
1045.98	12.1484
1048.87	7.26996
1051.77	20.8283
1054.66	40.3191
1057.55	64.1912
1060.44	94.097
1063.34	108.853
1066.23	126.348
1069.12	167.417
1072.02	217.143
1074.91	270.002
1077.8	345.526
1080.69	397.168
1083.59	327.047
1086.48	198.576
1089.37	105.542
1092.26	58.1219
1095.16	36.8461
1098.05	25.5436
1100.94	19.0989
1103.83	9.2171
1106.73	4.39087
1109.62	2.85828
1112.51	0.36145
1115.4	0.437927
1118.3	0.217773
1121.19	3.82892
1124.08	5.34821
1126.98	10.4079
1129.87	20.4807
1132.76	36.8109
1135.65	35.8544
1138.55	30.4311
1141.44	21.1623
1144.33	17.0749
1147.22	4.28198
1150.12	4.83435
1153.01	0.566895
1155.9	2.75848
1158.8	1.73163
1161.69	0.127991
1164.58	0.941833
1167.47	3.75244
1170.37	1.51434
1173.26	3.16003
1176.15	5.38422
1179.04	3.52435
1181.94	3.71612
1184.83	3.23108
1187.72	3.04187
1190.62	7.24335
1193.51	10.7433
1196.4	2.44855
1199.29	5.22272
1202.19	4.24579
1205.08	5.67633
1207.97	6.07642
1210.86	5.74085
1213.76	4.80725
1216.65	1.73114
1219.54	0.07019
1222.43	0.099548
1225.33	0.624939
1228.22	2.13458
1231.11	6.25189
1234.01	6.77936
1236.9	3.9154
1239.79	6.05713
1242.68	0.428406
1245.58	2.85358
1248.47	2.55701
1251.36	4.91638
1254.26	5.76727
1257.15	0.744507
1260.04	3.95203
1262.93	3.42816
1265.83	3.73578
1268.72	1.29755
1271.61	0.065308
