Measurement: Raman, 514 nm, unoriented, Raman Data Processed
Mineral: Prehnite
Rruff sample: R050055
Ideal chemistry: Ca_2_Al(Si_3_Al)O_10_(OH)_2_
Locality: Diako, Sandare District, Mali
Source: Rock Currier
Description: Light green reniform aggregate
Measured chemistry: Ca_2_(Al_.886_Fe_.114_)_2_Si_3_O_10_(OH)_2_
Raman shift (cm-1)	intensity
112.864	0
117.034	659.575
121.203	799.237
125.369	206.108
129.534	42.611
133.696	223.149
137.857	412.777
142.016	515.155
146.172	438.453
150.327	381.006
154.48	481.703
158.63	900.528
162.779	3034.96
166.926	918.009
171.07	214.394
175.213	203.612
179.354	515.006
183.493	944.097
187.63	1675.63
191.765	2190.27
195.898	2524.45
200.029	2657.43
204.158	1854.88
208.285	1532.94
212.41	1526.78
216.533	2545.35
220.654	1375.6
224.773	520.461
228.891	181.915
233.006	169.898
237.119	126.285
241.231	115.072
245.34	69.273
249.448	86.098
253.553	147.018
257.657	239.458
261.758	14.66
265.858	247.023
269.956	544.476
274.052	1210.11
278.146	1221.83
282.237	1290.54
286.327	1757.18
290.416	1410.59
294.502	765.781
298.586	265.688
302.668	340.558
306.749	995.72
310.827	2949.16
314.903	5537.77
318.978	3603.4
323.051	1541.1
327.121	1114.93
331.19	1136.92
335.257	686.101
339.322	307.491
343.385	98.28
347.446	213.615
351.505	315.708
355.563	529.79
359.618	948.252
363.672	1414.09
367.723	2027.29
371.773	3517.85
375.821	5567.77
379.866	6548.06
383.91	7673.85
387.952	8183.1
391.992	4212.97
396.031	2503.32
400.067	1973.29
404.101	1189.87
408.134	1479.85
412.165	1241.36
416.193	966.721
420.22	570.696
424.245	427.717
428.268	504.042
432.289	652.214
436.309	931.691
440.326	800.471
444.342	568.526
448.355	435.854
452.367	499.455
456.377	1185.34
460.385	1487.52
464.391	1411.95
468.395	1497.64
472.398	1327.57
476.398	1532.74
480.397	1914.15
484.394	2054.79
488.389	2896.66
492.382	3940.77
496.373	4223.1
500.362	4374.51
504.349	5814.79
508.335	9753.49
512.319	17468.9
516.3	25830.4
520.28	22915.1
524.259	13614
528.235	7866.09
532.209	5206.41
536.182	4412.98
540.152	3663.68
544.121	2019.82
548.088	1302.28
552.053	586.172
556.017	369.289
559.978	101.176
563.938	96.818
567.895	159.197
571.851	55.674
575.805	26.346
579.758	21.34
583.708	249.672
587.657	502.088
591.603	1056.52
595.548	1576.96
599.491	1910.64
603.432	1873.85
607.372	1532.29
611.309	842.699
615.245	740.094
619.179	621.453
623.111	906.775
627.041	844.057
630.97	780.287
634.896	930.461
638.821	711.57
642.744	577.664
646.665	297.891
650.584	172.869
654.502	81.756
658.418	69.791
662.331	88.857
666.244	11.141
670.154	478.221
674.062	820.879
677.969	1402.99
681.874	1538.62
685.777	1253.82
689.678	608.664
693.577	41.496
697.475	236.477
701.371	82.074
705.265	88.828
709.157	1.178
713.047	18.264
716.936	47.357
720.823	77.561
724.708	131.631
728.591	123.229
732.472	167.791
736.352	316.941
740.23	636.074
744.106	767.039
747.98	603.797
751.853	948.34
755.723	596.672
759.592	299.795
763.459	608.701
767.325	918.398
771.188	1376.88
775.05	1569.15
778.91	1894.21
782.768	1432.06
786.625	1057.69
790.479	506.119
794.332	196.33
798.183	420.332
802.033	231.119
805.88	263.76
809.726	86.057
813.57	80.852
817.413	78.789
821.253	58.605
825.092	148.119
828.929	136.436
832.764	127.295
836.598	68.479
840.429	79.199
844.259	108.688
848.088	195.387
851.914	311.764
855.739	295.229
859.562	83.113
863.383	127.721
867.203	118.262
871.02	55.92
874.836	221.742
878.65	176.082
882.463	154.348
886.274	251.771
890.083	44.508
893.89	308.207
897.695	388.861
901.499	758.445
905.301	955.832
909.102	1110.53
912.9	1407.04
916.697	1770.53
920.492	2725
924.285	4402.45
928.077	6825.85
931.867	7350.23
935.655	7242.57
939.442	6121.88
943.226	6011.16
947.009	5840.41
950.791	5474.57
954.57	4396.48
958.348	3931.86
962.124	2818.86
965.899	2384.76
969.671	2364.79
973.442	2657.11
977.211	3557.22
980.979	4974.07
984.745	5368.76
988.509	5648.35
992.271	4790.92
996.032	3340.69
999.791	1987.99
1003.55	1587.03
1007.3	1420.46
1011.06	1298.2
1014.81	1219.37
1018.56	1306.59
1022.31	1192.87
1026.06	1065.81
1029.8	1111.44
1033.55	836.15
1037.29	780.744
1041.03	1103.7
1044.77	1036.68
1048.5	852.873
1052.24	1175.96
1055.97	1226.2
1059.7	1928.05
1063.43	1806.46
1067.16	1666.2
1070.89	2163.88
1074.61	2317.8
1078.34	2803.1
1082.06	3060.8
1085.78	2380.01
1089.5	1590.1
1093.21	793.354
1096.93	649.637
1100.64	625.779
1104.35	342.822
1108.06	313.561
1111.77	184.156
1115.48	248.408
1119.18	205.021
1122.89	369.525
1126.59	52.641
1130.29	264.562
1133.99	26.145
1137.68	212.539
1141.38	290.863
1145.07	183.043
1148.76	155.521
1152.45	33.494
1156.14	175.27
1159.83	30.902
1163.51	48.926
1167.19	193.826
1170.88	49.084
1174.56	12.566
1178.23	241.596
1181.91	47.199
1185.59	5.068
1189.26	205.359
1192.93	447.645
1196.6	326.545
1200.27	260.375
1203.94	31.662
1207.6	574.361
1211.27	278.016
1214.93	76.33
1218.59	408.859
1222.25	407.998
1225.9	531.652
1229.56	559.281
1233.21	228.641
1236.86	125.957
1240.51	272.305
1244.16	311.887
1247.81	355.941
1251.45	223.645
1255.1	311.234
1258.74	109.039
1262.38	331.355
1266.02	438.418
1269.66	251.258
1273.29	330.676
1276.93	293.277
1280.56	241.711
1284.19	108.891
1287.82	210.016
1291.45	159.398
1295.07	271.816
1298.7	249.551
1302.32	166.926
1305.94	171.707
1309.56	67
1313.18	180.816
1316.8	25.316
1320.41	286.723
1324.02	141.164
1327.63	156.668
1331.24	188.309
1334.85	159
1338.46	192.012
1342.06	373.523
1345.67	272.758
1349.27	462.48
1352.87	363.773
1356.47	238.535
1360.07	463.18
1363.66	389.355
1367.25	578.055
1370.85	495.324
1374.44	508.023
1378.03	521.34
1381.61	495.586
1385.2	502.758
1388.78	328.414
1392.37	134.398
1395.95	161.047
1399.53	394.418
1403.1	365.312
1406.68	484.199
1410.26	393.105
1413.83	42.75
1417.4	227.633
1420.97	6.445
1424.54	433.137
1428.1	278.457
1431.67	292.02
1435.23	53.98
1438.8	28.543
1442.36	270.004
1445.91	48.52
1449.47	18.117
1453.03	33.848
