Measurement: Raman, 780 nm, unoriented, Raman Data Processed
Mineral: Prehnite
Rruff sample: R050410
Ideal chemistry: Ca_2_Al(Si_3_Al)O_10_(OH)_2_
Locality: Topel, Namibia
Source: John Lucking
Description: Aggregate of pale green prismatic crystals
Measured chemistry: Ca_1.98_Al_0.99_(Si_3.02_Al_0.99_)O_10_(OH)_2
Raman shift (cm-1)	intensity
139.771	0
142.664	1.98196
145.556	18.7971
148.449	24.3492
151.342	27.7149
154.234	38.3227
157.127	53.9345
160.02	89.249
162.912	198.35
165.805	419.629
168.698	61.1758
171.591	0.451248
174.483	3.29003
177.376	5.40612
180.269	20.2077
183.161	43.7558
186.054	61.7589
188.947	95.6581
191.839	102.155
194.732	135.977
197.625	178.849
200.518	204.259
203.41	236.17
206.303	229.681
209.196	164.928
212.088	103.257
214.981	106.876
217.874	164.009
220.766	246.01
223.659	180.647
226.552	83.6379
229.445	47.0651
232.337	36.678
235.23	35.2056
238.123	40.8109
241.015	49.5546
243.908	51.317
246.801	32.7231
249.694	10.3914
252.586	0.725136
255.479	5.09656
258.372	5.0556
261.264	1.01872
264.157	4.01575
267.05	15.2244
269.942	29.6029
272.835	37.8835
275.728	44.0489
278.62	56.3112
281.513	84.8536
284.406	101.951
287.299	107.13
290.191	92.0424
293.084	56.679
295.977	26.9843
298.869	25.3248
301.762	37.1143
304.655	49.1313
307.548	68.8289
310.44	103.042
313.333	168.909
316.226	289.435
319.118	390.825
322.011	274.971
324.904	137.44
327.796	84.4014
330.689	68.6291
333.582	71.7098
336.474	51.7012
339.367	20.1719
342.26	9.1869
345.152	1.39309
348.045	0.526031
350.938	0.507561
353.831	2.52637
356.723	7.69403
359.616	17.5484
362.509	23.9081
365.401	33.3414
368.294	58.4395
371.187	99.393
374.079	139.667
376.972	165.462
379.865	201.31
382.758	272.775
385.65	429.758
388.543	622.439
391.436	447.321
394.328	206.618
397.221	99.7598
400.114	56.9932
403.007	41.6072
405.899	26.3066
408.792	14.3921
411.685	7.10462
414.577	2.34862
417.47	2.71186
420.363	3.37069
423.255	5.00593
426.148	3.02378
429.041	0.730896
431.933	2.94139
434.826	6.5408
437.719	12.6612
440.612	25.5538
443.504	31.9992
446.397	20.954
449.29	6.46755
452.182	2.52887
455.075	2.24698
457.968	6.64706
460.861	12.5767
463.753	19.5224
466.646	28.8425
469.539	35.1706
472.431	36.1905
475.324	33.4161
478.217	35.5323
481.109	46.7905
484.002	51.4563
486.895	44.6173
489.788	40.7586
492.68	48.8918
495.573	64.9324
498.466	92.9666
501.358	129.622
504.251	182.707
507.144	252.132
510.036	350.808
512.929	488.301
515.822	654.539
518.715	841.085
521.607	917.59
524.5	781.546
527.393	560.641
530.285	383.103
533.178	292.502
536.071	268.79
538.963	282.752
541.856	294.48
544.749	250.106
547.641	161.053
550.534	91.6274
553.427	52.0646
556.32	30.845
559.212	16.9295
562.105	9.10464
564.998	2.12149
567.89	1.05017
570.783	4.40536
573.676	3.62379
576.568	3.54772
579.461	0.197273
582.354	4.76586
585.247	12.6525
588.139	25.8623
591.032	42.0088
593.925	64.8555
596.817	89.0036
599.71	103.776
602.603	114.453
605.495	133.969
608.388	145.672
611.281	129.271
614.174	87.7908
617.066	58.5735
619.959	48.3299
622.852	49.014
625.744	51.1772
628.637	57.5095
631.53	56.4126
634.423	47.0799
637.315	37.9517
640.208	30.417
643.101	20.7348
645.993	7.48895
648.886	3.29873
651.779	0.304565
654.671	0.950127
657.564	1.41986
660.457	4.91617
663.35	7.46117
666.242	12.9426
669.135	18.1266
672.028	22.4849
674.92	27.0902
677.813	39.6876
680.706	57.3404
683.598	74.2864
686.491	94.5407
689.384	94.1379
692.277	75.2097
695.169	47.6966
698.062	27.148
700.955	14.5581
703.847	7.39115
706.74	2.37371
709.633	2.08585
712.525	0.706215
715.418	2.39816
718.311	1.3856
721.203	0.08638
724.096	0.433815
726.989	1.79813
729.882	1.30615
732.774	5.33655
735.667	7.86466
738.56	14.9094
741.452	21.1547
744.345	27.6064
747.238	36.8687
750.13	47.7154
753.023	51.8319
755.916	45.9385
758.809	36.1235
761.701	35.7402
764.594	40.4564
767.487	49.5237
770.379	67.059
773.272	83.9544
776.165	97.2497
779.058	106.78
781.95	109.767
784.843	95.6842
787.736	64.8976
790.628	42.4385
793.521	27.0726
796.414	20.4963
799.306	17.8762
802.199	16.7967
805.092	16.8897
807.985	16.1082
810.877	11.5331
813.77	9.73652
816.663	5.23832
819.555	3.96725
822.448	3.10016
825.341	2.75659
828.233	2.33737
831.126	2.40068
834.019	0.842052
836.912	0.28936
839.804	0.162735
842.697	1.8955
845.59	2.65028
848.482	0.222454
851.375	0.769096
854.268	1.26808
857.16	0.618706
860.053	0.872959
862.946	0.261997
865.838	0.136021
868.731	0.166336
871.624	0.017353
874.517	0.40992
877.409	1.24421
880.302	1.05771
883.195	1.02638
886.087	0.578476
888.98	0.90358
891.873	1.76814
894.765	1.87655
897.658	1.32629
900.551	2.99994
903.444	6.73637
906.336	8.48496
909.229	13.4572
912.122	16.0768
915.014	24.5306
917.907	38.4515
920.8	55.6967
923.692	78.6706
926.585	113.767
929.478	155.045
932.37	186.847
935.263	192.37
938.156	190.754
941.049	194.288
943.941	196.722
946.834	194.354
949.727	194.39
952.619	192.083
955.512	171.911
958.405	136.591
961.298	101.605
964.19	74.5632
967.083	55.325
969.976	47.3579
972.868	51.1447
975.761	63.1923
978.654	88.3091
981.546	118.461
984.439	155.369
987.332	187.245
990.225	192.426
993.117	172.346
996.01	129.153
998.903	82.9976
1001.79	48.0555
1004.69	26.9005
1007.58	13.8074
1010.47	6.53664
1013.37	4.81363
1016.26	1.13149
1019.15	0.797874
1022.04	2.5316
1024.94	1.04943
1027.83	0.563393
1030.72	1.61927
1033.62	0.133865
1036.51	3.63005
1039.4	7.97684
1042.29	8.53419
1045.19	6.12387
1048.08	3.36208
1050.97	5.89701
1053.86	9.86617
1056.76	20.1434
1059.65	31.7116
1062.54	41.9521
1065.43	39.5508
1068.33	38.4036
1071.22	43.7143
1074.11	52.5996
1077.01	67.3319
1079.9	90.4875
1082.79	92.1454
1085.68	60.6951
1088.58	32.2052
1091.47	15.6545
1094.36	8.13407
1097.25	5.39838
1100.15	2.5816
1103.04	1.54034
1105.93	0.558083
1108.83	0.324852
1111.72	0.858723
1114.61	0.004822
1117.5	0.42738
1120.4	2.21024
1123.29	1.88274
1126.18	5.43922
1129.07	7.96343
1131.97	11.9541
1134.86	16.2285
1137.75	17.1674
1140.64	14.7065
1143.54	7.74364
1146.43	4.91499
1149.32	3.32097
1152.22	1.35091
1155.11	0.063683
1158	0.535934
1160.89	1.25265
1163.79	0.408627
1166.68	1.48195
1169.57	0.10162
1172.46	1.5467
1175.36	1.58624
1178.25	0.121536
1181.14	0.693596
1184.04	1.54795
1186.93	0.434032
1189.82	1.24381
1192.71	0.644211
1195.61	0.741703
1198.5	1.58231
1201.39	1.27785
1204.28	0.968307
1207.18	1.31686
1210.07	1.85654
1212.96	1.66613
1215.86	0.63604
1218.75	1.36342
1221.64	2.24445
1224.53	1.56091
1227.43	0.106018
1230.32	2.40897
1233.21	1.19289
1236.1	0.159069
1239	0.576992
1241.89	0.735207
1244.78	0.064068
1247.67	0.198666
1250.57	1.65265
1253.46	1.10188
1256.35	0.178555
1259.25	2.00152
1262.14	2.39244
1265.03	1.19384
1267.92	1.0322
1270.82	0.216526
1273.71	1.28158
1276.6	0.665962
