Measurement: Raman, 780 nm, unoriented, Raman Data Processed
Mineral: Prehnite
Rruff sample: R040047
Ideal chemistry: Ca_2_Al(Si_3_Al)O_10_(OH)_2_
Locality: Mohave County, Arizona, USA
Source: University of Arizona Mineral Museum
Description: Green coarsely crystalline massive
Measured chemistry: Light bands: Ca_2.01_(Al_1.61_Fe_0.43_)Si_3.08_O_10_(OH)_2_; Dark bands: Ca_1.99_(Al_1.82_Fe_0.19_)Si_3.04_O_10_(OH)_2_
Raman shift (cm-1)	intensity
144.111	0
147.004	1.63135
149.897	159.645
152.79	231.589
155.682	343.257
158.575	526.405
161.468	1057.62
164.36	1708.16
167.253	802.809
170.146	114.629
173.038	2.72559
175.931	71.4524
178.824	51.3303
181.716	153.285
184.609	248.463
187.502	378.59
190.395	543.201
193.287	549.627
196.18	519.181
199.073	445.1
201.965	478.62
204.858	427.132
207.751	335.994
210.643	355.602
213.536	427.934
216.429	473.286
219.322	443.634
222.214	337.152
225.107	134.592
228	37.0793
230.892	39.2102
233.785	95.5608
236.678	19.7175
239.571	35.9522
242.463	73.0005
245.356	27.834
248.249	9.39819
251.141	4.20532
254.034	18.8638
256.927	4.86719
259.819	5.99121
262.712	82.3267
265.605	98.4214
268.498	190.058
271.39	289.193
274.283	462.096
277.176	462.645
280.068	630.327
282.961	728.123
285.854	842.294
288.746	918.532
291.639	682.225
294.532	381.796
297.425	184.477
300.317	163.944
303.21	220.155
306.103	387.076
308.995	560.744
311.888	840.646
314.781	1146.64
317.673	1271.31
320.566	1025.12
323.459	734.326
326.351	631.271
329.244	622.597
332.137	502.422
335.03	268.065
337.922	102.443
340.815	16.9582
343.708	42.0552
346.6	3.46411
349.493	31.9482
352.386	174.712
355.279	256.889
358.171	355.002
361.064	485.398
363.957	480.534
366.849	535.595
369.742	681.203
372.635	834.892
375.527	971.863
378.42	1183.24
381.313	1310.83
384.205	1422.62
387.098	1447.01
389.991	1122.59
392.884	640.828
395.776	317.606
398.669	169.362
401.562	79.3716
404.454	87.1821
407.347	19.947
410.24	17.1326
413.132	51.4778
416.025	49.3696
418.918	85.8386
421.811	132.032
424.703	171.218
427.596	262.263
430.489	265.563
433.381	267.519
436.274	204.115
439.167	175.929
442.06	101.392
444.952	23.5051
447.845	53.3571
450.738	28.0376
453.63	17.0375
456.523	90.973
459.416	163.229
462.308	151.546
465.201	113.88
468.094	71.1877
470.986	163.048
473.879	233.67
476.772	229.966
479.665	343.581
482.557	341.63
485.45	324.433
488.343	412.676
491.235	477.01
494.128	617.691
497.021	797.066
499.913	1123.14
502.806	1495.64
505.699	2138.36
508.592	2807.02
511.484	3779.2
514.377	4604.6
517.27	5003.55
520.162	4566.28
523.055	3504.26
525.948	2443.56
528.841	1680.75
531.733	1245.42
534.626	1041.75
537.519	828.429
540.411	788.99
543.304	576.728
546.197	333.142
549.089	199.582
551.982	135.15
554.875	107.072
557.768	27.5294
560.66	4.2019
563.553	19.7201
566.446	9.81274
569.338	50.179
572.231	26.9198
575.124	20.1216
578.016	2.40796
580.909	21.4242
583.802	14.5013
586.694	86.5653
589.587	133
592.48	206.412
595.373	235.819
598.265	334.162
601.158	435.651
604.051	495.061
606.943	482.616
609.836	390.364
612.729	309.831
615.621	177.48
618.514	130.263
621.407	139.584
624.3	157.053
627.192	91.6274
630.085	114.575
632.978	59.662
635.87	24.0713
638.763	42.121
641.656	27.5944
644.548	1.65784
647.441	9.84961
650.334	53.1
653.227	43.6942
656.119	23.4298
659.012	95.5169
661.905	194.094
664.797	249.441
667.69	330.571
670.583	421.913
673.476	480.206
676.368	512.865
679.261	556.124
682.154	588.492
685.046	492.211
687.939	412.594
690.832	262.667
693.724	198.971
696.617	100.189
699.51	55.1551
702.403	61.0293
705.295	16.0366
708.188	26.6482
711.081	22.6713
713.973	2.32153
716.866	16.0223
719.759	36.6497
722.651	43.6877
725.544	47.829
728.437	99.6727
731.33	105.091
734.222	116.968
737.115	139.528
740.008	179.73
742.9	206.526
745.793	221.228
748.686	175.306
751.578	188.19
754.471	189.466
757.364	223.439
760.256	267.162
763.149	283.512
766.042	380.115
768.935	456.644
771.827	513.713
774.72	482.408
777.613	509.338
780.505	425.462
783.398	343.934
786.291	248.157
789.183	187.984
792.076	128.363
794.969	107.485
797.862	126.917
800.754	107.166
803.647	119.665
806.54	90.9332
809.432	95.0981
812.325	89.2365
815.218	95.0791
818.111	79.0883
821.003	71.9544
823.896	61.7858
826.789	27.5828
829.681	15.3391
832.574	40.6133
835.467	34.9794
838.359	56.83
841.252	8.9801
844.145	11.4829
847.037	23.5582
849.93	45.1949
852.823	30.046
855.716	13.2877
858.608	7.0553
861.501	35.7801
864.394	28.1422
867.286	22.5641
870.179	26.4851
873.072	27.4249
875.964	2.14343
878.857	34.1025
881.75	8.65576
884.643	4.71899
887.535	12.6647
890.428	27.4606
893.321	63.3037
896.213	5.47473
899.106	39.2423
901.999	84.3852
904.891	170.481
907.784	124.703
910.677	146.339
913.569	194.402
916.462	247.79
919.355	297.636
922.248	450.175
925.14	642
928.033	853.424
930.926	1017.26
933.818	1229.07
936.711	1261.8
939.604	1225.79
942.496	1088.59
945.389	975.362
948.282	777.222
951.175	640.378
954.067	495.422
956.96	420.325
959.853	289.713
962.745	194.375
965.638	187.526
968.531	190.946
971.423	228.289
974.316	297.514
977.209	347.277
980.102	456.214
982.994	497.509
985.887	495.123
988.78	493.27
991.672	394.725
994.565	262.582
997.458	156.168
1000.35	94.8353
1003.24	23.7676
1006.14	26.1442
1009.03	19.1346
1011.92	11.454
1014.81	1.71399
1017.71	23.8611
1020.6	22.6945
1023.49	0.211792
1026.38	39.3689
1029.28	31.4181
1032.17	17.7001
1035.06	13.229
1037.96	40.6728
1040.85	19.1605
1043.74	19.4436
1046.63	38.7858
1049.53	39.5284
1052.42	88.6647
1055.31	72.8326
1058.2	113.138
1061.1	145.753
1063.99	170.987
1066.88	223.886
1069.78	271.667
1072.67	312.425
1075.56	363.858
1078.45	377.375
1081.35	384.359
1084.24	307.805
1087.13	222.561
1090.02	155.675
1092.92	128.511
1095.81	64.6323
1098.7	60.8622
1101.6	58.1199
1104.49	57.3279
1107.38	43.8475
1110.27	9.89526
1113.17	20.3697
1116.06	21.3287
1118.95	14.2438
1121.84	1.59491
1124.74	3.55042
1127.63	67.0302
1130.52	27.4459
1133.41	43.575
1136.31	51.6802
1139.2	40.075
1142.09	57.6181
1144.98	18.9419
1147.88	22.7179
1150.77	27.6579
1153.66	52.9496
1156.56	10.6613
1159.45	1.5401
1162.34	58.382
1165.23	2.2724
1168.13	38.0223
1171.02	23.1609
1173.91	52.0431
1176.81	46.1204
1179.7	51.4391
1182.59	34.1213
1185.48	28.5472
1188.38	33.5681
1191.27	28.7834
1194.16	39.8868
1197.05	14.0274
1199.95	9.50922
1202.84	20.8287
1205.73	47.1578
1208.62	29.5259
1211.52	28.9943
1214.41	27.9015
1217.3	19.7698
1220.2	26.9012
1223.09	12.9095
1225.98	10.5599
1228.87	35.2289
1231.77	50.9886
1234.66	6.20447
1237.55	35.882
1240.44	39.6856
1243.34	27.1351
1246.23	9.13055
1249.12	22.8131
1252.02	31.3451
1254.91	23.096
1257.8	21.2127
1260.69	20.6154
1263.59	16.735
