Measurement: Raman, 532 nm, unoriented, Raman Data Processed
Mineral: Preisingerite
Rruff sample: R060803
Ideal chemistry: Bi^3+^_3_O(As^5+^O_4_)_2_(OH)
Locality: Josef mine, Moldava, Czech. Republic
Source: Michael Scott
Description: Group of tan colored spheres
Raman shift (cm-1)	intensity
133.576	0
136.951	54.7422
140.325	1033.79
143.7	2630.23
147.075	4411.85
150.45	6426.27
153.825	7967.92
157.199	8035.04
160.574	6361.7
163.949	4384.05
167.324	2845.8
170.699	1759.41
174.073	1158.75
177.448	693.134
180.823	489.038
184.198	401.45
187.573	398.079
190.947	362.755
194.322	254.784
197.697	277.588
201.072	408.615
204.447	798.296
207.822	1346.11
211.196	2195.83
214.571	3400.64
217.946	4707.69
221.321	5546
224.696	4445.22
228.07	2345.84
231.445	1153.59
234.82	646.447
238.195	489.419
241.57	664.013
244.945	946.278
248.319	1432.48
251.694	1729.8
255.069	2096.23
258.444	2220.86
261.819	1914.01
265.193	1270.26
268.568	694.134
271.943	291.18
275.318	300.988
278.693	204.99
282.067	203.223
285.442	97.5615
288.817	40.9922
292.192	127.466
295.567	312.861
298.942	318.3
302.316	248.47
305.691	99.4951
309.066	66.4678
312.441	142.689
315.816	273.049
319.19	454.093
322.565	865.805
325.94	1194.68
329.315	1689.81
332.69	2429.12
336.065	3350.94
339.439	4891.27
342.814	6792.08
346.189	9546.26
349.564	12658.9
352.939	15401.4
356.313	16659.5
359.688	16050.6
363.063	14117.5
366.438	11896.7
369.813	9382.46
373.188	6362.05
376.562	3909.73
379.937	2288.8
383.312	1384.89
386.687	1015.85
390.062	895.331
393.436	1108.72
396.811	1670.32
400.186	2916.89
403.561	4797.7
406.936	7055.02
410.31	9753.35
413.685	11331.3
417.06	10980.4
420.435	8327.1
423.81	5243.35
427.185	3143.84
430.559	1798.25
433.934	1131.43
437.309	785.861
440.684	734.53
444.059	941.009
447.433	1282.45
450.808	1722.58
454.183	2280.79
457.558	2565.4
460.933	2415.08
464.308	1841.34
467.682	1323.87
471.057	1177.47
474.432	794.901
477.807	576.408
481.182	367.993
484.556	275.456
487.931	183.503
491.306	7.84766
494.681	68.6641
498.056	193.686
501.43	136.926
504.805	146.102
508.18	114.867
511.555	134.519
514.93	36.2978
518.304	26.2129
521.679	94.3301
525.054	88.5137
528.429	321.391
531.804	252.955
535.179	306.254
538.553	286.55
541.928	486.3
545.303	530.722
548.678	684.742
552.053	724.204
555.427	774.62
558.802	891.385
562.177	948.122
565.552	931.983
568.927	943.338
572.302	874.481
575.676	885.429
579.051	731.686
582.426	685.629
585.801	678.036
589.176	557.695
592.55	431.45
595.925	439.002
599.3	407.002
602.675	392.789
606.05	440.219
609.424	468.524
612.799	474.884
616.174	602.766
619.549	664.394
622.924	837.1
626.298	659.13
629.673	682.321
633.048	627.576
636.423	572.869
639.798	626.692
643.173	471.022
646.547	530.611
649.922	463.069
653.297	339.826
656.672	208.751
660.047	121.522
663.422	129.565
666.796	82.2715
670.171	41.585
673.546	73.0684
676.921	136.359
680.296	17.5391
683.67	142.739
687.045	441.767
690.42	810.642
693.795	1152.09
697.17	1897.74
700.544	2964.35
703.919	4589.89
707.294	6976.25
710.669	9736.74
714.044	13123
717.418	16435.2
720.793	17857.1
724.168	16611.3
727.543	13681.7
730.918	10511.6
734.293	8440.24
737.667	7529.74
741.042	7589.53
744.417	9069.7
747.792	11320.2
751.167	13237.4
754.542	14354.8
757.916	12751.5
761.291	9219.19
764.666	5847.47
768.041	3499.6
771.416	1792.23
774.79	780.529
778.165	38.5859
781.54	292.654
784.915	286.766
788.29	313.779
791.664	1763.53
795.039	4909.66
798.414	10696
801.789	20173.6
805.164	33724.3
808.538	49943.6
811.913	60645.5
815.288	50608.6
818.663	31433.8
822.038	19266.1
825.413	12701.4
828.787	9109.86
832.162	6554.91
835.537	4843.29
838.912	3512.91
842.287	2634.15
845.662	1969.13
849.036	1638.61
852.411	1459.59
855.786	1342.4
859.161	1515.31
862.536	1617.95
865.91	1797.2
869.285	1965.98
872.66	2024.23
876.035	1885.23
879.41	1676.37
882.784	1300.32
886.159	976.985
889.534	680.409
892.909	418.446
896.284	344.489
899.659	120.838
903.033	33.96
906.408	161.316
909.783	91.7217
913.158	90.458
916.533	72.8682
919.907	4.41602
923.282	74.6856
926.657	221.221
930.032	286.016
933.407	229.775
936.782	317.19
940.156	358.242
943.531	343.759
946.906	410.465
950.281	388.268
953.655	393.088
957.03	353.197
960.405	505.318
963.78	495.029
967.155	525.781
970.53	427.869
973.904	411.84
977.279	396.464
980.654	322.717
984.029	230.704
987.404	110.825
990.779	93.624
994.153	103.551
997.528	100.417
1000.9	125.614
1004.28	222.723
1007.65	124.145
1011.03	70.2158
1014.4	111.393
1017.78	28.0557
1021.15	76.9736
1024.53	93.3848
1027.9	89.5205
1031.28	143.512
1034.65	172.583
1038.03	155.493
1041.4	230.869
1044.78	53.8643
1048.15	55.7627
1051.53	119.765
1054.9	160.933
1058.28	233.534
1061.65	130.944
1065.02	126.84
1068.4	113.273
1071.77	155.638
1075.15	89.1875
1078.52	4.56641
1081.9	10.8779
1085.27	25.1992
1088.65	62.3525
1092.02	3.61719
1095.4	94.3193
1098.77	7.26856
1102.15	33.0635
1105.52	147.739
1108.9	39.8555
1112.27	28.625
1115.65	36.2627
1119.02	3.73242
1122.4	22.124
1125.77	11.3701
1129.15	128.999
1132.52	21.9268
1135.9	87.9795
1139.27	45.6611
1142.64	74.4912
1146.02	3.27344
1149.39	14.2568
1152.77	5.09082
1156.14	54.9033
1159.52	58.21
1162.89	20.1484
1166.27	90.0078
1169.64	131.714
1173.02	69.7725
1176.39	89.0508
1179.77	120.279
1183.14	92.7353
1186.52	139.167
1189.89	91.3076
1193.27	98.8887
1196.64	37.9414
1200.02	64.9111
1203.39	117.058
1206.77	86.5049
1210.14	89.9385
1213.52	184.596
1216.89	74.8652
1220.27	68.8906
1223.64	122.6
1227.02	135.942
1230.39	229.63
1233.77	157.994
1237.14	142.769
1240.52	177.174
1243.89	116.532
1247.26	148.347
1250.64	91.2197
1254.01	19.1865
1257.39	66.3877
1260.76	72.7881
1264.14	16.6465
1267.51	24.5898
1270.89	98.2197
1274.26	165.941
1277.64	51.832
1281.01	75.3467
1284.39	71.5781
1287.76	11.2637
1291.14	0.820313
