Measurement: Raman, 532 nm, unoriented, Raman Data Processed
Mineral: Preobrazhenskite
Rruff sample: R090040
Ideal chemistry: Mg_3_B_11_O_15_(OH)_9_
Locality: Inder B deposit and salt dome, Atyrau Oblast, Kazakhstan
Source: Herb Obodda
Description: Colorless crystal fragment
Raman shift (cm-1)	intensity
145.112	0
148.487	61.75
151.862	22.4805
155.237	68.7412
158.612	121.159
161.987	274.532
165.361	311.397
168.736	180.95
172.111	171.059
175.486	47.2964
178.861	29.9145
182.235	7.49609
185.61	2.22363
188.985	3.39062
192.36	23.6689
195.735	82.749
199.109	158.553
202.484	292.961
205.859	126.105
209.234	37.3408
212.609	35.8877
215.984	81.8648
219.358	156.62
222.733	226.662
226.108	337.293
229.483	532.668
232.858	788.276
236.232	796.178
239.607	405.134
242.982	131.142
246.357	82.5806
249.732	44.6504
253.107	2.66309
256.481	4.55127
259.856	4.10254
263.231	6.66602
266.606	57.4072
269.981	67.0776
273.356	121.74
276.73	154.774
280.105	121.981
283.48	119.881
286.855	171.533
290.23	271.769
293.604	364.505
296.979	362.003
300.354	347.065
303.729	252.858
307.104	131.274
310.479	117.049
313.853	169.723
317.228	234.283
320.603	223.554
323.978	275.405
327.353	427.856
330.728	770.293
334.102	1417.77
337.477	1486.92
340.852	556.648
344.227	221.166
347.602	106.196
350.976	42.3931
354.351	9.62354
357.726	9.27051
361.101	2.82471
364.476	5.1333
367.851	16.4043
371.225	6.9165
374.6	54.5928
377.975	125.72
381.35	215.698
384.725	362.81
388.099	538.845
391.474	604.468
394.849	471.443
398.224	321.375
401.599	199.305
404.974	149.054
408.348	145.821
411.723	144.705
415.098	103.731
418.473	62.8208
421.848	23.5244
425.223	7.83936
428.597	8.72315
431.972	20.6977
435.347	56.5601
438.722	116.826
442.097	226.939
445.471	426.066
448.846	737.156
452.221	627.359
455.596	275.857
458.971	168.557
462.346	153.615
465.72	192.602
469.095	226.69
472.47	239.281
475.845	138.978
479.22	62.6152
482.594	14.1148
485.969	15.0317
489.344	0.102051
492.719	19.2588
496.094	74.7485
499.469	108.443
502.843	106.785
506.218	103.793
509.593	109.201
512.968	88.0659
516.343	57.0894
519.717	19.5942
523.092	6.37695
526.467	11.8184
529.842	18.3438
533.217	43.1743
536.592	55.1113
539.966	81.4492
543.341	93.6675
546.716	94.9941
550.091	100.278
553.466	110.048
556.841	162.167
560.215	196.462
563.59	152.715
566.965	92.4292
570.34	90.3984
573.715	106.677
577.09	167.06
580.464	204.966
583.839	176.272
587.214	132.327
590.589	118.314
593.964	73.5552
597.338	55.6191
600.713	49.3081
604.088	46.0068
607.463	10.957
610.838	8.82764
614.212	3.92236
617.587	2.79883
620.962	9.78418
624.337	2.24707
627.712	18.3501
631.087	9.01855
634.461	3.80371
637.836	1.74658
641.211	15.4204
644.586	26.3848
647.961	51.2964
651.336	70.8872
654.71	114.906
658.085	150.105
661.46	216.399
664.835	281.988
668.21	301.238
671.585	269.257
674.959	186.875
678.334	79.5586
681.709	57.3003
685.084	39.4819
688.459	37.6846
691.833	42.0122
695.208	20.1128
698.583	10.855
701.958	11.5234
705.333	15.0654
708.707	1.23975
712.082	0.467773
715.457	1.05859
718.832	2.11914
722.207	5.25049
725.582	14.5552
728.956	70.3872
732.331	83.8247
735.706	128.651
739.081	190.167
742.456	294.228
745.831	412.085
749.205	541.889
752.58	619.138
755.955	578.702
759.33	411.701
762.705	248.339
766.08	165.179
769.454	161.85
772.829	182.906
776.204	168.325
779.579	204.853
782.954	222.559
786.328	254.023
789.703	266.354
793.078	318.295
796.453	365.381
799.828	376.355
803.202	296.89
806.577	168.62
809.952	84.1728
813.327	46.4878
816.702	26.6577
820.077	5.28027
823.451	16.1958
826.826	16.2051
830.201	23.8638
833.576	20.1987
836.951	7.04492
840.326	11.5562
843.7	3.92627
847.075	5.89844
850.45	0.893555
853.825	5.97607
857.2	2.68506
860.574	13.8774
863.949	22.249
867.324	15.1758
870.699	42.7905
874.074	44.605
877.448	58.3677
880.823	66.7881
884.198	84.5425
887.573	98.4155
890.948	110.139
894.323	119.177
897.697	118.535
901.072	136.741
904.447	149.928
907.822	134.067
911.197	139.728
914.572	133.2
917.946	117.725
921.321	73.771
924.696	45.5933
928.071	30.3286
931.446	28.6977
934.821	44.3687
938.195	31.8857
941.57	12.4131
944.945	10.814
948.32	21.2173
951.695	3.0791
955.069	30.8032
958.444	32.2378
961.819	34.062
965.194	72.0449
968.569	91.0615
971.943	101.02
975.318	171.808
978.693	215.46
982.068	257.165
985.443	292.07
988.818	321.362
992.192	305.75
995.567	253.042
998.942	206.532
1002.32	197.304
1005.69	173.402
1009.07	141.768
1012.44	121.543
1015.82	99.3828
1019.19	48.4277
1022.57	34.8013
1025.94	27.6904
1029.32	41.8525
1032.69	50.4312
1036.07	76.3091
1039.44	93.1743
1042.82	108.848
1046.19	100.564
1049.56	141.505
1052.94	123.943
1056.31	109.761
1059.69	90.2329
1063.06	63.3315
1066.44	34.627
1069.81	2.93115
1073.19	7.42871
1076.56	3.40185
1079.94	9.42529
1083.31	2.13965
1086.69	10.165
1090.06	2.56397
1093.44	8.9707
1096.81	1.81006
1100.19	29.7236
1103.56	22.499
1106.94	22.5781
1110.31	26.3467
1113.69	32.4941
1117.06	51.0962
1120.44	45.7324
1123.81	42.5088
1127.18	43.8447
1130.56	33.8955
1133.93	35.6948
1137.31	34.9971
1140.68	24.2178
1144.06	29.5825
1147.43	29.8384
1150.81	19.9097
1154.18	11.7578
1157.56	6.10107
1160.93	15.6519
1164.31	3.90918
1167.68	12.4756
1171.06	20.2866
1174.43	17.4688
1177.81	8.55225
1181.18	9.40137
1184.56	0.71582
1187.93	1.4668
1191.31	3.6831
1194.68	4.2041
1198.06	23.2476
1201.43	21.3516
1204.81	18.5249
1208.18	4.64307
1211.56	0.41748
1214.93	8.49365
1218.31	8.72607
1221.68	36.9111
1225.06	12.9644
1228.43	11.668
1231.81	24.9023
1235.18	4.84326
1238.55	19.7588
1241.93	15.0938
1245.3	9.53418
1248.68	10.4297
1252.05	23.5146
1255.43	23.1382
1258.8	16.4648
1262.18	10.0542
1265.55	0.472168
1268.93	27.228
1272.3	9.87256
1275.68	9.7002
1279.05	16.8574
1282.43	14.0498
1285.8	2.81299
1289.18	18.269
1292.55	1.26025
1295.93	5.77832
1299.3	12.1367
1302.68	0
