Measurement: Raman, 780 nm, unoriented, Raman Data Processed
Mineral: Priceite
Rruff sample: R110008
Ideal chemistry: Ca_2_B_5_O_7_(OH)_5_H_2_O
Locality: Synthetic
Source: Jin-Xiao Mi
Description: Spherical aggregates of colorless thin bladed crystals with distinct cleavage along the blades
Raman shift (cm-1)	intensity
107.962	0
111.337	10.1703
114.711	2.20227
118.086	1.93475
121.461	20.1172
124.836	38.4731
128.21	73.1114
131.585	118.723
134.96	157.093
138.335	199.729
141.71	229.642
145.085	276.289
148.459	321.993
151.834	321
155.209	274.259
158.584	156.666
161.959	53.1157
165.333	22.6412
168.708	9.80463
172.083	15.0029
175.458	21.5491
178.833	29.6021
182.208	16.6159
185.582	0.154968
188.957	4.2724
192.332	0.060547
195.707	5.70447
199.082	12.0579
202.457	19.8025
205.831	21.5126
209.206	26.143
212.581	24.9546
215.956	15.0753
219.331	16.288
222.705	26.9219
226.08	24.1234
229.455	35.3864
232.83	49.8041
236.205	58.034
239.579	52.4095
242.954	34.0552
246.329	16.1316
249.704	14.8517
253.079	17.2848
256.454	22.419
259.828	28.0488
263.203	18.8643
266.578	18.0026
269.953	10.8505
273.328	0.113647
276.702	2.42459
280.077	6.66602
283.452	11.7699
286.827	12.0089
290.202	16.0663
293.576	13.6442
296.951	7.06833
300.326	4.21231
303.701	10.146
307.076	13.4954
310.45	7.8985
313.825	4.37387
317.2	5.33044
320.575	4.69138
323.95	4.88281
327.325	3.62814
330.699	1.69229
334.074	2.77936
337.449	1.96307
340.824	3.69348
344.199	0.238312
347.574	1.80127
350.948	0.749725
354.323	5.95081
357.698	13.9351
361.073	31.6247
364.447	56.3042
367.822	77.7597
371.197	102.886
374.572	138.744
377.947	153.855
381.322	169.442
384.696	135.058
388.071	86.5001
391.446	63.4058
394.821	52.1134
398.196	46.201
401.57	34.6982
404.945	14.2989
408.32	11.7038
411.695	9.64493
415.07	18.2033
418.445	24.6294
421.819	21.337
425.194	11.6306
428.569	0.065002
431.944	0.280518
435.319	0.887756
438.693	5.58237
442.068	12.2975
445.443	9.7605
448.818	4.76846
452.193	0.131317
455.567	3.16522
458.942	10.037
462.317	18.4627
465.692	30.2771
469.067	19.0682
472.442	7.46439
475.816	3.82761
479.191	2.91556
482.566	1.78445
485.941	1.86099
489.316	6.242
492.69	11.1138
496.065	14.1398
499.44	16.0929
502.815	19.4909
506.19	26.4197
509.565	42.0771
512.939	49.4244
516.314	59.172
519.689	53.5534
523.064	51.4367
526.439	56.4623
529.813	53.7918
533.188	53.2797
536.563	48.2983
539.938	38.3964
543.313	35.1195
546.688	25.6357
550.062	22.4338
553.437	20.6049
556.812	26.3468
560.187	32.9941
563.562	46.9807
566.936	69.5968
570.311	79.3021
573.686	71.8203
577.061	66.822
580.436	76.5349
583.811	74.6941
587.185	55.4308
590.56	28.216
593.935	26.4217
597.31	15.8667
600.685	14.5436
604.059	16.9079
607.434	15.832
610.809	20.3864
614.184	28.88
617.559	30.6212
620.933	25.9235
624.308	12.6398
627.683	8.14499
631.058	0.911133
634.433	2.59793
637.808	1.60202
641.182	4.41092
644.557	2.85916
647.932	0.272583
651.307	1.76892
654.682	1.18588
658.056	3.94376
661.431	13.5558
664.806	13.0677
668.181	20.6662
671.556	18.3971
674.931	12.2549
678.305	13.1356
681.68	11.3295
685.055	11.3872
688.43	12.6047
691.805	15.6144
695.179	18.0432
698.554	23.6135
701.929	27.1017
705.304	32.3787
708.679	39.4213
712.053	47.0656
715.428	49.9307
718.803	50.6364
722.178	51.1508
725.553	56.07
728.928	62.4173
732.302	60.841
735.677	48.4346
739.052	37.261
742.427	27.5959
745.802	15.7579
749.176	7.37213
752.551	2.59009
755.926	0.727051
759.301	0.582642
762.676	0.086273
766.051	2.14941
769.425	0.090881
772.8	2.73233
776.175	0.511475
779.55	1.06036
782.925	3.11163
786.299	1.63205
789.674	2.01917
793.049	5.10263
796.424	8.04332
799.799	11.076
803.173	17.8224
806.548	20.3486
809.923	19.9326
813.298	20.5912
816.673	18.1198
820.048	17.8498
823.422	12.2274
826.797	9.45198
830.172	11.5124
833.547	8.69798
836.922	6.05661
840.296	11.3974
843.671	9.11015
847.046	7.85255
850.421	1.65251
853.796	2.30289
857.17	2.90772
860.545	3.01517
863.92	4.75877
867.295	7.21349
870.67	5.57803
874.044	1.24731
877.419	0.855057
880.794	0.762405
884.169	0.023621
887.544	2.03923
890.919	1.51887
894.293	2.69017
897.668	6.46768
901.043	11.1476
904.418	10.1041
907.793	11.58
911.168	8.35446
914.542	8.12962
917.917	9.98236
921.292	4.6534
924.667	5.41038
928.042	8.39091
931.416	10.044
934.791	8.93631
938.166	9.47624
941.541	8.23752
944.916	11.2294
948.29	11.4936
951.665	4.20122
955.04	7.69379
958.415	6.76747
961.79	6.6676
965.164	7.66312
968.539	7.47882
971.914	9.4744
975.289	9.60435
978.664	13.5299
982.039	11.6316
985.413	7.16469
988.788	2.72781
992.163	4.1716
995.538	1.45189
998.913	0.672897
1002.29	1.47986
1005.66	3.99641
1009.04	3.24373
1012.41	7.47841
1015.79	5.60274
1019.16	6.3512
1022.54	5.30489
1025.91	9.59711
1029.29	7.93422
1032.66	6.67767
1036.04	8.06841
1039.41	7.22066
1042.79	7.99294
1046.16	7.45756
1049.54	3.12761
1052.91	3.33119
1056.29	3.84933
1059.66	5.14741
1063.03	1.08441
1066.41	1.7516
1069.78	0.269562
1073.16	1.04938
1076.53	0.210526
1079.91	0.509933
1083.28	1.84012
1086.66	3.57086
1090.03	4.29727
1093.41	6.62817
1096.78	5.77092
1100.16	6.3734
1103.53	6.35669
1106.91	4.84076
1110.28	4.38516
1113.66	2.15396
1117.03	3.12946
1120.41	4.4635
1123.78	3.34345
1127.16	1.58398
1130.53	5.29408
1133.9	3.16689
1137.28	5.92291
1140.65	7.54633
1144.03	2.67633
1147.4	3.01831
1150.78	0.003265
1154.15	6.32651
1157.53	3.4978
1160.9	0.998383
1164.28	3.1452
1167.65	1.73262
1171.03	1.03564
1174.4	2.02922
1177.78	2.97508
1181.15	0.394073
1184.53	5.02817
1187.9	5.38676
1191.28	2.40854
1194.65	5.38269
1198.03	4.44348
1201.4	3.65465
1204.78	4.40782
1208.15	6.15349
1211.53	4.97363
1214.9	2.4118
1218.28	2.25482
1221.65	2.48392
1225.03	6.77156
1228.4	2.40892
1231.78	1.99808
1235.15	2.29408
1238.53	2.20352
1241.9	0.603409
1245.27	1.83736
1248.65	1.55943
1252.02	2.71959
1255.4	3.7677
1258.77	1.02124
1262.15	7.98412
1265.52	3.26822
1268.9	4.22206
1272.27	3.54251
1275.65	2.09047
1279.02	0.967575
1282.4	0.265289
