Measurement: Raman, 780 nm, unoriented, Raman Data Processed
Mineral: Priderite
Rruff sample: R060437
Ideal chemistry: K(Ti^4+^_7_Fe^3+^)O_16_
Locality: Walgridee Hills Intrusion, Western Australia, Australia
Source: Michael Scott
Description: Dark brown cleavage fragment
Measured chemistry: K_0.97_Ba_0.34_(Ti^4+^_6.71_Fe^3+^_1.01_Cr^3+^_0.01_Mg_0.22_)_Î£=8.04_O_16_
Raman shift (cm-1)	intensity
169.673	0
172.565	1.5909
175.458	3.52704
178.351	2.17796
181.243	6.90984
184.136	5.52879
187.029	7.98023
189.921	6.60675
192.814	5.68097
195.707	3.55339
198.6	0.358306
201.492	1.15973
204.385	0.520706
207.278	0.659073
210.17	0.485596
213.063	0.145828
215.956	2.71056
218.848	2.30315
221.741	4.89496
224.634	6.98537
227.526	12.2752
230.419	13.6095
233.312	15.4232
236.205	15.8988
239.097	17.7642
241.99	20.3732
244.883	20.3035
247.775	18.7995
250.668	23.3664
253.561	19.3922
256.454	17.4063
259.346	19.8979
262.239	19.6321
265.132	19.3227
268.024	18.0523
270.917	15.0765
273.81	15.3794
276.702	9.7216
279.595	8.79475
282.488	4.58195
285.38	0.347366
288.273	0.663666
291.166	3.44336
294.059	0.101822
296.951	2.83171
299.844	9.15773
302.737	18.6228
305.629	28.3639
308.522	39.1768
311.415	51.9966
314.308	68.2223
317.2	88.9583
320.093	105.321
322.986	116.459
325.878	128.342
328.771	130.726
331.664	137.779
334.556	132.119
337.449	128.875
340.342	120.52
343.234	114.143
346.127	103.295
349.02	94.3679
351.913	81.211
354.805	75.8493
357.698	68.0147
360.591	58.7759
363.483	52.3168
366.376	45.2229
369.269	41.5011
372.161	35.8383
375.054	28.253
377.947	25.9804
380.839	20.903
383.732	18.6698
386.625	15.6853
389.518	12.1655
392.41	8.29257
395.303	7.28522
398.196	5.25249
401.088	4.65381
403.981	2.23613
406.874	0.14418
409.767	1.30133
412.659	1.21793
415.552	0.537262
418.445	1.94103
421.337	1.5826
424.23	0.093582
427.123	0.08194
430.015	3.24449
432.908	3.91576
435.801	2.08255
438.693	5.68333
441.586	4.86409
444.479	4.4698
447.372	5.20914
450.264	7.06633
453.157	11.4901
456.05	9.74596
458.942	10.4671
461.835	10.1053
464.728	12.7778
467.62	10.0974
470.513	7.56911
473.406	7.17442
476.299	5.27202
479.191	3.82628
482.084	4.93072
484.977	1.99411
487.869	0.476593
490.762	0.878586
493.655	0.780869
496.547	0.197571
499.44	0.659393
502.333	1.89803
505.226	0.502274
508.118	1.82027
511.011	2.48546
513.904	2.34599
516.796	0.690491
519.689	0.031906
522.582	1.30585
525.474	1.62909
528.367	0.208206
531.26	0.570877
534.153	0.191101
537.045	0.141754
539.938	1.63951
542.831	2.65889
545.723	3.0079
548.616	8.14137
551.509	10.7816
554.401	16.7678
557.294	19.3947
560.187	24.5984
563.08	29.5656
565.972	36.2603
568.865	44.6502
571.758	50.9239
574.65	55.3704
577.543	63.0644
580.436	68.6214
583.328	71.8527
586.221	79.0346
589.114	80.5489
592.006	88.7698
594.899	91.7211
597.792	90.8234
600.685	90.628
603.577	86.0608
606.47	77.897
609.363	73.047
612.255	61.9198
615.148	49.8828
618.041	41.8469
620.933	31.6443
623.826	23.5923
626.719	17.7371
629.611	10.7751
632.504	7.87472
635.397	6.78725
638.29	0.489487
641.182	1.4812
644.075	1.89684
646.968	2.01445
649.86	2.65408
652.753	4.49556
655.646	5.92165
658.538	4.6273
661.431	8.06972
664.324	8.02489
667.217	8.12181
670.109	8.43604
673.002	10.8258
675.895	8.78763
678.787	8.94644
681.68	7.41441
684.573	6.8045
687.466	9.28468
690.358	5.22551
693.251	6.06352
696.144	4.99002
699.036	2.65176
701.929	3.09215
704.822	0.757385
707.714	1.59064
710.607	1.53744
713.5	0.522781
716.393	0.371964
719.285	0.27404
722.178	0.335587
725.071	0.160522
727.963	1.44605
730.856	0.430817
733.749	0.313812
736.641	0.932098
739.534	0.437943
742.427	2.18359
745.319	0.57692
748.212	0.355614
751.105	1.70111
753.998	0.982132
756.89	0.009972
759.783	2.8431
762.676	2.9002
765.568	3.18045
768.461	2.43977
771.354	5.02964
774.246	4.19938
777.139	3.35336
780.032	5.93555
782.925	5.89474
785.817	7.09882
788.71	8.08325
791.603	7.13159
794.495	7.20692
797.388	6.51888
800.281	9.02979
803.173	12.2481
806.066	13.8075
808.959	13.001
811.851	13.5161
814.744	11.9289
817.637	15.2886
820.53	15.26
823.422	14.7451
826.315	13.0468
829.208	12.6684
832.1	11.8157
834.993	11.8461
837.886	11.406
840.779	11.249
843.671	8.55614
846.564	8.02769
849.457	7.8551
852.349	7.71808
855.242	7.45064
858.135	5.05167
861.027	4.84557
863.92	3.81783
866.813	4.14882
869.706	2.80038
872.598	3.66658
875.491	2.63645
878.384	2.51846
881.276	1.7633
884.169	1.26189
887.062	2.82959
889.954	0.441093
892.847	1.78352
895.74	0.135357
898.632	0.026203
901.525	0.296715
904.418	1.86827
907.311	0.40881
910.203	2.42596
913.096	0.355934
915.989	0.471485
918.881	0.905819
921.774	1.77828
924.667	0.638344
927.559	0.776005
930.452	0.811192
933.345	2.7162
936.237	2.09917
939.13	1.89607
942.023	2.02294
944.916	2.16391
947.808	0.708603
950.701	1.91227
953.594	0.595406
956.486	0.681011
959.379	2.23083
962.272	1.21465
965.164	2.15837
968.057	1.37712
970.95	0.255894
973.843	0.319645
976.735	0.494015
979.628	2.25209
982.521	1.88973
985.413	2.30479
988.306	0.651733
991.199	0.842831
994.091	1.34771
996.984	3.91804
999.877	1.99185
1002.77	3.79462
1005.66	0.992645
1008.55	2.6892
1011.45	4.5264
1014.34	2.05276
1017.23	2.66191
1020.13	2.09642
1023.02	0.322544
1025.91	3.1583
1028.8	1.37976
1031.7	0.528275
1034.59	0.588463
1037.48	1.8804
1040.38	1.41679
1043.27	1.58478
1046.16	0.399143
1049.05	2.83085
1051.94	2.37822
1054.84	1.35018
1057.73	1.86059
1060.62	2.46726
1063.52	0.712643
1066.41	3.58377
1069.3	0.518341
1072.19	2.37258
1075.09	2.34742
1077.98	1.8703
1080.87	0.321041
1083.77	2.23164
1086.66	0.919437
1089.55	1.2789
1092.44	1.2888
1095.34	0.029114
1098.23	2.0051
1101.12	0.753815
1104.01	1.29176
1106.91	3.19518
1109.8	0.188076
1112.69	0.816227
1115.59	2.53254
1118.48	2.2784
1121.37	1.35344
1124.26	0.708275
1127.16	0.510273
1130.05	1.32287
1132.94	0.726295
1135.83	2.56067
1138.73	2.59288
1141.62	0.142319
1144.51	1.62563
1147.4	0.478836
1150.3	1.99775
1153.19	0.979855
1156.08	0.970516
1158.97	2.46142
1161.87	0.254333
1164.76	2.40097
1167.65	2.01706
1170.55	3.56986
1173.44	3.68552
1176.33	1.28084
1179.22	1.99162
1182.12	0.837112
1185.01	0.841175
1187.9	0.944901
1190.8	2.67028
1193.69	1.25063
1196.58	1.26831
1199.47	2.87359
1202.37	1.83829
1205.26	0.594566
1208.15	2.07187
1211.04	1.35221
1213.94	0.978348
1216.83	0.362816
1219.72	2.18203
1222.62	0.826572
1225.51	1.19715
1228.4	0.901424
1231.29	1.74869
1234.18	2.71893
1237.08	0.960842
1239.97	1.01643
1242.86	0.879486
1245.76	1.86122
1248.65	3.02995
1251.54	2.05679
1254.43	2.80147
1257.33	3.01497
1260.22	3.83163
1263.11	3.18576
1266.01	1.80991
1268.9	2.50684
1271.79	1.69843
1274.68	1.44289
1277.58	4.10164
1280.47	3.25485
1283.36	1.92702
