Measurement: Raman, 532 nm, unoriented, Raman Data Processed
Mineral: Priderite
Rruff sample: R060437
Ideal chemistry: K(Ti^4+^_7_Fe^3+^)O_16_
Locality: Walgridee Hills Intrusion, Western Australia, Australia
Source: Michael Scott
Description: Dark brown cleavage fragment
Measured chemistry: K_0.97_Ba_0.34_(Ti^4+^_6.71_Fe^3+^_1.01_Cr^3+^_0.01_Mg_0.22_)_Î£=8.04_O_16_
Raman shift (cm-1)	intensity
170.102	0
172.995	2.50742
175.888	7.00468
178.78	4.86104
181.673	10.6672
184.566	6.23752
187.459	12.1722
190.351	10.3668
193.244	17.7884
196.137	15.392
199.029	5.39851
201.922	6.58041
204.815	3.17453
207.708	2.77299
210.6	1.172
213.493	1.477
216.386	3.42465
219.278	4.15709
222.171	3.26309
225.064	7.80618
227.956	13.2697
230.849	20.96
233.742	23.4423
236.635	31.0655
239.527	37.9746
242.42	40.2136
245.313	42.7934
248.205	42.8493
251.098	47.507
253.991	41.4727
256.884	41.2449
259.776	44.4802
262.669	42.2015
265.562	46.4598
268.454	42.5989
271.347	38.9745
274.24	37.1561
277.132	37.3904
280.025	33.1823
282.918	34.5302
285.81	26.8793
288.703	18.6986
291.596	7.45136
294.489	2.00345
297.381	1.93996
300.274	6.02606
303.167	0.492722
306.059	6.55592
308.952	13.833
311.845	27.394
314.738	43.3527
317.63	75.8923
320.523	100.304
323.416	127.671
326.308	168.517
329.201	215.859
332.094	265.302
334.986	301.594
337.879	324.447
340.772	333.976
343.665	330.567
346.557	322.759
349.45	310.877
352.343	292.541
355.235	278.285
358.128	256.339
361.021	234.465
363.913	211.584
366.806	195.753
369.699	173.21
372.592	150.95
375.484	130.624
378.377	117.747
381.27	101.357
384.162	87.7531
387.055	74.641
389.948	65.1336
392.841	54.7474
395.733	46.2489
398.626	40.3668
401.519	34.2757
404.411	23.3152
407.304	18.097
410.197	13.008
413.089	12.2425
415.982	7.25157
418.875	2.65192
421.767	1.12451
424.66	0.79303
427.553	1.80481
430.446	0.207077
433.338	1.03816
436.231	4.73285
439.124	2.37549
442.017	2.17856
444.909	2.04536
447.802	5.51846
450.695	7.34168
453.587	10.4436
456.48	11.4417
459.373	15.2554
462.265	13.7141
465.158	17.8332
468.051	21.6733
470.943	23.1234
473.836	29.235
476.729	30.1357
479.622	31.7137
482.514	37.2435
485.407	37.6413
488.3	42.4638
491.192	42.8787
494.085	47.8262
496.978	49.1961
499.87	50.7888
502.763	52.9466
505.656	52.0121
508.549	51.4366
511.441	52.8534
514.334	47.9774
517.227	40.9599
520.119	41.059
523.012	30.1024
525.905	28.7255
528.798	24.56
531.69	17.7599
534.583	10.7933
537.476	10.638
540.368	2.36191
543.261	1.43582
546.154	3.18631
549.047	6.30279
551.939	1.48019
554.832	1.73157
557.725	8.93817
560.617	19.7003
563.51	27.0898
566.403	44.4669
569.295	62.0978
572.188	81.1844
575.081	99.4841
577.973	119.05
580.866	135.692
583.759	151.64
586.652	168.834
589.544	186.278
592.437	203.414
595.33	224.351
598.222	246.399
601.115	266.647
604.008	277.969
606.901	283.916
609.793	282.868
612.686	271.224
615.579	248.543
618.471	213.002
621.364	171.452
624.257	134.024
627.149	99.6566
630.042	64.6005
632.935	41.9192
635.828	18.017
638.72	8.11148
641.613	1.39081
644.506	0.940552
647.398	0.569977
650.291	4.96991
653.184	14.6012
656.077	24.0227
658.969	34.9441
661.862	44.8897
664.755	54.2645
667.647	64.1298
670.54	71.4349
673.433	73.1896
676.325	81.6141
679.218	76.9519
682.111	76.9129
685.004	75.5852
687.896	69.3294
690.789	67.9826
693.682	56.5223
696.574	51.8084
699.467	45.8082
702.36	39.3352
705.253	35.8314
708.145	30.6928
711.038	25.5217
713.931	19.4405
716.823	18.0157
719.716	12.4552
722.609	11.5673
725.501	8.68024
728.394	2.69229
731.287	1.48901
734.179	1.96289
737.072	0.801086
739.965	2.07333
742.858	0.390656
745.75	3.24094
748.643	1.53744
751.536	0.890335
754.428	1.7639
757.321	0.219055
760.214	1.97748
763.107	1.1815
765.999	4.37195
768.892	3.15143
771.785	5.45082
774.677	4.20816
777.57	6.30383
780.463	7.00884
783.356	10.6059
786.248	15.2678
789.141	16.2
792.034	17.9632
794.926	24.1898
797.819	24.4667
800.712	26.427
803.604	28.3154
806.497	34.2679
809.39	36.6939
812.283	33.9517
815.175	50.5071
818.068	52.4054
820.961	48.7539
823.853	52.2804
826.746	43.2407
829.639	42.6549
832.531	42.1571
835.424	40.139
838.317	34.9745
841.21	33.4115
844.102	29.0819
846.995	26.8125
849.888	19.9611
852.78	17.6899
855.673	15.7393
858.566	12.2519
861.458	10.8172
864.351	8.23463
867.244	3.07338
870.136	1.66204
873.029	3.01256
875.922	1.22776
878.815	1.94609
881.707	2.25889
884.6	0.508972
887.493	0.823082
890.385	0.12854
893.278	0.029816
896.171	1.46955
899.064	1.73968
901.956	0.870453
904.849	1.4659
907.742	1.72221
910.634	1.48456
913.527	1.82131
916.42	4.16791
919.312	4.35743
922.205	3.52237
925.098	3.82628
927.991	3.22347
930.883	7.2004
933.776	2.16158
936.669	1.66186
939.562	2.04177
942.454	3.72777
945.347	3.56399
948.24	2.6079
951.132	1.80371
954.025	1.73521
956.918	0.020409
959.81	3.09554
962.703	0.93631
965.596	0.193962
968.489	2.25021
971.381	2.35817
974.274	4.05167
977.167	1.97697
980.059	0.759186
982.952	0.944504
985.845	1.40281
988.737	2.3643
991.63	0.488083
994.523	2.1646
997.415	1.32929
1000.31	1.6235
1003.2	2.99695
1006.09	1.94209
1008.99	1.87523
1011.88	3.58131
1014.77	0.113815
1017.66	3.60908
1020.56	2.13634
1023.45	0.863014
1026.34	2.77196
1029.23	3.03059
1032.13	4.60616
1035.02	0.934113
1037.91	4.53783
1040.81	3.0573
1043.7	0.76458
1046.59	1.80296
1049.48	2.24353
1052.38	2.44334
1055.27	3.52371
1058.16	3.30151
1061.06	4.23431
1063.95	4.44002
1066.84	0.030563
1069.73	1.97903
1072.63	3.15953
1075.52	2.26575
1078.41	4.95482
1081.3	1.36408
1084.2	3.73567
1087.09	4.0699
1089.98	4.17297
1092.88	2.34489
1095.77	3.61235
1098.66	0.325676
1101.55	1.82555
1104.45	4.69306
1107.34	1.24018
1110.23	4.21712
1113.12	1.80345
1116.02	1.60701
1118.91	3.34412
1121.8	3.49307
1124.69	3.29897
1127.59	5.72824
1130.48	1.35953
1133.37	2.18989
1136.27	1.64306
1139.16	0.974945
1142.05	0.547722
1144.94	3.15941
1147.84	3.71108
1150.73	2.97492
1153.62	3.81158
1156.51	0.84742
1159.41	2.32879
1162.3	2.50175
1165.19	3.2636
1168.09	2.30038
1170.98	1.9652
1173.87	3.72578
1176.76	4.9202
1179.66	5.49956
1182.55	2.76265
1185.44	5.93675
1188.33	5.61742
1191.23	3.97592
1194.12	2.13659
1197.01	2.15742
1199.9	0.805809
1202.8	1.81615
1205.69	2.33823
1208.58	2.8068
1211.48	2.19891
1214.37	1.94886
1217.26	4.27042
1220.15	0.802567
1223.05	2.91803
1225.94	2.50509
1228.83	0.182327
1231.72	1.32283
1234.62	7.30315
1237.51	3.45785
1240.4	4.62736
1243.3	2.38155
1246.19	4.58
1249.08	1.25276
1251.97	3.87663
1254.87	6.06538
1257.76	1.12959
1260.65	3.85022
1263.54	4.66935
1266.44	4.96906
1269.33	3.66187
1272.22	3.51693
1275.12	7.60119
1278.01	4.13734
1280.9	4.77915
1283.79	0.323647
1286.69	4.18821
1289.58	2.09695
1292.47	2.43165
1295.36	4.59457
1298.26	2.74333
1301.15	0.070061
