Measurement: Raman, 532 nm, unoriented, Raman Data Processed
Mineral: Probertite
Rruff sample: R050284
Ideal chemistry: NaCaB_5_O_7_(OH)_4_3H_2_O
Locality: Borax Open Pit, Boron, Kern County, California, USA
Source: Marcus Origlieri
Description: Spray of colorless acicular single crystals
Measured chemistry: Na_1.00_Ca_1.00_B_5.00_O_7_(OH)_4_Â·3H_2_O
Raman shift (cm-1)	intensity
181.063	0
183.956	5.5675
186.848	8.80957
189.741	10.3419
192.634	14.5055
195.526	10.2196
198.419	5.70569
201.312	0.856079
204.205	0.242188
207.097	11.7247
209.99	18.3656
212.883	16.3883
215.775	14.8464
218.668	13.5425
221.561	7.70679
224.453	13.1822
227.346	21.6451
230.239	32.2982
233.132	26.4947
236.024	34.1177
238.917	44.4612
241.81	48.1316
244.702	49.0505
247.595	32.7125
250.488	25.4148
253.381	14.7522
256.273	13.564
259.166	5.06982
262.059	1.30054
264.951	2.27283
267.844	2.23364
270.737	5.89514
273.629	11.2205
276.522	13.1879
279.415	15.9435
282.308	21.5847
285.2	25.7516
288.093	47.0663
290.986	58.5881
293.878	84.0509
296.771	103.261
299.664	122.305
302.556	144.636
305.449	140.39
308.342	114.715
311.235	90.8992
314.127	74.1785
317.02	65.9066
319.913	71.0345
322.805	64.9344
325.698	67.5203
328.591	72.4584
331.483	75.5043
334.376	71.5201
337.269	75.4397
340.161	90.1814
343.054	74.4105
345.947	72.4189
348.84	68.5715
351.732	74.6848
354.625	76.2831
357.518	55.2758
360.41	33.6608
363.303	18.2516
366.196	9.06775
369.089	3.24158
371.981	4.56396
374.874	2.68213
377.767	1.92383
380.659	5.52673
383.552	1.57959
386.445	6.44055
389.337	6.0592
392.23	1.4209
395.123	6.15259
398.015	2.03381
400.908	12.5586
403.801	14.6366
406.694	17.0388
409.586	18.9092
412.479	24.4413
415.372	36.3509
418.264	39.5037
421.157	47.3616
424.05	45.4786
426.942	44.1871
429.835	53.9388
432.728	59.3329
435.621	58.5034
438.513	56.6318
441.406	45.844
444.299	41.3145
447.191	36.345
450.084	48.9125
452.977	63.9673
455.87	69.5135
458.762	67.6397
461.655	67.2167
464.548	58.0745
467.44	56.773
470.333	62.4958
473.226	64.2892
476.118	67.1702
479.011	67.9601
481.904	67.668
484.796	81.5759
487.689	82.5558
490.582	82.3135
493.475	57.4175
496.367	28.179
499.26	6.21484
502.153	7.43799
505.045	0.653687
507.938	7.88159
510.831	3.55359
513.723	4.48621
516.616	21.8201
519.509	26.5543
522.402	43.5546
525.294	38.6747
528.187	34.2296
531.08	25.843
533.972	20.5819
536.865	24.958
539.758	40.1298
542.65	54.7937
545.543	83.3069
548.436	111.453
551.329	167.524
554.221	219.482
557.114	224.071
560.007	171.566
562.899	128.488
565.792	94.9935
568.685	73.7997
571.577	70.0492
574.47	72.9334
577.363	89.4785
580.256	104.817
583.148	93.7161
586.041	50.2542
588.934	31.871
591.826	11.4352
594.719	8.75891
597.612	14.0533
600.505	6.57178
603.397	5.31177
606.29	14.7316
609.183	13.3293
612.075	20.1971
614.968	13.1737
617.861	2.03613
620.753	1.14868
623.646	4.25232
626.539	4.51648
629.432	5.65173
632.324	6.14136
635.217	10.5104
638.11	16.7873
641.002	20.2585
643.895	23.9818
646.788	17.3691
649.68	12.8495
652.573	1.47022
655.466	0.994995
658.359	2.2218
661.251	10.4165
664.144	7.54785
667.037	7.32568
669.929	5.89441
672.822	2.52454
675.715	6.55811
678.607	13.5984
681.5	11.5317
684.393	16.6926
687.285	11.342
690.178	6.09302
693.071	12.0249
695.964	13.1232
698.856	17.3329
701.749	15.7602
704.642	23.349
707.534	22.5916
710.427	32.4585
713.32	39.8801
716.212	57.3932
719.105	73.2076
721.998	82.1145
724.891	107.467
727.783	116.711
730.676	109.812
733.569	59.9465
736.461	36.0529
739.354	26.3485
742.247	31.4825
745.139	44.7706
748.032	54.8876
750.925	66.8046
753.818	55.1754
756.71	29.1365
759.603	15.4718
762.496	12.0278
765.388	9.74341
768.281	12.7366
771.174	2.54736
774.067	7.81738
776.959	0.02417
779.852	5.30237
782.745	1.04297
785.637	6.30054
788.53	7.01502
791.423	5.93616
794.315	3.98303
797.208	6.03784
800.101	4.87378
802.994	6.26965
805.886	10.9604
808.779	17.0926
811.672	18.8231
814.564	17.4487
817.457	29.9506
820.35	35.3342
823.242	44.1824
826.135	39.4545
829.028	27.9801
831.92	19.824
834.813	20.4563
837.706	13.7408
840.599	7.26208
843.491	4.39392
846.384	1.30298
849.277	2.99878
852.169	3.06103
855.062	5.53735
857.955	8.59375
860.847	1.17395
863.74	4.89673
866.633	12.525
869.526	8.74573
872.418	16.1981
875.311	7.11072
878.204	4.00854
881.096	1.80383
883.989	9.67859
886.882	8.98914
889.774	13.5643
892.667	12.5598
895.56	11.5779
898.453	15.8058
901.345	22.3516
904.238	27.5149
907.131	27.0162
910.023	37.9425
912.916	46.6918
915.809	51.3295
918.702	57.4822
921.594	68.2704
924.487	74.1355
927.38	60.6158
930.272	46.9827
933.165	30.704
936.058	27.5465
938.95	11.8389
941.843	12.7473
944.736	3.59815
947.629	8.0011
950.521	8.78699
953.414	7.50464
956.307	8.18213
959.199	3.07178
962.092	4.97156
964.985	1.68457
967.877	2.021
970.77	9.95325
973.663	6.63159
976.556	3.32861
979.448	7.5343
982.341	16.3398
985.234	10.3036
988.126	10.1934
991.019	8.91724
993.912	3.42493
996.804	1.6792
999.697	1.4093
1002.59	1.95178
1005.48	1.59595
1008.38	8.55469
1011.27	4.38586
1014.16	11.6995
1017.05	19.2002
1019.95	16.6406
1022.84	19.2965
1025.73	24.0402
1028.62	43.918
1031.52	44.8177
1034.41	51.501
1037.3	64.3816
1040.19	63.1409
1043.09	49.6636
1045.98	37.4648
1048.87	25.2622
1051.77	25.4894
1054.66	22.2245
1057.55	24.5547
1060.44	22.0914
1063.34	15.208
1066.23	18.5154
1069.12	12.447
1072.02	3.16589
1074.91	3.17456
1077.8	3.94104
1080.69	2.44043
1083.59	8.14868
1086.48	5.26831
1089.37	2.81616
1092.26	3.2843
1095.16	4.09045
1098.05	7.19531
1100.94	5.2196
1103.83	2.23132
1106.73	6.6438
1109.62	0.820801
1112.51	0.076904
1115.4	1.35327
1118.3	2.53162
1121.19	5.88184
1124.08	8.10217
1126.98	6.08203
1129.87	13.3069
1132.76	9.53113
1135.65	12.6571
1138.55	12.3744
1141.44	14.0253
1144.33	17.5919
1147.22	16.1085
1150.12	9.14416
1153.01	4.94092
1155.9	5.88403
1158.8	6.06775
1161.69	8.29748
1164.58	13.014
1167.47	9.81812
1170.37	3.39282
1173.26	12.4919
1176.15	4.7782
1179.04	8.80627
1181.94	7.86011
1184.83	3.64807
1187.72	0.083008
1190.62	9.83765
1193.51	8.49194
1196.4	1.75244
1199.29	0.968018
1202.19	4.99439
1205.08	7.42749
1207.97	6.56116
1210.86	0.984741
1213.76	12.9132
1216.65	10.8966
1219.54	10.0574
1222.43	10.0486
1225.33	10.3538
1228.22	18.2979
1231.11	21.4977
1234.01	19.4613
1236.9	8.56348
1239.79	1.81775
1242.68	3.22644
1245.58	4.04028
1248.47	2.47278
1251.36	8.22876
1254.26	7.37952
1257.15	2.42712
1260.04	8.71704
1262.93	3.69507
1265.83	0.757446
1268.72	2.95373
1271.61	0.930298
1274.5	2.96106
1277.4	7.27795
1280.29	4.04871
1283.18	9.97717
1286.07	8.94409
1288.97	11.9382
1291.86	9.60254
1294.75	6.6344
1297.64	0.284058
1300.54	0.592285
1303.43	3.58496
