Measurement: Raman, 780 nm, unoriented, Raman Data Processed
Mineral: Probertite
Rruff sample: R050284
Ideal chemistry: NaCaB_5_O_7_(OH)_4_3H_2_O
Locality: Borax Open Pit, Boron, Kern County, California, USA
Source: Marcus Origlieri
Description: Spray of colorless acicular single crystals
Measured chemistry: Na_1.00_Ca_1.00_B_5.00_O_7_(OH)_4_Â·3H_2_O
Raman shift (cm-1)	intensity
181.233	0
184.126	1.38696
187.018	2.12735
189.911	1.15179
192.804	2.44693
195.696	0.197571
198.589	0.169067
201.482	1.61005
204.375	1.86939
207.267	2.59238
210.16	4.89691
213.053	0.253937
215.945	1.49274
218.838	0.481415
221.731	1.34592
224.623	3.57935
227.516	6.03378
230.409	7.93338
233.302	9.52899
236.194	12.2844
239.087	15.8983
241.98	17.505
244.872	14.2635
247.765	9.70023
250.658	9.11468
253.55	3.8717
256.443	1.70016
259.336	0.049255
262.228	0.760376
265.121	0.940613
268.014	1.47821
270.907	1.15921
273.799	2.27512
276.692	3.43662
279.585	5.85077
282.477	8.65714
285.37	11.0087
288.263	14.6117
291.156	20.765
294.048	26.39
296.941	30.1876
299.834	32.7449
302.726	35.5117
305.619	31.1298
308.512	26.5069
311.404	20.5328
314.297	14.9381
317.19	15.1133
320.082	11.6008
322.975	9.88895
325.868	10.8182
328.761	9.84403
331.653	10.751
334.546	12.9453
337.439	14.1768
340.331	15.8855
343.224	20.1235
346.117	22.1909
349.01	22.405
351.902	22.5129
354.795	26.3384
357.688	18.997
360.58	9.50503
363.473	6.43957
366.366	1.1944
369.258	0.701263
372.151	1.9826
375.044	1.3728
377.937	0.202972
380.829	0.750031
383.722	0.87735
386.615	0.057922
389.507	2.56039
392.4	0.309418
395.293	1.15921
398.185	2.40863
401.078	3.75784
403.971	2.2503
406.863	2.896
409.756	4.93216
412.649	5.10846
415.541	8.58585
418.434	6.93787
421.327	8.60464
424.22	10.8407
427.112	11.3175
430.005	10.3434
432.898	15.5281
435.79	15.5267
438.683	15.3432
441.576	13.2975
444.469	11.3608
447.361	13.6996
450.254	13.5907
453.147	13.1299
456.039	14.1065
458.932	15.2453
461.825	15.3614
464.717	15.2076
467.61	15.0688
470.503	16.079
473.396	16.4981
476.288	17.1543
479.181	14.1975
482.074	23.3288
484.966	15.5526
487.859	14.0504
490.752	12.4207
493.644	8.64117
496.537	0.73674
499.43	0.188858
502.322	2.16515
505.215	0.574936
508.108	1.80582
511.001	4.18176
513.893	6.04196
516.786	7.82436
519.679	12.9839
522.571	16.6377
525.464	15.6959
528.357	13.1877
531.25	8.43475
534.142	7.49605
537.035	8.46259
539.928	12.593
542.82	17.3409
545.713	21.9042
548.606	27.676
551.498	37.4589
554.391	44.2259
557.284	43.055
560.177	32.297
563.069	24.4248
565.962	20.9328
568.855	16.716
571.747	16.1765
574.64	17.1891
577.533	21.254
580.425	22.0757
583.318	16.6751
586.211	9.97369
589.104	3.10384
591.996	0.129089
594.889	1.35399
597.782	2.05963
600.674	0.200745
603.567	0.710052
606.46	0.820984
609.352	2.68031
612.245	0.87236
615.138	0.726654
618.03	0.170258
620.923	0.770493
623.816	1.41266
626.709	0.454666
629.601	0.827637
632.494	2.35713
635.387	1.88789
638.279	3.47809
641.172	4.41562
644.065	3.37732
646.957	3.06488
649.85	3.03296
652.743	1.96835
655.636	3.47536
658.528	1.88806
661.421	0.678635
664.314	0.312363
667.206	2.66144
670.099	0.618576
672.992	1.49339
675.885	0.02092
678.777	1.73924
681.67	1.58373
684.563	3.05133
687.455	0.491409
690.348	0.115875
693.241	0.847656
696.133	1.26859
699.026	1.5119
701.919	3.43759
704.812	4.94771
707.704	5.63043
710.597	8.74637
713.49	9.44266
716.382	14.8795
719.275	18.2566
722.168	22.147
725.06	25.3932
727.953	27.0711
730.846	23.595
733.739	14.2053
736.631	8.91196
739.524	8.02007
742.417	7.34946
745.309	9.92976
748.202	10.3112
751.095	10.5224
753.987	7.25008
756.88	4.35794
759.773	3.3036
762.665	0.004425
765.558	0.550903
768.451	0.99408
771.344	1.79674
774.236	0.333618
777.129	0.982376
780.022	1.33604
782.914	0.390854
785.807	0.054443
788.7	1.29625
791.592	1.22357
794.485	1.11548
797.378	0.751495
800.271	1.19243
803.163	0.689102
806.056	0.385544
808.949	2.32379
811.841	2.92519
814.734	2.23325
817.627	4.13058
820.519	3.02606
823.412	2.76385
826.305	4.15718
829.198	4.52747
832.09	3.92656
834.983	2.39677
837.876	1.63768
840.768	1.63782
843.661	0.330002
846.554	0.00946
849.447	0.172348
852.339	0.138229
855.232	0.046707
858.125	1.82689
861.017	2.01924
863.91	4.19505
866.803	4.2959
869.695	2.39455
872.588	1.86624
875.481	0.852005
878.374	0.674622
881.266	0.209473
884.159	0.089493
887.052	0.720871
889.944	0.656952
892.837	2.13635
895.73	2.17156
898.622	2.06441
901.515	2.66916
904.408	3.35944
907.301	5.01804
910.193	4.7512
913.086	6.54652
915.979	8.93034
918.871	10.381
921.764	9.80687
924.657	11.2581
927.549	8.14857
930.442	6.12587
933.335	4.35388
936.227	2.77753
939.12	1.39197
942.013	2.65855
944.906	2.55269
947.798	1.11769
950.691	1.58678
953.584	1.37213
956.476	2.08133
959.369	0.922653
962.262	1.8299
965.154	0.613708
968.047	0.600235
970.94	0.228897
973.832	0.776855
976.725	0.640656
979.618	0.232193
982.511	2.22511
985.403	0.908997
988.296	0.619553
991.189	2.75948
994.081	1.12566
996.974	1.66006
999.867	2.51866
1002.76	2.11986
1005.65	0.649658
1008.54	0.046463
1011.44	1.36935
1014.33	1.72478
1017.22	1.95482
1020.12	3.04269
1023.01	2.79166
1025.9	2.96655
1028.79	4.26508
1031.69	3.1395
1034.58	3.85706
1037.47	3.77385
1040.37	4.22244
1043.26	4.54169
1046.15	3.87134
1049.04	2.89963
1051.93	3.15665
1054.83	3.38841
1057.72	4.84023
1060.61	4.17165
1063.51	4.05637
1066.4	2.74094
1069.29	3.28845
1072.18	2.27532
1075.08	2.95093
1077.97	0.769829
1080.86	0.525223
1083.76	2.70579
1086.65	3.17358
1089.54	0.997963
1092.43	2.14066
1095.33	1.38558
1098.22	0.733215
1101.11	0.863708
1104	0.220467
1106.9	0.684998
1109.79	0.129707
1112.68	0.558311
1115.58	0.139557
1118.47	1.14036
1121.36	0.556404
1124.25	1.80717
1127.15	1.08891
1130.04	1.56717
1132.93	1.67255
1135.82	3.29006
1138.72	2.21374
1141.61	3.70872
1144.5	2.52866
1147.39	2.23255
1150.29	2.88589
1153.18	1.1249
1156.07	1.67277
1158.96	2.62362
1161.86	1.48401
1164.75	1.94641
1167.64	2.15852
1170.54	0.313179
1173.43	1.50104
1176.32	0.714394
1179.21	0.914597
1182.11	0.880783
1185	1.28252
1187.89	2.74403
1190.79	0.98513
1193.68	0.252502
1196.57	0.902954
1199.46	0.794724
1202.36	0.808571
1205.25	1.65423
1208.14	1.29827
1211.03	0.864235
1213.93	1.63563
1216.82	1.07796
1219.71	1.03229
1222.61	1.29124
1225.5	2.41364
1228.39	1.70355
1231.28	2.55645
1234.18	0.212173
1237.07	2.14445
1239.96	1.23254
1242.85	0.31337
1245.75	1.48997
1248.64	1.09259
1251.53	0.620613
1254.42	0.520546
1257.32	0.969162
1260.21	0.276512
1263.1	0.599823
1265.99	1.1484
1268.89	1.71952
1271.78	0.119904
1274.67	1.15922
1277.57	1.02541
1280.46	0.39904
1283.35	1.05201
1286.24	0
