Measurement: Raman, 532 nm, unoriented, Raman Data Processed
Mineral: Prosopite
Rruff sample: R100181
Ideal chemistry: CaAl_2_(F,OH)_8_
Locality: Carlota mine, Pinto Creek, Gila, Arizona, USA
Source: Joe Ruiz
Description: Colorless granular crystals,  associated with blue azurite, green elongated szenicsite (R100179) and pale green thick tabular powellite (R100180)
Raman shift (cm-1)	intensity
164.799	0
167.692	139.104
170.584	381.605
173.477	539.863
176.37	438.229
179.263	261.992
182.155	244.985
185.048	290.139
187.941	433.153
190.833	656.546
193.726	467.384
196.619	178.515
199.512	157.168
202.404	160.187
205.297	86.0122
208.19	25.2436
211.082	29.8057
213.975	13.8655
216.868	0.425293
219.761	14.7009
222.653	130.276
225.546	138.356
228.439	188.458
231.331	230.969
234.224	307.654
237.117	418.034
240.009	368.359
242.902	309.216
245.795	264.829
248.688	177.348
251.58	138.75
254.473	170.43
257.366	254.817
260.258	363.807
263.151	353.374
266.044	171.001
268.936	82.3252
271.829	30.6907
274.722	19.2893
277.615	1.75366
280.507	18.4458
283.4	9.31152
286.293	13.3838
289.185	52.5017
292.078	45.1538
294.971	76.7258
297.863	114.446
300.756	118.531
303.649	186.224
306.541	204.947
309.434	110.454
312.327	75.8897
315.22	74.2034
318.112	92.0989
321.005	94.9248
323.898	64.49
326.791	52.1738
329.683	92.3003
332.576	68.1401
335.469	48.4077
338.361	32.7835
341.254	2.22754
344.147	7.88745
347.039	4.30493
349.932	2.67627
352.825	5.02686
355.717	29.9334
358.61	33.9697
361.503	15.3494
364.396	21.1155
367.288	17.6426
370.181	42.5832
373.074	42.9111
375.966	53.5364
378.859	64.3062
381.752	23.4875
384.644	45.7041
387.537	4.98315
390.43	14.1133
393.323	21.3562
396.215	27.7161
399.108	46.2805
402.001	35.4155
404.894	40.6138
407.786	28.6492
410.679	61.5654
413.572	96.3259
416.464	125.864
419.357	150.958
422.25	156.946
425.142	87.3198
428.035	58.5566
430.928	34.9197
433.82	20.7581
436.713	12.5479
439.606	35.3037
442.499	26.0493
445.391	41.5762
448.284	57.2031
451.177	56.7764
454.069	58.6589
456.962	33.8599
459.855	22.9102
462.748	23.98
465.64	25.8252
468.533	7.73731
471.426	20.7502
474.318	10.5535
477.211	18.9314
480.104	19.697
482.996	3.90137
485.889	9.75171
488.782	2.57031
491.675	8.5354
494.567	1.03149
497.46	9.5498
500.353	16.6055
503.245	3.88403
506.138	2.33301
509.031	3.36182
511.923	19.8657
514.816	25.2568
517.709	47.1165
520.602	61.0151
523.494	85.2078
526.387	92.626
529.28	111.792
532.172	113.447
535.065	163.758
537.958	219.399
540.851	243.733
543.743	310.824
546.636	375.453
549.529	437.421
552.421	491.683
555.314	530.217
558.207	526.13
561.099	548.025
563.992	581.255
566.885	611.877
569.778	675.736
572.67	715.187
575.563	627.957
578.456	520.732
581.348	387.094
584.241	318.996
587.134	280.909
590.027	265.348
592.919	242.829
595.812	214.172
598.705	169.893
601.597	102.729
604.49	54.0625
607.383	38.9014
610.275	35.8657
613.168	27.7236
616.061	28.1201
618.953	7.3312
621.846	5.54956
624.739	3.58984
627.632	17.4712
630.524	26.9226
633.417	39.7332
636.31	58.2046
639.202	102.905
642.095	79.9387
644.988	42.8474
647.881	50.7759
650.773	52.2039
653.666	14.4065
656.559	63.9065
659.451	60.1267
662.344	86.0769
665.237	62.2031
668.13	80.0325
671.022	53.8687
673.915	36.1968
676.808	29.9541
679.7	3.23706
682.593	6.78052
685.486	4.96851
688.378	11.4922
691.271	3.90063
694.164	3.91113
697.057	5.28686
699.949	2.76782
702.842	7.27905
705.735	22.1431
708.627	34.1321
711.52	44.8215
714.413	53.0244
717.305	59.7998
720.198	55.9268
723.091	43.2666
725.984	38.2212
728.876	24.697
731.769	49.501
734.662	59.8911
737.554	86.9294
740.447	120.269
743.34	126.912
746.232	150.928
749.125	184.727
752.018	227.471
754.91	202.595
757.803	170.377
760.696	116.3
763.589	78.2236
766.481	44.3008
769.374	30.8237
772.267	17.2246
775.159	12.4939
778.052	5.69238
780.945	3.11046
783.838	9.99731
786.73	12.2332
789.623	2.20337
792.516	18.4446
795.408	31.876
798.301	37.3469
801.194	51.8005
804.087	56.1655
806.979	68.5962
809.872	94.1523
812.765	79.4922
815.657	89.4702
818.55	122.946
821.443	134.513
824.335	115.4
827.228	130.362
830.121	118.405
833.014	135.614
835.906	119.833
838.799	122.43
841.692	128.444
844.584	114.39
847.477	115.962
850.37	65.0698
853.263	83.9797
856.155	55.9221
859.048	54.6755
861.941	32.8728
864.833	33.0684
867.726	23.7109
870.619	8.92725
873.511	18.8852
876.404	4.10962
879.297	11.3262
882.189	14.5886
885.082	7.52051
887.975	32.0505
890.868	42.8135
893.76	57.9028
896.653	71.6655
899.546	86.949
902.438	101.782
905.331	121.821
908.224	114.145
911.116	104.392
914.009	102.005
916.902	97.27
919.795	58.4773
922.687	51.6594
925.58	60.6125
928.473	46.2764
931.365	35.7766
934.258	53.3774
937.151	25.124
940.044	12.1001
942.936	10.2637
945.829	12.6611
948.722	17.1216
951.614	2.80957
954.507	15.1557
957.4	4.20996
960.293	2.61377
963.185	22.2114
966.078	18.4424
968.971	22.7715
971.863	0.928223
974.756	22.167
977.649	22.9126
980.541	22.5078
983.434	30.9136
986.327	37.6084
989.22	45.5723
992.112	56.0933
995.005	73.2739
997.898	108.555
1000.79	129.293
1003.68	124.63
1006.58	129.348
1009.47	140.594
1012.36	130.128
1015.25	140.779
1018.15	112.739
1021.04	126.093
1023.93	93.4819
1026.83	102.365
1029.72	101.688
1032.61	61.3481
1035.5	57.6294
1038.4	39.2764
1041.29	22.4185
1044.18	13.4453
1047.07	0.245117
1049.97	4.34521
1052.86	7.21338
1055.75	3.15576
1058.64	3.59863
1061.54	14.7593
1064.43	4.4209
1067.32	13.4268
1070.21	30.3447
1073.11	11.9541
1076	25.0952
1078.89	8.69922
1081.79	36.4121
1084.68	46.5215
1087.57	40.7446
1090.46	31.5679
1093.36	58.8672
1096.25	54.3023
1099.14	49.1201
1102.04	53.0649
1104.93	65.9048
1107.82	53.9224
1110.71	81.7119
1113.61	89.106
1116.5	82.0239
1119.39	42.2583
1122.28	42.4307
1125.18	17.1611
1128.07	21.9453
1130.96	29.7163
1133.86	15.4995
1136.75	23.0088
1139.64	29.293
1142.53	15.4912
1145.43	12.9868
1148.32	10.2944
1151.21	7.06006
1154.1	23.3628
1157	17.5996
1159.89	29.3115
1162.78	36.7778
1165.67	1.45215
1168.57	3.37451
1171.46	2.72168
1174.35	15.0947
1177.24	20.1567
1180.14	14.6533
1183.03	21.6816
1185.92	45.6377
1188.82	44.2051
1191.71	13.5786
1194.6	8.67236
1197.49	1.45459
1200.39	3.62109
1203.28	1.11475
1206.17	5.33887
1209.07	13.3804
1211.96	36.3809
1214.85	44.645
1217.74	57.4585
1220.64	51.04
1223.53	58.4517
1226.42	64.396
1229.31	66.834
1232.21	67.0879
1235.1	48.9302
1237.99	49.7978
1240.88	63.6572
1243.78	71.9727
1246.67	73.9292
1249.56	75.5171
1252.45	63.6587
1255.35	62.4253
1258.24	64.7148
1261.13	48.8364
1264.03	64.9228
1266.92	33.7207
1269.81	25.9951
1272.7	27.0532
1275.6	31.2607
1278.49	7.45578
1281.38	7.29053
1284.28	21.7856
1287.17	28.1152
1290.06	16.3643
1292.95	17.7427
1295.85	23.1939
1298.74	20.9927
1301.63	7.24707
