Measurement: Raman, 532 nm, unoriented, Raman Data Processed
Mineral: Prosopite
Rruff sample: R050668
Ideal chemistry: CaAl_2_(F,OH)_8_
Locality: Grand Reef mine, Klondyke, Aravaipa District, Graham County, Arizona, USA
Source: University of Arizona Mineral Museum
Description: Light-blue massive coating on quartz
Raman shift (cm-1)	intensity
145.707	0
148.6	4.71652
151.493	26.1104
154.385	50.4218
157.278	68.6548
160.171	77.8948
163.063	67.8661
165.956	72.4255
168.849	95.0573
171.742	123.138
174.634	107.496
177.527	58.4697
180.42	43.4208
183.312	47.6147
186.205	64.7963
189.098	85.4416
191.99	84.1908
194.883	62.8303
197.776	69.7966
200.668	76.6403
203.561	31.9684
206.454	3.34959
209.347	3.60828
212.239	3.42293
215.132	0.614975
218.025	9.8779
220.917	23.0133
223.81	36.0164
226.703	50.5007
229.596	44.2856
232.488	43.8237
235.381	53.1165
238.274	53.9576
241.166	44.2366
244.059	34.4425
246.952	25.7842
249.845	19.4131
252.737	21.3508
255.63	30.9327
258.523	40.8573
261.415	40.9809
264.308	21.4043
267.201	4.39098
270.093	1.27324
272.986	1.14491
275.879	0.547302
278.772	2.33876
281.664	0.819641
284.557	1.02011
287.45	3.38214
290.342	8.73264
293.235	13.5467
296.128	19.6285
299.02	28.5191
301.913	39.2551
304.806	50.4088
307.699	53.2081
310.591	60.1876
313.484	78.0586
316.377	103.989
319.269	115.035
322.162	74.0826
325.055	44.2527
327.947	30.0723
330.84	24.6208
333.733	16.2633
336.626	8.65199
339.518	3.73061
342.411	1.14584
345.304	0.714218
348.196	3.62677
351.089	9.96205
353.982	11.0973
356.875	12.4236
359.767	9.32712
362.66	9.78886
365.553	11.8201
368.445	16.4477
371.338	20.3937
374.231	24.2686
377.123	24.7543
380.016	18.3917
382.909	12.373
385.802	9.59788
388.694	7.03465
391.587	6.10492
394.48	11.4719
397.372	14.5916
400.265	18.3688
403.158	20.9692
406.05	21.0043
408.943	21.2492
411.836	29.3139
414.729	34.6433
417.621	43.5653
420.514	48.4052
423.407	44.9562
426.299	30.3895
429.192	19.3353
432.085	12.1085
434.978	7.91341
437.87	5.71956
440.763	6.15535
443.656	6.20198
446.548	7.27006
449.441	9.69624
452.334	9.25584
455.226	8.10448
458.119	3.65944
461.012	0.835083
463.905	0.568237
466.797	0.80867
469.69	0.543396
472.583	2.31383
475.475	1.42563
478.368	0.759689
481.261	0.303253
484.154	0.790619
487.046	1.27174
489.939	2.38936
492.832	2.80234
495.724	0.252884
498.617	1.10974
501.51	2.53346
504.402	5.81662
507.295	8.29514
510.188	12.2683
513.081	20.1318
515.973	26.3838
518.866	30.1445
521.759	34.3672
524.651	38.1403
527.544	38.7221
530.437	42.3076
533.33	46.1227
536.222	53.6545
539.115	63.2245
542.008	78.3574
544.9	95.6903
547.793	110.12
550.686	123.429
553.578	130.546
556.471	138.869
559.364	144.407
562.256	157.126
565.149	166.434
568.042	183.182
570.935	189.341
573.827	185.795
576.72	159.716
579.613	129.938
582.505	108.128
585.398	93.0266
588.291	80.9914
591.183	71.8969
594.076	62.4115
596.969	48.216
599.862	34.1333
602.754	22.0346
605.647	13.8121
608.54	8.93951
611.433	3.97009
614.325	2.88922
617.218	3.1087
620.111	6.38977
623.003	7.99167
625.896	10.8569
628.789	13.7008
631.681	17.0177
634.574	20.1371
637.467	23.0083
640.36	20.7106
643.252	18.0254
646.145	14.171
649.038	12.0053
651.93	9.5499
654.823	6.79663
657.716	2.80661
660.609	6.67198
663.501	3.5571
666.394	4.74077
669.287	2.88263
672.179	1.20831
675.072	0.48204
677.965	0.687134
680.857	2.98155
683.75	1.45862
686.643	2.19279
689.535	1.97714
692.428	2.03232
695.321	0.053314
698.214	0.470215
701.106	1.37021
703.999	0.775055
706.892	1.73453
709.784	2.32266
712.677	6.52344
715.57	6.52057
718.462	8.59976
721.355	11.1503
724.248	13.5787
727.141	14.1725
730.033	18.7874
732.926	20.9242
735.819	25.3377
738.711	28.8001
741.604	30.8684
744.497	33.2787
747.389	31.7691
750.282	30.3387
753.175	29.3039
756.068	28.4966
758.96	28.0528
761.853	29.8677
764.746	29.7143
767.639	33.3673
770.531	36.2294
773.424	41.1915
776.317	44.6355
779.209	45.8407
782.102	46.267
784.995	43.9584
787.887	39.6385
790.78	34.8114
793.673	29.8989
796.566	24.5913
799.458	18.723
802.351	16.9663
805.244	13.6369
808.136	12.2449
811.029	7.59059
813.922	6.14935
816.814	4.59766
819.707	4.09467
822.6	2.77826
825.493	2.31345
828.385	0.62709
831.278	2.35931
834.171	3.59132
837.063	1.29596
839.956	2.9127
842.849	2.3134
845.741	1.16797
848.634	3.36951
851.527	1.88892
854.42	1.97317
857.312	1.06908
860.205	0.562363
863.098	0.728058
865.99	0.864365
868.883	1.1992
871.776	0.992645
874.668	0.962112
877.561	0.266815
880.454	1.35587
883.347	1.13242
886.239	0.014648
889.132	1.36807
892.025	0.17746
894.917	0.653061
897.81	0.305206
900.703	2.47989
903.596	0.673416
906.488	0.009155
909.381	1.05157
912.274	1.35735
915.166	2.06474
918.059	0.635132
920.952	2.14729
923.845	1.27022
926.737	2.15918
929.63	0.411118
932.523	0.451553
935.415	1.76312
938.308	2.17667
941.201	0.440643
944.093	2.90297
946.986	1.71881
949.879	1.61127
952.771	1.56744
955.664	0.607697
958.557	0.669434
961.45	0.440292
964.342	1.17084
967.235	0.034988
970.128	1.21796
973.02	3.07404
975.913	3.95139
978.806	4.17001
981.698	5.55142
984.591	5.41028
987.484	7.36166
990.377	11.6147
993.269	13.1922
996.162	17.7232
999.055	20.809
1001.95	23.3148
1004.84	24.0019
1007.73	23.8803
1010.63	23.1975
1013.52	21.8758
1016.41	21.2971
1019.3	19.6002
1022.2	18.5717
1025.09	18.4668
1027.98	16.5639
1030.88	11.2566
1033.77	9.38713
1036.66	7.99869
1039.55	5.1929
1042.44	2.56543
1045.34	2.03847
1048.23	1.46104
1051.12	0.528381
1054.02	0.637848
1056.91	0.8461
1059.8	0.498398
1062.69	1.10278
1065.59	0.625381
1068.48	2.3427
1071.37	2.55862
1074.27	3.96643
1077.16	6.71272
1080.05	7.41148
1082.94	9.88728
1085.84	12.2725
1088.73	16.356
1091.62	16.7642
1094.51	17.6957
1097.41	13.8722
1100.3	13.5135
1103.19	10.6153
1106.09	7.72412
1108.98	5.4429
1111.87	5.17923
1114.76	2.75578
1117.66	3.51267
1120.55	2.29492
1123.44	2.45079
1126.33	0.476456
1129.23	0.368515
1132.12	0.425644
1135.01	0.859894
1137.9	1.3573
1140.8	1.68581
1143.69	1.27208
1146.58	3.59193
1149.47	1.67925
1152.37	2.53294
1155.26	1.7796
1158.15	0.719208
1161.05	0.603592
1163.94	1.72504
1166.83	0.495972
1169.72	3.2572
1172.62	2.34084
1175.51	0.914597
1178.4	0.317551
1181.3	1.20651
1184.19	1.54433
1187.08	2.63507
1189.97	1.87152
1192.87	2.82785
1195.76	1.57929
1198.65	1.71977
1201.54	1.99411
1204.44	3.65405
1207.33	1.9836
1210.22	2.90118
1213.12	3.01448
1216.01	2.01346
1218.9	1.65678
1221.79	2.2934
1224.69	2.4044
1227.58	2.09076
1230.47	1.85034
1233.36	2.37936
1236.26	0.9673
1239.15	1.04565
1242.04	1.0275
1244.93	0.985779
1247.83	0.01413
1250.72	2.27533
1253.61	2.6922
1256.51	2.3755
1259.4	0.156372
1262.29	0.462616
1265.18	1.47565
1268.08	2.10219
1270.97	3.30817
1273.86	2.77316
1276.75	1.70183
1279.65	1.02086
1282.54	0.969528
1285.43	0.274338
1288.33	0.095474
1291.22	0.959061
1294.11	1.31873
1297	1.19957
1299.9	1.87962
