Measurement: Raman, 532 nm, unoriented, Raman Data Processed
Mineral: Proto-ferro-suenoite
Rruff sample: R061000
Ideal chemistry: Mn^2+^_2_Fe^2+^_5_Si_8_O_22_(OH)_2_
Locality: Yokoneyama, Tochigi, Japan
Source: Michael Scott
Description: Gray prismatic to fibrous associated with pyroxmangite R060999
Raman shift (cm-1)	intensity
135.021	0
137.914	66.9829
140.807	194.475
143.7	429.762
146.592	485.439
149.485	243.935
152.378	49.3833
155.27	39.1709
158.163	103.156
161.056	195.328
163.948	419.016
166.841	711.467
169.734	977.385
172.626	1183.91
175.519	1094.61
178.412	858.77
181.305	660.863
184.197	531.288
187.09	446.297
189.983	373.079
192.875	370.805
195.768	340.996
198.661	359.982
201.554	393.295
204.446	482.763
207.339	569.393
210.232	633.905
213.124	658.105
216.017	639.183
218.91	531.529
221.802	515.275
224.695	411.565
227.588	322.716
230.481	269.391
233.373	189.217
236.266	164.262
239.159	116.992
242.051	118.931
244.944	155.473
247.837	195.934
250.729	128.508
253.622	157.574
256.515	133.394
259.407	50.1914
262.3	21.8428
265.193	27.9492
268.086	0.195801
270.978	1.87598
273.871	25.3543
276.764	13.7454
279.656	12.8667
282.549	20.0366
285.442	2.3042
288.334	6.85303
291.227	54.6899
294.12	48.2886
297.012	82.0193
299.905	129.707
302.798	144.723
305.691	156.82
308.583	186.371
311.476	166.273
314.369	181.185
317.261	112.399
320.154	105.217
323.047	166.463
325.94	162.717
328.832	206.567
331.725	341.242
334.618	365.998
337.51	431.819
340.403	518.868
343.296	471.169
346.188	392.475
349.081	409.308
351.974	408.645
354.866	383.737
357.759	461.492
360.652	544.9
363.545	748.345
366.437	944.059
369.33	1155.16
372.223	1311.42
375.115	1312.53
378.008	1189.58
380.901	785.216
383.793	542.799
386.686	393.364
389.579	259.237
392.472	246.921
395.364	182.217
398.257	195.109
401.15	156.051
404.042	167.8
406.935	125.008
409.828	59.4309
412.721	78.365
415.613	105.152
418.506	76.269
421.399	135.026
424.291	102.297
427.184	40.7581
430.077	79.3547
432.969	45.2319
435.862	46.2146
438.755	3.22852
441.647	17.1121
444.54	6.82422
447.433	30.8101
450.326	44.1731
453.218	33.5791
456.111	28.4043
459.004	18.4673
461.896	21.9092
464.789	28.6235
467.682	33.3535
470.575	54.959
473.467	73.6921
476.36	61.9092
479.253	77.6311
482.145	142.026
485.038	190.334
487.931	192.494
490.823	192.22
493.716	279.94
496.609	278.824
499.501	351.187
502.394	410.812
505.287	531.548
508.18	638.597
511.072	625.261
513.965	576.88
516.858	620.854
519.75	541.25
522.643	480.277
525.536	361.966
528.428	313.688
531.321	233.724
534.214	214.706
537.106	175.877
539.999	154.753
542.892	172.273
545.785	155.23
548.677	153.518
551.57	166.075
554.463	176.503
557.355	136.295
560.248	125.332
563.141	111.774
566.034	94.9768
568.926	109.248
571.819	5.49072
574.712	44.3608
577.604	10.5305
580.497	30.5647
583.39	28.3352
586.282	1.86865
589.175	0.932617
592.068	32.5159
594.961	1.45288
597.853	14.221
600.746	16.427
603.639	121.734
606.531	94.7402
609.424	120.243
612.317	149.874
615.209	177.601
618.102	254.957
620.995	307.165
623.888	362.722
626.78	478.768
629.673	499.912
632.566	604.392
635.458	716.846
638.351	870.532
641.244	1209.71
644.136	1744.92
647.029	2470.88
649.922	3461.23
652.814	4573.39
655.707	5514
658.6	5722.15
661.493	4633.05
664.385	3093.22
667.278	1919.62
670.171	1204.74
673.063	858.192
675.956	639.435
678.849	527.197
681.741	412.269
684.634	339.374
687.527	264.18
690.42	172.834
693.312	208.94
696.205	92.8018
699.098	65.9746
701.99	31.3145
704.883	44.6921
707.776	10.959
710.668	40.012
713.561	53.793
716.454	36.1736
719.347	7.73779
722.239	14.6401
725.132	19.6797
728.025	10.6445
730.917	24.804
733.81	11.6199
736.703	81.4163
739.596	138.074
742.488	117.841
745.381	140.851
748.274	160.718
751.166	175.435
754.059	159.3
756.952	105.513
759.844	165.158
762.737	149.496
765.63	119.176
768.522	143.581
771.415	112.531
774.308	117.664
777.201	140.277
780.093	96.1924
782.986	67.8269
785.879	48.8232
788.771	50.8252
791.664	94.0085
794.557	73.4978
797.449	94.1248
800.342	40.7759
803.235	86.8447
806.128	56.0335
809.02	77.9414
811.913	105.343
814.806	92.3489
817.698	63.3677
820.591	136.014
823.484	110.514
826.376	144.917
829.269	154.727
832.162	121.902
835.054	135.19
837.947	99.3208
840.84	119.375
843.733	96.2283
846.625	54.2058
849.518	65.9629
852.411	53.6086
855.303	23.2
858.196	31.2471
861.089	6.87402
863.981	31.3035
866.874	2.18701
869.767	2.80933
872.66	26.6877
875.552	3.80273
878.445	15.656
881.338	75.0474
884.23	81.064
887.123	67.8118
890.016	102.991
892.908	163.726
895.801	119.986
898.694	74.1528
901.587	135.609
904.479	166.077
907.372	169.67
910.265	190.186
913.157	117.198
916.05	124.148
918.943	62.2734
921.835	108.9
924.728	87.042
927.621	18.21
930.514	79.666
933.406	2.05859
936.299	32.1699
939.192	20.2627
942.084	31.4043
944.977	22.5977
947.87	60.8877
950.763	21.6206
953.655	55.5181
956.548	69.6436
959.441	110.921
962.333	167.479
965.226	342.463
968.119	406.957
971.011	446.127
973.904	412.209
976.797	380.322
979.689	295.618
982.582	310.207
985.475	277.869
988.368	350.389
991.26	348.045
994.153	370.711
997.046	396.153
999.938	352.943
1002.83	395.277
1005.72	470.597
1008.62	644.325
1011.51	883.27
1014.4	1204.33
1017.29	1515.93
1020.19	1840.07
1023.08	1924.51
1025.97	1747.1
1028.87	1337.68
1031.76	936.637
1034.65	650.005
1037.54	435.511
1040.44	318.51
1043.33	223.847
1046.22	138.168
1049.11	90.4399
1052.01	103.016
1054.9	77.4356
1057.79	104.079
1060.68	84.4932
1063.58	89.2275
1066.47	7.92871
1069.36	14.0903
1072.26	15.27
1075.15	9.39551
1078.04	20.2881
1080.93	66.6133
1083.83	30.7471
1086.72	86.4429
1089.61	44.8623
1092.51	136.599
1095.4	178.284
1098.29	254.272
1101.18	184.481
1104.08	104.238
1106.97	94.2583
1109.86	91.1743
1112.75	79.8843
1115.65	50.6875
1118.54	21.626
1121.43	47.5264
1124.32	71.8394
1127.22	48.9663
1130.11	148.285
1133	140.119
1135.89	98.481
1138.79	48.7441
1141.68	48.5928
1144.57	19.8872
1147.47	32.2427
1150.36	8.81934
1153.25	31.1636
1156.14	62.8408
1159.04	74.1977
1161.93	65.8682
1164.82	32.2969
1167.71	44.7925
1170.61	41.9155
1173.5	71.9082
1176.39	65.1626
1179.29	74.7705
1182.18	42.8603
1185.07	22.314
1187.96	77.1685
1190.86	22.1953
1193.75	15.2158
1196.64	17.2266
1199.54	39.9834
1202.43	34.5991
1205.32	13.4438
1208.21	63.2642
1211.11	57.3584
1214	33.6802
1216.89	67.4746
1219.78	33.5796
1222.68	58.6543
1225.57	51.9824
1228.46	44.7852
1231.35	24.2017
1234.25	64.812
1237.14	35.6362
1240.03	63.6831
1242.92	33.3208
1245.82	100.156
1248.71	66.7383
1251.6	63.8057
1254.5	58.4634
1257.39	51.8252
1260.28	53.3423
1263.17	80.3755
1266.07	16.5454
1268.96	55.8101
1271.85	99.0376
1274.74	56.9985
1277.64	51.5015
1280.53	9.66065
