Measurement: Raman, 785 nm, unoriented, Raman Data Processed
Mineral: Proto-ferro-anthophyllite
Rruff sample: R060053
Ideal chemistry: Fe^2+^_7_Si_8_O_22_(OH)_2_
Locality: Nyppio mine, near Utsonomiya, Japan
Source: Marcus Origlieri
Description: Sprays of green prismatic crystals
Measured chemistry: (Fe^2+^_0.51_Mn_0.27_Mg_0.22_)_7_Si_8_O_22_(OH)_2_
Raman shift (cm-1)	intensity
137.22	0
140.113	3.17542
143.005	86.8511
145.898	425.066
148.791	754.885
151.683	741.143
154.576	497.127
157.469	411.135
160.361	697.855
163.254	1024.13
166.147	1584.47
169.04	2184.14
171.932	2904.07
174.825	3339.92
177.718	3184.3
180.61	2774.55
183.503	2332.11
186.396	1870.06
189.288	1579.93
192.181	1335.31
195.074	1253.87
197.966	1229.37
200.859	1137.58
203.752	1159.92
206.645	1122.67
209.537	1092.44
212.43	1127.32
215.323	1129.62
218.215	1158.51
221.108	1115.41
224.001	901.949
226.893	772.881
229.786	591.901
232.679	527.446
235.572	427.013
238.464	347.276
241.357	266.177
244.25	249.231
247.142	186.661
250.035	197.318
252.928	178.824
255.821	165.388
258.713	99.3822
261.606	64.8818
264.499	44.6801
267.391	23.6145
270.284	30.7434
273.177	47.8479
276.069	28.0162
278.962	86.0908
281.855	2.10718
284.747	23.1481
287.64	33.5254
290.533	41.4921
293.425	65.4764
296.318	129.939
299.211	169.46
302.104	209.983
304.996	253.721
307.889	257.425
310.782	305.833
313.674	327.185
316.567	272
319.46	216.637
322.353	240.967
325.245	235.568
328.138	267.24
331.031	349.369
333.923	392.983
336.816	510.151
339.709	573.75
342.601	590.842
345.494	537.27
348.387	505.451
351.279	497.548
354.172	507.544
357.065	651.11
359.958	849.373
362.85	1043.74
365.743	1369.81
368.636	1691.43
371.528	2010.47
374.421	2044.54
377.314	1896.8
380.207	1619.32
383.099	1198.36
385.992	885.582
388.885	649.802
391.777	558.1
394.67	511.909
397.563	464.717
400.455	424.645
403.348	331.965
406.241	268.967
409.134	223.295
412.026	199.922
414.919	177.101
417.812	144.143
420.704	76.3209
423.597	54.9235
426.49	42.9855
429.382	4.0946
432.275	67.4418
435.168	23.1692
438.06	1.04321
440.953	6.45703
443.846	6.25403
446.739	2.00879
449.631	41.7549
452.524	25.7478
455.417	43.6427
458.309	127.355
461.202	151.565
464.095	205
466.988	250.972
469.88	216.599
472.773	256.363
475.666	224.316
478.558	249.512
481.451	222.997
484.344	263.327
487.236	320.301
490.129	323.978
493.022	355.099
495.914	466.541
498.807	553.887
501.7	683.824
504.593	884.889
507.485	1079.8
510.378	1252.66
513.271	1472.55
516.163	1618.09
519.056	1589.48
521.949	1348.71
524.841	1088.86
527.734	828.246
530.627	595.896
533.519	468.029
536.412	344.862
539.305	298.777
542.198	230.715
545.09	188.711
547.983	170.387
550.876	152.909
553.768	100.47
556.661	145.197
559.554	135.326
562.447	101.124
565.339	24.4784
568.232	38.7426
571.125	30.5419
574.017	8.97729
576.91	16.4779
579.803	7.73987
582.695	35.9482
585.588	23.3452
588.481	7.97009
591.374	6.01099
594.266	4.29602
597.159	4.01978
600.052	6.50061
602.944	29.364
605.837	24.1609
608.73	33.0288
611.622	67.7925
614.515	93.3566
617.408	121.513
620.301	151.706
623.193	176.389
626.086	291.621
628.979	335.882
631.871	373.564
634.764	528.127
637.657	689.648
640.549	895.369
643.442	1258.93
646.335	1865.27
649.227	2740.53
652.12	3804.05
655.013	5060.28
657.906	6218.95
660.798	6314.65
663.691	5099.82
666.584	3368.61
669.476	2072.96
672.369	1285.11
675.262	820.817
678.154	665.492
681.047	512.817
683.94	317.331
686.833	319.682
689.725	238.133
692.618	178.007
695.511	147.117
698.403	96.8657
701.296	93.7783
704.189	25.3892
707.082	59.8282
709.974	9.08862
712.867	12.0311
715.76	3.4917
718.652	50.4276
721.545	6.15894
724.438	4.97363
727.33	44.2334
730.223	82.3646
733.116	108.185
736.008	196.653
738.901	198.481
741.794	257.641
744.687	248.557
747.579	228.283
750.472	216.189
753.365	187.533
756.257	147.483
759.15	72.1757
762.043	61.7711
764.935	34.0523
767.828	75.1505
770.721	22.2109
773.614	78.189
776.506	41.9337
779.399	11.9359
782.292	1.2727
785.184	2.35498
788.077	20.4439
790.97	22.4907
793.862	38.6261
796.755	13.9291
799.648	42.6019
802.54	12.6735
805.433	16.4107
808.326	23.5587
811.219	37.8019
814.111	25.481
817.004	44.265
819.897	55.9834
822.789	40.8148
825.682	47.688
828.575	48.164
831.467	54.356
834.36	20.1741
837.253	34.1508
840.146	35.5138
843.038	47.1792
845.931	40.7466
848.824	27.7393
851.716	34.0907
854.609	53.8881
857.502	31.8112
860.394	10.7192
863.287	25.6691
866.18	29.4836
869.073	22.6547
871.965	12.2089
874.858	29.9324
877.751	58.142
880.643	45.8071
883.536	38.9402
886.429	50.8245
889.322	116.264
892.214	98.5154
895.107	91.3079
898	174.282
900.892	161.951
903.785	202.446
906.678	259.911
909.57	286.861
912.463	275.577
915.356	265.401
918.249	214.312
921.141	179.906
924.034	133.874
926.927	68.3444
929.819	76.436
932.712	32.0518
935.605	40.6433
938.497	8.94104
941.39	15.7035
944.283	9.42151
947.176	29.4847
950.068	25.3163
952.961	36.5824
955.854	48.469
958.746	59.0457
961.639	111.416
964.532	171.909
967.424	266.467
970.317	260.617
973.21	297.072
976.102	325.59
978.995	272.844
981.888	220.041
984.78	277.764
987.673	321.539
990.566	360.881
993.459	452.837
996.351	557.556
999.244	537.283
1002.14	488.396
1005.03	400.306
1007.92	447.781
1010.82	544.945
1013.71	688.866
1016.6	932.528
1019.49	1218.66
1022.39	1550.52
1025.28	1696.27
1028.17	1526.95
1031.06	1229.1
1033.96	864.18
1036.85	559.703
1039.74	376.945
1042.63	322.813
1045.53	196.405
1048.42	158.577
1051.31	148.158
1054.2	135.318
1057.1	8.76849
1059.99	0.124207
1062.88	44.657
1065.78	7.1864
1068.67	23.2557
1071.56	10.6226
1074.45	23.8595
1077.35	30.2369
1080.24	27.467
1083.13	10.8155
1086.03	29.7189
1088.92	33.6255
1091.81	43.4155
1094.7	74.4971
1097.6	63.2696
1100.49	66.5702
1103.38	54.2333
1106.27	85.8187
1109.17	53.9922
1112.06	56.1363
1114.95	43.2425
1117.85	57.2106
1120.74	13.1118
1123.63	40.2005
1126.52	76.8635
1129.42	1.57269
1132.31	22.5076
1135.2	27.2383
1138.09	18.6313
1140.99	5.77979
1143.88	28.0533
1146.77	12.8832
1149.66	11.7974
1152.56	53.1553
1155.45	34.5269
1158.34	31.4312
1161.23	29.8728
1164.13	37.4633
1167.02	29.4826
1169.91	38.2453
1172.81	10.67
1175.7	46.2054
1178.59	25.9072
1181.48	49.298
1184.38	15.8076
1187.27	22.7402
1190.16	67.3504
1193.06	72.748
1195.95	33.9711
1198.84	59.6404
1201.73	20.7759
1204.63	44.64
1207.52	7.98285
1210.41	47.6973
1213.3	45.8087
1216.2	17.6499
1219.09	50.9208
1221.98	41.3354
1224.88	43.2429
1227.77	55.9424
1230.66	45.7636
1233.55	0.537415
1236.44	42.148
1239.34	6.54388
1242.23	13.8
1245.12	0
