Measurement: Raman, 532 nm, unoriented, Raman Data Processed
Mineral: Proto-ferro-anthophyllite
Rruff sample: R060053
Ideal chemistry: Fe^2+^_7_Si_8_O_22_(OH)_2_
Locality: Nyppio mine, near Utsonomiya, Japan
Source: Marcus Origlieri
Description: Sprays of green prismatic crystals
Measured chemistry: (Fe^2+^_0.51_Mn_0.27_Mg_0.22_)_7_Si_8_O_22_(OH)_2_
Raman shift (cm-1)	intensity
131.38	0
134.755	14.3469
138.129	124.83
141.504	295.056
144.879	863.851
148.254	1146.69
151.629	683.532
155.003	379.625
158.378	539.773
161.753	1165.14
165.128	2082.06
168.503	3375.22
171.877	4779.77
175.252	5274.63
178.627	4771.16
182.002	3776.64
185.377	3024.89
188.751	2464.59
192.126	2028.18
195.501	1868.09
198.876	1818.89
202.251	1950.07
205.626	1894.43
209	1973.14
212.375	2001.54
215.75	1931.67
219.125	1782.66
222.5	1457.49
225.875	1089.37
229.249	840.628
232.624	612.163
235.999	393.064
239.374	379.63
242.749	280.426
246.123	317.402
249.498	259.52
252.873	323.229
256.248	174.955
259.623	113.903
262.997	0.441895
266.372	20.5127
269.747	48.3799
273.122	94.7854
276.497	33.0657
279.872	112.397
283.246	32.8669
286.621	12.3081
289.996	75.7693
293.371	82.4771
296.745	172.043
300.12	274.715
303.495	197.552
306.87	267.722
310.245	259.57
313.62	382.608
316.994	322.991
320.369	369.095
323.744	407.931
327.119	610.451
330.494	1006.16
333.868	1334.08
337.243	1597.72
340.618	1843.51
343.993	1686.63
347.368	1397.48
350.743	1374.16
354.117	1563.62
357.492	2071.38
360.867	2981.33
364.242	4303.82
367.617	5679.26
370.991	6777.84
374.366	6739.87
377.741	5851.35
381.116	4302.91
384.491	2900.2
387.865	1994.97
391.24	1487.1
394.615	1302.83
397.99	1086.2
401.365	830.611
404.74	639.341
408.114	467.309
411.489	436.67
414.864	414.519
418.239	398.945
421.614	379.911
424.988	185.24
428.363	80.1733
431.738	69.7324
435.113	55.7683
438.488	68.8774
441.863	47.978
445.237	35.8843
448.612	30.5332
451.987	13.6658
455.362	20.197
458.737	35.3486
462.111	121.636
465.486	144.039
468.861	207.161
472.236	184.769
475.611	250.142
478.986	279.856
482.36	373.01
485.735	506.127
489.11	684.693
492.485	880.79
495.86	1156.66
499.234	1458.31
502.609	1821.62
505.984	2297.82
509.359	2633.63
512.734	2824.8
516.109	2909.78
519.483	2671.87
522.858	2144.49
526.233	1553.25
529.608	1146.81
532.982	865.383
536.357	641.21
539.732	608.809
543.107	520.29
546.482	539.684
549.857	466.985
553.231	433.072
556.606	383.805
559.981	403.94
563.356	306.115
566.731	194.325
570.106	100.49
573.48	27.8115
576.855	7.1814
580.23	50.6694
583.605	13.1379
586.98	25.6409
590.354	21.1773
593.729	19.9514
597.104	31.2085
600.479	56.676
603.854	72.0212
607.228	83.782
610.603	184.017
613.978	257.26
617.353	364.575
620.728	518.208
624.102	762.534
627.477	1038.12
630.852	1320.22
634.227	1887.17
637.602	2605.1
640.977	3933.93
644.351	6294.09
647.726	10345.1
651.101	16065.2
654.476	22124.2
657.851	27000
661.226	26382.6
664.6	18693.5
667.975	10659.6
671.35	6196.41
674.725	3900.49
678.1	2626.04
681.474	1880.31
684.849	1372.97
688.224	1000.28
691.599	762.344
694.974	567.799
698.348	389.337
701.723	272.977
705.098	145.496
708.473	60.0632
711.848	0.001709
715.222	10.4866
718.597	22.45
721.972	57.1111
725.347	37.186
728.722	96.7605
732.096	288.862
735.471	504.497
738.846	683.675
742.221	771.163
745.596	700.745
748.971	660.385
752.345	636.426
755.72	451.269
759.095	297.219
762.47	342.015
765.845	360.3
769.22	556.614
772.594	596.387
775.969	616.988
779.344	452.94
782.719	284.564
786.094	150.518
789.468	56.9133
792.843	62.2353
796.218	12.6763
799.593	47.3948
802.968	49.3289
806.342	20.1575
809.717	45.0088
813.092	74.198
816.467	41.2793
819.842	72.9768
823.216	49.6047
826.591	93.0549
829.966	62.3904
833.341	100.412
836.716	100.37
840.091	116.532
843.465	100.214
846.84	50.4004
850.215	43.9077
853.59	90.7378
856.965	22.2759
860.34	13.4097
863.714	25.2407
867.089	6.62378
870.464	2.42993
873.839	32.3872
877.213	24.4045
880.588	111.17
883.963	85.3433
887.338	177.446
890.713	259.237
894.088	339.715
897.462	405.123
900.837	577.763
904.212	760.045
907.587	876.283
910.962	921.449
914.337	954.463
917.711	733.357
921.086	471.992
924.461	312.855
927.836	151.199
931.211	65.2256
934.585	1.73828
937.96	37.6309
941.335	47.46
944.71	8.0293
948.085	23.3145
951.459	78.5005
954.834	127.707
958.209	450.193
961.584	645.146
964.959	1073.42
968.333	1529.54
971.708	1783.77
975.083	1769.52
978.458	1640.6
981.833	1422.81
985.208	1571.24
988.582	1823.04
991.957	2164.11
995.332	2431.66
998.707	2328.77
1002.08	2071.28
1005.46	1948.23
1008.83	2209.03
1012.21	3173.12
1015.58	4687.88
1018.96	6602.2
1022.33	8491.2
1025.7	9064.9
1029.08	7835.63
1032.45	5543.98
1035.83	3568.91
1039.2	2323.17
1042.58	1518.16
1045.95	1001.56
1049.33	653.276
1052.7	426.414
1056.08	279.91
1059.45	196.467
1062.83	152.145
1066.2	79.9092
1069.58	0.853027
1072.95	43.9595
1076.33	14.2954
1079.7	49.5415
1083.08	17.1904
1086.45	61.771
1089.83	282.782
1093.2	456.172
1096.58	703.32
1099.95	847.273
1103.33	655.128
1106.7	475.772
1110.08	284.734
1113.45	209.856
1116.83	167.599
1120.2	178.793
1123.58	103.631
1126.95	104.33
1130.33	53.1616
1133.7	59.273
1137.07	2.45019
1140.45	40.9717
1143.82	12.3525
1147.2	13.4233
1150.57	11.3579
1153.95	22.2959
1157.32	12.0459
1160.7	46.4282
1164.07	101.733
1167.45	34.0044
1170.82	10.2729
1174.2	50.5576
1177.57	71.4849
1180.95	73.6938
1184.32	23.1851
1187.7	52.7659
1191.07	70.7737
1194.45	91.1702
1197.82	43.6196
1201.2	73.1582
1204.57	64.8774
1207.94	142.695
1211.32	81.2534
1214.69	59.9961
1218.07	17.0591
1221.44	54.3672
1224.82	53.3403
1228.19	24.8608
1231.57	33.9194
1234.94	116.241
1238.32	51.2808
1241.69	54.2192
1245.07	63.0391
1248.44	98.5405
1251.82	74.1606
1255.19	85.7773
1258.57	92.9561
1261.94	45.2065
1265.32	39.2388
1268.69	38.3042
1272.07	23.0107
1275.44	68.7612
1278.82	62.9912
1282.19	79.5186
1285.57	74.2822
1288.94	84.1299
1292.32	123.09
1295.69	44.6504
1299.07	61.8984
1302.44	53.4434
1305.82	49.6343
1309.19	84.6392
1312.56	48.9307
1315.94	3.92188
