Measurement: Raman, 514 nm, unoriented, Raman Data Processed
Mineral: Proto-ferro-anthophyllite
Rruff sample: R060053
Ideal chemistry: Fe^2+^_7_Si_8_O_22_(OH)_2_
Locality: Nyppio mine, near Utsonomiya, Japan
Source: Marcus Origlieri
Description: Sprays of green prismatic crystals
Measured chemistry: (Fe^2+^_0.51_Mn_0.27_Mg_0.22_)_7_Si_8_O_22_(OH)_2_
Raman shift (cm-1)	intensity
87.101	0
91.284	153.122
95.465	236.008
99.644	155.095
103.82	29.589
107.995	31.356
112.168	105.606
116.339	448.844
120.508	370.477
124.675	247.857
128.84	271.933
133.003	687.067
137.164	1129.05
141.323	1646.98
145.48	2674.91
149.635	3853.78
153.788	2877.54
157.939	1298.14
162.088	1122.51
166.235	2113.61
170.38	4729.35
174.523	8101.03
178.664	10057.3
182.803	9089.44
186.94	6764.61
191.076	4899.87
195.209	3753.72
199.34	3159.1
203.47	3037.99
207.597	2931.36
211.722	2668.18
215.846	2507.44
219.967	2460.08
224.087	2152.06
228.204	1791.37
232.32	1442.98
236.434	1181.88
240.545	982.062
244.655	790.494
248.763	700.168
252.869	654.247
256.973	473.59
261.075	301.496
265.175	18.17
269.273	64.161
273.369	89.082
277.463	71.678
281.556	31.888
285.646	71.63
289.734	111.467
293.821	166.715
297.905	204.913
301.988	348.378
306.069	515.06
310.147	647.941
314.224	760.006
318.299	675.242
322.372	594.635
326.443	487.173
330.512	646.842
334.579	1006.63
338.645	1414.55
342.708	1628.53
346.769	1549.21
350.829	1442.77
354.887	1385.42
358.942	1619.18
362.996	2433.03
367.048	4235.97
371.098	6219.97
375.146	6868.05
379.192	6060.18
383.236	4583.36
387.279	2906.59
391.319	2034.85
395.358	1699.14
399.394	1443.46
403.429	1150.8
407.462	787.301
411.493	571.865
415.522	545.329
419.549	394.784
423.575	229.682
427.598	131.336
431.619	149.316
435.639	26.212
439.657	49.84
443.673	59.613
447.687	24.062
451.699	18.958
455.709	76.28
459.717	152.149
463.724	290.625
467.728	235.025
471.731	210.344
475.732	150.577
479.731	154.725
483.728	161.796
487.723	203.81
491.716	350.766
495.708	474.702
499.697	653.638
503.685	1114.52
507.671	1603.32
511.655	2397.04
515.637	3421.66
519.617	4075.18
523.596	3552.59
527.572	2262.87
531.547	1370.02
535.52	793.041
539.491	541.922
543.46	358.673
547.427	262.282
551.393	217.747
555.356	199.064
559.318	197.229
563.278	143.241
567.236	77.095
571.192	78.752
575.147	16.153
579.099	29.778
583.05	73.16
586.999	11.133
590.946	20.418
594.891	29.248
598.834	14.916
602.776	31.81
606.715	84.354
610.653	112.633
614.589	144.494
618.523	258.539
622.456	459.264
626.386	641.832
630.315	926.244
634.242	1105.54
638.167	1374.48
642.09	1800.56
646.012	2906.5
649.931	5079.85
653.849	9177.48
657.765	16911
661.679	23458.6
665.592	18956.3
669.502	10435.4
673.411	5599.24
677.318	3410.34
681.223	2298.01
685.126	1821.34
689.028	1577.35
692.927	1266.2
696.825	995.061
700.721	797.157
704.616	635.791
708.508	569.031
712.399	483.125
716.288	442.073
720.175	434.88
724.06	470.939
727.944	494.25
731.825	570.798
735.705	783.389
739.584	1233.49
743.46	1218.41
747.334	916.882
751.207	724.781
755.078	571.216
758.947	341.617
762.815	275.146
766.68	251.379
770.544	269.083
774.406	254.029
778.267	217.924
782.125	103.772
785.982	91.578
789.837	68.343
793.69	7.052
797.542	39.321
801.391	38.819
805.239	65.45
809.085	46.309
812.93	18.403
816.772	33.595
820.613	55.857
824.452	1.783
828.29	35.397
832.125	10.973
835.959	15.534
839.791	29.019
843.621	38.647
847.45	41.217
851.277	55.793
855.102	83.373
858.925	28.969
862.746	16.586
866.566	6.25
870.384	72.981
874.2	93.771
878.015	64.703
881.828	146.78
885.639	260.968
889.448	374.348
893.256	554.023
897.061	656.019
900.865	968.303
904.668	1214.82
908.468	1625.51
912.267	2065.36
916.064	2214.36
919.86	1957.44
923.653	1567.63
927.445	1242.9
931.236	1055.23
935.024	889.623
938.811	838.106
942.596	820.625
946.379	794.375
950.161	819.561
953.94	880.267
957.719	973.788
961.495	1254.82
965.27	1555.4
969.043	2226.16
972.814	2750.28
976.583	2817.22
980.351	2476.41
984.117	2377.23
987.882	2633.43
991.644	3194.91
995.405	3996.65
999.165	4355.48
1002.92	4083.68
1006.68	3489.69
1010.43	3268.55
1014.18	3625.06
1017.93	4738.99
1021.68	7086.57
1025.43	9958.92
1029.18	12554.3
1032.92	9521.03
1036.66	6401.06
1040.4	4161.98
1044.14	2843.88
1047.88	2143.27
1051.62	1689.66
1055.35	1424.79
1059.08	1240.95
1062.81	939.78
1066.54	866.837
1070.27	768.365
1073.99	660.159
1077.72	596.4
1081.44	765.165
1085.16	888.485
1088.88	829.59
1092.59	718.151
1096.31	794.656
1100.02	909.84
1103.73	735.271
1107.44	467.81
1111.15	477.417
1114.86	406.06
1118.57	380.729
1122.27	627.433
1125.97	483.174
1129.67	206.921
1133.37	130.592
1137.07	151.849
1140.76	118.388
1144.45	90.26
1148.15	82.974
1151.84	40.849
1155.53	62.836
1159.21	49.494
1162.9	33.466
1166.58	49.51
1170.26	4.417
1173.94	37.695
1177.62	24.868
1181.3	46.406
1184.97	43.763
1188.65	60.123
1192.32	12.695
1195.99	29.357
1199.66	16.942
1203.33	47.963
1206.99	20.09
1210.65	18.787
1214.32	30.034
1217.98	9.507
1221.64	66.882
1225.29	8.625
1228.95	77.366
1232.6	30.298
1236.26	20.171
1239.91	56.166
1243.56	44.069
1247.2	68.905
1250.85	41.674
1254.49	52.427
1258.13	108.02
1261.78	178.506
1265.41	88.981
1269.05	92.681
1272.69	73.952
1276.32	2.919
1279.95	19.091
1283.59	40.027
1287.21	42.791
1290.84	132.458
1294.47	80.036
1298.09	28.986
1301.72	93.388
1305.34	39.689
1308.96	77.573
1312.58	20.037
1316.19	64.767
1319.81	61.353
1323.42	89.902
1327.03	63.577
1330.64	86.727
1334.25	72.05
1337.86	44.394
1341.46	15.193
1345.07	34.383
1348.67	13.668
1352.27	1.722
1355.87	20.344
1359.46	107.799
1363.06	96.795
1366.65	33.716
1370.25	4.975
1373.84	27.131
1377.43	5.132
1381.02	25.213
1384.6	70.677
1388.18	59.82
1391.77	101.063
1395.35	79.137
1398.93	67.23
1402.51	95.584
1406.08	55.794
1409.66	10.297
1413.23	11.981
1416.8	12.17
1420.37	19.136
1423.94	7.858
1427.51	32.953
1431.08	51
1434.64	169.108
1438.2	162.848
1441.76	162.534
1445.32	148.579
1448.88	35.043
1452.43	74.646
1455.99	69.199
1459.54	33.537
1463.09	80.172
1466.64	60.841
1470.19	116.4
1473.74	105.825
1477.28	119.515
1480.83	75.586
1484.37	24.321
1487.91	78.188
1491.45	44.073
1494.98	44.536
1498.52	46.77
1502.05	103.819
1505.59	46.674
1509.12	50.159
1512.65	57.619
1516.17	66.399
