Measurement: Raman, 780 nm, unoriented, Raman Data Processed
Mineral: Proustite
Rruff sample: R060356
Ideal chemistry: Ag_3_AsS_3_
Locality: Chanarcillo, Atacama Province, Chile
Source: Herb Obodda
Description: Red scalenohedral crystal
Measured chemistry: Ag_3.01_As_0.99_S_3.00_
Raman shift (cm-1)	intensity
91.5332	0
94.908	14.5553
98.2828	11.7965
101.658	10.5546
105.032	10.0033
108.407	16.6244
111.782	28.7413
115.157	46.7863
118.532	84.7089
121.907	72.7336
125.281	47.4136
128.656	41.9623
132.031	45.4767
135.406	36.287
138.781	9.54245
142.155	7.39639
145.53	7.8434
148.905	0.632263
152.28	15.7312
155.655	36.3642
159.03	64.8657
162.404	97.6938
165.779	141.149
169.154	179.602
172.529	218.579
175.904	258.601
179.278	288.184
182.653	294.719
186.028	266.585
189.403	209.673
192.778	153.429
196.153	111.381
199.527	81.9279
202.902	60.635
206.277	47.1111
209.652	44.9685
213.027	38.5753
216.401	41.0162
219.776	36.3022
223.151	33.2865
226.526	28.3063
229.901	22.9327
233.275	20.8799
236.65	18.2671
240.025	18.8014
243.4	23.0787
246.775	24.7878
250.15	31.6522
253.524	36.9616
256.899	44.0035
260.274	51.3776
263.649	52.1125
267.024	47.9425
270.399	39.9526
273.773	29.3224
277.148	16.3106
280.523	7.95085
283.898	1.41251
287.273	4.87994
290.647	6.64212
294.022	4.74928
297.397	0.692993
300.772	7.28395
304.147	24.8688
307.522	45.9629
310.896	83.3484
314.271	135.772
317.646	187.355
321.021	245.976
324.396	332.9
327.77	437.142
331.145	499.486
334.52	459.867
337.895	433.483
341.27	460.394
344.644	555.221
348.019	699.324
351.394	848.367
354.769	1012.85
358.144	1274.53
361.519	1571.24
364.893	1632.16
368.268	1192.94
371.643	606.807
375.018	284.471
378.393	151.724
381.767	90.3231
385.142	57.9437
388.517	36.057
391.892	26.3605
395.267	15.0312
398.642	7.66729
402.016	4.0737
405.391	2.32375
408.766	0.180557
412.141	2.40213
415.516	1.17845
418.89	1.63513
422.265	1.57432
425.64	0.554138
429.015	0.49144
432.39	1.20058
435.765	2.63525
439.139	2.8598
442.514	1.1231
445.889	5.00491
449.264	4.8051
452.639	4.59847
456.014	5.39843
459.388	7.75609
462.763	7.72884
466.138	9.04362
469.513	8.82855
472.887	9.47115
476.262	9.47855
479.637	8.93722
483.012	6.85694
486.387	5.68015
489.762	5.56689
493.136	5.82167
496.511	3.05369
499.886	4.83511
503.261	2.26816
506.636	2.64222
510.01	4.73792
513.385	2.96301
516.76	3.79794
520.135	2.20766
523.51	1.92948
526.885	3.6379
530.259	1.7237
533.634	3.1971
537.009	1.8417
540.384	0.737835
543.759	0.821342
547.134	2.33503
550.508	2.444
553.883	2.20564
557.258	1.9123
560.633	3.50842
564.008	1.81017
567.382	2.04951
570.757	1.26604
574.132	1.42627
577.507	1.12566
580.882	1.45556
584.256	0.757252
587.631	0.623001
591.006	1.19549
594.381	0.750446
597.756	1.41173
601.131	1.47879
604.505	0.311764
607.88	0.435051
611.255	0.295334
614.63	0.115147
618.005	0.108112
621.38	0.741299
624.754	0.583797
628.129	1.73417
631.504	0.511208
634.879	1.77463
638.254	1.48613
641.628	1.75951
645.003	1.54271
648.378	3.12038
651.753	4.50375
655.128	4.85343
658.503	5.2638
661.877	5.66359
665.252	7.23328
668.627	7.4566
672.002	9.41828
675.377	6.06212
678.751	5.13643
682.126	4.43148
685.501	5.09373
688.876	4.37738
692.251	3.44805
695.625	4.24687
699	4.73991
702.375	5.4755
705.75	6.103
709.125	7.01241
712.5	7.34094
715.874	7.37247
719.249	8.12016
722.624	5.07994
725.999	4.44362
729.374	4.42911
732.749	3.59605
736.123	3.30708
739.498	1.76251
742.873	0.907661
746.248	0.479111
749.623	1.68901
752.997	0.37714
756.372	1.91174
759.747	1.94893
763.122	0.012611
766.497	0.215855
769.871	0.261837
773.246	2.32629
776.621	0.048275
779.996	2.13555
783.371	1.0807
786.745	0.166931
790.12	1.64366
793.495	1.64009
796.87	0.654369
800.245	0.944813
803.62	1.51202
806.994	0.436684
810.369	0.989025
813.744	0.879421
817.119	1.99539
820.494	0.365391
823.869	1.37329
827.243	2.72357
830.618	1.41672
833.993	3.73827
837.368	5.38875
840.743	2.83599
844.117	1.81936
847.492	3.18113
850.867	1.76983
854.242	0.773209
857.617	2.21408
860.991	1.78106
864.366	1.91804
867.741	1.59578
871.116	0.943512
874.491	2.04624
877.866	2.56607
881.24	2.94827
884.615	1.05433
887.99	0.437332
891.365	0.980568
894.74	2.0462
898.115	2.40017
901.489	1.6053
904.864	0.692371
908.239	0.642479
911.614	0.286171
914.989	2.10915
918.363	2.0008
921.738	0.871109
925.113	0.503063
928.488	0.740471
931.863	1.95834
935.237	1.25298
938.612	1.23921
941.987	2.39538
945.362	2.39412
948.737	0.187702
952.112	2.01644
955.486	1.54093
958.861	3.63783
962.236	2.65563
965.611	3.1358
968.986	6.20935
972.361	9.40882
975.735	8.1083
979.11	6.21394
982.485	3.22227
985.86	3.01638
989.235	2.62801
992.609	1.32294
995.984	1.0351
999.359	0.168564
1002.73	0.53289
1006.11	1.10535
1009.48	0.563862
1012.86	0.588287
1016.23	0.345589
1019.61	1.54413
1022.98	0.890423
1026.36	0.006138
1029.73	0.00959
1033.11	0.241486
1036.48	0.081749
1039.86	0.532009
1043.23	0.682106
1046.61	0.891834
1049.98	0.92054
1053.36	0.270519
1056.73	0.766548
1060.11	0.50362
1063.48	0.926342
1066.86	1.23616
1070.23	2.08425
1073.61	1.83639
1076.98	1.82363
1080.36	2.23867
1083.73	3.66158
1087.1	3.04112
1090.48	3.37357
1093.85	3.78994
1097.23	5.19244
1100.6	5.26207
1103.98	4.88825
1107.35	3.77958
1110.73	6.05083
1114.1	4.78102
1117.48	3.56877
1120.85	3.21773
1124.23	3.65906
1127.6	1.87455
1130.98	2.82112
1134.35	2.18534
1137.73	3.42378
1141.1	0.70314
1144.48	0.202797
1147.85	0.216732
1151.23	0.218662
1154.6	1.54357
1157.97	0.089535
1161.35	0.219124
1164.72	1.74138
1168.1	1.31943
1171.47	1.74372
1174.85	0.87941
1178.22	1.86721
1181.6	1.4601
1184.97	0.583794
1188.35	1.00574
1191.72	2.30513
1195.1	1.93742
1198.47	0.665493
1201.85	0.319366
1205.22	0.058935
1208.6	0.338856
1211.97	0.845304
1215.35	1.04578
1218.72	0.696732
1222.1	2.66957
1225.47	0.149382
1228.85	1.8801
1232.22	0.594809
1235.6	1.05913
1238.97	2.07568
1242.35	1.32964
1245.72	1.88089
1249.1	0.393187
1252.47	0.402615
1255.85	1.05338
1259.22	0.86735
1262.6	2.51805
1265.97	2.62121
1269.34	0.004269
1272.72	0.736774
1276.09	1.52139
1279.47	2.45917
1282.84	0.275925
