Measurement: Raman, 532 nm, unoriented, Raman Data Processed
Mineral: Proustite
Rruff sample: R060356
Ideal chemistry: Ag_3_AsS_3_
Locality: Chanarcillo, Atacama Province, Chile
Source: Herb Obodda
Description: Red scalenohedral crystal
Measured chemistry: Ag_3.01_As_0.99_S_3.00_
Raman shift (cm-1)	intensity
97.2418	0.082148
100.617	3.01007
103.992	4.493
107.366	4.6353
110.741	7.38255
114.116	6.87103
117.491	4.53532
120.865	5.02226
124.24	5.56991
127.615	2.28106
130.99	0.380831
134.365	1.96936
137.74	1.61474
141.114	1.83677
144.489	2.01923
147.864	6.67944
151.239	13.0886
154.614	19.4852
157.988	27.1609
161.363	31.788
164.738	39.8917
168.113	47.6116
171.488	52.2383
174.863	60.4466
178.237	65.7049
181.612	66.4903
184.987	66.0278
188.362	52.6782
191.737	45.6613
195.112	34.8036
198.486	26.6305
201.861	22.4655
205.236	18.5355
208.611	19.2639
211.986	14.2678
215.36	14.0592
218.735	11.5083
222.11	13.2207
225.485	8.08343
228.86	6.92083
232.234	6.52101
235.609	4.69817
238.984	0.58976
242.359	3.06665
245.734	0.478622
249.109	3.0719
252.483	0.943264
255.858	3.15029
259.233	4.65017
262.608	4.92905
265.983	3.29805
269.358	5.73548
272.732	1.86443
276.107	0.661903
279.482	1.47825
282.857	1.57363
286.232	0.391132
289.606	0.031967
292.981	1.94444
296.356	1.60466
299.731	3.44135
303.106	3.61958
306.481	5.94885
309.855	7.11488
313.23	15.14
316.605	23.3764
319.98	34.7561
323.355	51.2446
326.729	66.8548
330.104	83.2074
333.479	94.3589
336.854	105.356
340.229	102.05
343.603	87.1375
346.978	94.8599
350.353	129.711
353.728	169.98
357.103	223.428
360.478	313.347
363.852	411.482
367.227	380.58
370.602	216.291
373.977	100.321
377.352	51.7879
380.726	28.7247
384.101	18.2695
387.476	12.9334
390.851	9.16324
394.226	5.66264
397.601	2.37795
400.975	2.49509
404.35	2.55402
407.725	1.20517
411.1	0.399847
414.475	1.14493
417.849	0.445213
421.224	1.57858
424.599	0.660904
427.974	0.142616
431.349	0.625008
434.724	0.706423
438.098	0.582611
441.473	0.062025
444.848	3.65216
448.223	3.28119
451.598	2.47342
454.972	1.63836
458.347	2.95465
461.722	2.72031
465.097	1.56424
468.472	2.11946
471.846	3.13145
475.221	3.51208
478.596	3.10601
481.971	2.94174
485.346	2.19469
488.721	1.87012
492.095	0.521212
495.47	2.38874
498.845	4.14988
502.22	2.01259
505.595	0.445037
508.969	2.59353
512.344	0.84553
515.719	1.51572
519.094	2.05764
522.469	1.29912
525.844	0.261914
529.218	1.31197
532.593	3.17584
535.968	2.22564
539.343	0.814355
542.718	2.01949
546.092	1.62532
549.467	1.75851
552.842	1.413
556.217	0.812336
559.592	0.945415
562.967	1.01955
566.341	1.71
569.716	0.585827
573.091	1.73885
576.466	0.706367
579.841	0.020836
583.216	3.29688
586.59	0.434996
589.965	2.29005
593.34	3.56082
596.715	0.272502
600.09	2.0272
603.464	1.17627
606.839	1.48215
610.214	1.18355
613.589	0.55105
616.964	0.239843
620.338	0.856318
623.713	0.30589
627.088	1.22742
630.463	1.05815
633.838	0.278724
637.212	2.1776
640.587	2.65324
643.962	2.95022
647.337	3.06834
650.712	4.39261
654.087	3.85932
657.461	5.63576
660.836	5.23175
664.211	4.6805
667.586	5.43525
670.961	5.26433
674.335	7.41873
677.71	3.11738
681.085	3.01879
684.46	2.19013
687.835	3.5311
691.21	2.07764
694.584	1.34769
697.959	2.33967
701.334	1.02007
704.709	1.4462
708.084	1.07244
711.458	0.115855
714.833	1.35492
718.208	2.0413
721.583	3.17909
724.958	2.09064
728.332	2.78671
731.707	3.70164
735.082	1.8782
738.457	0.511703
741.832	1.5114
745.207	1.91931
748.581	1.90801
751.956	2.0069
755.331	0.434506
758.706	1.1456
762.081	0.456897
765.456	1.72383
768.83	0.364007
772.205	0.968445
775.58	1.02704
778.955	1.22423
782.33	1.42828
785.704	0.632074
789.079	1.50321
792.454	0.543235
795.829	2.70297
799.204	0.204955
802.578	1.57519
805.953	1.6829
809.328	3.59318
812.703	1.88197
816.078	0.615886
819.453	0.359707
822.827	0.898057
826.202	1.26824
829.577	0.112456
832.952	2.54792
836.327	2.62315
839.702	2.67963
843.076	2.13839
846.451	2.09207
849.826	2.49417
853.201	3.64605
856.576	2.51363
859.95	1.51611
863.325	3.59048
866.7	1.87238
870.075	2.08831
873.45	2.05703
876.824	1.1269
880.199	2.88043
883.574	2.40618
886.949	2.75872
890.324	0.069084
893.698	0.40881
897.073	1.82693
900.448	3.54961
903.823	2.77643
907.198	1.61485
910.573	0.144777
913.947	1.76066
917.322	0.778902
920.697	2.82949
924.072	0.925436
927.447	1.02582
930.822	0.072139
934.196	0.935377
937.571	1.54327
940.946	0.259837
944.321	1.30853
947.696	1.61189
951.07	0.40625
954.445	0.09077
957.82	1.41686
961.195	0.925246
964.57	1.61009
967.944	2.98511
971.319	3.15103
974.694	3.26391
978.069	1.34353
981.444	2.79372
984.819	1.46384
988.193	0.484035
991.568	0.573386
994.943	1.80711
998.318	3.37832
1001.69	1.55196
1005.07	1.75869
1008.44	1.08925
1011.82	0.848448
1015.19	0.983125
1018.57	3.65554
1021.94	1.74831
1025.32	0.303088
1028.69	1.39925
1032.07	0.538884
1035.44	0.028519
1038.82	0.287057
1042.19	0.688001
1045.57	0.480833
1048.94	0.156907
1052.32	1.94815
1055.69	0.866456
1059.07	1.13336
1062.44	0.845194
1065.81	0.846816
1069.19	0.712945
1072.56	1.95161
1075.94	0.087498
1079.31	0.888347
1082.69	1.03548
1086.06	0.574336
1089.44	1.9766
1092.81	1.26821
1096.19	3.54443
1099.56	2.16763
1102.94	1.10197
1106.31	0.179182
1109.69	2.34496
1113.06	1.57587
1116.44	1.44648
1119.81	0.779815
1123.19	2.14449
1126.56	1.94811
1129.94	1.04007
1133.31	1.04096
1136.68	1.43758
1140.06	0.319967
1143.43	1.66372
1146.81	1.77606
1150.18	2.37769
1153.56	0.91204
1156.93	1.00982
1160.31	0.425287
1163.68	0.083911
1167.06	0.318563
1170.43	1.35636
1173.81	1.6867
1177.18	0.525021
1180.56	2.6315
1183.93	1.99832
1187.31	1.443
1190.68	0.991077
1194.06	0.385359
1197.43	1.08007
1200.81	0.895882
1204.18	2.16611
1207.56	2.02156
1210.93	1.55171
1214.31	2.68574
1217.68	2.25918
1221.06	1.16456
1224.43	0.838754
1227.81	2.60938
1231.18	0.964332
1234.56	1.51932
1237.93	2.83417
1241.31	1.21686
1244.68	1.65673
1248.05	0.660745
1251.43	1.68707
1254.8	2.5541
1258.18	1.75803
1261.55	1.83012
1264.93	2.40708
1268.3	2.22303
1271.68	1.78816
1275.05	2.07841
1278.43	1.84465
1281.8	1.68594
1285.18	0.135252
1288.55	2.32604
1291.93	0.370818
1295.3	1.87893
1298.68	2.72282
1302.05	1.00875
