Measurement: Raman, 532 nm, unoriented, Raman Data Processed
Mineral: Pseudomalachite
Rruff sample: R040175
Ideal chemistry: Cu_5_(PO_4_)_2_(OH)_4_
Locality: West Bogan mine, Tottenham, Australia
Source: University of Arizona Mineral Museum
Description: Green massive in a botryoidal shape
Measured chemistry: Cu_5.00_(P_1.00_O_4_)_2_(OH_.98_F_.02_)_4_
Raman shift (cm-1)	intensity
124.592	0
127.967	133.886
131.341	685.133
134.716	1011.38
138.091	1502.83
141.466	2102.97
144.841	2318.54
148.215	1840.95
151.59	1608.37
154.965	1895.14
158.34	2333.57
161.715	2659.97
165.09	2424.23
168.464	2524.31
171.839	3517.56
175.214	4372.8
178.589	3773.1
181.964	3282.68
185.339	3460.22
188.713	3019.65
192.088	2260.76
195.463	1649.7
198.838	1156.31
202.213	1203.54
205.587	1588.09
208.962	2076.64
212.337	1965.56
215.712	1367.16
219.087	833.096
222.462	260.326
225.836	-0.508755
229.211	-3.8738
232.586	24.6368
235.961	10.4338
239.336	377.91
242.71	712.29
246.085	1091.68
249.46	1491.68
252.835	2002.33
256.21	2552.01
259.584	2763.23
262.959	2540.81
266.334	1747.02
269.709	1062.7
273.084	585.765
276.459	427.531
279.833	369.244
283.208	374.237
286.583	289.984
289.958	327.587
293.333	490.983
296.707	642.31
300.082	702.108
303.457	644.149
306.832	435.021
310.207	243.446
313.582	117.386
316.956	74.6384
320.331	42.656
323.706	29.2209
327.081	2.20996
330.456	33.1733
333.83	36.9976
337.205	118.538
340.58	446.209
343.955	834.106
347.33	1485.92
350.705	2281.74
354.079	3690.41
357.454	5468.53
360.829	7433.79
364.204	9105.67
367.579	9321.1
370.954	7112.85
374.328	4609.48
377.703	3082.9
381.078	2170.42
384.453	1532.73
387.828	829.445
391.202	376.502
394.577	156.022
397.952	51.9933
401.327	-10.1768
404.702	117.565
408.077	346.092
411.451	725.043
414.826	1094.14
418.201	1558.01
421.576	2299.71
424.951	3513.02
428.325	5224.82
431.7	7319.83
435.075	9155.81
438.45	9951.62
441.825	9813.35
445.2	10345
448.574	10825.4
451.949	9310.97
455.324	6603.73
458.699	4789.79
462.074	4476.17
465.448	5362.11
468.823	7489
472.198	10612.4
475.573	13734.4
478.948	15229.4
482.322	13156.6
485.697	8877.59
489.072	5459.54
492.447	3335.32
495.822	2037.48
499.197	1512.94
502.571	1314.87
505.946	1416.78
509.321	1683.09
512.696	1812.97
516.071	1817
519.446	1520.07
522.82	1248.11
526.195	1110.65
529.57	1365
532.945	1738.17
536.32	1909.7
539.694	1109.17
543.069	450.695
546.444	185.955
549.819	98.8583
553.194	87.0132
556.568	62.6484
559.943	45.4047
563.318	69.5923
566.693	113.743
570.068	166.856
573.443	335.109
576.817	619.801
580.192	907.3
583.567	1220.15
586.942	1480.78
590.317	1923.17
593.692	2539.47
597.066	3645.86
600.441	5217.14
603.816	6602.06
607.191	7397.93
610.566	6499.71
613.94	4754.52
617.315	3346.15
620.69	2232.55
624.065	1461.49
627.44	945.837
630.814	663.013
634.189	478.171
637.564	338.443
640.939	240.629
644.314	189.476
647.689	110.834
651.063	111.425
654.438	58.7142
657.813	36.3385
661.188	44.1443
664.563	47.1754
667.938	1.66443
671.312	5.41797
674.687	5.91675
678.062	1.56348
681.437	9.23169
684.812	33.317
688.186	26.7816
691.561	14.4224
694.936	26.7916
698.311	79.2422
701.686	117.449
705.061	223.336
708.435	148.527
711.81	120.546
715.185	81.6045
718.56	95.2398
721.935	87.1484
725.309	130.791
728.684	294.013
732.059	376.619
735.434	546.434
738.809	713.364
742.183	920.912
745.558	921.437
748.933	887.757
752.308	677.48
755.683	497.37
759.058	336.478
762.432	259.837
765.807	142.012
769.182	156.357
772.557	214.31
775.932	244.297
779.307	416.196
782.681	607.216
786.056	885.659
789.431	1297.17
792.806	1674.98
796.181	2061
799.555	2169.06
802.93	2032.42
806.305	1730.55
809.68	1289.36
813.055	936.451
816.429	621.513
819.804	394.062
823.179	246.539
826.554	74.7715
829.929	70.3486
833.304	10.5854
836.678	5.09277
840.053	32.4907
843.428	12.3804
846.803	6.86426
850.178	38.158
853.553	190.001
856.927	372.809
860.302	621.206
863.677	936.843
867.052	1240.7
870.427	1532.35
873.801	1775.51
877.176	1648.59
880.551	1252.82
883.926	991.892
887.301	778.072
890.676	693.554
894.05	582.95
897.425	338.215
900.8	196.45
904.175	66.2014
907.55	29.9202
910.924	59.3169
914.299	20.2378
917.674	21.45
921.049	145.723
924.424	336.798
927.798	498.323
931.173	652.022
934.548	807.325
937.923	838.177
941.298	1000.39
944.673	1244.04
948.047	1594.53
951.422	2141.62
954.797	2883.48
958.172	3969.37
961.547	5202.99
964.922	6576.39
968.296	7492.41
971.671	7287.38
975.046	6177.45
978.421	4843.91
981.796	3958.24
985.17	3557.05
988.545	3695.4
991.92	4161.87
995.295	4649.48
998.67	4572.45
1002.04	3708.47
1005.42	2486.92
1008.79	1449.12
1012.17	839.85
1015.54	421.283
1018.92	186.321
1022.29	35.4746
1025.67	78.2891
1029.04	46.7197
1032.42	36.9995
1035.79	45.4221
1039.17	242.378
1042.54	604.218
1045.92	1075.71
1049.29	1562.43
1052.67	1896.17
1056.04	1846.92
1059.42	1547.99
1062.79	1208.82
1066.17	1009.59
1069.54	1105.64
1072.92	1613.82
1076.29	2748.39
1079.66	3992.03
1083.04	4775.5
1086.41	4125.66
1089.79	2635.36
1093.16	1660.97
1096.54	1092.43
1099.91	748.42
1103.29	592.505
1106.66	465.361
1110.04	344.17
1113.41	354.659
1116.79	252.244
1120.16	235.109
1123.54	154.344
1126.91	97.7983
1130.29	58.1122
1133.66	1.43054
1137.04	4.52502
1140.41	40.5676
1143.79	21.452
1147.16	32.2734
1150.54	30.7535
1153.91	17.2019
1157.29	50.1009
1160.66	83.8798
1164.04	139.966
1167.41	193.573
1170.79	258.991
1174.16	288.151
1177.54	291.683
1180.91	324.908
1184.29	308.031
1187.66	301.646
1191.03	310.19
1194.41	298.828
1197.78	285.244
1201.16	217.498
1204.53	254.659
1207.91	210.43
1211.28	209.454
1214.66	200.326
1218.03	203.13
1221.41	190.773
1224.78	185.264
1228.16	169.491
1231.53	173.638
1234.91	145.668
1238.28	169.49
1241.66	121.912
1245.03	120.835
1248.41	82.3762
1251.78	96.2312
1255.16	63.1925
1258.53	63.6692
1261.91	58.0961
1265.28	41.8635
1268.65	25.3613
1272.03	40.6189
1275.4	15.991
1278.78	7.54675
1282.15	21.8544
1285.53	8.23572
1288.9	29.5636
1292.28	20.0022
1295.65	37.0889
1299.03	44.3331
1302.4	14.4579
1305.78	45.9592
1309.15	84.5972
1312.53	18.166
