Measurement: Raman, 532 nm, unoriented, Raman Data Processed
Mineral: Pseudowollastonite
Rruff sample: R080145
Ideal chemistry: CaSiO_3_
Locality: Synthetic
Source: Hexiong Yang
Description: Colorless synthetic crystal fragments from the study by Yang and Prewitt (1999)
Raman shift (cm-1)	intensity
130.541	0
133.916	57.6146
137.291	268.222
140.666	453.376
144.041	238.87
147.416	36.3756
150.79	4.11975
154.165	5.80835
157.54	0.453979
160.915	28.6079
164.29	18.7394
167.664	72.6232
171.039	128.405
174.414	139.488
177.789	219.296
181.164	249.934
184.538	346.979
187.913	432.012
191.288	277.015
194.663	149.956
198.038	101.225
201.412	95.7585
204.787	65.0824
208.162	44.0402
211.537	52.7924
214.912	46.7152
218.287	46.1445
221.661	21.4827
225.036	18.9485
228.411	29.4631
231.786	49.2895
235.161	45.4763
238.536	15.3247
241.91	5.99194
245.285	3.36792
248.66	4.80127
252.035	14.5649
255.41	5.18311
258.784	11.0757
262.159	5.22314
265.534	2.33154
268.909	20.7844
272.284	28.6143
275.659	39.0535
279.033	38.1157
282.408	70.4683
285.783	80.9143
289.158	110.33
292.533	149.044
295.907	137.703
299.282	152.662
302.657	161.006
306.032	203.597
309.407	215.248
312.781	198.475
316.156	210.919
319.531	234.847
322.906	241.082
326.281	249.478
329.656	280.871
333.03	317.266
336.405	322.334
339.78	308.33
343.155	217.39
346.53	213.315
349.904	305.977
353.279	546.223
356.654	869.275
360.029	1234.69
363.404	1775.15
366.779	2421.74
370.153	2866.53
373.528	2297.19
376.903	1216.25
380.278	611.026
383.653	335.844
387.027	172.986
390.402	119.602
393.777	64.156
397.152	57.0945
400.527	30.0273
403.901	10.2886
407.276	14.4273
410.651	10.5447
414.026	10.8418
417.401	7.65601
420.776	7.86572
424.15	9.56519
427.525	5.96777
430.9	0.630859
434.275	4.1521
437.65	5.33301
441.024	16.4658
444.399	7.18848
447.774	6.73975
451.149	6.56811
454.524	8.26221
457.899	4.97168
461.273	1.32739
464.648	3.90063
468.023	5.47681
471.398	7.59863
474.773	21.6233
478.147	3.83276
481.522	61.9731
484.897	58.6443
488.272	103.952
491.647	147.833
495.022	248.373
498.396	321.156
501.771	438.924
505.146	581.916
508.521	662.868
511.896	494.986
515.27	321.986
518.645	248.952
522.02	150.811
525.395	80.0562
528.77	70.481
532.145	60.1375
535.519	64.4297
538.894	95.8013
542.269	216.144
545.644	297.743
549.019	534.138
552.394	879.646
555.768	1322.35
559.143	1155.97
562.518	1279.17
565.893	1903.87
569.268	2779.97
572.642	4073.36
576.017	5260.3
579.392	4818.94
582.767	2739.41
586.142	1333.38
589.516	720.657
592.891	421.972
596.266	259.098
599.641	148.9
603.016	86.1123
606.39	57.9895
609.765	44.6868
613.14	27.7871
616.515	8.70117
619.89	6.22144
623.265	18.8064
626.639	1.71265
630.014	4.9187
633.389	7.89062
636.764	11.5928
640.139	6.62769
643.514	8.64893
646.888	12.0891
650.263	3.86743
653.638	7.98047
657.013	22.7891
660.388	15.8415
663.762	23.53
667.137	1.1875
670.512	26.5327
673.887	14.4824
677.262	17.6811
680.636	34.9497
684.011	31.4043
687.386	32.6843
690.761	29.1873
694.136	34.2234
697.511	6.75122
700.885	4.63867
704.26	8.23779
707.635	24.9541
711.01	34.0772
714.385	21.2981
717.76	29.2021
721.134	20.6895
724.509	5.98438
727.884	28.3413
731.259	20.5115
734.634	19.0388
738.008	13.5005
741.383	14.9399
744.758	22.6331
748.133	11.6489
751.508	6.80591
754.882	18.5059
758.257	21.8074
761.632	9.33667
765.007	1.62183
768.382	9.78955
771.756	3.74048
775.131	20.5662
778.506	20.5239
781.881	13.7402
785.256	4.55322
788.631	3.00195
792.005	3.1189
795.38	6.2749
798.755	25.2261
802.13	18.9226
805.505	12.6987
808.88	15.8227
812.254	18.9705
815.629	25.0789
819.004	2.44092
822.379	6.75293
825.754	26.019
829.128	9.11719
832.503	1.10059
835.878	20.8831
839.253	43.3174
842.628	15.9463
846.003	25.4719
849.377	5.61255
852.752	25.8308
856.127	22.9634
859.502	8.28857
862.877	22.8662
866.251	20.8003
869.626	28.1248
873.001	27.1077
876.376	5.15552
879.751	9.59717
883.125	9.02222
886.5	11.6055
889.875	8.9353
893.25	26.9265
896.625	4.28955
900	11.2163
903.374	36.8145
906.749	30.6406
910.124	45.1833
913.499	110.749
916.874	152.529
920.249	253.52
923.623	388.621
926.998	511.457
930.373	610.052
933.748	532.847
937.123	290.503
940.497	156.392
943.872	97.5679
947.247	90.7353
950.622	80.7478
953.997	110.638
957.371	125.581
960.746	199.103
964.121	286.924
967.496	560.572
970.871	1312.56
974.245	2426.18
977.62	4490.75
980.995	7858.03
984.37	8230.33
987.745	5895.55
991.12	2608.28
994.494	959.135
997.869	504.815
1001.24	328.537
1004.62	199.485
1007.99	153.729
1011.37	111.084
1014.74	64.1052
1018.12	25.6409
1021.49	33.2056
1024.87	12.0352
1028.24	13.2461
1031.62	21.395
1034.99	11.759
1038.37	14.7063
1041.74	7.01758
1045.12	16.915
1048.49	0.749512
1051.87	23.9407
1055.24	53.2825
1058.62	91.8713
1061.99	194.259
1065.37	312.93
1068.74	424.983
1072.12	541.553
1075.49	597.463
1078.87	469.85
1082.24	315.094
1085.62	189.899
1088.99	121.429
1092.36	83.4883
1095.74	74.4448
1099.11	35.4004
1102.49	30.7573
1105.86	2.771
1109.24	8.66284
1112.61	23.9065
1115.99	4.9812
1119.36	2.71924
1122.74	10.3369
1126.11	11.104
1129.49	17.5662
1132.86	12.8308
1136.24	41.4089
1139.61	14.8555
1142.99	20.4673
1146.36	6.66431
1149.74	12.303
1153.11	12.9138
1156.49	2.25244
1159.86	40.8054
1163.23	30.2419
1166.61	22.3782
1169.98	10.551
1173.36	8.53931
1176.73	17.1416
1180.11	7.82764
1183.48	12.1025
1186.86	0.076416
1190.23	5.09399
1193.61	8.21582
1196.98	7.34863
1200.36	12.5801
1203.73	2.86865
1207.11	21.9941
1210.48	37.4626
1213.86	24.5217
1217.23	41.1831
1220.61	31.1003
1223.98	11.6475
1227.36	15.6787
1230.73	12.6062
1234.11	18.4773
1237.48	8.46704
1240.86	3.00928
1244.23	13.0513
1247.61	18.2307
1250.98	10.0557
1254.36	7.46094
1257.73	1.25366
1261.11	22.7761
1264.48	22.0981
1267.86	16.3623
1271.23	2.41333
1274.6	26.9131
1277.98	19.0398
1281.35	9.41602
1284.73	2.66797
1288.1	19.02
1291.48	29.5584
1294.85	26.6919
1298.23	0.149414
1301.6	0.210205
