Measurement: Raman, 532 nm, unoriented, Raman Data Processed
Mineral: Pseudomalachite
Rruff sample: R050597
Ideal chemistry: Cu_5_(PO_4_)_2_(OH)_4_
Locality: Cerro Negro mine, Carrizalillo, Chile
Source: William W. Pinch
Description: Dark-green tabular crystals associated with chalcosiderite, R060007
Raman shift (cm-1)	intensity
112.328	0
115.703	0.645973
119.078	25.738
122.453	157.213
125.828	253.307
129.202	404.424
132.577	743.546
135.952	913.691
139.327	915.117
142.702	1012.6
146.077	1158.72
149.451	1048.75
152.826	848.157
156.201	805.342
159.576	883.975
162.951	968.549
166.326	850.67
169.7	800.742
173.075	931.158
176.45	1055.95
179.825	844.331
183.2	627.111
186.575	582.251
189.949	504.891
193.324	411.69
196.699	314.385
200.074	239.118
203.449	253.819
206.823	299.419
210.198	353.782
213.573	361.447
216.948	323.633
220.323	207.708
223.697	98.6659
227.072	16.0499
230.447	22.5021
233.822	29.2187
237.197	28.5278
240.572	7.27742
243.946	56.1946
247.321	119.129
250.696	150.783
254.071	219.311
257.446	279.585
260.82	326.474
264.195	321.327
267.57	240.772
270.945	146.802
274.32	82.5905
277.695	52.4587
281.07	61.5549
284.444	78.2378
287.819	113.463
291.194	152.957
294.569	202.815
297.943	254.329
301.318	279.702
304.693	237.605
308.068	167.372
311.443	99.2986
314.818	44.2473
318.192	18.6161
321.567	5.36017
324.942	4.41449
328.317	11.5201
331.692	1.19806
335.067	11.2498
338.441	45.1463
341.816	93.0066
345.191	204.144
348.566	350.244
351.941	561.616
355.315	833.566
358.69	1175.15
362.065	1556.58
365.44	1847.1
368.815	1804.9
372.19	1376.88
375.565	939.548
378.939	648.139
382.314	474.62
385.689	337.08
389.064	202.666
392.438	70.4061
395.813	0.641479
399.188	32.1824
402.563	34.942
405.938	10.0527
409.313	38.6143
412.688	96.7335
416.062	173.88
419.437	257.72
422.812	376.264
426.187	570.389
429.562	830.637
432.936	1122.06
436.311	1333.3
439.686	1289.6
443.061	1087.26
446.436	977.142
449.81	957.092
453.185	850.251
456.56	662.484
459.935	554.565
463.31	551.678
466.685	693.78
470.059	978.782
473.434	1386.85
476.809	1847.38
480.184	2116.42
483.559	1882.98
486.933	1323.51
490.308	840.883
493.683	523.309
497.058	323.6
500.433	229.166
503.808	189.648
507.183	184.685
510.557	203.295
513.932	207.412
517.307	198.202
520.682	157.086
524.057	111.201
527.431	80.6218
530.806	79.3611
534.181	91.8133
537.556	103.632
540.931	52.1994
544.306	13.3938
547.68	10.935
551.055	21.6507
554.43	23.6373
557.805	16.649
561.18	7.79932
564.554	2.72342
567.929	27.9574
571.304	54.2019
574.679	105.733
578.054	164.232
581.428	229.047
584.803	286.664
588.178	347.565
591.553	390.007
594.928	475.319
598.303	633.434
601.677	877.557
605.052	1140.94
608.427	1268.61
611.802	1105.93
615.177	785.529
618.552	529.362
621.926	364.901
625.301	268.158
628.676	202.09
632.051	152.794
635.426	106.887
638.801	82.8935
642.175	66.5609
645.55	57.5474
648.925	49.897
652.3	38.347
655.675	27.7654
659.049	14.8266
662.424	7.50719
665.799	2.13196
669.174	0.104843
672.549	4.78096
675.923	5.27026
679.298	6.54909
682.673	5.52908
686.048	1.32434
689.423	1.94014
692.798	1.17799
696.172	4.66376
699.547	0.521149
702.922	5.32816
706.297	11.5292
709.672	11.9967
713.047	13.3111
716.421	18.3107
719.796	20.0529
723.171	29.7322
726.546	38.1468
729.921	48.3626
733.295	61.0188
736.67	80.8033
740.045	106.019
743.42	123.911
746.795	137.366
750.17	131.27
753.544	106.11
756.919	86.9129
760.294	66.4094
763.669	50.5198
767.044	41.7766
770.418	37.64
773.793	34.3448
777.168	43.2707
780.543	50.3783
783.918	63.5838
787.293	83.6149
790.667	117.221
794.042	156.157
797.417	187.975
800.792	211.542
804.167	209.61
807.542	175.486
810.916	147.884
814.291	109.588
817.666	81.1566
821.041	54.744
824.416	37.8707
827.79	32.9257
831.165	19.643
834.54	6.33231
837.915	5.48723
841.29	2.17676
844.665	4.04059
848.039	1.3638
851.414	0.739868
854.789	1.07547
858.164	11.1596
861.539	23.5206
864.913	27.3284
868.288	32.5085
871.663	43.5026
875.038	47.3642
878.413	46.4593
881.788	41.8042
885.162	36.737
888.537	33.5353
891.912	29.7253
895.287	28.8101
898.662	19.713
902.037	12.9476
905.411	5.82837
908.786	3.69443
912.161	6.547
915.536	5.13522
918.911	2.64703
922.285	11.1676
925.66	16.1347
929.035	34.8369
932.41	47.3839
935.785	63.2061
939.159	76.0944
942.534	91.1426
945.909	112.987
949.284	149.96
952.659	204.273
956.034	285.21
959.409	390.723
962.783	524.453
966.158	656.649
969.533	752.214
972.908	765.042
976.283	676.998
979.657	587.632
983.032	522.955
986.407	509.912
989.782	537.191
993.157	582.209
996.532	623.248
999.906	611.923
1003.28	512.316
1006.66	362.375
1010.03	229.199
1013.41	133.78
1016.78	69.3819
1020.15	23.1145
1023.53	13.2565
1026.9	6.65921
1030.28	7.43768
1033.65	3.70814
1037.03	0.221985
1040.4	18.977
1043.78	38.4456
1047.15	73.264
1050.53	107.829
1053.9	139.122
1057.28	145.714
1060.65	122.609
1064.03	97.4739
1067.4	75.8018
1070.78	62.9787
1074.15	81.4159
1077.53	147.386
1080.9	230.702
1084.28	306.362
1087.65	283.259
1091.03	186.433
1094.4	111.18
1097.78	68.4291
1101.15	45.6269
1104.53	40.36
1107.9	28.849
1111.28	30.0293
1114.65	28.0773
1118.03	29.9725
1121.4	27.3076
1124.78	28.1594
1128.15	22.6477
1131.52	23.4267
1134.9	18.401
1138.27	15.1316
1141.65	6.4158
1145.02	2.453
1148.4	3.7654
1151.77	5.13649
1155.15	8.8029
1158.52	0.768387
1161.9	2.93282
1165.27	9.04567
1168.65	18.0146
1172.02	20.6678
1175.4	22.1087
1178.77	23.7629
1182.15	30.2503
1185.52	34.2417
1188.9	36.8024
1192.27	35.0604
1195.65	37.8184
1199.02	40.1607
1202.4	44.6374
1205.77	43.5164
1209.14	40.4278
1212.52	31.3223
1215.89	32.1091
1219.27	34.0876
1222.64	34.7207
1226.02	23.187
1229.39	25.6687
1232.77	26.6981
1236.14	22.2095
1239.52	20.289
1242.89	24.4884
1246.27	18.0213
1249.64	12.9172
1253.02	14.6343
1256.39	15.1989
1259.77	9.09326
1263.14	11.3262
1266.52	8.66063
1269.89	3.74887
1273.27	5.68793
1276.64	0.611298
1280.02	5.03097
1283.39	0.835861
1286.77	6.50079
1290.14	6.65765
1293.52	9.14432
1296.89	3.61887
1300.27	3.83546
