Measurement: Raman, 780 nm, unoriented, Raman Data Processed
Mineral: Pseudobrookite
Rruff sample: R050563
Ideal chemistry: (Fe^3+^_2_Ti)O_5_
Locality: Thomas Range, Juab County, Utah, USA
Source: Dave Bunk Minerals
Description: Black elongated prismatic crystals
Measured chemistry: (Fe^3+^_1.85_Mn^3+^_0.12_Al_0.03_)_Î£=2_Ti_1.00_O_5_
Raman shift (cm-1)	intensity
105.083	0
108.457	33.273
111.832	0.129944
115.207	7.61713
118.582	2.13092
121.957	15.6342
125.332	30.0986
128.706	36.5738
132.081	17.9302
135.456	20.6969
138.831	16.8504
142.206	1.17462
145.58	5.42108
148.955	4.01349
152.33	0.540649
155.705	0.971893
159.08	3.82681
162.454	8.39331
165.829	20.7576
169.204	27.5404
172.579	44.9791
175.954	63.8942
179.328	95.7436
182.703	116.679
186.078	152.398
189.453	172.93
192.828	190.726
196.203	193.169
199.577	189.63
202.952	175.975
206.327	174.099
209.702	177.496
213.077	183.933
216.451	187.726
219.826	182.706
223.201	159.107
226.576	114.211
229.951	71.27
233.326	35.199
236.7	15.5933
240.075	6.56661
243.45	3.05421
246.825	1.90511
250.2	0.982468
253.574	5.18893
256.949	3.56749
260.324	1.66722
263.699	0.426132
267.074	1.41614
270.449	3.68126
273.823	9.44348
277.198	18.7124
280.573	21.0908
283.948	31.8708
287.322	33.6494
290.697	41.3572
294.072	47.4096
297.447	60.4272
300.822	74.8094
304.197	88.8629
307.571	98.1808
310.946	115.242
314.321	130.375
317.696	154.037
321.071	173.562
324.445	185.315
327.82	200.85
331.195	202.2
334.57	208.186
337.945	203.784
341.32	198.101
344.694	180.864
348.069	167.139
351.444	145.825
354.819	124.596
358.194	108.017
361.568	96.328
364.943	74.2368
368.318	62.7339
371.693	58.5987
375.068	39.2729
378.442	31.0142
381.817	20.4673
385.192	13.62
388.567	15.6987
391.942	3.94539
395.317	3.58106
398.691	1.49466
402.066	3.9381
405.441	1.67441
408.816	0.886276
412.191	1.52048
415.565	0.781067
418.94	0.453949
422.315	1.06717
425.69	0.992188
429.065	0.020294
432.44	2.64297
435.814	0.426147
439.189	1.92143
442.564	0.427856
445.939	1.07895
449.314	5.0517
452.688	2.91043
456.063	4.28432
459.438	5.72121
462.813	5.15266
466.188	7.21791
469.562	5.18199
472.937	5.20645
476.312	3.6935
479.687	8.13631
483.062	3.36313
486.437	5.91106
489.811	3.13937
493.186	4.83202
496.561	2.35498
499.936	7.30893
503.311	3.75818
506.685	6.51979
510.06	3.11612
513.435	2.97012
516.81	0.272621
520.185	1.65173
523.56	4.69231
526.934	1.52743
530.309	2.27413
533.684	1.20888
537.059	5.11414
540.434	2.58588
543.808	4.65371
547.183	8.24342
550.558	13.363
553.933	11.0922
557.308	8.87803
560.683	8.21067
564.057	7.66722
567.432	4.9712
570.807	7.62626
574.182	4.7825
577.557	4.92432
580.931	5.00395
584.306	5.13245
587.681	3.42544
591.056	2.67629
594.431	4.03332
597.806	0.786957
601.18	2.51936
604.555	4.16158
607.93	3.68646
611.305	0.894455
614.68	1.87785
618.054	7.92723
621.429	7.01477
624.804	11.6672
628.179	12.3065
631.554	18.7832
634.928	27.533
638.303	35.5581
641.678	43.2198
645.053	48.9291
648.428	58.6144
651.803	62.4166
655.177	65.552
658.552	64.6358
661.927	57.8551
665.302	45.5225
668.677	42.6854
672.051	31.5206
675.426	26.9727
678.801	19.2206
682.176	15.3813
685.551	12.4898
688.926	9.62264
692.3	6.93614
695.675	4.70827
699.05	3.35492
702.425	2.85826
705.8	1.13942
709.174	4.66373
712.549	0.78656
715.924	4.46501
719.299	1.25871
722.674	0.21727
726.048	0.908096
729.423	2.58365
732.798	4.47711
736.173	2.90312
739.548	3.5489
742.923	2.59505
746.297	4.69177
749.672	3.76059
753.047	6.97975
756.422	8.78688
759.797	11.7614
763.171	11.141
766.546	11.7325
769.921	13.6159
773.296	16.1939
776.671	16.3004
780.045	15.8491
783.42	13.3235
786.795	14.7933
790.17	14.3399
793.545	16.2432
796.919	13.9783
800.294	15.0002
803.669	12.5416
807.044	12.487
810.419	9.44016
813.794	11.2374
817.168	6.34512
820.543	11.4575
823.918	10.7633
827.293	9.59954
830.668	8.56483
834.043	8.17716
837.417	7.23933
840.792	4.38917
844.167	5.96939
847.542	0.640991
850.917	3.69104
854.291	5.02915
857.666	1.49389
861.041	2.75572
864.416	3.4978
867.791	4.37205
871.165	0.18589
874.54	0.505539
877.915	4.16856
881.29	0.984604
884.665	1.3673
888.039	2.48845
891.414	1.69902
894.789	0.456123
898.164	5.88222
901.539	0.972076
904.914	0.682907
908.288	2.87115
911.663	1.82869
915.038	0.053986
918.413	3.50464
921.788	1.15404
925.163	4.63725
928.537	3.40435
931.912	5.06979
935.287	5.69305
938.662	2.32321
942.037	8.45088
945.411	2.96227
948.786	5.89143
952.161	0.61076
955.536	6.0369
958.911	1.98258
962.285	0.229733
965.66	0.889896
969.035	3.00112
972.41	1.42862
975.785	1.78172
979.159	3.39314
982.534	4.08864
985.909	6.26295
989.284	1.48115
992.659	3.00109
996.034	1.15579
999.408	1.7845
1002.78	2.65992
1006.16	1.62364
1009.53	4.0092
1012.91	3.46969
1016.28	4.26734
1019.66	3.0608
1023.03	2.07116
1026.41	0.720844
1029.78	5.41938
1033.16	1.22008
1036.53	3.98508
1039.91	4.06259
1043.28	4.81458
1046.66	4.23286
1050.03	5.16048
1053.4	3.09131
1056.78	6.79679
1060.15	3.15755
1063.53	2.96774
1066.9	4.46648
1070.28	2.39507
1073.65	2.21532
1077.03	4.6711
1080.4	3.23419
1083.78	0.096062
1087.15	4.00757
1090.53	1.52211
1093.9	4.52326
1097.28	1.99334
1100.65	4.20589
1104.03	0.249794
1107.4	5.88126
1110.78	4.70924
1114.15	3.7266
1117.53	1.28498
1120.9	4.82841
1124.28	1.07646
1127.65	4.39562
1131.03	0.546014
1134.4	4.59174
1137.78	1.86712
1141.15	7.67246
1144.53	4.57758
1147.9	6.23857
1151.28	1.64151
1154.65	0.722172
1158.03	4.05154
1161.4	3.38167
1164.77	1.43171
1168.15	3.12288
1171.52	3.66113
1174.9	2.19951
1178.27	2.23501
1181.65	1.94389
1185.02	4.57825
1188.4	4.82374
1191.77	6.12244
1195.15	5.81753
1198.52	2.47818
1201.9	3.02159
1205.27	3.63265
1208.65	3.1666
1212.02	2.55145
1215.4	0.805
1218.77	3.71945
1222.15	2.16324
1225.52	5.10783
1228.9	0.812695
1232.27	3.7009
1235.64	5.12337
1239.02	1.56394
1242.39	5.00831
1245.77	6.08134
1249.14	3.8962
1252.52	1.5726
1255.89	7.77704
1259.27	3.16149
1262.64	4.98965
1266.02	0.039303
1269.39	2.95464
1272.77	1.08307
1276.14	1.53343
1279.52	1.79458
1282.89	2.99279
1286.27	0
