Measurement: Raman, 532 nm, unoriented, Raman Data Processed
Mineral: Pseudobrookite
Rruff sample: R050563
Ideal chemistry: (Fe^3+^_2_Ti)O_5_
Locality: Thomas Range, Juab County, Utah, USA
Source: Dave Bunk Minerals
Description: Black elongated prismatic crystals
Measured chemistry: (Fe^3+^_1.85_Mn^3+^_0.12_Al_0.03_)_Î£=2_Ti_1.00_O_5_
Raman shift (cm-1)	intensity
152.826	0
155.719	3.90649
158.612	3.83147
161.504	3.98256
164.397	9.87997
167.29	7.18892
170.183	23.7276
173.075	21.2858
175.968	30.1921
178.861	45.6514
181.753	63.9221
184.646	90.5378
187.539	107.42
190.431	134.3
193.324	168.208
196.217	193.464
199.109	210.451
202.002	196.081
204.895	175.253
207.788	161.926
210.68	165.173
213.573	171.579
216.466	196.135
219.358	224.423
222.251	251.673
225.144	241.994
228.036	180.941
230.929	121.45
233.822	63.9879
236.715	36.2715
239.607	16.4882
242.5	2.84094
245.393	1.37027
248.286	0.223038
251.178	1.80469
254.071	2.33453
256.964	0.464813
259.856	3.70868
262.749	3.07861
265.642	3.05386
268.534	1.20389
271.427	3.1965
274.32	3.74768
277.212	8.2188
280.105	8.86348
282.998	19.9496
285.891	17.3877
288.783	20.6531
291.676	20.9801
294.569	27.6461
297.461	31.2283
300.354	35.9686
303.247	41.0445
306.14	41.9049
309.032	53.5551
311.925	58.2253
314.818	66.5436
317.71	72.8429
320.603	83.3247
323.496	89.4833
326.389	99.3854
329.281	106.669
332.174	117.301
335.067	122.319
337.959	117.881
340.852	118.844
343.745	114.596
346.637	111.373
349.53	107.534
352.423	92.2002
355.315	78.2648
358.208	71.9034
361.101	68.3017
363.994	53.2542
366.886	47.798
369.779	36.4708
372.672	28.8727
375.565	24.9979
378.457	19.3516
381.35	12.2914
384.243	9.70636
387.135	12.055
390.028	5.47919
392.921	7.39191
395.813	2.94131
398.706	2.55191
401.599	6.29446
404.491	0.094208
407.384	3.26129
410.277	5.04275
413.17	5.11289
416.062	7.42464
418.955	12.6801
421.848	11.6556
424.74	13.1034
427.633	12.0292
430.526	13.348
433.418	12.1286
436.311	9.86894
439.204	5.48789
442.097	6.16885
444.989	1.34653
447.882	3.5231
450.775	0.76062
453.667	2.28485
456.56	3.04944
459.453	1.83167
462.346	0.354324
465.238	6.81325
468.131	0.998032
471.024	1.48315
473.916	3.41379
476.809	1.87833
479.702	3.63066
482.594	3.22543
485.487	6.75798
488.38	10.1526
491.273	7.4514
494.165	8.83227
497.058	12.3973
499.951	13.8044
502.843	12.6563
505.736	13.3727
508.629	12.5109
511.522	11.6809
514.414	11.7568
517.307	9.77947
520.2	11.7526
523.092	12.3665
525.985	11.7936
528.878	11.0143
531.77	9.88403
534.663	7.56837
537.556	4.29831
540.448	4.46069
543.341	7.14725
546.234	1.42242
549.127	5.34349
552.019	7.93028
554.912	6.92274
557.805	10.3595
560.697	9.78426
563.59	11.0106
566.483	14.7184
569.376	16.0843
572.268	13.9487
575.161	14.0156
578.054	14.4019
580.946	13.0785
583.839	10.221
586.732	7.52949
589.625	14.0016
592.517	12.9435
595.41	12.0833
598.303	4.37523
601.195	7.78937
604.088	1.20026
606.981	5.36185
609.874	1.34659
612.766	2.38623
615.659	1.8234
618.552	1.44899
621.444	1.88033
624.337	1.65591
627.23	1.64563
630.122	2.92058
633.015	5.24736
635.908	17.0799
638.801	29.3189
641.693	41.0299
644.586	55.3548
647.479	71.7605
650.371	82.1643
653.264	99.3224
656.157	100.143
659.049	101.336
661.942	94.0493
664.835	84.9144
667.727	64.7353
670.62	55.061
673.513	38.1346
676.406	30.1034
679.298	20.0602
682.191	16.4327
685.084	8.52838
687.976	4.47388
690.869	5.17523
693.762	0.335205
696.654	0.549805
699.547	2.82779
702.44	0.804779
705.333	1.13367
708.225	0.444641
711.118	2.12976
714.011	1.08438
716.904	1.15836
719.796	4.8439
722.689	5.09952
725.582	2.37003
728.474	4.66534
731.367	3.72064
734.26	9.16263
737.152	11.0646
740.045	5.24997
742.938	10.8442
745.831	12.4611
748.723	14.3363
751.616	16.0665
754.509	15.2476
757.401	18.8849
760.294	22.3737
763.187	26.9888
766.08	25.8617
768.972	31.5385
771.865	35.7332
774.758	35.0162
777.65	34.9225
780.543	39.6596
783.436	40.522
786.328	41.5851
789.221	41.1859
792.114	38.8604
795.006	39.0471
797.899	40.0112
800.792	37.4252
803.685	37.1911
806.577	35.5732
809.47	36.0699
812.363	31.3359
815.255	34.3721
818.148	35.1498
821.041	30.3963
823.933	31.1935
826.826	32.8637
829.719	30.2144
832.612	24.0314
835.504	23.715
838.397	18.674
841.29	18.7252
844.182	11.7808
847.075	9.01802
849.968	7.71632
852.861	2.88638
855.753	2.14886
858.646	2.37624
861.539	0.070801
864.431	0.040604
867.324	1.44605
870.217	0.764404
873.11	0.914703
876.002	2.77226
878.895	1.52667
881.788	1.12126
884.68	3.04558
887.573	3.95697
890.466	3.99118
893.358	7.32492
896.251	7.02263
899.144	8.48456
902.037	6.21846
904.929	11.9104
907.822	7.89214
910.715	8.6394
913.607	10.9326
916.5	15.7538
919.393	12.9362
922.285	11.3539
925.178	11.7973
928.071	9.95822
930.964	10.688
933.856	11.1122
936.749	12.6106
939.642	9.29231
942.534	10.114
945.427	10.0647
948.32	8.74383
951.212	7.58855
954.105	5.30297
956.998	9.7434
959.891	2.63349
962.783	7.82996
965.676	6.42746
968.569	2.83196
971.461	4.48997
974.354	1.20218
977.247	6.18221
980.139	1.72534
983.032	3.12467
985.925	3.93668
988.818	2.74723
991.71	1.90952
994.603	6.70435
997.496	2.25966
1000.39	0.3703
1003.28	0.530952
1006.17	1.75742
1009.07	0.786499
1011.96	1.06155
1014.85	1.22928
1017.75	2.42352
1020.64	4.68767
1023.53	1.27162
1026.42	2.49311
1029.32	3.03462
1032.21	2.25143
1035.1	1.09055
1037.99	1.30594
1040.89	1.82488
1043.78	3.4537
1046.67	4.64839
1049.56	3.38861
1052.46	3.18901
1055.35	4.2667
1058.24	1.60017
1061.13	4.99713
1064.03	0.385956
1066.92	5.73364
1069.81	2.10444
1072.71	1.09329
1075.6	0.808792
1078.49	1.88312
1081.38	2.65414
1084.28	2.68118
1087.17	0.784195
1090.06	0.625771
1092.95	1.66243
1095.85	1.20065
1098.74	0.826454
1101.63	1.83696
1104.53	0.953339
1107.42	0.741058
1110.31	1.15128
1113.2	2.86489
1116.1	1.83716
1118.99	5.80198
1121.88	3.61019
1124.78	6.03019
1127.67	2.90572
1130.56	3.77995
1133.45	0.84156
1136.35	1.72878
1139.24	4.98165
1142.13	1.98869
1145.02	2.06274
1147.92	6.80083
1150.81	4.17732
1153.7	7.23167
1156.59	3.41691
1159.49	2.40532
1162.38	2.96637
1165.27	0.623863
1168.16	2.7967
1171.06	3.78757
1173.95	1.04819
1176.84	8.72088
1179.74	0.798035
1182.63	3.44581
1185.52	6.69533
1188.41	5.14786
1191.31	4.02725
1194.2	4.26797
1197.09	4.08227
1199.98	1.42101
1202.88	2.84249
1205.77	3.89799
1208.66	4.33652
1211.56	4.09496
1214.45	2.38454
1217.34	4.06132
1220.23	3.79786
1223.13	2.7949
1226.02	2.57736
1228.91	2.76528
1231.81	1.64545
1234.7	0.279671
1237.59	1.15404
1240.48	3.86519
1243.38	2.63364
1246.27	0.952698
1249.16	1.26135
1252.05	3.16294
1254.95	0.06826
1257.84	4.71681
1260.73	2.77176
1263.62	4.46983
1266.52	6.56089
1269.41	4.37542
1272.3	2.52118
1275.19	4.74825
1278.09	2.95359
1280.98	1.32047
1283.87	2.96851
1286.77	2.0377
1289.66	1.26461
1292.55	1.67757
1295.44	2.35552
1298.34	3.92224
1301.23	4.7977
