Measurement: Raman, 532 nm, unoriented, Raman Data Processed
Mineral: Pseudograndreefite
Rruff sample: R100006
Ideal chemistry: Pb_6_(SO_4_)F_10_
Locality: Grand Reef mine, Klondyke, Aravaipa District, Graham County, Arizona, USA
Source: Natural History Museum of Los Angeles County
Description: Colorless crystal fragments from the type specimen, associated with laurelite R100035 and grandreefite R100012. Photo of type specimen is courtesy of LACMNH.
Raman shift (cm-1)	intensity
122.794	0
126.169	24.0967
129.544	0.766289
132.918	1.80959
136.293	94.1925
139.668	214.642
143.043	285.192
146.418	454.191
149.792	662.431
153.167	814.408
156.542	899.383
159.917	962.551
163.292	1069.65
166.667	1089.44
170.041	1014.77
173.416	921.141
176.791	839.395
180.166	764.092
183.541	674.82
186.916	580.26
190.29	498.986
193.665	437.707
197.04	388.003
200.415	340.952
203.79	305.021
207.164	267.348
210.539	244.901
213.914	230.466
217.289	222.124
220.664	217.005
224.038	226.899
227.413	240.374
230.788	267.837
234.163	307.986
237.538	343.406
240.913	394.03
244.287	439.457
247.662	481.337
251.037	510.741
254.412	518.435
257.787	498.096
261.161	444.709
264.536	377.351
267.911	300.808
271.286	232.777
274.661	170.637
278.036	114.296
281.41	73.2749
284.785	38.6548
288.16	20.2482
291.535	1.03894
294.91	11.2189
298.284	18.5751
301.659	20.7228
305.034	1.51935
308.409	0.050476
311.784	9.74262
315.159	6.71936
318.533	4.30481
321.908	10.637
325.283	13.9795
328.658	19.2846
332.033	21.1157
335.408	26.2451
338.782	27.5577
342.157	27.0281
345.532	30.4995
348.907	27.6492
352.281	27.7561
355.656	29.8779
359.031	27.3248
362.406	25.9746
365.781	20.8796
369.156	19.6107
372.53	13.0086
375.905	21.8656
379.28	12.3574
382.655	15.5363
386.03	16.4186
389.404	17.7669
392.779	14.0882
396.154	19.5856
399.529	19.1808
402.904	21.2696
406.279	22.5004
409.653	20.2574
413.028	25.5633
416.403	25.3987
419.778	36.1789
423.153	49.7128
426.527	63.1838
429.902	95.55
433.277	132.08
436.652	172.601
440.027	192.078
443.402	182.926
446.776	164.751
450.151	144.197
453.526	118.363
456.901	84.5527
460.276	56.7628
463.651	36.3989
467.025	25.3318
470.4	16.7268
473.775	9.19013
477.15	2.29987
480.525	2.0611
483.899	1.07599
487.274	0.744873
490.649	2.28235
494.024	0.916443
497.399	1.12714
500.774	0.217773
504.148	2.09998
507.523	0.320129
510.898	0.897949
514.273	2.07983
517.648	2.67151
521.022	7.12347
524.397	10.4368
527.772	9.74817
531.147	8.95233
534.522	9.78528
537.896	9.71521
541.271	8.90515
544.646	11.3942
548.021	12.2889
551.396	12.7979
554.771	10.6587
558.145	14.161
561.52	13.1779
564.895	10.6338
568.27	8.5578
571.645	7.76184
575.019	5.95227
578.394	0.441345
581.769	3.93079
585.144	7.69293
588.519	15.4771
591.894	25.4413
595.268	32.5198
598.643	42.0856
602.018	64.2861
605.393	80.0828
608.768	79.557
612.142	61.8464
615.517	52.5737
618.892	45.7741
622.267	53.1935
625.642	47.3615
629.016	22.0294
632.391	5.74194
635.766	5.1355
639.141	2.23688
642.516	0.513977
645.891	1.27008
649.265	1.44391
652.64	2.54657
656.015	1.7503
659.39	3.72394
662.765	1.62585
666.139	3.67181
669.514	0.995544
672.889	2.69867
676.264	1.93475
679.639	2.97949
683.014	4.73932
686.388	7.96942
689.763	14.7753
693.138	13.5158
696.513	29.9083
699.888	51.6625
703.263	72.2112
706.637	86.9465
710.012	151.818
713.387	238.827
716.762	247.474
720.136	131.966
723.511	56.6304
726.886	29.988
730.261	16.6698
733.636	14.6011
737.011	11.1268
740.385	7.86084
743.76	5.18396
747.135	5.23285
750.51	5.32752
753.885	4.20233
757.26	4.57007
760.634	2.41022
764.009	4.20654
767.384	1.5871
770.759	0.993347
774.134	1.33765
777.508	4.13434
780.883	0.766357
784.258	1.0838
787.633	1.26044
791.008	6.21655
794.383	6.34125
797.757	2.32825
801.132	2.61859
804.507	0.54425
807.882	0.75647
811.257	1.24286
814.631	6.10944
818.006	13.8232
821.381	15.2502
824.756	30.0815
828.131	26.5789
831.505	9.27429
834.88	1.79059
838.255	3.38117
841.63	2.22943
845.005	0.642944
848.38	2.31805
851.754	3.65643
855.129	4.35065
858.504	4.90973
861.879	6.84882
865.254	2.66382
868.629	3.50696
872.003	9.84515
875.378	10.368
878.753	5.27185
882.128	7.55304
885.503	8.0755
888.877	8.82172
892.252	9.26337
895.627	8.0592
899.002	6.99884
902.377	6.99902
905.751	6.7962
909.126	6.72827
912.501	6.64832
915.876	5.11633
919.251	8.45941
922.625	4.33624
926	2.23389
929.375	5.62567
932.75	1.61682
936.125	1.03149
939.5	0.728333
942.875	0.262634
946.249	1.09882
949.624	5.00482
952.999	10.4103
956.374	15.1074
959.749	30.9434
963.123	62.7476
966.498	118.25
969.873	247.339
973.248	508.766
976.623	913.047
979.997	1502.78
983.372	1844.08
986.747	1367.52
990.122	643.688
993.497	246.987
996.871	104.967
1000.25	45.7808
1003.62	20.911
1007	12.3682
1010.37	2.43115
1013.75	3.75348
1017.12	6.48675
1020.5	1.85248
1023.87	1.59332
1027.24	9.26337
1030.62	45.4336
1033.99	85.6494
1037.37	237.709
1040.74	711.949
1044.12	1441.17
1047.49	2763.45
1050.87	4646.69
1054.24	3219.61
1057.62	636.52
1060.99	165.398
1064.37	88.5961
1067.74	73.1007
1071.12	71.234
1074.49	82.5416
1077.87	94.5209
1081.24	107.475
1084.62	114.873
1087.99	124.148
1091.37	136.764
1094.74	148.176
1098.12	143.186
1101.49	149.083
1104.87	147.771
1108.24	147.701
1111.62	139.191
1114.99	128.566
1118.37	108.953
1121.74	92.8082
1125.12	73.8892
1128.49	52.7115
1131.86	42.0092
1135.24	30.8757
1138.61	25.0607
1141.99	14.7326
1145.36	10.1914
1148.74	7.10046
1152.11	5.38593
1155.49	1.69586
1158.86	4.07172
1162.24	1.91168
1165.61	4.20929
1168.99	2.05206
1172.36	0.349915
1175.74	0.759766
1179.11	1.31433
1182.49	2.29193
1185.86	0.004028
1189.24	0.890137
1192.61	1.53766
1195.99	7.96973
1199.36	5.31024
1202.73	4.85632
1206.11	11.4273
1209.48	14.5355
1212.86	14.6286
1216.23	13.0268
1219.61	13.504
1222.98	11.4556
1226.36	9.51556
1229.73	9.63684
1233.11	11.9597
1236.48	9.63666
1239.86	7.30926
1243.23	8.84521
1246.61	7.04028
1249.98	10.7472
1253.36	6.38226
1256.73	7.46417
1260.11	3.95923
1263.48	5.10992
1266.86	3.20532
1270.23	6.5022
1273.61	3.57513
1276.98	3.9787
1280.36	4.75342
1283.73	1.25092
1287.11	2.06012
1290.48	0.096802
1293.86	2.09241
1297.23	2.7525
1300.61	3.84283
