Measurement: Raman, 532 nm, unoriented, Raman Data Processed
Mineral: Pseudoboleite
Rruff sample: R130548
Ideal chemistry: Pb_31_Cu_24_Cl_62_(OH)_48_
Locality: Sierra Gorda, Antofagasta, Chile
Source: Bob Jenkins
Description: Indigo blue cubic or short prismatic crystals, associated with colorless quartz
Raman shift (cm-1)	intensity
167.947	0
170.839	5.73097
173.732	2.91548
176.625	13.5807
179.518	56.9043
182.41	122.679
185.303	174.197
188.196	214.383
191.088	251.347
193.981	289.782
196.874	312.471
199.766	335.707
202.659	358.856
205.552	373.602
208.445	379.272
211.337	377.471
214.23	372.238
217.123	373.916
220.015	372.277
222.908	369.757
225.801	361.781
228.693	335.169
231.586	301.25
234.479	269.286
237.371	241.672
240.264	222.482
243.157	201.875
246.05	179.754
248.942	163.188
251.835	146.75
254.728	132.908
257.62	117.006
260.513	95.7484
263.406	74.4379
266.298	57.2717
269.191	42.2015
272.084	31.2168
274.977	25.1962
277.869	17.7169
280.762	14.7364
283.655	12.4251
286.547	12.0461
289.44	17.732
292.333	25.701
295.226	36.1818
298.118	52.9053
301.011	62.6975
303.904	66.0753
306.796	49.876
309.689	26.8599
312.582	14.0909
315.474	3.6331
318.367	3.54895
321.26	6.38757
324.152	8.9182
327.045	6.62663
329.938	3.60019
332.831	1.89687
335.723	2.67197
338.616	8.82986
341.509	16.4425
344.401	23.4871
347.294	31.2517
350.187	40.5362
353.079	48.8218
355.972	60.0855
358.865	70.6582
361.758	76.8302
364.65	74.6973
367.543	66.0812
370.436	51.2912
373.328	41.4004
376.221	32.9896
379.114	27.0831
382.007	19.9797
384.899	13.9884
387.792	8.44249
390.685	4.20972
393.577	2.11104
396.47	0.440979
399.363	0.98233
402.255	0.277069
405.148	1.32521
408.041	0.478973
410.933	2.54994
413.826	4.24931
416.719	2.17282
419.612	2.12871
422.504	2.60626
425.397	3.27513
428.29	4.52026
431.182	5.90695
434.075	8.84361
436.968	11.1278
439.861	17.5253
442.753	24.1352
445.646	33.4109
448.539	46.804
451.431	61.2674
454.324	77.5532
457.217	94.0489
460.109	101.586
463.002	95.1952
465.895	75.8331
468.788	56.1845
471.68	42.5727
474.573	34.2806
477.466	31.7517
480.358	29.7965
483.251	29.9955
486.144	29.7246
489.036	30.8752
491.929	29.3692
494.822	28.9323
497.714	27.1168
500.607	26.2715
503.5	26.1014
506.393	21.9415
509.285	22.7311
512.178	20.4233
515.071	19.5771
517.963	17.0242
520.856	12.6037
523.749	13.3568
526.641	10.0673
529.534	6.4696
532.427	5.19814
535.32	4.92908
538.212	3.10591
541.105	1.40031
543.998	1.20875
546.89	0.575851
549.783	0.150635
552.676	0.868286
555.568	0.879639
558.461	0.192184
561.354	0.110046
564.247	0.090393
567.139	0.40522
570.032	0.290939
572.925	1.08672
575.817	0.372284
578.71	0.326622
581.603	0.53009
584.495	0.264626
587.388	1.21494
590.281	1.36575
593.174	0.904861
596.066	1.83234
598.959	0.636719
601.852	0.63765
604.744	0.44429
607.637	2.05489
610.53	0.405823
613.423	0.959694
616.315	0.377914
619.208	1.60957
622.101	0.660484
624.993	1.25562
627.886	2.17853
630.779	0.296913
633.671	0.382271
636.564	0.288429
639.457	0.658028
642.35	0.039436
645.242	0.235573
648.135	1.0746
651.028	3.1376
653.92	2.8298
656.813	3.46883
659.706	3.04142
662.598	4.01365
665.491	5.77324
668.384	6.5945
671.277	8.28542
674.169	8.85358
677.062	10.807
679.955	11.3992
682.847	12.9055
685.74	14.3008
688.633	16.0112
691.525	18.4088
694.418	19.4941
697.311	21.503
700.203	21.74
703.096	22.346
705.989	22.3253
708.882	22.2813
711.774	19.0331
714.667	17.4238
717.56	15.3467
720.452	12.6384
723.345	11.9232
726.238	11.4365
729.13	10.4898
732.023	10.6763
734.916	10.719
737.809	9.64477
740.701	11.5402
743.594	11.7419
746.487	12.8765
749.379	11.9332
752.272	12.393
755.165	10.7408
758.058	9.11086
760.95	8.11613
763.843	6.19391
766.736	5.93553
769.628	4.48976
772.521	2.45373
775.414	2.91747
778.306	1.0849
781.199	0.215569
784.092	0.668381
786.985	0.998985
789.877	0.488052
792.77	0.438354
795.663	1.34974
798.555	1.70432
801.448	2.82728
804.341	3.0512
807.233	4.96067
810.126	5.25953
813.019	7.4138
815.912	6.25546
818.804	7.3419
821.697	8.30999
824.59	7.66985
827.482	8.93961
830.375	8.82894
833.268	7.21912
836.16	8.7855
839.053	8.46501
841.946	9.11999
844.838	8.31331
847.731	6.18951
850.624	4.78773
853.517	5.66757
856.409	4.89127
859.302	3.17369
862.195	3.25266
865.087	3.48644
867.98	2.52024
870.873	2.67353
873.765	1.15067
876.658	1.26063
879.551	1.10852
882.444	0.004448
885.336	0.335365
888.229	0.202126
891.122	0.638374
894.014	0.114395
896.907	0.335175
899.8	0.366081
902.692	1.65901
905.585	1.29564
908.478	1.66582
911.371	1.61485
914.263	1.72145
917.156	4.4178
920.049	5.21426
922.941	5.80922
925.834	5.0022
928.727	5.16707
931.62	3.50157
934.512	3.02941
937.405	2.35332
940.298	2.40664
943.19	0.717026
946.083	1.13051
948.976	1.8534
951.868	0.391319
954.761	0.188248
957.654	0.533485
960.547	0.089058
963.439	0.703629
966.332	0.027634
969.225	1.12595
972.117	0.003738
975.01	2.91493
977.903	1.23325
980.795	0.161522
983.688	2.24387
986.581	2.88354
989.473	1.99036
992.366	2.71111
995.259	1.99146
998.152	2.70439
1001.04	3.30885
1003.94	3.78497
1006.83	3.98804
1009.72	6.1242
1012.62	3.37973
1015.51	7.45312
1018.4	7.0704
1021.29	7.69099
1024.19	6.57681
1027.08	4.08051
1029.97	4.40114
1032.86	3.57601
1035.76	5.88609
1038.65	5.69321
1041.54	10.0828
1044.43	11.9883
1047.33	12.844
1050.22	7.88635
1053.11	4.63733
1056.01	2.41071
1058.9	1.69711
1061.79	0.776581
1064.68	0.870468
1067.58	0.480942
1070.47	0.048378
1073.36	0.174652
1076.26	0.513458
1079.15	0.63652
1082.04	0.091164
1084.93	1.58162
1087.83	0.104576
1090.72	2.00309
1093.61	1.63606
1096.5	1.68928
1099.4	0.457397
1102.29	0.847565
1105.18	2.07303
1108.07	0.950386
1110.97	0.853027
1113.86	0.440041
1116.75	0.817123
1119.64	0.296227
1122.54	0.359482
1125.43	1.88567
1128.32	1.0789
1131.22	0.889626
1134.11	2.40588
1137	0.743492
1139.89	1.23938
1142.79	0.168694
1145.68	1.55809
1148.57	0.789993
1151.46	0.68737
1154.36	1.29246
1157.25	1.07947
1160.14	0.368561
1163.04	1.38377
1165.93	0.547119
1168.82	2.0451
1171.71	1.76402
1174.61	1.26856
1177.5	1.24571
1180.39	1.97759
1183.28	1.05233
1186.18	0.680504
1189.07	0.249969
1191.96	0.193756
1194.86	1.05977
1197.75	0.990883
1200.64	0.5327
1203.53	1.61855
1206.43	0.293739
1209.32	1.42843
1212.21	0.818741
1215.1	1.20036
1218	0.090988
1220.89	0.199493
1223.78	1.3093
1226.67	1.01934
1229.57	0.510597
1232.46	3.43473
1235.35	5.19302
1238.25	0.75235
1241.14	0.107552
1244.03	1.43205
1246.92	0.736389
1249.82	1.3974
1252.71	0.514992
1255.6	1.73148
1258.49	0.632118
1261.39	0.158104
1264.28	5.59982
1267.17	0.656883
1270.07	0.970604
1272.96	0.925629
1275.85	0.962868
1278.74	0.925102
1281.64	0.752762
1284.53	1.5162
1287.42	1.18041
1290.31	1.28413
1293.21	1.01727
1296.1	1.43179
1298.99	0.995514
1301.88	0
