Measurement: Raman, 780 nm, unoriented, Raman Data Processed
Mineral: Pseudoboleite
Rruff sample: R130548
Ideal chemistry: Pb_31_Cu_24_Cl_62_(OH)_48_
Locality: Sierra Gorda, Antofagasta, Chile
Source: Bob Jenkins
Description: Indigo blue cubic or short prismatic crystals, associated with colorless quartz
Raman shift (cm-1)	intensity
91.1996	0
94.5744	3.57916
97.9492	2.59614
101.324	8.67305
104.699	16.6335
108.074	22.9216
111.448	23.5212
114.823	25.6921
118.198	25.3508
121.573	18.8806
124.948	13.9496
128.322	15.9882
131.697	21.3082
135.072	23.0833
138.447	25.5229
141.822	30.4645
145.197	35.0248
148.571	33.8465
151.946	28.3945
155.321	23.3419
158.696	18.787
162.071	13.1433
165.446	9.6562
168.82	7.10819
172.195	6.33006
175.57	4.36075
178.945	3.70537
182.32	3.46309
185.694	1.34927
189.069	0.582859
192.444	0.521984
195.819	0.320118
199.194	0.928425
202.569	0.036224
205.943	0.435902
209.318	0.81881
212.693	1.55538
216.068	2.97252
219.442	5.11426
222.817	6.23423
226.192	6.53442
229.567	6.79082
232.942	6.83341
236.317	6.77189
239.691	6.59575
243.066	5.70397
246.441	5.57801
249.816	4.61314
253.191	3.97437
256.565	3.74862
259.94	2.89499
263.315	1.57447
266.69	1.07798
270.065	0.441065
273.44	0.004711
276.814	0.571152
280.189	0.259298
283.564	0.694994
286.939	0.688265
290.314	1.27953
293.688	1.7671
297.063	2.57501
300.438	2.85424
303.813	2.9273
307.188	2.87563
310.562	1.97149
313.937	1.03425
317.312	0.705519
320.687	1.2429
324.062	0.745719
327.437	0.873768
330.811	0.725415
334.186	0.311541
337.561	0.446484
340.936	0.449498
344.311	1.12106
347.685	1.33629
351.06	1.61492
354.435	2.1748
357.81	2.72013
361.185	3.04788
364.56	3.04546
367.934	2.63117
371.309	1.88243
374.684	1.78311
378.059	1.69339
381.434	1.22672
384.808	1.39327
388.183	0.462228
391.558	0.43452
394.933	0.156289
398.308	0.26662
401.683	0.057344
405.057	0.349707
408.432	0.074568
411.807	0.14669
415.182	0.138264
418.557	0.109312
421.931	0.14128
425.306	0.244959
428.681	0.233688
432.056	0.344721
435.431	0.60068
438.805	0.342413
442.18	0.739543
445.555	1.50318
448.93	2.34348
452.305	3.17137
455.68	4.10151
459.054	3.69163
462.429	3.69349
465.804	2.5251
469.179	1.91586
472.554	0.888522
475.928	1.05411
479.303	1.21404
482.678	0.886419
486.053	1.06101
489.428	1.06124
492.803	1.49844
496.177	0.42455
499.552	0.779888
502.927	1.12126
506.302	0.475174
509.677	0.916559
513.051	0.217719
516.426	0.493133
519.801	0.541891
523.176	0.28069
526.551	0.294031
529.926	0.312026
533.3	0.927625
536.675	0.183327
540.05	0.075362
543.425	0.245916
546.799	0.06567
550.174	0.108341
553.549	0.628571
556.924	0.597964
560.299	0.36096
563.674	0.647323
567.048	0.588179
570.423	0.318099
573.798	0.650768
577.173	0.259541
580.548	0.649718
583.923	1.05877
587.297	0.847708
590.672	0.325105
594.047	0.694959
597.422	0.329142
600.797	0.071602
604.171	0.580207
607.546	0.227826
610.921	0.711378
614.296	0.131804
617.671	0.480125
621.045	0.719136
624.42	0.018298
627.795	0.489219
631.17	0.063499
634.545	0.240338
637.919	0.273096
641.294	0.269742
644.669	0.448154
648.044	0.363499
651.419	0.619247
654.794	0.742894
658.168	0.519969
661.543	0.329252
664.918	0.128685
668.293	0.446834
671.668	0.782196
675.043	0.490019
678.417	0.698585
681.792	0.583101
685.167	0.377744
688.542	0.504604
691.917	0.36909
695.291	0.270656
698.666	0.528577
702.041	0.613204
705.416	0.178633
708.791	0.359334
712.165	0.465422
715.54	0.251337
718.915	0.097466
722.29	0.321654
725.665	0.08784
729.039	0.177574
732.414	0.283899
735.789	0.41743
739.164	0.556052
742.539	0.376499
745.914	0.588037
749.288	0.625128
752.663	0.366488
756.038	0.624638
759.413	0.107924
762.788	0.782709
766.163	0.2778
769.537	0.291317
772.912	0.63164
776.287	0.189367
779.662	0.265037
783.037	0.483465
786.411	0.206846
789.786	0.36949
793.161	0.466369
796.536	0.091867
799.911	0.091023
803.285	0.154106
806.66	0.212081
810.035	0.112549
813.41	0.313096
816.785	0.908533
820.159	0.294691
823.534	0.225257
826.909	0.551071
830.284	0.450313
833.659	0.389562
837.034	0.24718
840.408	0.386185
843.783	0.025824
847.158	0.482189
850.533	0.575424
853.908	0.035892
857.283	0.13795
860.657	0.03827
864.032	0.079192
867.407	0.323694
870.782	0.14068
874.157	0.247518
877.531	0.58747
880.906	0.236311
884.281	0.489877
887.656	0.231139
891.031	0.608109
894.405	0.808409
897.78	0.072419
901.155	0.410373
904.53	0.39394
907.905	0.388468
911.279	0.378026
914.654	0.283019
918.029	0.694063
921.404	0.193332
924.779	0.207655
928.154	0.328673
931.528	0.038898
934.903	0.323177
938.278	0.092515
941.653	0.595688
945.028	0.675859
948.403	0.457145
951.777	0.043733
955.152	0.118591
958.527	0.292755
961.902	0.001402
965.277	0.463983
968.651	0.648025
972.026	0.385313
975.401	1.91638
978.776	0.430593
982.151	0.35749
985.525	0.514677
988.9	0.459235
992.275	0.29037
995.65	0.759389
999.025	0.199313
1002.4	0.116066
1005.77	0.304042
1009.15	0.809324
1012.52	0.222243
1015.9	0.387727
1019.27	0.334306
1022.65	0.339359
1026.02	0.040411
1029.4	0.018492
1032.77	0.174841
1036.15	0.406711
1039.52	0.339928
1042.9	0.920284
1046.27	0.64025
1049.65	0.700858
1053.02	0.602044
1056.4	0.843018
1059.77	0.184179
1063.15	0.094427
1066.52	0.743112
1069.9	0.04915
1073.27	0.327681
1076.64	0.714589
1080.02	0.774418
1083.39	0.778359
1086.77	0.434873
1090.14	0.031954
1093.52	0.508489
1096.89	0.94448
1100.27	0.030254
1103.64	0.747715
1107.02	0.383681
1110.39	0.479362
1113.77	0.322834
1117.14	0.455699
1120.52	0.687193
1123.89	0.134717
1127.27	0.40709
1130.64	0.438967
1134.02	0.406291
1137.39	0.773755
1140.77	0.40519
1144.14	0.730125
1147.52	0.338691
1150.89	0.391356
1154.27	0.571627
1157.64	0.493229
1161.02	0.602641
1164.39	0.590791
1167.77	0.824464
1171.14	0.496173
1174.52	0.608233
1177.89	0.403064
1181.27	0.688325
1184.64	0.638204
1188.01	0.750784
1191.39	0.231437
1194.76	0.343843
1198.14	0.647116
1201.51	0.569414
1204.89	0.252705
1208.26	0.258669
1211.64	0.431335
1215.01	0.280415
1218.39	0.156061
1221.76	0.82357
1225.14	0.175138
1228.51	0.496401
1231.89	0.161657
1235.26	0.078381
1238.64	0.601461
1242.01	0.259243
1245.39	0.348743
1248.76	0.023558
1252.14	0.247499
1255.51	0.717268
1258.88	0.232594
1262.26	0.1022
1265.63	0.704731
1269.01	0.627062
1272.38	0.688454
1275.76	0.679628
1279.13	0.408913
1282.51	0.081444
