Measurement: Raman, 780 nm, unoriented, Raman Data Processed
Mineral: Pseudograndreefite
Rruff sample: R100006
Ideal chemistry: Pb_6_(SO_4_)F_10_
Locality: Grand Reef mine, Klondyke, Aravaipa District, Graham County, Arizona, USA
Source: Natural History Museum of Los Angeles County
Description: Colorless crystal fragments from the type specimen, associated with laurelite R100035 and grandreefite R100012. Photo of type specimen is courtesy of LACMNH.
Raman shift (cm-1)	intensity
92.4974	0
95.8722	103.689
99.2471	39.8203
102.622	4.8186
105.997	26.0137
109.371	63.9093
112.746	133.397
116.121	219.117
119.496	291.448
122.871	365.885
126.246	394.465
129.62	434.094
132.995	450.951
136.37	463.293
139.745	475.137
143.12	497.193
146.494	518.156
149.869	520.343
153.244	507.838
156.619	470.068
159.994	434.42
163.369	378.38
166.743	321.545
170.118	256.442
173.493	192.563
176.868	147.36
180.243	98.1093
183.618	61.7725
186.992	32.0614
190.367	9.19214
193.742	1.4541
197.117	5.39801
200.492	8.7384
203.866	2.77844
207.241	11.0292
210.616	25.3234
213.991	47.5215
217.366	73.0624
220.74	108.302
224.115	153.392
227.49	201.027
230.865	258.587
234.24	320.639
237.615	385.208
240.989	449.011
244.364	504.439
247.739	545.801
251.114	564.592
254.489	550.984
257.863	509.777
261.238	453.89
264.613	386.788
267.988	313.492
271.363	242.581
274.738	190.937
278.112	137.852
281.487	99.1926
284.862	72.9571
288.237	49.8036
291.612	30.5828
294.986	18.6573
298.361	5.64871
301.736	0.426025
305.111	2.73291
308.486	3.46283
311.861	0.667786
315.235	1.98676
318.61	0.533447
321.985	4.51828
325.36	5.46793
328.735	8.44162
332.109	7.74826
335.484	6.3334
338.859	12.0504
342.234	8.38666
345.609	6.1875
348.984	9.45929
352.358	4.23907
355.733	6.75903
359.108	4.14557
362.483	3.03628
365.858	2.36966
369.233	0.503662
372.607	1.40909
375.982	0.318787
379.357	0.090088
382.732	1.10538
386.106	1.11597
389.481	0.566345
392.856	0.635712
396.231	0.791748
399.606	1.60449
402.981	3.74851
406.355	5.73746
409.73	4.73685
413.105	8.24426
416.48	15.5381
419.855	22.2739
423.229	35.8829
426.604	54.611
429.979	78.2695
433.354	108.321
436.729	136.256
440.104	140.997
443.478	136.011
446.853	127.109
450.228	111.189
453.603	88.2049
456.978	59.6285
460.353	41.9939
463.727	28.6813
467.102	20.3626
470.477	14.8184
473.852	9.80325
477.227	5.29553
480.601	5.10675
483.976	3.66055
487.351	1.69373
490.726	1.56348
494.101	1.65338
497.476	2.8714
500.85	2.23256
504.225	0.813919
507.6	0.8078
510.975	0.363297
514.35	15.4499
517.724	0.759598
521.099	0.894165
524.474	0.907059
527.849	0.513794
531.224	3.2865
534.598	1.71287
537.973	2.72516
541.348	2.93243
544.723	5.40436
548.098	3.49065
551.472	4.84019
554.847	5.37883
558.222	4.14229
561.597	3.45499
564.972	4.2988
568.347	5.19367
571.721	3.33374
575.096	2.0938
578.471	1.659
581.846	5.38385
585.221	8.0865
588.596	12.3497
591.97	21.112
595.345	28.1857
598.72	39.3025
602.095	53.9788
605.47	64.9409
608.845	57.8117
612.219	45.8751
615.594	41.3273
618.969	42.1712
622.344	43.0353
625.719	29.4029
629.093	15.2258
632.468	6.32274
635.843	3.67087
639.218	0.539413
642.593	0.513962
645.967	0.28772
649.342	0.303268
652.717	0.380783
656.092	0.291855
659.467	0.314682
662.842	0.369812
666.216	0.167603
669.591	0.966461
672.966	1.38139
676.341	1.27052
679.716	1.59663
683.091	3.57661
686.465	6.16563
689.84	7.78242
693.215	12.8286
696.59	23.1754
699.965	41.6441
703.339	49.1058
706.714	63.0396
710.089	104.903
713.464	161.817
716.839	131.009
720.213	59.2942
723.588	27.5901
726.963	12.2516
730.338	7.38721
733.713	3.88553
737.087	3.10606
740.462	2.67491
743.837	2.25848
747.212	1.43814
750.587	0.147751
753.962	0.680145
757.336	0.085876
760.711	0.405121
764.086	1.22865
767.461	0.941864
770.836	0.399078
774.211	0.339844
777.585	0.829407
780.96	0.074448
784.335	0.045181
787.71	0.434357
791.085	1.52933
794.459	1.8488
797.834	1.32167
801.209	2.04114
804.584	2.31966
807.959	4.64735
811.333	5.97778
814.708	5.18759
818.083	6.71877
821.458	10.0197
824.833	14.4164
828.208	10.8428
831.582	4.50028
834.957	4.59831
838.332	4.10152
841.707	3.46843
845.082	2.80438
848.457	5.3954
851.831	4.78479
855.206	3.50015
858.581	6.98058
861.956	4.71931
865.331	3.54581
868.705	7.22746
872.08	4.55737
875.455	7.20834
878.83	6.53859
882.205	6.2442
885.58	6.44034
888.954	5.26894
892.329	5.62312
895.704	4.56639
899.079	4.15079
902.454	3.31134
905.828	2.86104
909.203	2.45476
912.578	2.41341
915.953	0.898483
919.328	2.21733
922.702	0.349792
926.077	0.851608
929.452	0.250916
932.827	0.648285
936.202	9.5714
939.577	1.05907
942.951	0.50824
946.326	1.2962
949.701	3.0705
953.076	5.41066
956.451	12.403
959.825	23.2088
963.2	43.7279
966.575	90.5306
969.95	187.748
973.325	336.354
976.699	562.201
980.074	847.608
983.449	881.16
986.824	544.308
990.199	229.463
993.574	89.5789
996.948	39.9522
1000.32	21.0841
1003.7	9.81041
1007.07	3.17816
1010.45	1.71309
1013.82	2.87488
1017.2	2.78381
1020.57	2.19945
1023.95	2.60294
1027.32	9.60295
1030.7	27.3995
1034.07	55.5271
1037.45	177.287
1040.82	408.515
1044.2	709.243
1047.57	1339.14
1050.94	1795.13
1054.32	764.687
1057.69	133.585
1061.07	50.3183
1064.44	31.7207
1067.82	32.4002
1071.19	35.9104
1074.57	41.0338
1077.94	48.762
1081.32	55.2676
1084.69	60.4269
1088.07	65.1292
1091.44	69.0303
1094.82	74.3593
1098.19	71.6455
1101.57	71.7102
1104.94	72.1664
1108.32	71.3582
1111.69	68.7067
1115.07	58.6069
1118.44	47.6628
1121.82	39.3186
1125.19	32.5084
1128.57	25.5796
1131.94	18.1257
1135.32	13.2561
1138.69	8.85857
1142.07	5.67029
1145.44	5.79529
1148.82	3.38855
1152.19	0.829498
1155.57	0.977097
1158.94	0.032135
1162.31	0.632904
1165.69	2.46185
1169.06	0.435989
1172.44	1.50624
1175.81	1.34059
1179.19	0.203735
1182.56	0.452286
1185.94	0.961441
1189.31	0.043823
1192.69	1.56607
1196.06	3.42026
1199.44	2.75558
1202.81	4.32155
1206.19	7.03584
1209.56	6.44067
1212.94	6.4845
1216.31	6.52969
1219.69	6.26837
1223.06	7.73322
1226.44	11.1167
1229.81	9.01982
1233.19	9.44571
1236.56	10.6488
1239.93	11.549
1243.31	11.8212
1246.68	10.5396
1250.06	11.4846
1253.43	11.2591
1256.81	10.9238
1260.18	12.262
1263.56	10.2957
1266.93	8.98441
1270.31	8.24756
1273.68	5.30807
1277.06	3.48296
1280.43	0.355835
1283.81	1.86813
