Measurement: Raman, 780 nm, unoriented, Raman Data Processed
Mineral: Pseudowollastonite
Rruff sample: R080145
Ideal chemistry: CaSiO_3_
Locality: Synthetic
Source: Hexiong Yang
Description: Colorless synthetic crystal fragments from the study by Yang and Prewitt (1999)
Raman shift (cm-1)	intensity
93.7832	0
96.6759	11.5895
99.5686	12.8712
102.461	8.50577
105.354	7.42514
108.247	5.94839
111.139	0.937561
114.032	6.57165
116.925	12.0995
119.817	28.0372
122.71	46.8174
125.603	67.654
128.496	86.2694
131.388	117.446
134.281	134.027
137.174	149.127
140.066	166.63
142.959	145.152
145.852	72.5729
148.744	22.3774
151.637	6.64294
154.53	0.334595
157.423	0.026947
160.315	1.01038
163.208	1.95935
166.101	6.11289
168.994	11.6081
171.886	19.3121
174.779	22.7334
177.672	32.0853
180.564	40.8411
183.457	48.1281
186.35	59.2614
189.242	68.3239
192.135	46.0829
195.028	23.6354
197.921	18.2597
200.813	15.9189
203.706	9.12018
206.599	9.67548
209.491	9.64273
212.384	13.6754
215.277	8.99139
218.169	7.0693
221.062	6.94916
223.955	5.30042
226.847	5.59085
229.74	7.36154
232.633	10.3567
235.526	8.16223
238.418	5.78787
241.311	3.92664
244.204	1.82431
247.096	0.557678
249.989	0.601837
252.882	2.1546
255.774	1.67035
258.667	1.65353
261.56	3.09332
264.453	1.53958
267.345	0.228729
270.238	2.02823
273.131	1.97571
276.023	5.10175
278.916	11.896
281.809	10.7869
284.702	17.5003
287.594	20.7388
290.487	27.9256
293.38	32.6194
296.272	37.3079
299.165	40.2324
302.058	42.5515
304.95	43.3862
307.843	50.9057
310.736	49.6321
313.628	46.1361
316.521	48.8551
319.414	52.345
322.307	57.4297
325.199	56.9448
328.092	58.7842
330.985	63.8629
333.877	69.6386
336.77	70.9334
339.663	69.1363
342.556	59.1394
345.448	57.2555
348.341	64.1468
351.234	92.2739
354.126	125.472
357.019	163.993
359.912	205.383
362.805	251.095
365.697	308.385
368.59	369.006
371.483	388.991
374.375	322.114
377.268	197.06
380.161	115.373
383.053	69.8563
385.946	43.2364
388.839	25.0058
391.731	18.691
394.624	15.8715
397.517	7.50735
400.41	7.20078
403.302	6.86203
406.195	1.91666
409.088	1.40933
411.98	1.98532
414.873	2.19879
417.766	2.21069
420.659	4.53268
423.551	4.13544
426.444	3.31674
429.337	4.49783
432.229	1.43893
435.122	1.35156
438.015	0.464935
440.907	0.449097
443.8	2.33823
446.693	1.68228
449.586	0.666626
452.478	1.24338
455.371	0.151215
458.264	2.15533
461.156	0.941895
464.049	0.973663
466.942	2.50665
469.834	3.99536
472.727	4.47266
475.62	5.93771
478.513	7.81686
481.405	12.2454
484.298	13.7651
487.191	20.1124
490.083	23.9556
492.976	32.3743
495.869	35.1355
498.762	45.4911
501.654	49.0896
504.547	59.1549
507.44	67.5195
510.332	64.3205
513.225	48.9205
516.118	29.0772
519.01	21.9217
521.903	16.402
524.796	9.40976
527.688	5.16574
530.581	5.38333
533.474	9.33328
536.367	9.90649
539.259	17.9932
542.152	31.8552
545.045	39.0008
547.937	49.4311
550.83	69.2936
553.723	105.267
556.615	153.369
559.508	145.364
562.401	153.74
565.294	196.87
568.186	244.277
571.079	318.217
573.972	413.774
576.864	516.005
579.757	498.236
582.65	335.108
585.543	185.032
588.435	104.675
591.328	63.6754
594.221	42.6898
597.113	26.9662
600.006	17.8756
602.899	11.4046
605.791	7.31723
608.684	5.91917
611.577	3.7906
614.47	1.74515
617.362	0.224716
620.255	0.847031
623.148	0.809921
626.04	0.095016
628.933	0.674973
631.826	0.180923
634.718	0.818832
637.611	0.886246
640.504	1.37532
643.397	0.192368
646.289	0.898529
649.182	0.10199
652.075	0.805222
654.967	2.62717
657.86	0.547684
660.753	2.10382
663.645	1.79541
666.538	2.66695
669.431	3.03435
672.324	1.7142
675.216	2.52086
678.109	2.40453
681.002	4.22603
683.894	3.96606
686.787	3.95969
689.68	3.67931
692.572	3.2037
695.465	2.93494
698.358	3.65094
701.251	4.71344
704.143	4.14972
707.036	5.20189
709.929	7.19923
712.821	4.41397
715.714	3.71719
718.607	3.61757
721.5	3.96338
724.392	2.66986
727.285	4.96166
730.178	4.0943
733.07	4.13669
735.963	2.64027
738.856	3.1029
741.749	1.57791
744.641	1.14227
747.534	1.66249
750.427	1.52026
753.319	1.16904
756.212	2.70451
759.105	1.29059
761.997	0.694916
764.89	1.09796
767.783	0.22348
770.676	0.252975
773.568	1.46014
776.461	1.08595
779.354	0.944977
782.246	3.23666
785.139	2.09811
788.032	1.8264
790.924	1.06671
793.817	5.26872
796.71	2.54012
799.602	4.22955
802.495	3.66127
805.388	2.53008
808.281	3.42427
811.173	2.42464
814.066	2.381
816.959	2.73001
819.851	4.16754
822.744	4.25259
825.637	2.36125
828.529	3.33142
831.422	4.1636
834.315	5.84875
837.208	4.49142
840.1	2.98244
842.993	2.73465
845.886	2.97983
848.778	3.24667
851.671	3.85625
854.564	4.20111
857.457	3.17854
860.349	5.01848
863.242	4.51488
866.135	3.16878
869.027	2.64273
871.92	3.67915
874.813	2.21619
877.705	1.53166
880.598	0.382263
883.491	0.128479
886.384	2.62413
889.276	0.001846
892.169	0.137985
895.062	0.564972
897.954	0.056335
900.847	1.2901
903.74	0.246017
906.632	2.74196
909.525	2.75615
912.418	4.81691
915.311	8.57048
918.203	17.5319
921.096	24.5624
923.989	34.7149
926.881	44.8283
929.774	52.3596
932.667	48.5589
935.559	36.914
938.452	20.4982
941.345	13.8988
944.238	7.4021
947.13	6.54715
950.023	6.88707
952.916	8.4478
955.808	9.5751
958.701	13.4295
961.594	16.4652
964.486	32.4746
967.379	55.6487
970.272	118.377
973.165	192.898
976.057	287.523
978.95	426.782
981.843	645.732
984.735	702.834
987.628	510.343
990.521	341.234
993.413	131.902
996.306	63.5477
999.199	35.2586
1002.09	25.5837
1004.98	16.3563
1007.88	12.1663
1010.77	6.69449
1013.66	4.15562
1016.55	3.2887
1019.45	3.63797
1022.34	2.13387
1025.23	0.344284
1028.13	0.247238
1031.02	1.32176
1033.91	0.90509
1036.8	0.736099
1039.7	2.50293
1042.59	2.62647
1045.48	4.20039
1048.38	5.00909
1051.27	5.48828
1054.16	7.26509
1057.05	12.366
1059.95	18.5843
1062.84	27.5712
1065.73	37.8591
1068.62	49.4008
1071.52	61.5737
1074.41	70.3232
1077.3	67.9236
1080.19	52.4325
1083.09	39.5588
1085.98	27.3006
1088.87	19.8374
1091.77	17.2112
1094.66	12.9911
1097.55	10.6813
1100.44	7.43013
1103.34	7.33293
1106.23	5.40526
1109.12	5.47507
1112.01	5.59012
1114.91	3.60352
1117.8	4.22656
1120.69	0.626938
1123.59	2.87175
1126.48	0.251419
1129.37	2.0377
1132.26	1.59094
1135.16	1.59854
1138.05	1.57547
1140.94	1.04324
1143.83	1.51788
1146.73	1.57841
1149.62	3.65306
1152.51	4.30133
1155.4	3.18649
1158.3	3.72144
1161.19	4.03383
1164.08	5.28603
1166.98	4.91632
1169.87	3.20825
1172.76	1.76672
1175.65	3.12158
1178.55	4.01257
1181.44	1.64316
1184.33	0.872559
1187.22	4.56461
1190.12	2.29379
1193.01	1.91971
