Measurement: Raman, 514 nm, unoriented, Raman Data Processed
Mineral: Pseudomalachite
Rruff sample: R040175
Ideal chemistry: Cu_5_(PO_4_)_2_(OH)_4_
Locality: West Bogan mine, Tottenham, Australia
Source: University of Arizona Mineral Museum
Description: Green massive in a botryoidal shape
Measured chemistry: Cu_5.00_(P_1.00_O_4_)_2_(OH_.98_F_.02_)_4_
Raman shift (cm-1)	intensity
94.768	0
98.947	441.383
103.124	741.726
107.3	5139.4
111.473	9242.22
115.644	4901.26
119.813	2415.17
123.981	1608.87
128.146	4881.78
132.309	9792.72
136.47	7000
140.63	7824.8
144.787	9049.3
148.942	5819.54
153.096	3134.16
157.247	2756.64
161.396	3996.98
165.544	4465.8
169.689	6169.92
173.833	12302.1
177.974	12952.1
182.114	6245.11
186.251	4091.68
190.387	3196.35
194.52	2755.85
198.652	1025
202.782	485.303
206.909	1399.04
211.035	2613.88
215.159	4129.01
219.281	3999.02
223.4	1502.21
227.518	2.85254
231.634	704.071
235.748	672.83
239.86	267.191
243.97	803.619
248.079	1058.11
252.185	1381.32
256.289	2902.62
260.391	4410.53
264.492	4453.57
268.59	2694.13
272.687	937.024
276.781	66.6436
280.874	305.995
284.964	35.9697
289.053	626.322
293.14	2243.25
297.225	3522.34
301.308	4734.11
305.389	3908.03
309.468	2234.36
313.545	1142.63
317.62	484.681
321.693	258.645
325.765	148.232
329.834	9.91162
333.902	22.3301
337.967	131.158
342.031	562.585
346.093	1324.07
350.153	2480.45
354.21	4665.03
358.267	8623.64
362.321	14805.9
366.373	22255.4
370.423	21060.2
374.471	13665
378.518	9033.23
382.563	6544.71
386.605	5020.79
390.646	3302.36
394.685	2062.63
398.722	1683.78
402.757	1727.11
406.79	2750.28
410.821	4074.41
414.851	5761.49
418.878	6364.86
422.904	6932.88
426.927	8961.85
430.949	13192.1
434.969	19854.8
438.987	21814.2
443.003	20504.6
447.018	22532.8
451.03	23779.8
455.041	18293.5
459.049	12863
463.056	10970.5
467.061	11162.2
471.064	14786.1
475.065	23413.5
479.064	32327.6
483.062	31794.1
487.057	22907.4
491.051	15162.8
495.043	9755.85
499.032	6895.11
503.02	5763.83
507.007	5744.28
510.991	6249.33
514.973	6684.83
518.954	6232.36
522.933	4980.35
526.91	3955.47
530.885	3523.02
534.858	3712.65
538.829	3713.46
542.799	2535.52
546.766	1944.31
550.732	1542.15
554.696	1241.11
558.658	1178.32
562.618	992.209
566.576	973.512
570.533	1129.78
574.488	1386.59
578.44	1812.04
582.391	2595.91
586.341	3363.94
590.288	3945.12
594.233	4318.49
598.177	6027.25
602.119	10010.8
606.059	15486.3
609.997	16991.5
613.933	12498.9
617.868	8143.57
621.801	5173.43
625.731	3153.5
629.66	2029.78
633.588	1313.29
637.513	690.146
641.437	434.39
645.358	280.127
649.278	113.989
653.196	83.6763
657.113	109.53
661.027	181.028
664.94	203.645
668.851	223.594
672.76	244.962
676.667	211.758
680.572	192.823
684.476	168.09
688.378	184.393
692.278	199.047
696.176	139.767
700.072	125.561
703.967	422.456
707.86	553.466
711.751	465.872
715.64	343.644
719.527	415.758
723.413	498.233
727.297	716.11
731.179	1107.4
735.059	1499.13
738.937	2305.32
742.814	3157.97
746.689	3879.11
750.562	3981.76
754.433	3116.94
758.303	2324.65
762.17	1750.91
766.036	1737.72
769.901	2447.11
773.763	967.083
777.624	1084.67
781.482	1212.88
785.339	1364.75
789.195	1729.28
793.048	2385.94
796.9	3017.39
800.75	3406.15
804.598	3210.48
808.445	2850.88
812.289	2133.95
816.132	1566.29
819.973	1133.3
823.813	841.939
827.65	519.459
831.486	316.831
835.32	94.3721
839.152	95.9424
842.983	73.4522
846.812	69.1348
850.639	87.8657
854.464	233.638
858.288	648.238
862.11	1325.55
865.93	2152.61
869.748	3037.32
873.564	4473.72
877.379	4902.72
881.192	4063.34
885.004	2846.45
888.813	2332.68
892.621	2268.17
896.427	1987.81
900.232	1579.99
904.034	1120.72
907.835	741.025
911.634	1362.9
915.432	1833.38
919.227	535.448
923.021	887.134
926.813	1268.44
930.604	1885.39
934.393	2321.98
938.18	2466.22
941.965	2750.13
945.749	2978.71
949.53	3603.99
953.311	4593.04
957.089	6233.87
960.866	8362.63
964.641	11573.5
968.414	15354.8
972.185	17124.5
975.955	14637.9
979.723	10995.9
983.49	8624.46
987.254	7355.96
991.017	6968.13
994.779	7578.67
998.538	8318.77
1002.3	7791.47
1006.05	5598.52
1009.81	3655.22
1013.56	2525.55
1017.31	1887.5
1021.06	1488.39
1024.81	1275.38
1028.55	1130.98
1032.3	1294.17
1036.04	1360.93
1039.78	1572.25
1043.52	2227.1
1047.26	3201.45
1050.99	4699.29
1054.73	5534.62
1058.46	5252.4
1062.19	4139.63
1065.92	3278.29
1069.65	2827.37
1073.37	2984.57
1077.1	4119.71
1080.82	6826.93
1084.54	10124.5
1088.26	9167.37
1091.97	5947.57
1095.69	3762.07
1099.4	2682.13
1103.12	1982.91
1106.83	1606.21
1110.54	1313.75
1114.24	1068.64
1117.95	858.304
1121.65	853.226
1125.35	712.309
1129.06	320.058
1132.75	116.013
1136.45	15.5337
1140.15	119.814
1143.84	142.07
1147.53	143.174
1151.22	144.171
1154.91	167.578
1158.6	125.911
1162.28	95.4438
1165.97	30.1243
1169.65	170.035
1173.33	230.102
1177.01	369.769
1180.69	472.39
1184.36	394.271
1188.04	382.216
1191.71	426.169
1195.38	434.182
1199.05	409.021
1202.71	405.052
1206.38	446.431
1210.04	469.865
1213.71	487.035
1217.37	486.324
1221.03	505.159
1224.68	592.158
1228.34	477.375
1231.99	509.733
1235.65	475.628
1239.3	467.454
1242.95	469.521
1246.59	429.312
1250.24	388.24
1253.88	352.519
1257.53	318.704
1261.17	281.672
1264.81	247.558
1268.45	200.265
1272.08	185.176
1275.72	191.743
1279.35	166.187
1282.98	183.582
1286.61	174.766
1290.24	130.508
1293.87	120.606
1297.49	54.8201
1301.11	40.178
1304.73	40.4309
1308.36	44.4617
1311.97	87.5505
1315.59	0.760498
1319.2	17.8784
1322.82	55.7717
1326.43	37.6672
1330.04	38.5798
1333.65	75.3477
1337.26	91.407
1340.86	63.7278
1344.47	91.3564
1348.07	46.9648
1351.67	67.3113
1355.27	108.032
1358.87	121.133
1362.46	132.649
1366.06	169.541
1369.65	135.139
1373.24	153.778
1376.83	189.291
1380.42	113.742
1384	178.782
1387.59	120.791
1391.17	144.744
1394.75	114.205
1398.33	125.004
1401.91	70.9761
1405.49	131.625
1409.06	85.415
1412.64	56.8247
1416.21	31.3704
1419.78	2.23413
1423.35	70.5649
1426.91	78.3911
1430.48	25.126
1434.05	55.6716
1437.61	1.10742
1441.17	41.7158
1444.73	4.9751
1448.29	119.552
1451.84	41.8491
1455.4	14.7969
1458.95	49.1465
1462.5	56.3499
1466.05	79.6274
1469.6	2.63062
1473.15	129.591
1476.69	51.1218
1480.24	22.2573
1483.78	12.7473
1487.32	28.2344
1490.86	2.33496
1494.39	74.46
1497.93	84.8955
1501.46	38.9307
1505	12.0308
1508.53	72.6894
1512.06	80.6377
1515.59	99.834
1519.11	80.6802
