Measurement: Raman, 780 nm, unoriented, Raman Data Processed
Mineral: Pseudobrookite
Rruff sample: R120173
Ideal chemistry: (Fe^3+^_2_Ti)O_5_
Locality: Nuestra Se√±ora del Carmen Mines, La Celia, Jumilla, Murcia, Spain
Source: Bob Jenkins
Description: Dark brown tabular, associated with R120174 enstatite
Raman shift (cm-1)	intensity
135.915	0
138.807	10.4554
141.7	27.4586
144.593	13.8165
147.485	10.1539
150.378	6.42657
153.271	1.45383
156.163	1.45901
159.056	0.044037
161.949	0.872589
164.842	2.91272
167.734	6.46857
170.627	7.52234
173.52	7.7034
176.412	7.20364
179.305	8.9303
182.198	10.2385
185.09	18.8136
187.983	30.8776
190.876	50.1614
193.769	70.3164
196.661	91.0715
199.554	107.249
202.447	109.01
205.339	98.7284
208.232	81.3321
211.125	68.0357
214.018	64.0327
216.91	76.096
219.803	90.0337
222.696	108.708
225.588	124.305
228.481	130.373
231.374	127.049
234.266	115.457
237.159	101.072
240.052	81.9635
242.945	66.6581
245.837	53.2704
248.73	39.3124
251.623	27.9572
254.515	18.7679
257.408	9.685
260.301	6.2786
263.193	1.43536
266.086	2.22324
268.979	2.56757
271.872	2.94708
274.764	2.0614
277.657	0.746887
280.55	0.36261
283.442	2.60034
286.335	3.53235
289.228	10.7111
292.12	20.422
295.013	26.6598
297.906	37.6433
300.798	47.6799
303.691	59.1291
306.584	74.9804
309.476	91.908
312.369	110.393
315.262	128.527
318.155	151.138
321.047	171.894
323.94	193.989
326.833	217.817
329.725	241.028
332.618	259.938
335.511	279.063
338.404	291.643
341.296	300.663
344.189	297.789
347.082	293.839
349.974	277.019
352.867	257.817
355.76	229.935
358.652	205.333
361.545	173.526
364.438	146.245
367.33	119.099
370.223	96.2712
373.116	73.814
376.009	53.1247
378.901	35.8057
381.794	24.034
384.687	14.1119
387.579	9.13611
390.472	0.021667
393.365	0.997375
396.257	1.65888
399.15	1.16013
402.043	3.26822
404.935	8.93124
407.828	12.7968
410.721	25.1807
413.614	34.1685
416.506	48.6633
419.399	62.7383
422.292	80.4222
425.184	94.3131
428.077	106.407
430.97	115.657
433.863	125.754
436.755	136.386
439.648	142.356
442.541	145.491
445.433	142.265
448.326	136.555
451.219	126.153
454.111	109.118
457.004	95.5414
459.897	77.2222
462.789	63.5825
465.682	50.5708
468.575	38.6404
471.468	28.605
474.36	20.1069
477.253	14.8009
480.146	10.405
483.038	7.0779
485.931	3.25232
488.824	0.911148
491.716	1.10954
494.609	2.41603
497.502	2.1949
500.395	2.85234
503.287	2.73804
506.18	1.73477
509.073	0.525009
511.965	0.408691
514.858	0.409317
517.751	0.982773
520.644	0.593475
523.536	0.01033
526.429	1.14354
529.322	2.1853
532.214	2.38976
535.107	3.28632
538	4.29102
540.892	5.41794
543.785	5.62869
546.678	8.28108
549.57	10.0124
552.463	10.9088
555.356	11.7821
558.249	14.0134
561.141	15.8966
564.034	19.0919
566.927	21.9979
569.819	27.4572
572.712	32.5234
575.605	37.286
578.497	42.2783
581.39	49.0067
584.283	56.1407
587.176	62.7668
590.068	73.7299
592.961	83.3548
595.854	92.5622
598.746	105.103
601.639	114.555
604.532	125.332
607.424	132.752
610.317	135.399
613.21	134.379
616.102	130.29
618.995	120.578
621.888	109.148
624.781	96.2662
627.673	84.5649
630.566	73.7473
633.459	66.6679
636.351	59.5097
639.244	55.2585
642.137	53.9941
645.029	53.1223
647.922	55.8841
650.815	57.4515
653.708	60.8477
656.6	62.4633
659.493	60.784
662.386	52.6294
665.278	45.3462
668.171	36.1861
671.064	25.52
673.957	18.1045
676.849	10.9002
679.742	7.26378
682.635	3.98595
685.527	1.4258
688.42	0.036331
691.313	0.671051
694.205	0.730225
697.098	1.59073
699.991	3.73135
702.884	2.05556
705.776	1.38113
708.669	2.59773
711.562	0.903214
714.454	0.910614
717.347	0.376953
720.24	1.16634
723.132	1.6226
726.025	2.4415
728.918	2.99474
731.81	4.70779
734.703	6.09894
737.596	7.29262
740.489	8.95993
743.381	13.0334
746.274	14.3096
749.167	18.6972
752.059	22.5169
754.952	24.8334
757.845	28.7868
760.737	33.4225
763.63	35.7968
766.523	40.4853
769.415	43.1957
772.308	45.7834
775.201	46.6157
778.094	47.986
780.986	48.8001
783.879	48.0687
786.772	48.6191
789.664	48.3848
792.557	47.1312
795.45	46.6873
798.342	44.7573
801.235	44.7323
804.128	41.7224
807.021	40.5412
809.913	38.9425
812.806	36.2111
815.699	34.7278
818.591	32.061
821.484	31.0407
824.377	31.3236
827.269	26.4352
830.162	24.0328
833.055	22.1298
835.948	20.3842
838.84	23.0552
841.733	16.9762
844.626	15.1357
847.518	14.7336
850.411	12.3174
853.304	11.0849
856.197	9.27007
859.089	7.32515
861.982	7.44703
864.875	5.69482
867.767	3.79772
870.66	2.70609
873.553	2.13223
876.445	0.034691
879.338	0.214859
882.231	0.297462
885.123	1.43294
888.016	1.14503
890.909	1.28005
893.802	0.706215
896.694	1.00166
899.587	1.0852
902.48	1.41753
905.372	1.16661
908.265	1.61733
911.158	2.48891
914.05	1.69846
916.943	2.42771
919.836	3.03665
922.729	3.57061
925.621	3.7688
928.514	3.50484
931.407	4.44903
934.299	5.08553
937.192	5.1451
940.085	5.16171
942.977	3.88866
945.87	3.67774
948.763	2.83564
951.655	2.56996
954.548	2.07451
957.441	1.85733
960.334	1.44715
963.226	1.53865
966.119	1.511
969.012	1.77762
971.904	0.615986
974.797	1.31405
977.69	0.975388
980.582	1.19988
983.475	0.872116
986.368	1.08771
989.261	1.74064
992.153	0.81628
995.046	1.25987
997.939	0.479755
1000.83	0.214565
1003.72	1.22029
1006.62	0.379673
1009.51	0.33503
1012.4	1.05838
1015.29	1.01149
1018.19	0.71294
1021.08	0.824009
1023.97	0.677322
1026.87	0.01207
1029.76	0.374229
1032.65	0.366688
1035.54	0.332378
1038.44	1.03099
1041.33	0.743889
1044.22	0.066841
1047.12	0.284462
1050.01	0.802052
1052.9	0.458481
1055.79	2.56344
1058.68	1.16379
1061.58	1.21703
1064.47	0.50951
1067.36	0.706764
1070.26	0.301151
1073.15	1.40877
1076.04	0.874374
1078.93	1.28984
1081.83	0.875835
1084.72	0.853355
1087.61	0.272488
1090.51	0.568779
1093.4	0.876595
1096.29	0.831478
1099.18	0.54232
1102.08	0.707272
1104.97	1.28991
1107.86	1.03128
1110.75	0.052563
1113.65	0.767075
1116.54	0.227459
1119.43	0.078949
1122.33	0.178684
1125.22	0.330898
1128.11	0.252377
1131	0.421101
1133.9	0.805058
1136.79	0.996563
1139.68	0.709862
1142.57	1.06794
1145.47	0.50565
1148.36	0.438229
1151.25	0.23003
1154.14	0.320332
1157.04	0.986698
1159.93	0.54961
1162.82	1.33698
1165.71	1.11641
1168.61	0.922276
1171.5	0.81226
1174.39	1.45301
1177.29	1.07071
1180.18	0.805664
1183.07	1.54279
1185.96	0.707119
1188.86	0.559498
1191.75	0.580723
1194.64	0.675129
1197.54	0.357162
1200.43	1.10166
1203.32	0.836548
1206.21	0.849449
1209.11	0.758022
1212	0.56794
1214.89	1.83736
1217.78	0.213188
1220.68	0.121681
1223.57	0.482002
1226.46	0.647827
1229.35	0.845886
1232.25	0.690754
1235.14	1.04148
1238.03	0.867699
1240.92	0.062572
1243.82	0.135075
1246.71	1.07859
1249.6	0.107487
1252.5	0.608425
1255.39	0.305801
1258.28	0.698395
1261.17	1.15273
1264.07	0.838951
1266.96	0.188953
1269.85	0.434231
1272.74	0.806046
1275.64	0.796349
1278.53	1.13415
1281.42	0.610939
1284.32	0.018997
