Measurement: Raman, 532 nm, unoriented, Raman Data Processed
Mineral: Pseudobrookite
Rruff sample: R120173
Ideal chemistry: (Fe^3+^_2_Ti)O_5_
Locality: Nuestra Se√±ora del Carmen Mines, La Celia, Jumilla, Murcia, Spain
Source: Bob Jenkins
Description: Dark brown tabular, associated with R120174 enstatite
Raman shift (cm-1)	intensity
124.496	0
127.87	1.45892
131.245	2.0965
134.62	1.7937
137.995	3.95947
141.37	15.4913
144.744	19.1811
148.119	30.1366
151.494	29.8784
154.869	31.8387
158.244	31.4951
161.619	33.8946
164.993	43.7374
168.368	47.4087
171.743	49.2081
175.118	44.0049
178.493	33.0936
181.868	23.9445
185.242	19.3235
188.617	22.7912
191.992	31.4982
195.367	44.2652
198.742	60.2507
202.116	66.3664
205.491	54.8603
208.866	31.9893
212.241	16.0182
215.616	10.6608
218.99	12.9393
222.365	23.2579
225.74	37.6017
229.115	46.0748
232.49	47.7342
235.865	44.9396
239.239	42.4047
242.614	39.4592
245.989	28.0124
249.364	16.793
252.739	5.20239
256.113	1.93091
259.488	2.62811
262.863	8.60315
266.238	5.237
269.613	2.78009
272.988	1.03088
276.362	7.10767
279.737	13.9216
283.112	20.8298
286.487	32.84
289.862	51.1204
293.236	65.6391
296.611	89.8358
299.986	113.079
303.361	144.018
306.736	181.248
310.111	221.461
313.485	259.267
316.86	300.771
320.235	343.537
323.61	395.664
326.985	451.145
330.359	498.322
333.734	542.631
337.109	582.08
340.484	600.333
343.859	601.662
347.233	590.672
350.608	551.866
353.983	507.946
357.358	446.37
360.733	385.338
364.108	324.248
367.482	262.222
370.857	204.74
374.232	152.044
377.607	113.492
380.982	78.2748
384.356	49.8206
387.731	28.6681
391.106	11.0729
394.481	2.78259
397.856	8.07715
401.231	3.91028
404.605	0.267334
407.98	5.26337
411.355	14.3853
414.73	28.7806
418.105	45.8293
421.479	66.8428
424.854	81.9708
428.229	94.9293
431.604	101.391
434.979	111.743
438.354	120.306
441.728	129.241
445.103	128.372
448.478	123.23
451.853	113.943
455.228	99.3281
458.603	85.5167
461.977	69.1516
465.352	55.1716
468.727	46.496
472.102	30.6237
475.477	21.5427
478.851	11.4724
482.226	8.87567
485.601	8.50958
488.976	4.71368
492.351	0.639282
495.726	1.89935
499.1	2.44794
502.475	3.91663
505.85	3.29315
509.225	2.37561
512.6	0.089417
515.974	1.75891
519.349	1.21722
522.724	4.13922
526.099	7.07458
529.474	6.87134
532.848	9.58203
536.223	9.15888
539.598	11.8079
542.973	14.1741
546.348	19.793
549.722	22.6005
553.097	22.6424
556.472	24.1328
559.847	30.4617
563.222	33.8524
566.597	33.05
569.971	38.1466
573.346	45.9138
576.721	50.3068
580.096	55.2096
583.471	58.9503
586.846	69.5107
590.22	73.6308
593.595	81.3044
596.97	85.8917
600.345	93.3806
603.72	97.1683
607.094	104.352
610.469	105.454
613.844	104.06
617.219	97.8358
620.594	91.1813
623.968	86.0186
627.343	75.2255
630.718	67.2608
634.093	61.3282
637.468	55.8362
640.843	48.5301
644.217	50.0782
647.592	49.6973
650.967	51.0438
654.342	51.17
657.717	49.0494
661.091	41.5716
664.466	27.114
667.841	14.9065
671.216	4.21197
674.591	6.00702
677.966	10.9725
681.34	5.75427
684.715	9.84076
688.09	9.013
691.465	1.26917
694.84	0.578186
698.215	9.74207
701.589	14.6985
704.964	20.066
708.339	30.0151
711.714	35.0089
715.089	40.4058
718.463	43.6009
721.838	50.4828
725.213	56.35
728.588	60.7246
731.963	63.991
735.337	65.7146
738.712	67.4427
742.087	69.6457
745.462	76.0416
748.837	87.7516
752.212	101.684
755.586	113.549
758.961	125.475
762.336	142.493
765.711	160.526
769.086	172.244
772.46	183.202
775.835	189.143
779.21	197.004
782.585	196.389
785.96	198.813
789.335	193.226
792.709	192.791
796.084	185.163
799.459	182.654
802.834	174.798
806.209	173.573
809.583	163.756
812.958	151.831
816.333	137.967
819.708	129.243
823.083	114.882
826.457	102.273
829.832	97.4959
833.207	81.1726
836.582	77.8237
839.957	70.5977
843.332	60.91
846.706	56.9632
850.081	49.8182
853.456	42.3802
856.831	41.523
860.206	34.8145
863.581	27.2167
866.955	17.2955
870.33	11.1998
873.705	3.69678
877.08	2.37201
880.455	5.30621
883.829	10.0632
887.204	11.2112
890.579	6.45593
893.954	3.83569
897.329	1.22009
900.703	6.03577
904.078	8.97308
907.453	11.7742
910.828	12.2364
914.203	14.9771
917.578	15.1698
920.952	22.2582
924.327	26.7852
927.702	32.1747
931.077	32.5858
934.452	35.0632
937.827	32.9116
941.201	29.259
944.576	22.8101
947.951	16.7248
951.326	11.9038
954.701	7.67664
958.075	5.92511
961.45	8.38513
964.825	7.87
968.2	10.8024
971.575	10.3061
974.949	10.4211
978.324	10.6108
981.699	8.97247
985.074	15.2638
988.449	11.2303
991.823	11.8188
995.198	13.6572
998.573	11.0759
1001.95	8.13763
1005.32	7.46851
1008.7	6.42194
1012.07	10.1943
1015.45	3.69354
1018.82	2.18072
1022.2	1.35736
1025.57	0.989502
1028.95	2.26123
1032.32	2.11188
1035.7	0.219177
1039.07	0.007446
1042.45	4.54163
1045.82	2.59192
1049.19	5.31195
1052.57	5.04187
1055.94	1.28973
1059.32	0.35498
1062.69	2.38415
1066.07	3.81085
1069.44	5.9516
1072.82	4.05145
1076.19	5.05261
1079.57	4.54456
1082.94	5.93811
1086.32	5.86939
1089.69	4.78418
1093.07	3.15674
1096.44	2.39771
1099.82	1.2829
1103.19	1.75677
1106.57	1.79633
1109.94	9.25079
1113.32	2.79535
1116.69	4.11822
1120.07	1.25214
1123.44	2.19403
1126.82	2.11261
1130.19	0.42749
1133.57	0.610718
1136.94	0.663208
1140.32	0.514709
1143.69	1.19464
1147.07	1.13013
1150.44	0.88623
1153.82	3.59528
1157.19	4.69006
1160.56	1.64587
1163.94	0.553894
1167.31	0.442871
1170.69	1.83875
1174.06	3.48346
1177.44	2.98731
1180.81	3.72986
1184.19	4.21875
1187.56	4.54834
1190.94	3.22424
1194.31	2.44385
1197.69	3.69678
1201.06	3.35467
1204.44	3.5451
1207.81	0.776123
1211.19	0.757263
1214.56	2.87933
1217.94	1.42755
1221.31	0.032959
1224.69	1.82953
1228.06	0.777344
1231.44	3.48065
1234.81	0.723572
1238.18	0.073486
1241.56	0.486389
1244.93	2.02191
1248.31	3.26404
1251.68	5.72113
1255.06	4.16156
1258.43	4.14691
1261.81	5.15301
1265.18	3.66644
1268.56	1.80676
1271.93	1.84357
1275.31	1.80273
1278.68	1.34479
1282.06	2.26141
1285.43	0.478027
1288.81	0.48114
1292.18	2.29974
1295.56	2.92694
1298.93	0.817078
