Measurement: Raman, 785 nm, unoriented, Raman Data Processed
Mineral: Pucherite
Rruff sample: R060824
Ideal chemistry: BiVO_4_
Locality: Pucher Shaft, Wolfgang Maa√üen mine field, Schneeberg District, Saxony, Germany
Source: Michael Scott
Description: Brown tabular crystals associated with green namibite. Pale yellow crust is also pucherite.
Raman shift (cm-1)	intensity
137.438	0
140.33	1816.83
143.223	6819.07
146.116	14271.9
149.008	19964.6
151.901	17627.4
154.794	13126.8
157.686	11272.2
160.579	12257.5
163.472	15249.2
166.365	19988.9
169.257	26338
172.15	33529.3
175.043	43190.4
177.935	55970.9
180.828	70695.4
183.721	81511.3
186.613	79808.3
189.506	63737.3
192.399	45542.7
195.292	32579.7
198.184	23379.2
201.077	16950.4
203.97	12760.3
206.862	9721.5
209.755	7626.87
212.648	6156.07
215.54	5263.41
218.433	4541.93
221.326	4085.63
224.219	3799.86
227.111	3526.36
230.004	3495.68
232.897	3282.21
235.789	2976.86
238.682	2631.14
241.575	2328.96
244.467	2073.94
247.36	1937.72
250.253	1895.98
253.146	1741.3
256.038	1773.18
258.931	1951.63
261.824	1941.39
264.716	2173.89
267.609	2258.78
270.502	2265.52
273.395	2269.62
276.287	2001.88
279.18	1895.58
282.073	1894.58
284.965	1895.1
287.858	1900.81
290.751	2001.35
293.643	2254.4
296.536	2590.23
299.429	3086.47
302.322	3614.51
305.214	4137.02
308.107	4767.01
311	5553.07
313.892	6732.48
316.785	8565.47
319.678	11297.4
322.57	15246.2
325.463	20692.7
328.356	26320.9
331.249	29998.1
334.141	29661.5
337.034	27166.3
339.927	25794.3
342.819	25937.7
345.712	26576.9
348.605	26908.4
351.497	26255.5
354.39	25886.8
357.283	26631.1
360.176	28584.6
363.068	31365.3
365.961	33645.2
368.854	34917.4
371.746	34203
374.639	31248.2
377.532	26614.1
380.424	21773.7
383.317	17575.6
386.21	14526.7
389.103	12749.9
391.995	12554.3
394.888	12756.4
397.781	14452
400.673	17582.4
403.566	23096.9
406.459	31517
409.351	41840
412.244	51030.5
415.137	52011.6
418.03	42536.1
420.922	29951.1
423.815	20056.1
426.708	13743.4
429.6	9853.32
432.493	7457.9
435.386	5906.18
438.278	4815.34
441.171	3885.28
444.064	3113.84
446.957	2579.22
449.849	2012.28
452.742	1535.3
455.635	1033.58
458.527	706.434
461.42	519.61
464.313	394.671
467.205	273.03
470.098	189.327
472.991	99.543
475.884	6.222
478.776	62.979
481.669	237.263
484.562	283.877
487.454	401.179
490.347	426.713
493.24	475.426
496.132	512.239
499.025	563.64
501.918	598.74
504.81	515.079
507.703	483.102
510.596	444.494
513.489	356.049
516.381	343.41
519.274	303.933
522.167	252.235
525.059	130.936
527.952	73.709
530.845	12.704
533.737	100.63
536.63	153.367
539.523	173.006
542.416	254.166
545.308	305.907
548.201	254.507
551.094	326.192
553.987	272.915
556.879	385.019
559.772	251.567
562.665	274.079
565.557	148.056
568.45	75.543
571.343	67.268
574.235	47.493
577.128	20.492
580.021	53.898
582.914	126.407
585.806	191.888
588.699	246.052
591.592	304.348
594.484	350.565
597.377	345.951
600.27	436.711
603.162	409.07
606.055	432.986
608.948	428.302
611.841	454.771
614.733	347.034
617.626	236.597
620.519	151.358
623.411	44.027
626.304	249.104
629.197	496.352
632.089	830.963
634.982	1279.62
637.875	1882.18
640.768	2443.54
643.66	2895.6
646.553	2922.75
649.446	2456.73
652.338	1798.63
655.231	1155.8
658.124	593.215
661.016	213.944
663.909	121.598
666.802	295.187
669.695	253.19
672.587	211.118
675.48	39.907
678.373	383.082
681.265	1001.61
684.158	1658.95
687.051	2436.2
689.943	3003.83
692.836	3142.4
695.729	3597.16
698.622	4633.2
701.514	6176.41
704.407	7659.02
707.3	8412.49
710.192	7851.04
713.085	6551.76
715.978	5048.36
718.87	3777.24
721.763	2839.01
724.656	2059.06
727.549	1422.51
730.441	968.564
733.334	683.04
736.227	455.43
739.119	254.285
742.012	223.269
744.905	175.296
747.797	300.777
750.69	470.651
753.583	688.604
756.476	864.508
759.368	996.686
762.261	944.539
765.154	655.021
768.046	567.409
770.939	451.199
773.832	429.683
776.724	391.289
779.617	517.853
782.51	566.801
785.403	722.331
788.295	893.52
791.188	1091.05
794.081	1324.12
796.973	1685.48
799.866	2086.3
802.759	2778.97
805.651	3971.64
808.544	5390.87
811.437	6701.07
814.33	6754.86
817.222	5898.29
820.115	5499.45
823.008	5662.24
825.9	6191.04
828.793	7003.43
831.686	8048.06
834.578	9404.86
837.471	10932.8
840.364	12958.8
843.256	15563.7
846.149	19216.6
849.042	24078.8
851.935	30760.2
854.827	40234.6
857.72	54404.5
860.613	75868.5
863.505	104263
866.398	132851
869.291	149051
872.183	143578
875.076	124256
877.969	103413
880.862	86142.2
883.754	70705.3
886.647	56782.8
889.54	44068.7
892.432	33650.3
895.325	25214
898.218	18665.3
901.11	13900
904.003	10338.3
906.896	7835.83
909.789	6058.44
912.681	4861.31
915.574	3820.82
918.467	3188.66
921.359	2537.08
924.252	2144.16
927.145	1728.35
930.037	1441.58
932.93	1097.98
935.823	756.507
938.716	501.905
941.608	364.376
944.501	180.916
947.394	67.612
950.286	2.54
953.179	105.463
956.072	138.038
958.964	196.625
961.857	249.614
964.75	228.837
967.643	305.365
970.535	292.257
973.428	291.076
976.321	332.803
979.213	257.563
982.106	259.717
984.999	26.422
987.891	235.97
990.784	243.948
993.677	268.269
996.57	217.653
999.462	140.29
1002.36	137.092
1005.25	115.831
1008.14	71.166
1011.03	112.727
1013.93	113.612
1016.82	65.885
1019.71	145.856
1022.6	126.512
1025.5	120.52
1028.39	117.023
1031.28	53.895
1034.17	80.133
1037.07	60.197
1039.96	66.836
1042.85	20.602
1045.74	53.775
1048.64	61.3
1051.53	97.999
1054.42	44.428
1057.32	64.084
1060.21	43.553
1063.1	13.726
1065.99	6.737
1068.89	31.534
1071.78	2.693
1074.67	55.584
1077.57	52.385
1080.46	68.162
1083.35	55.565
1086.24	62.887
1089.14	55.878
1092.03	95.656
1094.92	84.984
1097.81	121.953
1100.71	65.814
1103.6	72.993
1106.49	119.002
1109.38	75.43
1112.28	94.934
1115.17	77.652
1118.06	76.559
1120.96	53.512
1123.85	117.934
1126.74	105.864
1129.63	82.671
1132.53	118.921
1135.42	168.941
1138.31	155.918
1141.2	193.939
1144.1	172.546
1146.99	196.976
1149.88	208.178
1152.78	237.596
1155.67	221.99
1158.56	282.535
1161.45	332.355
1164.35	376.305
1167.24	391.557
1170.13	371.929
1173.02	391.929
1175.92	341.233
1178.81	325.868
1181.7	304.202
1184.6	387.715
1187.49	295.742
1190.38	263.478
1193.27	269.791
1196.17	232.39
1199.06	202.602
1201.95	158.45
1204.84	175.986
1207.74	172.156
1210.63	146.67
1213.52	55.026
1216.41	31.269
1219.31	59.781
1222.2	3.84
