Measurement: Raman, 532 nm, unoriented, Raman Data Processed
Mineral: Pucherite
Rruff sample: R080137
Ideal chemistry: BiVO_4_
Locality: Fazenda da Posse, Sao Jose do Brejauba, Minas Gerais, Brazil
Source: Luiz Menezes
Description: Reddish brown tabular crystals associated with greenish yellow bismutite
Raman shift (cm-1)	intensity
133.434	0
136.809	89.1028
140.184	311.246
143.559	525.672
146.933	549.797
150.308	274.967
153.683	96.4795
157.058	119.129
160.433	313.82
163.807	648.297
167.182	1083.93
170.557	1588.02
173.932	2102.41
177.307	2627.54
180.681	3046.25
184.056	2964.53
187.431	2322.18
190.806	1519.52
194.181	925.21
197.556	563.836
200.93	334.43
204.305	190.381
207.68	101.475
211.055	48.6169
214.43	16.8169
217.804	2.86902
221.179	5.62268
224.554	5.78857
227.929	11.1928
231.304	7.52606
234.679	1.70892
238.053	6.33282
241.428	0.516785
244.803	4.5954
248.178	2.53522
251.553	13.6901
254.928	0.501038
258.302	2.73377
261.677	0.573975
265.052	3.58795
268.427	2.23779
271.802	1.38769
275.176	0.897888
278.551	5.69708
281.926	8.3819
285.301	2.42426
288.676	8.1192
292.05	7.29846
295.425	7.70837
298.8	6.46478
302.175	33.8406
305.55	73.5103
308.925	125.934
312.299	199.15
315.674	303.502
319.049	431.858
322.424	584.556
325.799	758.163
329.173	944.19
332.548	1033.49
335.923	1001.82
339.298	1004.85
342.673	1076.8
346.048	1184.52
349.422	1217.92
352.797	1190.75
356.172	1196.64
359.547	1237.04
362.922	1279.46
366.296	1279.16
369.671	1214.12
373.046	1086.28
376.421	912.394
379.796	726.761
383.171	588.647
386.545	504.885
389.92	500.319
393.295	561.844
396.67	716.7
400.045	926.271
403.419	1178.88
406.794	1484.79
410.169	1720.93
413.544	1591.37
416.919	1122.58
420.293	672.658
423.668	398.469
427.043	224.34
430.418	128.519
433.793	66.9146
437.168	28.0727
440.542	9.00165
443.917	5.68286
447.292	10.7224
450.667	20.4681
454.042	16.2654
457.416	17.6812
460.791	12.0193
464.166	5.06891
467.541	3.22684
470.916	2.09042
474.291	12.3511
477.665	12.979
481.04	19.1176
484.415	21.4904
487.79	28.1535
491.165	28.8742
494.539	36.1803
497.914	38.9822
501.289	44.4779
504.664	46.9904
508.039	47.7308
511.413	45.438
514.788	35.1137
518.163	29.3307
521.538	26.9798
524.913	28.4311
528.288	25.2593
531.663	23.8459
535.037	21.4547
538.412	18.9068
541.787	23.7928
545.162	18.1285
548.537	19.7147
551.911	17.2719
555.286	14.0771
558.661	10.9338
562.036	13.0105
565.411	11.1102
568.785	13.8078
572.16	13.7741
575.535	15.1294
578.91	12.3708
582.285	9.80853
585.659	14.5278
589.034	9.73346
592.409	12.1062
595.784	13.8929
599.159	9.32999
602.534	16.8614
605.908	19.2141
609.283	28.402
612.658	41.8839
616.033	55.0505
619.408	60.4197
622.783	73.2835
626.157	90.0456
629.532	108.419
632.907	134.179
636.282	156.687
639.657	176.907
643.031	175.205
646.406	156.846
649.781	120.088
653.156	88.8831
656.531	53.2032
659.905	24.426
663.28	4.98218
666.655	0.90271
670.03	3.33701
673.405	3.80457
676.779	15.4827
680.154	46.1589
683.529	87.4381
686.904	144.052
690.279	198.357
693.654	255.534
697.028	300.501
700.403	354.949
703.778	380.671
707.153	360.447
710.528	314.605
713.903	245.358
717.277	187.519
720.652	130.293
724.027	92.6231
727.402	49.9695
730.777	17.5715
734.151	5.99615
737.526	2.53424
740.901	13.3382
744.276	5.32928
747.651	3.12396
751.025	17.1986
754.4	35.671
757.775	70.4877
761.15	99.7999
764.525	140.872
767.9	167.37
771.274	183.342
774.649	184.118
778.024	167.29
781.399	127.166
784.774	105.987
788.149	72.6377
791.523	39.989
794.898	24.0759
798.273	2.23621
801.648	12.9774
805.023	20.2936
808.397	16.6603
811.772	2.34497
815.147	25.3466
818.522	67.229
821.897	125.338
825.271	215.359
828.646	330.471
832.021	500.589
835.396	723.13
838.771	1043.39
842.146	1471.17
845.52	2073.26
848.895	2874.59
852.27	3965.22
855.645	5345.33
859.02	6908.4
862.394	8321.48
865.769	9202.7
869.144	9124.23
872.519	8307.64
875.894	7233.92
879.269	6162.35
882.643	5141.58
886.018	4200.81
889.393	3333.37
892.768	2537.4
896.143	1856.07
899.518	1322.06
902.892	931.255
906.267	663.726
909.642	498.543
913.017	376.947
916.391	295.942
919.766	230.122
923.141	191.274
926.516	145.109
929.891	91.4724
933.266	49.7963
936.64	15.8071
940.015	4.93982
943.39	15.6797
946.765	19.2211
950.14	20.0459
953.514	14.2503
956.889	7.47263
960.264	0.488647
963.639	12.0235
967.014	23.2563
970.389	29.3716
973.763	37.6654
977.138	52.522
980.513	61.9506
983.888	71.8292
987.263	76.5621
990.638	85.3936
994.012	89.3701
997.387	105.015
1000.76	101.404
1004.14	97.4535
1007.51	90.3412
1010.89	80.7526
1014.26	72.2953
1017.64	60.5875
1021.01	58.4905
1024.39	51.943
1027.76	43.5573
1031.13	40.8694
1034.51	39.4384
1037.88	34.2559
1041.26	34.7955
1044.63	28.5352
1048.01	24.3872
1051.38	25.9041
1054.76	21.5383
1058.13	19.5715
1061.51	14.2975
1064.88	15.1915
1068.26	13.8365
1071.63	15.0935
1075.01	9.85303
1078.38	9.53691
1081.76	7.62149
1085.13	6.4874
1088.51	6.90491
1091.88	7.48686
1095.26	3.01375
1098.63	4.03426
1102.01	4.97324
1105.38	1.59364
1108.76	3.43283
1112.13	1.04561
1115.51	4.03406
1118.88	0.488983
1122.26	1.03096
1125.63	1.07091
1129.01	0.903763
1132.38	0.121506
1135.76	3.02515
1139.13	0.14238
1142.5	1.33658
1145.88	0.973755
1149.25	2.44757
1152.63	0.175705
1156	0.03566
1159.38	2.06251
1162.75	0.146225
1166.13	2.31732
1169.5	1.0137
1172.88	3.29741
1176.25	0.34549
1179.63	0.329498
1183	2.22817
1186.38	2.61462
1189.75	5.26633
1193.13	1.24719
1196.5	3.76648
1199.88	6.11507
1203.25	7.96913
1206.63	5.55052
1210	6.41473
1213.38	3.06133
1216.75	3.11676
1220.12	1.94713
1223.5	4.34549
1226.88	5.85055
1230.25	3.38614
1233.62	0.428223
1237	4.97349
1240.37	1.88003
1243.75	2.91797
1247.12	1.72208
1250.5	2.63501
1253.87	1.82945
1257.25	2.22504
1260.62	3.11644
1264	0.44075
1267.37	3.62413
1270.75	3.51941
1274.12	4.02985
1277.5	2.20412
1280.87	4.6893
1284.25	5.65488
1287.62	2.39374
1291	1.66151
1294.37	1.37442
1297.75	2.84612
1301.12	0.059341
