Measurement: Raman, 780 nm, unoriented, Raman Data Processed
Mineral: Pucherite
Rruff sample: R080137
Ideal chemistry: BiVO_4_
Locality: Fazenda da Posse, Sao Jose do Brejauba, Minas Gerais, Brazil
Source: Luiz Menezes
Description: Reddish brown tabular crystals associated with greenish yellow bismutite
Raman shift (cm-1)	intensity
134.281	0
137.174	4.78674
140.066	76.224
142.959	189.592
145.852	299.46
148.744	357.427
151.637	248.58
154.53	155.598
157.423	162.575
160.315	231.573
163.208	415.156
166.101	696.699
168.994	1004.49
171.886	1358.13
174.779	1765.43
177.672	2199.77
180.564	2669.7
183.457	3023.99
186.35	2975.19
189.242	2373.26
192.135	1680.42
195.028	1182.48
197.921	874.929
200.813	681.548
203.706	540.572
206.599	428.2
209.491	338.105
212.384	269.76
215.277	201.306
218.169	150.387
221.062	128.175
223.955	111.035
226.847	61.1763
229.74	44.4231
232.633	35.0317
235.526	22.4891
238.418	5.30322
241.311	6.71167
244.204	4.44104
247.096	15.9017
249.989	14.9999
252.882	27.3169
255.774	29.0676
258.667	24.2631
261.56	19.6953
264.453	20.9796
267.345	4.82568
270.238	12.5983
273.131	5.81091
276.023	25.528
278.916	30.1047
281.809	55.0598
284.702	85.3348
287.594	112.231
290.487	147.99
293.38	176.252
296.272	230.62
299.165	271.196
302.058	328.935
304.95	396.643
307.843	481.731
310.736	602.168
313.628	734.924
316.521	897.913
319.414	1047.19
322.307	1233.53
325.199	1466.85
328.092	1683.09
330.985	1803.31
333.877	1618.63
336.77	1343.6
339.663	1152.41
342.556	1043.25
345.448	1017.2
348.341	982.852
351.234	913.609
354.126	868.948
357.019	873.019
359.912	908.208
362.805	951.536
365.697	974.555
368.59	950.15
371.483	889.901
374.375	749.384
377.268	611.048
380.161	445.787
383.053	317.249
385.946	227.337
388.839	162.486
391.731	167.845
394.624	193.877
397.517	270.1
400.41	359.37
403.302	449.17
406.195	602.396
409.088	778.634
411.98	902.286
414.873	820.164
417.766	539.907
420.659	277.687
423.551	136.886
426.444	65.7935
429.337	37.4598
432.229	31.5328
435.122	17.1352
438.015	29.8269
440.907	32.0404
443.8	24.3702
446.693	14.7809
449.586	7.5957
452.478	2.0271
455.371	5.47803
458.264	12.3547
461.156	17.6471
464.049	19.8475
466.942	22.3101
469.834	7.77014
472.727	15.4044
475.62	10.709
478.513	3.57776
481.405	6.72082
484.298	12.7731
487.191	33.5591
490.083	40.6368
492.976	59.9056
495.869	66.9507
498.762	92.6593
501.654	106.567
504.547	120.804
507.44	148.602
510.332	157.087
513.225	169.915
516.118	174.886
519.01	176.615
521.903	166.35
524.796	154.637
527.688	130.289
530.581	118.097
533.474	92.864
536.367	78.8962
539.259	62.8812
542.152	43.5751
545.045	34.767
547.937	22.9037
550.83	21.8099
553.723	14.7919
556.615	8.67444
559.508	2.89056
562.401	2.02899
565.294	6.95984
568.186	0.568176
571.079	0.456848
573.972	3.6311
576.864	1.37079
579.757	4.14178
582.65	8.38055
585.543	7.98016
588.435	8.45453
591.328	14.6148
594.221	16.1363
597.113	16.9514
600.006	33.2405
602.899	29.4643
605.791	43.3204
608.684	59.5286
611.577	68.605
614.47	85.2095
617.362	106.105
620.255	122.098
623.148	150.942
626.04	194.214
628.933	242.298
631.826	305.428
634.718	362.837
637.611	425.908
640.504	480.462
643.397	514.329
646.289	488.463
649.182	419.065
652.075	332.391
654.967	254.196
657.86	189.668
660.753	145.732
663.645	120.038
666.538	88.2439
669.431	76.1035
672.324	64.0691
675.216	63.059
678.109	65.6144
681.002	69.3418
683.894	82.2866
686.787	107.127
689.68	125.014
692.572	133.851
695.465	136.403
698.358	142.151
701.251	158.112
704.143	168.041
707.036	170.93
709.929	143.787
712.821	124.332
715.714	86.1946
718.607	68.6035
721.5	51.2315
724.392	34.8668
727.285	29.3322
730.178	20.1203
733.07	10.826
735.963	8.35873
738.856	1.26996
741.749	2.71237
744.641	4.29526
747.534	4.79959
750.427	6.15494
753.319	9.66324
756.212	10.3406
759.105	8.57651
761.997	9.77798
764.89	1.73462
767.783	3.33084
770.676	10.35
773.568	11.6711
776.461	12.3308
779.354	7.6662
782.246	3.54419
785.139	4.42532
788.032	7.24487
790.924	6.50043
793.817	19.6458
796.71	22.275
799.602	33.6123
802.495	38.877
805.388	48.045
808.281	62.1125
811.173	59.0638
814.066	71.2447
816.959	77.0306
819.851	83.4561
822.744	94.3044
825.637	104.419
828.529	120.355
831.422	137.183
834.315	164.475
837.208	206.544
840.1	259.256
842.993	346.178
845.886	461.142
848.778	640.213
851.671	893.202
854.564	1218.81
857.457	1650.31
860.349	2130.15
863.242	2690.77
866.135	3167.34
869.027	3391.44
871.92	3232.32
874.813	2812.16
877.705	2350.6
880.598	1955.03
883.491	1619.49
886.384	1329.09
889.276	1084.51
892.169	857.901
895.062	663.376
897.954	495.045
900.847	358.398
903.74	247.704
906.632	167.746
909.525	119.757
912.418	86.1172
915.311	58.1749
918.203	44.3249
921.096	28.2257
923.989	19.8426
926.881	11.9396
929.774	3.50418
932.667	1.07816
935.559	4.10274
938.452	7.31862
941.345	6.24561
944.238	6.95929
947.13	3.95641
950.023	9.35799
952.916	3.85509
955.808	0.418167
958.701	2.30283
961.594	4.72238
964.486	4.83403
967.379	11.0859
970.272	11.6153
973.165	14.5607
976.057	14.8812
978.95	19.5621
981.843	21.7175
984.735	22.4445
987.628	29.1976
990.521	28.2077
993.413	27.1857
996.306	33.565
999.199	31.1244
1002.09	29.6368
1004.98	28.9069
1007.88	23.3325
1010.77	22.5256
1013.66	20.3417
1016.55	19.7186
1019.45	18.2659
1022.34	18.4361
1025.23	16.1325
1028.13	18.7227
1031.02	14.7873
1033.91	16.6086
1036.8	12.8556
1039.7	13.165
1042.59	14.3085
1045.48	17.1551
1048.38	12.5526
1051.27	15.027
1054.16	11.5989
1057.05	11.9309
1059.95	12.8065
1062.84	10.9833
1065.73	12.0126
1068.62	9.35335
1071.52	9.30279
1074.41	6.33183
1077.3	4.05045
1080.19	1.32841
1083.09	2.47697
1085.98	3.21321
1088.87	1.15759
1091.77	1.23711
1094.66	1.35136
1097.55	2.37613
1100.44	3.67343
1103.34	0.076904
1106.23	0.344147
1109.12	0.722458
1112.01	0.725555
1114.91	1.45549
1117.8	1.18561
1120.69	1.59439
1123.59	3.78713
1126.48	1.76357
1129.37	3.7946
1132.26	4.24103
1135.16	7.7448
1138.05	5.86363
1140.94	6.78671
1143.83	7.18745
1146.73	9.23721
1149.62	10.2397
1152.51	8.66078
1155.4	8.25963
1158.3	7.31908
1161.19	11.0631
1164.08	9.97612
1166.98	8.90166
1169.87	10.6109
1172.76	10.3984
1175.65	16.2261
1178.55	13.4887
1181.44	14.8302
1184.33	13.5468
1187.22	13.2878
1190.12	15.2758
1193.01	14.5496
1195.9	16.1136
1198.8	14.6476
1201.69	13.7046
1204.58	18.2293
1207.47	11.851
1210.37	11.4007
1213.26	9.21372
1216.15	13.4229
1219.04	6.06314
1221.94	9.75665
1224.83	4.60797
1227.72	1.8913
1230.62	1.3624
1233.51	2.28119
1236.4	1.87814
1239.29	4.84051
1242.19	6.45847
1245.08	9.85739
1247.97	13.9222
1250.86	20.1139
1253.76	14.1913
1256.65	19.3389
1259.54	16.2299
1262.43	7.89716
1265.33	11.2029
1268.22	7.62927
1271.11	8.79797
1274.01	10.8535
1276.9	2.63843
1279.79	8.63177
1282.68	3.1264
1285.58	0.260559
