Measurement: Raman, 532 nm, unoriented, Raman Data Processed
Mineral: Pucherite
Rruff sample: R060824
Ideal chemistry: BiVO_4_
Locality: Pucher Shaft, Wolfgang Maa√üen mine field, Schneeberg District, Saxony, Germany
Source: Michael Scott
Description: Brown tabular crystals associated with green namibite. Pale yellow crust is also pucherite.
Raman shift (cm-1)	intensity
121.041	0
124.415	4.22852
127.79	51.448
131.165	249.486
134.54	751.408
137.915	1690.46
141.29	3057.67
144.664	4509.88
148.039	5221.48
151.414	3799.88
154.789	2092.39
158.164	1582.1
161.538	1797.44
164.913	2459.67
168.288	3421.01
171.663	5068.29
175.038	7393.54
178.413	10194.3
181.787	12628.2
185.162	13551.7
188.537	11186
191.912	7428.59
195.286	4662.08
198.661	2949.65
202.036	1905.72
205.411	1257.94
208.786	869.435
212.161	636.88
215.535	457.233
218.91	334.846
222.285	308.541
225.66	239.848
229.035	267.685
232.41	279.77
235.784	191.774
239.159	127.921
242.534	61.3318
245.909	38.3599
249.284	2.89185
252.658	59.5625
256.033	46.5042
259.408	56.0964
262.783	2.60498
266.158	11.1687
269.532	36.9524
272.907	4.83984
276.282	21.3294
279.657	99.1799
283.032	94.6682
286.406	104.374
289.781	66.0383
293.156	39.6934
296.531	72.0352
299.906	132.369
303.281	261.481
306.655	361.211
310.03	454.715
313.405	608.2
316.78	969.527
320.155	1493.81
323.53	2203.43
326.904	3111.86
330.279	3988.34
333.654	4511.01
337.029	4818.44
340.404	5251.19
343.778	5918.72
347.153	6504.3
350.528	6779.95
353.903	6811.64
357.278	7225.78
360.652	8045.85
364.027	9038.05
367.402	9573.71
370.777	9393.94
374.152	8338.86
377.526	6833.49
380.901	5152.29
384.276	3929.14
387.651	3069.26
391.026	2639.4
394.401	2621.82
397.775	2975.27
401.15	3981.95
404.525	5610.73
407.9	7817.69
411.275	9961.1
414.65	10299.3
418.024	7796.85
421.399	4746.56
424.774	2719.27
428.149	1500.38
431.524	866.097
434.898	457.461
438.273	233.129
441.648	113.158
445.023	4.17773
448.398	56.2144
451.772	90.2974
455.147	107.75
458.522	98.0935
461.897	64.3279
465.272	44.7891
468.647	16.3696
472.021	63.9375
475.396	66.8333
478.771	53.3816
482.146	47.7217
485.521	77.3737
488.895	104.649
492.27	115.347
495.645	158.566
499.02	175.151
502.395	207.121
505.77	224.794
509.144	201.611
512.519	145.173
515.894	127.833
519.269	112.409
522.644	117.863
526.018	111.009
529.393	129.258
532.768	109.353
536.143	98.2842
539.518	74.1771
542.892	59.1122
546.267	57.5276
549.642	32.1301
553.017	42.1907
556.392	19.7756
559.766	0.498291
563.141	49.8838
566.516	39.9312
569.891	33.272
573.266	45.1669
576.641	61.1613
580.015	52.6538
583.39	7.34509
586.765	69.2267
590.14	50.5924
593.515	66.0559
596.89	52.9314
600.264	69.3945
603.639	61.4866
607.014	51.0403
610.389	77.0808
613.763	126.347
617.138	133.817
620.513	161.025
623.888	212.176
627.263	288.287
630.638	318.736
634.012	412.629
637.387	496.269
640.762	578.448
644.137	670.365
647.512	585.074
650.886	511.872
654.261	339.511
657.636	221.237
661.011	81.2788
664.386	37.8989
667.761	16.7878
671.135	41.4248
674.51	13.5332
677.885	12.186
681.26	162.561
684.635	357.444
688.01	629.049
691.384	986.894
694.759	1461.96
698.134	2079.88
701.509	2835.97
704.883	3522.08
708.258	3657.08
711.633	3261.41
715.008	2523.89
718.383	2011.32
721.758	1540.03
725.132	1158.81
728.507	866.189
731.882	719.83
735.257	523.07
738.632	393.469
742.006	324.783
745.381	276.025
748.756	312.1
752.131	309.825
755.506	359.944
758.881	388.879
762.255	287.217
765.63	181.607
769.005	92.6812
772.38	51.6641
775.755	38.523
779.13	61.4302
782.504	104.28
785.879	112.404
789.254	85.6626
792.629	139.282
796.003	1.81152
799.378	96.792
802.753	243.474
806.128	437.332
809.503	767.921
812.878	936.455
816.252	918.867
819.627	938.786
823.002	1125.37
826.377	1419.02
829.752	1962.53
833.127	2562.22
836.501	3411.56
839.876	4513.18
843.251	6138.37
846.626	8483.04
850	11918.7
853.375	17019.5
856.75	24798.5
860.125	36159
863.5	50373.1
866.875	63918
870.249	68573.5
873.624	62590
876.999	52457.3
880.374	43241.2
883.749	35599.4
887.123	28216.9
890.498	21625
893.873	15492.6
897.248	10669.9
900.623	7111.12
903.998	4789.46
907.372	3342.7
910.747	2379.29
914.122	1731.08
917.497	1271.53
920.872	1000.36
924.247	817.251
927.621	647.674
930.996	367.81
934.371	156.513
937.746	49.3543
941.12	28.0742
944.495	61.2192
947.87	81.5227
951.245	116.257
954.62	109.94
957.995	75.5808
961.369	7.10107
964.744	20.0068
968.119	56.3802
971.494	103.416
974.869	118.265
978.244	170.69
981.618	214.827
984.993	272.018
988.368	286.639
991.743	342.846
995.118	380.049
998.492	419.778
1001.87	440.974
1005.24	465.052
1008.62	423.84
1011.99	399.748
1015.37	357.19
1018.74	344.948
1022.12	283.913
1025.49	263.07
1028.87	245.38
1032.24	219.542
1035.62	197.548
1038.99	165.791
1042.37	172.067
1045.74	157.682
1049.12	122.778
1052.49	134.455
1055.86	133.383
1059.24	105.987
1062.61	103.524
1065.99	88.2886
1069.36	93.9583
1072.74	93.4972
1076.11	55.7474
1079.49	53.3274
1082.86	53.2344
1086.24	39.165
1089.61	20.676
1092.99	59.2969
1096.36	48.2339
1099.74	22.1642
1103.11	38.9069
1106.49	61.7866
1109.86	25.6888
1113.24	42.3785
1116.61	30.4769
1119.99	17.0609
1123.36	24.7602
1126.73	1.21033
1130.11	46.147
1133.48	25.6834
1136.86	3.00195
1140.23	17.001
1143.61	5.12097
1146.98	4.01965
1150.36	7.98047
1153.73	0.83374
1157.11	5.50207
1160.48	13.0101
1163.86	12.28
1167.23	2.01111
1170.61	1.99011
1173.98	11.9204
1177.36	42.2012
1180.73	16.6909
1184.11	36.7164
1187.48	9.25049
1190.86	36.3671
1194.23	0.004639
1197.61	29.748
1200.98	36.0889
1204.36	54.1276
1207.73	27.632
1211.11	53.9712
1214.48	35.1533
1217.86	48.7535
1221.23	16.016
1224.61	29.14
1227.98	28.1864
1231.36	38.9932
1234.73	26.1183
1238.1	31.2721
1241.48	27.9561
1244.85	18.5826
1248.23	38.808
1251.6	31.6641
1254.98	39.9912
1258.35	24.2255
1261.73	19.6664
1265.1	6.5437
1268.48	37.5664
1271.85	48.7463
1275.23	31.8419
1278.6	54.9241
1281.98	9.73682
1285.35	15.4363
1288.73	13.7925
1292.1	0.073486
