Measurement: Raman, 532 nm, unoriented, Raman Data Processed
Mineral: Pumpellyite-(Mg)
Rruff sample: R120172
Ideal chemistry: Ca_2_MgAl_2_(SiO_4_)(Si_2_O_7_)(OH)_2_H_2_O
Locality: Archidona, Malaga Province, Spain
Source: Bob Jenkins
Description: Aggregates of dark-green acicular crystals, associated with light green epidote
Raman shift (cm-1)	intensity
118.228	0
121.603	0.297791
124.978	4.4986
128.352	15.8214
131.727	38.0739
135.102	14.5593
138.477	2.07422
141.852	3.00537
145.227	5.18079
148.601	13.706
151.976	20.9411
155.351	26.6008
158.726	22.2758
162.101	25.1466
165.476	19.7215
168.85	11.4572
172.225	10.0669
175.6	7.3111
178.975	11.9823
182.35	20.1928
185.724	29.7587
189.099	27.2808
192.474	27.0682
195.849	39.1879
199.224	47.7527
202.599	53.5924
205.973	56.4797
209.348	61.0191
212.723	69.5718
216.098	77.215
219.473	84.8903
222.847	86.1976
226.222	72.9708
229.597	53.8496
232.972	31.3631
236.347	20.1619
239.721	12.2489
243.096	8.28754
246.471	1.67291
249.846	1.06354
253.221	0.104614
256.596	3.34522
259.97	10.0882
263.345	18.3284
266.72	30.7969
270.095	50.8832
273.47	78.6533
276.844	86.6735
280.219	82.3813
283.594	74.8613
286.969	70.5365
290.344	67.4774
293.719	52.181
297.093	35.5156
300.468	23.809
303.843	17.2131
307.218	18.4119
310.593	20.7473
313.967	22.6102
317.342	24.5587
320.717	18.0267
324.092	10.9794
327.467	1.50641
330.842	5.38532
334.216	3.47003
337.591	4.7804
340.966	21.96
344.341	45.8578
347.716	69.6096
351.091	97.3886
354.465	111.36
357.84	102.612
361.215	91.9058
364.59	83.819
367.964	77.1741
371.339	71.5455
374.714	68.1067
378.089	56.2403
381.464	49.4642
384.839	46.3639
388.213	38.7573
391.588	22.6246
394.963	11.3404
398.338	6.26434
401.713	4.54956
405.087	8.16272
408.462	2.28046
411.837	8.9751
415.212	16.3989
418.587	25.722
421.962	24.6443
425.336	19.9293
428.711	11.997
432.086	3.39832
435.461	5.34766
438.836	7.92261
442.211	9.90497
445.585	5.89954
448.96	1.0426
452.335	2.65295
455.71	3.99402
459.085	5.63025
462.459	4.9906
465.834	1.46167
469.209	8.71838
472.584	27.1377
475.959	45.6985
479.334	67.2595
482.708	84.8817
486.083	87.6599
489.458	89.281
492.833	79.5292
496.208	64.5516
499.582	53.8767
502.957	48.9383
506.332	50.7002
509.707	49.3977
513.082	40.9529
516.457	36.8259
519.831	38.2423
523.206	46.4543
526.581	57.0601
529.956	65.1605
533.331	83.679
536.705	104.022
540.08	125.044
543.455	134.649
546.83	117.789
550.205	82.4325
553.58	54.5294
556.954	34.9486
560.329	32.0911
563.704	41.7162
567.079	50.892
570.454	73.5132
573.828	100.443
577.203	127.124
580.578	149.683
583.953	169.286
587.328	180.928
590.702	205.017
594.077	229.612
597.452	247.808
600.827	242.522
604.202	201.213
607.577	138.648
610.951	78.7766
614.326	38.168
617.701	18.7997
621.076	6.68616
624.451	0.330811
627.825	4.84875
631.2	6.17017
634.575	4.79706
637.95	3.84589
641.325	0.358521
644.699	7.27197
648.074	8.98596
651.449	8.89368
654.824	15.7664
658.199	15.2925
661.574	20.1953
664.948	28.0116
668.323	38.0815
671.698	52.4425
675.073	75.2812
678.448	96.0392
681.822	138.14
685.197	185.197
688.572	245.755
691.947	292.871
695.322	294.01
698.697	252.485
702.071	186.989
705.446	126.555
708.821	87.0581
712.196	60.218
715.571	41.8373
718.946	31.9147
722.32	24.1542
725.695	18.406
729.07	16.0695
732.445	13.038
735.82	8.99927
739.194	7.36084
742.569	5.25012
745.944	8.09668
749.319	5.85828
752.694	6.25012
756.068	3.37195
759.443	2.80237
762.818	2.58191
766.193	0.001221
769.568	0.299072
772.943	0.210693
776.317	0.578857
779.692	2.58167
783.067	6.36133
786.442	7.62268
789.817	15.0225
793.192	20.0768
796.566	27.6426
799.941	49.0566
803.316	71.157
806.691	99.3695
810.066	113.073
813.44	111.631
816.815	84.6421
820.19	57.6121
823.565	32.948
826.94	15.7991
830.314	7.86426
833.689	0.488403
837.064	3.27869
840.439	1.45435
843.814	0.36438
847.188	4.75073
850.563	0.654663
853.938	9.61682
857.313	24.3361
860.688	28.2267
864.063	33.5424
867.437	32.7257
870.812	33.6949
874.187	29.772
877.562	28.6963
880.937	22.9377
884.312	15.366
887.686	11.9912
891.061	6.28552
894.436	16.0469
897.811	13.0383
901.186	28.3115
904.56	49.4276
907.935	77.5443
911.31	104.343
914.685	125.436
918.06	131.449
921.434	123.76
924.809	113.938
928.184	90.5504
931.559	68.9477
934.934	45.4681
938.309	29.6212
941.683	16.726
945.058	5.61963
948.433	5.2677
951.808	0.304077
955.183	1.04602
958.558	7.09949
961.932	21.8693
965.307	39.8212
968.682	63.5127
972.057	87.0652
975.432	111.368
978.806	124.854
982.181	137.944
985.556	137.483
988.931	131.484
992.306	108.503
995.681	83.4821
999.055	67.1206
1002.43	65.0051
1005.8	51.9525
1009.18	44.5594
1012.55	35.2408
1015.93	22.9406
1019.3	18.6092
1022.68	8.30737
1026.05	2.47925
1029.43	3.02673
1032.8	0.600342
1036.18	1.09167
1039.55	0.251953
1042.93	0.403931
1046.3	1.60327
1049.68	0.199829
1053.05	2.01709
1056.43	2.49146
1059.8	2.43945
1063.18	1.86548
1066.55	3.13013
1069.93	4.24194
1073.3	4.7406
1076.68	0.328369
1080.05	1.48071
1083.43	3.14453
1086.8	0.034546
1090.17	1.45923
1093.55	2.83167
1096.92	4.63708
1100.3	9.05798
1103.67	5.4342
1107.05	7.01355
1110.42	5.18359
1113.8	4.28955
1117.17	3.51856
1120.55	9.56909
1123.92	5.95349
1127.3	6.04932
1130.67	5.81299
1134.05	8.33179
1137.42	9.94482
1140.8	7.18213
1144.17	11.1543
1147.55	5.11462
1150.92	9.01941
1154.3	9.4259
1157.67	12.9526
1161.05	7.75256
1164.42	8.90515
1167.8	9.65332
1171.17	15.1154
1174.55	13.8427
1177.92	13.3737
1181.3	13.5282
1184.67	13.6965
1188.05	14.0241
1191.42	15.3982
1194.8	11.4828
1198.17	11.3782
1201.54	10.394
1204.92	11.8851
1208.29	9.37976
1211.67	7.73572
1215.04	4.48731
1218.42	5.58911
1221.79	6.9646
1225.17	1.60998
1228.54	0.925781
1231.92	2.52576
1235.29	0.899536
1238.67	0.045044
1242.04	2.68811
1245.42	3.229
1248.79	0.703979
1252.17	3.5177
1255.54	5.15894
1258.92	5.49329
1262.29	3.3468
1265.67	0.971069
1269.04	4.73865
1272.42	2.39551
1275.79	1.52417
1279.16	2.13342
1282.54	4.09326
1285.91	0.394775
1289.29	3.23755
1292.66	3.81799
1296.04	0.394653
1299.41	2.20776
