Measurement: Raman, 532 nm, unoriented, Raman Data Processed
Mineral: Pumpellyite-(Al)
Rruff sample: R070131
Ideal chemistry: Ca_2_Al_3_(SiO_4_)(Si_2_O_7_)(OH,O)_2_H_2_O
Locality: La Fl√®che Quarry, Bertrix, Luxembourg Province, Belgium
Source: Michael Scott
Description: Pale green radiating fibrous to bladed crystals
Raman shift (cm-1)	intensity
148.253	0
151.146	153.958
154.039	264.666
156.931	199.497
159.824	135.509
162.717	199.684
165.609	267.183
168.502	231.082
171.395	280.415
174.287	161.634
177.18	105.19
180.073	5.50439
182.966	12.4141
185.858	18.7622
188.751	20.4634
191.644	6.39795
194.536	5.0293
197.429	38.8569
200.322	95.9477
203.214	209.421
206.107	279.271
209	424.954
211.893	561.682
214.785	675.693
217.678	766.926
220.571	826.662
223.463	798
226.356	870.739
229.249	785.361
232.142	618.031
235.034	526.981
237.927	446.503
240.82	326.071
243.712	214.273
246.605	148.515
249.498	11.584
252.39	1.62207
255.283	44.7256
258.176	27.6182
261.068	7.87207
263.961	124.678
266.854	158.059
269.747	440.369
272.639	634.749
275.532	925.482
278.425	1165.22
281.317	1364.38
284.21	1200.44
287.103	949.68
289.996	785.4
292.888	664.961
295.781	498.213
298.674	424.453
301.566	272.411
304.459	229.584
307.352	374.567
310.245	315.787
313.137	421.53
316.03	472.305
318.923	439.432
321.815	535.554
324.708	401.703
327.601	219.258
330.493	43.5312
333.386	0.267578
336.279	63.1338
339.171	11.498
342.064	52.5478
344.957	116.152
347.85	265.426
350.742	634.329
353.635	836.529
356.528	974.562
359.42	1173.92
362.313	1277.87
365.206	1375.57
368.099	1415.94
370.991	1485.86
373.884	1629.14
376.777	1459.68
379.669	1288.99
382.562	965.766
385.455	695.612
388.347	525.858
391.24	375.015
394.133	291.085
397.026	150.226
399.918	112.505
402.811	48.9258
405.704	138.506
408.596	209.746
411.489	290.705
414.382	420.713
417.274	582.779
420.167	629.231
423.06	721.776
425.952	601.937
428.845	524.261
431.738	275.694
434.631	120.882
437.523	61.0166
440.416	9.66309
443.309	1.10059
446.201	57.8652
449.094	104.309
451.987	8.74414
454.88	29.4648
457.772	25.0518
460.665	62.0957
463.558	21.0244
466.45	15.2041
469.343	14.4688
472.236	3.08594
475.128	61.4023
478.021	267.134
480.914	386.988
483.807	605.794
486.699	751.054
489.592	966.399
492.485	1076.42
495.377	966.242
498.27	669.307
501.163	435.138
504.055	320.19
506.948	212.577
509.841	9.14355
512.734	14.5098
515.626	24.9922
518.519	117.802
521.412	182.462
524.304	367.568
527.197	489.376
530.09	722.732
532.982	818.614
535.875	930.663
538.768	1045.98
541.661	1135.17
544.553	986.506
547.446	941.65
550.339	759.709
553.231	487.498
556.124	254.337
559.017	77.6611
561.909	28.8848
564.802	63.9424
567.695	80.9111
570.588	75.9502
573.48	181.594
576.373	312.865
579.266	351.901
582.158	498.265
585.051	679.825
587.944	734.562
590.837	727.37
593.729	1001.89
596.622	967.672
599.515	1105.84
602.407	1234.89
605.3	1136.67
608.193	1077.55
611.085	794.096
613.978	537.286
616.871	316.617
619.764	216.151
622.656	148.861
625.549	90.6934
628.442	6.74316
631.334	24.6191
634.227	7.78125
637.12	19.3135
640.013	40.1875
642.905	29.1162
645.798	15.6377
648.691	10.3301
651.583	5.55566
654.476	20.9707
657.369	103.241
660.261	147.703
663.154	90.0488
666.047	115.588
668.939	243.006
671.832	243.236
674.725	369.488
677.618	410.799
680.51	724.822
683.403	1022.22
686.296	1543.04
689.188	2021.79
692.081	2498.39
694.974	2993.28
697.866	2799.7
700.759	2521.02
703.652	2045.38
706.545	1552.28
709.437	1115.38
712.33	922.863
715.223	623.064
718.115	410.596
721.008	317.865
723.901	299.477
726.793	190.309
729.686	234.918
732.579	178.574
735.472	139.002
738.364	119.228
741.257	101.406
744.15	56.4238
747.042	141.447
749.935	102.816
752.828	150.244
755.721	143.295
758.613	76.3106
761.506	158.623
764.399	165.555
767.291	131.922
770.184	80.1484
773.077	38.9961
775.969	44.0742
778.862	19.375
781.755	66.3828
784.648	16.4297
787.54	35.6133
790.433	6.59375
793.326	9.41602
796.218	124.953
799.111	231.279
802.004	292.019
804.896	475.732
807.789	622.596
810.682	837.174
813.574	891.971
816.467	837.752
819.36	664.41
822.253	507.709
825.145	257.715
828.038	228.252
830.931	97.8652
833.823	50.8027
836.716	101.311
839.609	38.168
842.501	58.6484
845.394	46.9648
848.287	68.7598
851.18	82.6113
854.072	301.941
856.965	266.303
859.858	375.627
862.75	532.856
865.643	659.625
868.536	656.533
871.428	632.791
874.321	545.481
877.214	532.019
880.107	583.604
882.999	476.672
885.892	503.043
888.785	483.602
891.678	400.068
894.57	373.072
897.463	274.291
900.356	305.381
903.248	385.897
906.141	451.315
909.034	647.697
911.926	779.479
914.819	1072.51
917.712	1152.62
920.605	1256.89
923.497	1237.6
926.39	1076.68
929.283	951.805
932.175	726.617
935.068	471.463
937.961	386.978
940.853	140.533
943.746	108.894
946.639	22.6895
949.532	17.498
952.424	121.893
955.317	76.4394
958.21	39.7754
961.102	48.6758
963.995	157.279
966.888	284.219
969.78	409.969
972.673	666.121
975.566	756.754
978.458	743.289
981.351	850.617
984.244	1011.63
987.137	815.688
990.029	945.834
992.922	972.99
995.815	966.832
998.707	828.109
1001.6	723.092
1004.49	712.111
1007.38	665.391
1010.28	748.67
1013.17	564.135
1016.06	616.316
1018.96	554.803
1021.85	346.191
1024.74	259.748
1027.63	122.014
1030.53	34.3105
1033.42	121.625
1036.31	94.8555
1039.2	61.6055
1042.1	28.3633
1044.99	40.2031
1047.88	110.748
1050.78	21.9609
1053.67	13.5898
1056.56	4.79688
1059.45	113.066
1062.35	70.1406
1065.24	50.791
1068.13	136.113
1071.03	86.9473
1073.92	92.1641
1076.81	340.299
1079.7	850.58
1082.6	1343.48
1085.49	1871.35
1088.38	1485.44
1091.27	485.535
1094.17	230.279
1097.06	83.8242
1099.95	151.934
1102.85	125.922
1105.74	28.0723
1108.63	50.3359
1111.52	115.791
1114.42	13.7715
1117.31	41.543
1120.2	55.8008
1123.09	200.971
1125.99	78.0254
1128.88	162.074
1131.77	116.143
1134.66	140.875
1137.56	140.285
1140.45	50.7754
1143.34	173.055
1146.23	50.1523
1149.13	88.3906
1152.02	53.668
1154.91	76.4531
1157.81	97.3418
1160.7	134.857
1163.59	46.623
1166.48	32.209
1169.38	79.8008
1172.27	105.139
1175.16	210.197
1178.06	155.373
1180.95	102.475
1183.84	197.963
1186.73	30.3633
1189.63	134.685
1192.52	115.535
1195.41	21.3027
1198.3	219.967
1201.2	23.9727
1204.09	119.459
1206.98	108.728
1209.88	92.1016
1212.77	146.047
1215.66	49.0586
1218.55	123.195
1221.44	55.2578
1224.34	57.0137
1227.23	128.955
1230.12	149.523
1233.02	81.7246
1235.91	30.6445
1238.8	149.732
1241.69	163.301
1244.59	8.2168
1247.48	186.557
1250.37	11.8398
1253.27	189.963
1256.16	98.6562
1259.05	217.227
1261.94	84.2148
1264.84	130.867
1267.73	152.719
1270.62	100.289
1273.51	227.102
1276.41	158.691
1279.3	113.629
1282.19	228.352
1285.09	153.949
1287.98	202.512
1290.87	154.262
1293.76	41.293
1296.66	162.746
1299.55	132.742
1302.44	154.629
