Measurement: Raman, 532 nm, unoriented, Raman Data Processed
Mineral: Pyrargyrite
Rruff sample: R050318
Ideal chemistry: Ag_3_SbS_3_
Locality: unknown
Source: Eugene Schlepp
Description: Black prismatic crystal
Measured chemistry: Ag_3.00_Sb_1.00_S_3.00_
Raman shift (cm-1)	intensity
112.363	0
115.738	711.465
119.113	812.325
122.487	726.581
125.862	540.301
129.237	420.568
132.612	524.779
135.986	815.177
139.361	938.025
142.736	838.654
146.111	779.527
149.486	737.62
152.861	537.131
156.235	597.086
159.61	679.94
162.985	722.249
166.36	830.867
169.735	890.046
173.109	988.674
176.484	2170.85
179.859	5087.27
183.234	8541.65
186.609	14009.9
189.984	6286.31
193.358	1552.7
196.733	573.946
200.108	322.301
203.483	131.15
206.858	63.242
210.232	110.575
213.607	26.224
216.982	8.771
220.357	44.856
223.732	26.515
227.107	112.076
230.481	588.298
233.856	2178.77
237.231	3069.13
240.606	7975.28
243.981	14716.6
247.355	23440.3
250.73	25303.2
254.105	9942.07
257.48	3813.62
260.855	1939.09
264.229	1150.16
267.604	621.874
270.979	338.9
274.354	74.132
277.729	40.075
281.104	51.582
284.478	11.039
287.853	32.728
291.228	33.244
294.603	42.75
297.978	59.283
301.352	42.421
304.727	50.878
308.102	157.483
311.477	150.403
314.852	225.721
318.227	194.057
321.601	207.853
324.976	136.121
328.351	183.373
331.726	153.437
335.101	161.03
338.475	194.188
341.85	307.888
345.225	393.981
348.6	490.376
351.975	574.625
355.349	586.547
358.724	567.198
362.099	899.623
365.474	1381.51
368.849	1736.68
372.224	1356.8
375.598	971.182
378.973	340.386
382.348	198.599
385.723	116.823
389.098	173.173
392.472	84.178
395.847	25.743
399.222	11.221
402.597	4.271
405.972	5.019
409.346	7.716
412.721	86.042
416.096	76.539
419.471	184.896
422.846	107.087
426.221	247.814
429.595	449.933
432.97	997.487
436.345	1670.59
439.72	2565.52
443.095	3801.69
446.47	4732.43
449.844	4031.88
453.219	2459.31
456.594	1550.59
459.969	947.681
463.344	666.253
466.718	573.639
470.093	451.734
473.468	325.685
476.843	321.281
480.218	283.661
483.592	372.385
486.967	279.006
490.342	215.872
493.717	136.812
497.092	91.889
500.466	7.613
503.841	42.669
507.216	123.584
510.591	123.322
513.966	141.427
517.341	17.35
520.715	62.955
524.09	125.481
527.465	143.333
530.84	33.003
534.215	52.158
537.589	48.57
540.964	85.009
544.339	15.727
547.714	32.398
551.089	59.827
554.464	29.384
557.838	0.794
561.213	23.189
564.588	17.472
567.963	116.309
571.338	79.186
574.713	20.272
578.087	21.596
581.462	5.406
584.837	78.001
588.212	105.26
591.586	83.202
594.961	135.634
598.336	58.243
601.711	6.173
605.086	83.507
608.461	111.53
611.835	120.298
615.21	126.586
618.585	16.319
621.96	51.653
625.335	183.646
628.709	112.467
632.084	40.508
635.459	10.333
638.834	22.485
642.209	58.866
645.584	18.072
648.958	89.471
652.333	170.591
655.708	94.203
659.083	145.312
662.458	160.877
665.833	85.626
669.207	138.59
672.582	113.566
675.957	36.748
679.332	138.874
682.706	221.627
686.081	242.274
689.456	357.772
692.831	430.428
696.206	503.607
699.581	611.043
702.955	561.599
706.33	544.719
709.705	481.061
713.08	288.441
716.455	248.748
719.83	125.146
723.204	143.863
726.579	117.259
729.954	46.442
733.329	20.498
736.704	44.848
740.078	37.447
743.453	58.462
746.828	149.914
750.203	30.433
753.578	0.07
756.952	136.175
760.327	72.388
763.702	54.761
767.077	51.865
770.452	102.178
773.826	39.309
777.201	67.215
780.576	77.904
783.951	46.236
787.326	79.215
790.701	150.857
794.075	133.488
797.45	30.882
800.825	31.831
804.2	36.765
807.575	36.655
810.95	15.109
814.324	108.26
817.699	114.276
821.074	43.812
824.449	88.749
827.823	44.124
831.198	60.064
834.573	113.222
837.948	79.768
841.323	69.81
844.698	166.176
848.072	126.914
851.447	55.861
854.822	93.523
858.197	37.158
861.572	117.843
864.946	138.716
868.321	31.138
871.696	29.59
875.071	96.009
878.446	182.93
881.821	127.368
885.195	116.71
888.57	203.64
891.945	243.847
895.32	204.207
898.695	284.653
902.07	204.746
905.444	140.321
908.819	40.979
912.194	92.284
915.569	49.149
918.943	210.729
922.318	141.515
925.693	202.749
929.068	224.5
932.443	176.981
935.818	65.332
939.192	170.908
942.567	115.397
945.942	7.112
949.317	100.044
952.692	66.065
956.067	50.518
959.441	118.294
962.816	162.58
966.191	112.354
969.566	54.292
972.941	162.855
976.315	56.938
979.69	40.203
983.065	80.295
986.44	28.916
989.815	43.734
993.19	3.268
996.564	88.787
999.939	107.699
1003.31	75.773
1006.69	3.113
1010.06	159.508
1013.44	67.096
1016.81	57.826
1020.19	212.775
1023.56	79.691
1026.94	145.709
1030.31	162.652
1033.69	255.773
1037.06	211.412
1040.44	136.912
1043.81	159.082
1047.19	132.363
1050.56	64.746
1053.94	206.324
1057.31	227.512
1060.69	137.176
1064.06	124.986
1067.43	21.062
1070.81	44.385
1074.18	135.039
1077.56	139.273
1080.93	10.854
1084.31	81.477
1087.68	205.484
1091.06	108.898
1094.43	174.809
1097.81	140.457
1101.18	147.682
1104.56	129.143
1107.93	192.514
1111.31	126.611
1114.68	107.145
1118.06	92.934
1121.43	21.188
1124.81	45.928
1128.18	67.945
1131.56	83.787
1134.93	104.471
1138.31	121.959
1141.68	275.641
1145.06	86.99
1148.43	54.102
1151.81	103.961
1155.18	169.916
1158.56	171.066
1161.93	201.365
1165.31	123.463
1168.68	47.801
1172.06	93.033
1175.43	177.865
1178.8	285.006
1182.18	160.398
1185.55	159.928
1188.93	123.605
1192.3	13.801
1195.68	20.996
1199.05	121.939
1202.43	93.426
1205.8	63.316
1209.18	32.453
1212.55	20.377
1215.93	5.553
1219.3	10.961
1222.68	91.854
1226.05	205.545
1229.43	141.996
1232.8	202.887
1236.18	210.586
1239.55	161.059
1242.93	257.418
1246.3	254.307
1249.67	348.336
1253.05	192.232
1256.42	179.365
1259.8	188.682
1263.17	83.32
1266.55	14.316
1269.92	113.576
1273.3	106.299
1276.67	107.6
1280.05	180.162
1283.42	106.359
1286.8	113.863
1290.17	127.998
1293.55	38.219
1296.92	74.082
1300.3	0.377
