Measurement: Raman, 780 nm, unoriented, Raman Data Processed
Mineral: Pyrargyrite
Rruff sample: R050290
Ideal chemistry: Ag_3_SbS_3_
Locality: San Guillermo Vein, Cueva Santa area, San Luis Shaft, Proa√±o mine, Fresnillo, Zacatecas, Mexico
Source: Dave Bunk Minerals
Description: Prismatic single crystal, deep red color on freshly broken surface
Measured chemistry: Ag_3.00_Sb_1.00_S_3.00_
Raman shift (cm-1)	intensity
140.735	0
143.628	0.28154
146.52	0.317024
149.413	0.470493
152.306	0.81937
155.199	3.41109
158.091	5.37582
160.984	8.53246
163.877	12.9843
166.769	17.1553
169.662	20.7433
172.555	24.405
175.447	28.5586
178.34	30.8653
181.233	28.9548
184.126	24.7473
187.018	19.4507
189.911	13.7664
192.804	8.40536
195.696	5.90185
198.589	3.77313
201.482	2.27033
204.375	1.20954
207.267	2.01237
210.16	0.803299
213.053	1.5542
215.945	0.604664
218.838	0.264877
221.731	0.014305
224.623	0.485798
227.516	1.17684
230.409	0.87653
233.302	0.036373
236.194	0.485867
239.087	1.13433
241.98	1.41895
244.872	1.74531
247.765	2.45206
250.658	1.93238
253.55	2.24461
256.443	0.87093
259.336	0.860981
262.228	0.427452
265.121	0.457466
268.014	0.117558
270.907	0.687145
273.799	0.763088
276.692	2.72908
279.585	4.73178
282.477	7.75738
285.37	11.5618
288.263	15.8532
291.156	22.558
294.048	29.5208
296.941	40.6697
299.834	51.7841
302.726	61.6898
305.619	64.9542
308.512	71.077
311.404	82.4429
314.297	99.903
317.19	115.652
320.082	147.226
322.975	177.124
325.868	169.376
328.761	120.83
331.653	94.0513
334.546	64.8286
337.439	35.3884
340.331	17.2283
343.224	8.54764
346.117	4.38445
349.01	2.79692
351.902	0.597977
354.795	0.205395
357.688	0.185137
360.58	0.208104
363.473	0.381528
366.366	0.189751
369.258	0.030596
372.151	0.106265
375.044	0.082612
377.937	0.469367
380.829	0.126657
383.722	0.066064
386.615	0.449789
389.507	0.472118
392.4	0.163694
395.293	0.491324
398.185	1.36468
401.078	1.43443
403.971	1.61326
406.863	2.09529
409.756	1.8418
412.649	2.00744
415.541	2.43378
418.434	2.28178
421.327	2.35299
424.22	2.17255
427.112	2.33059
430.005	2.17125
432.898	2.37177
435.79	1.77023
438.683	1.94876
441.576	1.54811
444.469	1.52409
447.361	1.73533
450.254	1.421
453.147	1.61716
456.039	0.865386
458.932	1.21436
461.825	1.37656
464.717	1.10256
467.61	1.47957
470.503	1.33794
473.396	1.30144
476.288	0.725014
479.181	1.09994
482.074	0.667279
484.966	1.07869
487.859	0.848835
490.752	0.355353
493.644	0.636943
496.537	0.406946
499.43	0.088918
502.322	0.695575
505.215	0.343297
508.108	0.336439
511.001	0.502705
513.893	0.067978
516.786	0.194083
519.679	0.390935
522.571	0.224916
525.464	0.22271
528.357	0.34004
531.25	0.5658
534.142	0.141749
537.035	0.064372
539.928	0.020939
542.82	0.16125
545.713	0.031008
548.606	0.026347
551.498	0.351101
554.391	0.270339
557.284	0.186894
560.177	0.302399
563.069	0.158308
565.962	0.133032
568.855	0.241039
571.747	0.19458
574.64	0.31642
577.533	0.060219
580.425	0.061825
583.318	0.130853
586.211	0.111237
589.104	0.297321
591.996	0.290245
594.889	0.156803
597.782	0.380778
600.674	0.347934
603.567	0.175864
606.46	0.453392
609.352	0.39292
612.245	0.624507
615.138	0.066266
618.03	0.360581
620.923	0.360501
623.816	0.085321
626.709	0.294677
629.601	0.738081
632.494	0.406087
635.387	0.19445
638.279	0.417358
641.172	0.747303
644.065	0.88313
646.957	0.868412
649.85	0.338636
652.743	0.539978
655.636	0.910274
658.528	0.933192
661.421	0.589549
664.314	0.896764
667.206	0.392557
670.099	0.002183
672.992	0.551395
675.885	0.256175
678.777	0.401742
681.67	0.252321
684.563	0.197403
687.455	0.113938
690.348	0.292541
693.241	0.348504
696.133	0.51081
699.026	0.201087
701.919	0.751849
704.812	0.18898
707.704	0.210026
710.597	0.310183
713.49	0.105208
716.382	0.299258
719.275	0.263955
722.168	0.242109
725.06	0.572333
727.953	0.31957
730.846	0.310719
733.739	0.373482
736.631	0.1303
739.524	0.127152
742.417	0.427246
745.309	0.454605
748.202	0.161464
751.095	0.461317
753.987	0.461354
756.88	0.311291
759.773	0.04011
762.665	0.182487
765.558	0.400421
768.451	0.44193
771.344	0.410882
774.236	0.433072
777.129	0.464306
780.022	0.094414
782.914	0.657917
785.807	0.102806
788.7	0.387002
791.592	0.811663
794.485	0.528541
797.378	0.313973
800.271	0.086241
803.163	0.215884
806.056	0.539798
808.949	0.49922
811.841	0.272021
814.734	0.416119
817.627	0.034713
820.519	0.746541
823.412	0.467158
826.305	0.299265
829.198	0.609941
832.09	0.822571
834.983	0.351965
837.876	0.432525
840.768	0.265256
843.661	0.299708
846.554	0.869923
849.447	0.603415
852.339	0.240865
855.232	0.278387
858.125	0.372609
861.017	0.230406
863.91	0.017877
866.803	0.213963
869.695	0.461912
872.588	0.48793
875.481	0.232731
878.374	0.102155
881.266	0.38055
884.159	0.2667
887.052	0.312941
889.944	0.563723
892.837	0.378097
895.73	0.597848
898.622	0.175223
901.515	0.557916
904.408	0.322872
907.301	0.45823
910.193	0.454268
913.086	0.281261
915.979	0.446346
918.871	0.530942
921.764	0.268337
924.657	0.091055
927.549	0.441532
930.442	0.315484
933.335	0.12316
936.227	0.159605
939.12	0.529577
942.013	0.196643
944.906	0.311235
947.798	0.160223
950.691	0.510994
953.584	0.417279
956.476	0.438421
959.369	0.237499
962.262	0.431337
965.154	0.126459
968.047	0.723762
970.94	0.512925
973.832	0.007318
976.725	0.320243
979.618	0.012409
982.511	0.135371
985.403	0.282847
988.296	0.110879
991.189	0.294884
994.081	0.635313
996.974	0.595402
999.867	0.091812
1002.76	0.536211
1005.65	0.441373
1008.54	0.470771
1011.44	0.152848
1014.33	0.327452
1017.22	0.492544
1020.12	0.267903
1023.01	0.118518
1025.9	0.317556
1028.79	0.19718
1031.69	0.16906
1034.58	0.268314
1037.47	0.843537
1040.37	0.715199
1043.26	0.213145
1046.15	0.579251
1049.04	0.823597
1051.93	0.375443
1054.83	0.465994
1057.72	0.063341
1060.61	0.348774
1063.51	0.499487
1066.4	0.795104
1069.29	0.359113
1072.18	0.190648
1075.08	0.246523
1077.97	0.710139
1080.86	0.361176
1083.76	0.72463
1086.65	0.457551
1089.54	0.47476
1092.43	0.28045
1095.33	0.28828
1098.22	0.348965
1101.11	0.125437
1104	0.172926
1106.9	0.443419
1109.79	0.38381
1112.68	0.459578
1115.58	0.201876
1118.47	0.247203
1121.36	0.271439
1124.25	0.2949
1127.15	0.120249
1130.04	0.018973
1132.93	0.143221
1135.82	0.410409
1138.72	0.528522
1141.61	0.257552
1144.5	0.291369
1147.39	0.3832
1150.29	0.183894
1153.18	0.009225
1156.07	0.32304
1158.96	0.342911
1161.86	0.134869
1164.75	0.734411
1167.64	0.232991
1170.54	0.233045
1173.43	0.400522
1176.32	0.200785
1179.21	0.098863
1182.11	0.327124
1185	0.049599
1187.89	0.541711
1190.79	0.582934
1193.68	0.623566
1196.57	0.446114
1199.46	0.477972
1202.36	0.124152
1205.25	0.363119
1208.14	0.612586
1211.03	0.337504
1213.93	0.197998
1216.82	0.360387
1219.71	0.211346
1222.61	0.16827
1225.5	0.174846
1228.39	0.411977
1231.28	0.191429
1234.18	0.427156
1237.07	0.26357
1239.96	0.463183
1242.85	0.240908
1245.75	0.136025
1248.64	0.231769
1251.53	0.345566
1254.42	0.075229
1257.32	0.383273
1260.21	0.260722
1263.1	0.292847
1265.99	0.473093
1268.89	0.722463
1271.78	0.25017
1274.67	0.405163
1277.57	0.114141
1280.46	0.304589
1283.35	0.16712
1286.24	0
