Measurement: Raman, 785 nm, unoriented, Raman Data Processed
Mineral: Pyrargyrite
Rruff sample: R050318
Ideal chemistry: Ag_3_SbS_3_
Locality: unknown
Source: Eugene Schlepp
Description: Black prismatic crystal
Measured chemistry: Ag_3.00_Sb_1.00_S_3.00_
Raman shift (cm-1)	intensity
119.599	0
122.492	29.661
125.385	177.489
128.277	530.886
131.17	726.93
134.063	478.501
136.955	21.819
139.848	28.998
142.741	406.834
145.633	1093.12
148.526	1808.93
151.419	2200.75
154.312	2404.71
157.204	2690.27
160.097	3442.17
162.99	4795.07
165.882	6617.5
168.775	8699.74
171.668	10581.8
174.561	11924.9
177.453	12321.9
180.346	11667.4
183.239	10156.3
186.131	8054.66
189.024	6106.23
191.917	4354.15
194.809	3237.75
197.702	2277.64
200.595	1723.07
203.488	1219.11
206.38	826.19
209.273	548.982
212.166	264.814
215.058	146.243
217.951	1.97
220.844	47.146
223.736	176.876
226.629	270.154
229.522	113.686
232.415	56.252
235.307	203.836
238.2	538.66
241.093	880.346
243.985	1233.02
246.878	1524.47
249.771	1696.99
252.663	1711.12
255.556	1738.85
258.449	1803.8
261.341	1772.5
264.234	1814.62
267.127	1743.51
270.02	1917.17
272.912	2192.07
275.805	2612.82
278.698	3213.64
281.59	4198.5
284.483	5519.12
287.376	7506.67
290.268	10408.3
293.161	14562.3
296.054	19501
298.947	23566.7
301.839	23973.4
304.732	22131.3
307.625	22383
310.517	26929.5
313.41	37093.1
316.303	54840.2
319.195	78275.4
322.088	97048.8
324.981	87578.1
327.874	59908.6
330.766	40672.8
333.659	28216.6
336.552	16327.3
339.444	8690.25
342.337	4975.04
345.23	3033.4
348.122	1975.13
351.015	1442.61
353.908	1084.88
356.801	708.26
359.693	410.869
362.586	232.078
365.479	61.038
368.371	35.744
371.264	57.232
374.157	89.976
377.049	195.616
379.942	128.104
382.835	114.563
385.728	42.483
388.62	11.108
391.513	41.012
394.406	75.195
397.298	79.659
400.191	149.522
403.084	241.28
405.977	264.331
408.869	255.775
411.762	359.582
414.655	415.397
417.547	413.635
420.44	497.924
423.333	547.507
426.225	555.382
429.118	597.222
432.011	626.584
434.904	564.396
437.796	466.777
440.689	442.55
443.582	434.636
446.474	422.438
449.367	367.027
452.26	385.438
455.152	388.888
458.045	330.723
460.938	322.779
463.831	343.621
466.723	351.618
469.616	326.784
472.509	309.162
475.401	255.952
478.294	216.616
481.187	254.562
484.079	168.851
486.972	185.212
489.865	212.641
492.758	187.226
495.65	186.07
498.543	159.944
501.436	170.011
504.328	146.162
507.221	172.38
510.114	158.074
513.006	114.663
515.899	158.12
518.792	130.306
521.685	157.961
524.577	109.288
527.47	110.657
530.363	90.748
533.255	18.561
536.148	68.856
539.041	17.572
541.933	66.142
544.826	66.268
547.719	22.789
550.612	18.286
553.504	15.643
556.397	52.913
559.29	11.739
562.182	13.844
565.075	39.164
567.968	2.4
570.86	15.552
573.753	6.904
576.646	33.781
579.539	51.738
582.431	22.227
585.324	17.333
588.217	1.967
591.109	16.575
594.002	103.313
596.895	67.685
599.787	15.26
602.68	65.977
605.573	41.782
608.466	73.637
611.358	88.214
614.251	117.711
617.144	105.827
620.036	74.743
622.929	107.197
625.822	120.275
628.714	67.354
631.607	240.821
634.5	121.197
637.393	95.581
640.285	94.804
643.178	104.456
646.071	65.942
648.963	120.932
651.856	66.345
654.749	114.464
657.641	134.723
660.534	166.33
663.427	128.041
666.32	138.811
669.212	120.518
672.105	95.734
674.998	7.641
677.89	32.557
680.783	22.303
683.676	49.57
686.568	67.382
689.461	23.491
692.354	7.4
695.247	18.135
698.139	41.771
701.032	37.208
703.925	89.864
706.817	72.697
709.71	41.978
712.603	102.945
715.495	25.892
718.388	53.044
721.281	10.85
724.174	34.365
727.066	90.026
729.959	58.944
732.852	90.962
735.744	83.866
738.637	68.916
741.53	121.529
744.422	10.68
747.315	24.567
750.208	23.083
753.101	34.233
755.993	8.813
758.886	60.765
761.779	30.439
764.671	19.966
767.564	13.856
770.457	47.37
773.349	1.591
776.242	49.355
779.135	86.747
782.028	44.022
784.92	123.39
787.813	83.265
790.706	75.183
793.598	109.765
796.491	31.814
799.384	5.922
802.276	21.443
805.169	42.257
808.062	45.26
810.955	41.126
813.847	8.695
816.74	36.648
819.633	59.355
822.525	71.144
825.418	37.958
828.311	121.333
831.203	78.051
834.096	61.085
836.989	24.542
839.881	2.781
842.774	64.025
845.667	44.722
848.56	76.915
851.452	83.243
854.345	104.119
857.238	40.467
860.13	64.645
863.023	79.717
865.916	97.727
868.808	38.932
871.701	50.195
874.594	60.605
877.487	80.532
880.379	69.408
883.272	86.577
886.165	2.948
889.057	56.249
891.95	18.548
894.843	30.159
897.735	97.349
900.628	54.981
903.521	83.929
906.414	44.589
909.306	58.345
912.199	96.645
915.092	96.747
917.984	62.176
920.877	4.734
923.77	34.498
926.662	69.181
929.555	52.332
932.448	72.745
935.341	71.534
938.233	80.966
941.126	73.551
944.019	38.026
946.911	97.191
949.804	69.221
952.697	73.261
955.589	66.925
958.482	91.343
961.375	42.705
964.268	23.542
967.16	22.79
970.053	35.255
972.946	114.032
975.838	87.577
978.731	92.532
981.624	46.544
984.516	112.359
987.409	120.117
990.302	57.601
993.195	44.859
996.087	35.424
998.98	96.97
1001.87	15.995
1004.76	72.219
1007.66	68.204
1010.55	81.602
1013.44	27.602
1016.34	109.212
1019.23	37.695
1022.12	47.069
1025.01	48.303
1027.91	53.821
1030.8	82.023
1033.69	106.913
1036.59	59.632
1039.48	2.436
1042.37	93.149
1045.26	18.955
1048.16	72.389
1051.05	103.676
1053.94	81.566
1056.83	70.667
1059.73	74.044
1062.62	79.838
1065.51	75.933
1068.4	66.692
1071.3	74.021
1074.19	88.695
1077.08	13.83
1079.98	33.138
1082.87	11.193
1085.76	28.103
1088.65	86.211
1091.55	63.569
1094.44	82.093
1097.33	59.53
1100.22	44.572
1103.12	43.89
1106.01	23.985
1108.9	62.442
1111.8	22.908
1114.69	8.803
1117.58	27.899
1120.47	17.797
1123.37	118.482
1126.26	90.74
1129.15	123.831
1132.04	62.291
1134.94	120.174
1137.83	74.898
1140.72	72.591
1143.62	63.252
1146.51	54.315
1149.4	29.637
1152.29	15.695
1155.19	90.224
1158.08	66.47
1160.97	71.885
1163.86	37.257
1166.76	106.333
1169.65	25.757
1172.54	56.5
1175.43	80.689
1178.33	83.295
1181.22	38.65
1184.11	32.196
1187.01	89.414
1189.9	81.717
1192.79	106.55
1195.68	143.576
1198.58	62.145
1201.47	71.474
1204.36	57.435
1207.25	105.99
1210.15	85.27
1213.04	7.696
1215.93	30.386
1218.83	69.686
1221.72	67.575
1224.61	83.347
1227.5	56.501
1230.4	45.764
1233.29	43.269
1236.18	64.667
1239.07	115.1
1241.97	94.761
1244.86	13.687
1247.75	75.349
1250.64	56.867
1253.54	5.886
1256.43	87.478
1259.32	57.967
1262.22	61.709
1265.11	31.543
1268	60.105
1270.89	61.795
