Measurement: Raman, 785 nm, unoriented, Raman Data Processed
Mineral: Pyrargyrite
Rruff sample: R050318
Ideal chemistry: Ag_3_SbS_3_
Locality: unknown
Source: Eugene Schlepp
Description: Black prismatic crystal
Measured chemistry: Ag_3.00_Sb_1.00_S_3.00_
Raman shift (cm-1)	intensity
113.809	0
117.184	17.867
120.559	31.749
123.934	33.061
127.308	28.742
130.683	9.931
134.058	7.886
137.433	22.052
140.808	21.729
144.182	10.421
147.557	5.742
150.932	20.275
154.307	27.724
157.682	44.84
161.057	59.811
164.431	48.591
167.806	71.969
171.181	80.575
174.556	64.091
177.931	55.492
181.305	71.522
184.68	51.549
188.055	28.353
191.43	30.915
194.805	22.99
198.18	36.164
201.554	15.969
204.929	47.014
208.304	36.958
211.679	24.457
215.054	17.234
218.428	9.823
221.803	15.312
225.178	5.912
228.553	7.966
231.928	3.286
235.303	0.397
238.677	16.564
242.052	32.635
245.427	35.094
248.802	2.534
252.177	41.605
255.551	31.542
258.926	27.356
262.301	22.261
265.676	31.56
269.051	20.078
272.426	31.929
275.8	29.588
279.175	24.687
282.55	43.104
285.925	26.906
289.299	72.367
292.674	49.407
296.049	118.112
299.424	126.543
302.799	131.681
306.174	123.462
309.548	180.611
312.923	237.004
316.298	369.934
319.673	484.958
323.048	492.078
326.422	333.619
329.797	173.031
333.172	76.775
336.547	55.026
339.922	51.025
343.297	36.912
346.671	24.164
350.046	22.216
353.421	14.126
356.796	6.355
360.171	8.968
363.546	1.16
366.92	23.684
370.295	7.744
373.67	28.318
377.045	26.443
380.419	21.576
383.794	45.39
387.169	22.083
390.544	5.579
393.919	27.655
397.294	17.585
400.668	1.792
404.043	6.981
407.418	13.743
410.793	7.863
414.168	15.772
417.543	27.813
420.917	33.499
424.292	48.231
427.667	27.211
431.042	21.186
434.417	26.193
437.791	4.419
441.166	3.589
444.541	17.234
447.916	2.744
451.291	11.197
454.665	7.119
458.04	20.238
461.415	27.825
464.79	37.676
468.165	27.068
471.539	38.275
474.914	24.841
478.289	30.057
481.664	1.759
485.039	6.133
488.414	18.148
491.788	29.7
495.163	21.828
498.538	19.795
501.913	26.713
505.288	47.668
508.663	18.927
512.037	37.811
515.412	51.533
518.787	39.309
522.162	39.033
525.537	32.501
528.911	28.428
532.286	16.23
535.661	2.716
539.036	15.715
542.411	5.996
545.786	30.674
549.16	25.135
552.535	49.502
555.91	35.841
559.285	27.759
562.659	11.225
566.034	20.567
569.409	26.511
572.784	4.674
576.159	16.258
579.534	4.799
582.908	7.377
586.283	34.611
589.658	2.3
593.033	25.964
596.408	33.433
599.782	34.467
603.157	31.85
606.532	35.345
609.907	14.407
613.282	22.949
616.657	6.581
620.031	17.734
623.406	14.227
626.781	15.527
630.156	33.159
633.531	16.501
636.906	21.747
640.28	20.15
643.655	9.006
647.03	29.896
650.405	23.861
653.779	24.114
657.154	4.843
660.529	26.127
663.904	29.865
667.279	25.587
670.654	10.793
674.028	26.207
677.403	17.037
680.778	21.635
684.153	47.445
687.528	25.338
690.903	39.891
694.277	17.832
697.652	0.364
701.027	4.687
704.402	2.151
707.777	8.875
711.151	1.506
714.526	7.135
717.901	14.343
721.276	8.508
724.651	27.212
728.026	18.434
731.4	31.845
734.775	37.41
738.15	27.283
741.525	26.532
744.899	12.283
748.274	8.998
751.649	10.369
755.024	41.237
758.399	25.011
761.774	24.032
765.148	58.486
768.523	37.191
771.898	10.111
775.273	18.732
778.648	8.019
782.023	20.201
785.397	8.592
788.772	6.134
792.147	13.719
795.522	34.362
798.896	6.265
802.271	22.174
805.646	28.717
809.021	15.778
812.396	39.518
815.771	36.551
819.145	2.798
822.52	14.175
825.895	9.163
829.27	1.417
832.645	17.199
836.019	15.239
839.394	33.773
842.769	8.746
846.144	13.281
849.519	30.814
852.894	25.389
856.268	32.206
859.643	3.373
863.018	17.574
866.393	16.553
869.768	17.484
873.143	28.897
876.517	26.495
879.892	15.16
883.267	26.97
886.642	34.71
890.016	32.028
893.391	33.402
896.766	13.934
900.141	19.867
903.516	3.581
906.891	2.173
910.265	22.716
913.64	21.911
917.015	25.588
920.39	29.212
923.765	21.486
927.14	15.77
930.514	55.257
933.889	20.131
937.264	14.77
940.639	33.2
944.013	10.307
947.388	16.538
950.763	2.193
954.138	24.225
957.513	39.309
960.888	25.062
964.263	26.713
967.637	19.186
971.012	17.626
974.387	20.985
977.762	24.905
981.136	25.372
984.511	5.942
987.886	31.686
991.261	30.275
994.636	13.588
998.011	33.401
1001.38	46.252
1004.76	28.821
1008.13	53.371
1011.51	23.611
1014.88	14.646
1018.26	26.708
1021.63	41.94
1025.01	6.282
1028.38	17.685
1031.76	18.451
1035.13	15.315
1038.51	6.478
1041.88	25.228
1045.26	28.174
1048.63	34.114
1052.01	55.299
1055.38	12.737
1058.76	8.217
1062.13	4.238
1065.51	9.579
1068.88	4.751
1072.26	14.843
1075.63	29.098
1079.01	33.885
1082.38	33.559
1085.76	43.915
1089.13	44.546
1092.51	34.828
1095.88	18.307
1099.26	18.744
1102.63	19.177
1106.01	12.569
1109.38	37.867
1112.75	35.094
1116.13	21.095
1119.5	27.878
1122.88	24.292
1126.25	52.724
1129.63	29.386
1133	7.522
1136.38	9.44
1139.75	9.393
1143.13	38.284
1146.5	2.749
1149.88	2.184
1153.25	14.594
1156.63	39.779
1160	23.011
1163.38	32.499
1166.75	38.552
1170.13	39.638
1173.5	6.718
1176.88	16.167
1180.25	30.648
1183.62	10.27
1187	24.319
1190.38	47.909
1193.75	40.271
1197.12	30.107
1200.5	20.715
1203.87	25.359
1207.25	19.865
1210.62	53.138
1214	20.194
1217.37	0.672
1220.75	34.27
1224.12	48.906
1227.5	18.75
1230.87	58.087
1234.25	46.001
1237.62	39.99
1241	60.592
1244.37	43.228
1247.75	33.809
1251.12	37.652
1254.5	1.429
1257.87	13.279
1261.25	50.373
1264.62	50.915
1268	37.392
1271.37	43.795
1274.74	65.669
1278.12	79.454
1281.49	52.089
1284.87	39.27
1288.24	0.396
1291.62	39.948
1294.99	52.106
1298.37	0.093
