Measurement: Raman, 532 nm, unoriented, Raman Data Processed
Mineral: Pyrite
Rruff sample: R050070
Ideal chemistry: FeS_2_
Locality: Mina San Jose de Huanzala, Minero de Huallanca District, Department de Huanuco, Peru
Source: Rock Currier
Description: Brass-yellow metallic cube
Measured chemistry: Fe_1.00_S_2.00_
Raman shift (cm-1)	intensity
176.178	0
179.071	9.74039
181.964	5.77486
184.856	9.9664
187.749	9.46649
190.642	18.1338
193.535	11.2278
196.427	13.596
199.32	22.0058
202.213	15.9248
205.105	16.4208
207.998	11.2474
210.891	10.8983
213.783	13.7637
216.676	2.75306
219.569	5.83287
222.462	0.088783
225.354	2.03795
228.247	4.65028
231.14	0.817101
234.032	3.86164
236.925	5.05469
239.818	5.58897
242.71	7.56668
245.603	18.0025
248.496	7.16568
251.388	11.7197
254.281	0.158325
257.174	2.6563
260.067	11.1383
262.959	4.58332
265.852	0.950813
268.745	14.6701
271.637	5.43013
274.53	5.84711
277.423	8.91345
280.315	12.9445
283.208	5.15271
286.101	7.84531
288.994	11.1305
291.886	1.09662
294.779	4.48481
297.672	4.43589
300.564	0.880066
303.457	10.0489
306.35	2.01766
309.243	3.87811
312.135	0.214371
315.028	1.91456
317.921	13.1884
320.813	6.75438
323.706	11.241
326.599	60.0225
329.491	169.587
332.384	234.945
335.277	419.846
338.17	648.862
341.062	1003.32
343.955	1170.3
346.848	166.954
349.74	113.717
352.633	49.4308
355.526	24.4366
358.418	23.6154
361.311	32.5825
364.204	107.225
367.097	197.923
369.989	305.827
372.882	535.173
375.775	724.946
378.667	1244.04
381.56	442.245
384.453	75.6407
387.346	40.6962
390.238	22.2157
393.131	19.0954
396.024	1.74958
398.916	3.6594
401.809	3.72218
404.702	4.35411
407.594	3.62064
410.487	9.21561
413.38	0.569832
416.272	20.8159
419.165	35.6088
422.058	69.5102
424.951	110.178
427.843	139.689
430.736	171.689
433.629	53.5346
436.521	14.3004
439.414	2.65779
442.307	6.10054
445.2	11.8509
448.092	4.56377
450.985	1.75552
453.878	6.62412
456.77	12.5364
459.663	4.35083
462.556	10.2685
465.448	10.7742
468.341	4.52805
471.234	8.88269
474.127	7.82503
477.019	4.88894
479.912	9.20889
482.805	13.9594
485.697	12.4372
488.59	3.93521
491.483	11.9992
494.375	0.517174
497.268	3.54476
500.161	2.16335
503.053	14.322
505.946	7.57917
508.839	1.85352
511.732	8.0855
514.624	2.98956
517.517	6.58481
520.41	3.60592
523.302	13.1442
526.195	8.71865
529.088	1.83331
531.981	13.6417
534.873	9.12331
537.766	6.3661
540.659	12.0751
543.551	7.55206
546.444	9.62034
549.337	7.65532
552.229	10.1271
555.122	7.8723
558.015	19.7633
560.908	4.65517
563.8	12.5903
566.693	7.44002
569.586	0.953014
572.478	6.96687
575.371	6.43638
578.264	3.23718
581.156	7.34586
584.049	5.23548
586.942	13.2697
589.835	7.75814
592.727	8.95623
595.62	9.13536
598.513	8.6806
601.405	7.80477
604.298	16.3078
607.191	10.3983
610.083	0.598133
612.976	0.660957
615.869	11.2338
618.762	0.643307
621.654	3.90601
624.547	9.45626
627.44	4.51705
630.332	11.1398
633.225	12.1016
636.118	11.3379
639.01	0.658863
641.903	7.07063
644.796	2.61777
647.689	16.2666
650.581	1.64502
653.474	10.7832
656.367	12.6103
659.259	10.573
662.152	9.2508
665.045	10.7254
667.938	6.97068
670.83	14.9807
673.723	10.8474
676.616	9.48216
679.508	6.07693
682.401	11.9954
685.294	10.0143
688.186	11.2704
691.079	11.1972
693.972	1.73177
696.865	8.38156
699.757	10.2708
702.65	5.96198
705.543	4.87528
708.435	8.35698
711.328	15.7072
714.221	11.3432
717.113	9.79423
720.006	13.2146
722.899	19.6462
725.792	10.0564
728.684	5.38669
731.577	2.08023
734.47	10.2119
737.362	6.83897
740.255	3.62136
743.148	10.7998
746.04	6.62255
748.933	3.74619
751.826	8.8065
754.719	22.235
757.611	11.2115
760.504	9.74231
763.397	14.5208
766.289	8.74466
769.182	4.39927
772.075	9.46117
774.967	4.94395
777.86	6.34016
780.753	8.70129
783.646	13.222
786.538	1.26153
789.431	8.20137
792.324	10.8667
795.216	8.9742
798.109	5.90092
801.002	5.88108
803.894	15.2132
806.787	19.6984
809.68	10.4526
812.573	5.12418
815.465	6.07051
818.358	12.5772
821.251	3.29489
824.143	6.33382
827.036	8.44581
829.929	4.59823
832.822	9.82883
835.714	4.77605
838.607	7.46099
841.5	11.2619
844.392	12.065
847.285	11.8713
850.178	15.2876
853.07	5.97939
855.963	12.6286
858.856	10.3485
861.749	7.26233
864.641	15.5416
867.534	16.692
870.427	7.13493
873.319	1.15981
876.212	10.7886
879.105	3.02742
881.997	9.75912
884.89	2.70727
887.783	8.92911
890.676	1.4161
893.568	9.20896
896.461	7.32428
899.354	1.14949
902.246	2.81784
905.139	2.34887
908.032	3.07591
910.924	5.88036
913.817	5.33869
916.71	5.66855
919.602	9.0999
922.495	18.0408
925.388	6.25459
928.281	16.8723
931.173	11.8875
934.066	9.03595
936.959	4.76248
939.851	6.52141
942.744	7.12624
945.637	0.38023
948.529	10.3659
951.422	5.02377
954.315	2.10693
957.208	8.38815
960.1	5.25657
962.993	5.38811
965.886	19.693
968.778	0.954967
971.671	5.27849
974.564	7.12874
977.457	7.25242
980.349	4.23284
983.242	0.058613
986.135	9.89154
989.027	12.7006
991.92	0.469524
994.813	3.11071
997.705	1.97537
1000.6	5.02961
1003.49	17.8218
1006.38	7.05064
1009.28	5.90839
1012.17	4.4928
1015.06	1.69194
1017.95	3.91973
1020.85	9.70488
1023.74	5.11153
1026.63	5.36449
1029.53	8.3248
1032.42	15.6831
1035.31	14.6119
1038.2	5.69734
1041.1	8.21585
1043.99	19.0708
1046.88	21.5786
1049.77	13.0384
1052.67	11.4518
1055.56	6.73683
1058.45	7.39112
1061.35	5.58841
1064.24	15.7947
1067.13	0.099995
1070.02	15.2178
1072.92	3.34085
1075.81	7.48886
1078.7	10.5567
1081.59	6.72224
1084.49	10.8773
1087.38	7.66426
1090.27	1.63416
1093.16	2.54628
1096.06	6.37405
1098.95	8.22496
1101.84	9.8162
1104.73	6.01555
1107.63	1.5147
1110.52	6.63382
1113.41	7.3616
1116.31	9.55008
1119.2	5.73919
1122.09	12.7733
1124.98	12.8863
1127.88	8.19854
1130.77	5.48459
1133.66	11.1262
1136.56	1.50486
1139.45	7.16282
1142.34	13.715
1145.23	1.90941
1148.13	2.60387
1151.02	4.94718
1153.91	1.28207
1156.8	5.13218
1159.7	3.28956
1162.59	2.30061
1165.48	1.44376
1168.38	12.206
1171.27	2.70239
1174.16	12.0314
1177.05	10.0761
1179.95	4.26051
1182.84	11.1883
1185.73	8.72828
1188.62	6.41548
1191.52	10.6148
1194.41	3.77499
1197.3	7.72029
1200.19	15.921
1203.09	9.04898
1205.98	7.94631
1208.87	10.9457
1211.77	6.70468
1214.66	11.666
1217.55	10.1555
1220.44	16.1724
1223.34	7.61765
1226.23	10.5136
1229.12	7.18326
1232.01	19.2913
1234.91	11.5816
1237.8	12.5149
1240.69	4.62878
1243.59	8.22421
1246.48	1.3823
1249.37	6.04591
1252.26	12.0637
1255.16	11.7149
1258.05	6.89387
1260.94	18.0763
1263.83	0.670029
1266.73	9.20493
1269.62	11.7627
1272.51	3.58839
1275.4	10.563
1278.3	11.3954
1281.19	4.71634
1284.08	10.6895
1286.98	13.3313
1289.87	4.11486
1292.76	5.64379
1295.65	12.9129
1298.55	4.05474
1301.44	3.71888
1304.33	2.80353
1307.22	0.874672
