Measurement: Raman, 780 nm, unoriented, Raman Data Processed
Mineral: Pyrite
Rruff sample: R100166
Ideal chemistry: FeS_2_
Locality: Boston Consolidated mine, Bingham Canyon, 20 mi SSW of Salt Lake City, Salt Lake County, Utah, USA
Source: Harvard microprobe standard, Mineralogical Museum, Harvard University
Description: Brass-yellow pyritohedron
Measured chemistry: FeS_2_ (Pure phase as determined by WDS analysis)
Raman shift (cm-1)	intensity
145.567	0
148.459	1.23344
151.352	5.13409
154.245	1.35539
157.137	0.233932
160.03	1.63252
162.923	1.35641
165.816	3.79506
168.708	1.52838
171.601	4.43679
174.494	5.08723
177.386	4.3289
180.279	4.45156
183.172	4.32404
186.065	1.70942
188.957	3.12002
191.85	1.21578
194.743	1.26347
197.635	1.66519
200.528	0.085205
203.421	0.27372
206.313	1.12351
209.206	0.282417
212.099	1.40389
214.992	0.468193
217.884	2.91763
220.777	2.08807
223.67	3.6786
226.562	3.89096
229.455	5.44583
232.348	3.9695
235.24	6.31136
238.133	7.12831
241.026	7.35561
243.918	5.1435
246.811	2.80534
249.704	2.72072
252.597	1.36401
255.489	1.14351
258.382	2.30263
261.275	2.1664
264.167	1.23414
267.06	0.590729
269.953	1.93516
272.846	1.82642
275.738	0.733257
278.631	0.087162
281.524	0.24099
284.416	1.55129
287.309	1.65842
290.202	1.61694
293.094	0.22134
295.987	2.59066
298.88	3.06536
301.772	0.459938
304.665	0.378799
307.558	1.28601
310.45	2.59792
313.343	2.95948
316.236	2.03399
319.129	11.5927
322.021	38.2627
324.914	33.1182
327.807	42.8126
330.699	57.8108
333.592	76.9729
336.485	136.722
339.377	204.748
342.27	30.7462
345.163	18.8961
348.056	5.79174
350.948	2.77916
353.841	4.69405
356.734	10.7598
359.626	16.8065
362.519	14.9747
365.412	22.1415
368.305	31.226
371.197	49.5441
374.09	84.2755
376.983	31.1109
379.875	3.45455
382.768	1.14855
385.661	1.58451
388.553	0.188087
391.446	0.225384
394.339	0.552162
397.231	0.620796
400.124	0.842434
403.017	0.694118
405.909	1.62398
408.802	0.121536
411.695	0.402771
414.588	1.58587
417.48	3.44795
420.373	2.50736
423.266	3.54718
426.158	4.19892
429.051	4.30324
431.944	6.06387
434.837	1.63682
437.729	2.48876
440.622	2.20702
443.515	2.17546
446.407	2.46877
449.3	2.38746
452.193	3.84907
455.085	2.64002
457.978	3.00694
460.871	1.80171
463.764	2.36155
466.656	3.26362
469.549	2.84098
472.442	2.74152
475.334	3.54963
478.227	3.43322
481.12	2.45761
484.012	2.2654
486.905	3.13184
489.798	0.013332
492.69	2.82507
495.583	1.44782
498.476	3.35423
501.369	1.52092
504.261	0.697563
507.154	0.699379
510.047	0.494766
512.939	2.21581
515.832	0.320465
518.725	0.410286
521.617	1.07338
524.51	0.244781
527.403	1.61634
530.296	0.312496
533.188	2.8658
536.081	3.05862
538.974	3.94024
541.866	4.14342
544.759	7.37218
547.652	10.0499
550.544	12.201
553.437	11.4605
556.33	9.09135
559.222	7.41493
562.115	3.63379
565.008	3.11317
567.901	2.17903
570.793	2.49472
573.686	1.53334
576.579	2.70238
579.471	2.27162
582.364	0.282772
585.257	0.001774
588.149	0.966133
591.042	1.83745
593.935	1.61797
596.828	0.334164
599.72	0.306847
602.613	2.2268
605.506	0.421745
608.398	1.98665
611.291	0.589764
614.184	0.710327
617.077	0.853466
619.969	0.026253
622.862	0.802364
625.755	1.75547
628.647	0.084911
631.54	0.756985
634.433	1.14028
637.325	1.13693
640.218	0.155262
643.111	0.861443
646.004	0.418858
648.896	1.34062
651.789	2.1299
654.682	1.84615
657.574	2.51706
660.467	0.315704
663.36	2.07845
666.252	2.84759
669.145	2.35379
672.038	1.34806
674.931	2.34832
677.823	0.107975
680.716	1.74114
683.609	0.751369
686.501	0.043663
689.394	0.486992
692.287	0.718822
695.179	0.59808
698.072	0.318707
700.965	0.161938
703.857	0.483276
706.75	2.12847
709.643	0.555592
712.535	1.51849
715.428	1.49438
718.321	0.398045
721.214	2.3647
724.106	2.34993
726.999	2.80501
729.892	0.910202
732.784	1.57003
735.677	0.668396
738.57	0.409336
741.462	0.106861
744.355	0.454945
747.248	1.18103
750.141	2.18545
753.033	2.62192
755.926	3.20125
758.819	3.93394
761.711	6.62129
764.604	5.61666
767.497	7.12075
770.389	7.11442
773.282	6.18281
776.175	3.55978
779.068	4.4235
781.96	5.1997
784.853	7.32151
787.746	9.00011
790.638	11.826
793.531	9.86034
796.424	12.4949
799.317	11.8797
802.209	11.369
805.102	9.47337
807.995	7.74413
810.887	6.36635
813.78	4.67884
816.673	3.49112
819.565	1.83557
822.458	2.46426
825.351	2.84561
828.244	2.56654
831.136	4.85142
834.029	4.21126
836.922	5.5108
839.814	7.06827
842.707	7.22616
845.6	8.72856
848.492	10.3668
851.385	12.8458
854.278	12.6476
857.17	14.4581
860.063	14.2064
862.956	13.0453
865.849	12.1129
868.741	8.64622
871.634	5.51987
874.527	3.18423
877.419	1.80434
880.312	1.30307
883.205	0.553314
886.097	0.384296
888.99	0.46217
891.883	0.124752
894.775	1.15621
897.668	0.297127
900.561	0.618958
903.454	0.566051
906.346	0.045753
909.239	0.175919
912.132	0.788231
915.024	1.17799
917.917	0.185314
920.81	1.16079
923.702	1.40502
926.595	1.85115
929.488	0.841633
932.381	2.66772
935.273	0.875385
938.166	2.20214
941.059	1.83805
943.951	2.24205
946.844	1.61248
949.737	1.41604
952.63	1.17947
955.522	2.27845
958.415	1.19848
961.308	0.910536
964.2	2.0699
967.093	0.622484
969.986	0.615774
972.878	1.30417
975.771	1.0432
978.664	2.27421
981.557	1.43136
984.449	1.09175
987.342	0.992374
990.235	0.253046
993.127	1.57333
996.02	1.59185
998.913	2.3649
1001.8	2.21947
1004.7	1.68756
1007.59	1.51056
1010.48	1.95093
1013.38	1.32821
1016.27	1.16681
1019.16	1.61689
1022.05	2.31187
1024.95	2.81898
1027.84	2.00952
1030.73	1.34587
1033.62	2.05591
1036.52	1.67035
1039.41	2.7746
1042.3	1.59573
1045.2	1.54451
1048.09	1.81385
1050.98	1.52991
1053.87	2.85997
1056.77	0.787548
1059.66	1.17813
1062.55	0.698982
1065.44	0.799541
1068.34	1.09698
1071.23	2.03987
1074.12	1.70917
1077.02	1.5157
1079.91	1.69789
1082.8	0.563841
1085.69	1.51578
1088.59	0.300917
1091.48	1.73182
1094.37	0.775911
1097.26	2.6711
1100.16	1.46335
1103.05	0.56955
1105.94	0.179573
1108.84	2.15504
1111.73	1.20382
1114.62	1.75034
1117.51	0.202551
1120.41	0.178095
1123.3	1.0436
1126.19	1.19553
1129.08	1.87682
1131.98	0.704588
1134.87	1.13134
1137.76	0.846615
1140.65	0.635979
1143.55	0.371286
1146.44	2.47655
1149.33	2.60432
1152.23	0.806686
1155.12	1.46622
1158.01	2.43359
1160.9	1.13719
1163.8	0.413553
1166.69	1.67759
1169.58	2.13692
1172.47	2.17605
1175.37	1.5329
1178.26	2.4476
1181.15	1.14903
1184.05	0.958881
1186.94	1.21417
1189.83	2.75029
1192.72	1.1765
1195.62	1.24433
1198.51	2.5692
1201.4	0.391148
1204.29	0.438368
1207.19	2.39573
1210.08	1.68777
1212.97	1.06141
1215.87	0.620394
1218.76	0.067844
1221.65	0.057686
1224.54	1.56163
1227.44	0.245686
1230.33	1.77504
1233.22	1.94762
1236.11	1.43206
1239.01	1.63379
1241.9	0.86425
1244.79	1.07074
1247.68	1.85355
1250.58	1.71354
1253.47	1.12486
1256.36	2.229
1259.26	1.77601
1262.15	1.57964
1265.04	0.790268
1267.93	0.588737
1270.83	1.04341
1273.72	1.59363
1276.61	1.51638
1279.5	0.934544
1282.4	2.89521
