Measurement: Raman, 780 nm, unoriented, Raman Data Processed
Mineral: Pyrite
Rruff sample: R080030
Ideal chemistry: FeS_2_
Locality: Schaft 209, Aue, Niederschlema, Erzgebirge, Saxony, Germany
Source: William W. Pinch
Description: Dark-bronze and blue, tarnished pseudohexagonal prisms; bright grey when a fresh surface is exposed. Associated with wire silver. These crystals were labeled argentopyrite, but are pseudomorphs.
Measured chemistry: Fe_1.04_Ag_0.01_As_0.08_S_2_
Raman shift (cm-1)	intensity
158.091	0
160.984	2.75832
163.877	1.02844
166.77	0.665936
169.662	1.61127
172.555	1.18388
175.448	0.997665
178.34	1.01607
181.233	0.99432
184.126	1.50993
187.018	0.963009
189.911	0.893036
192.804	1.1681
195.697	1.23674
198.589	1.07333
201.482	1.08325
204.375	1.27399
207.267	0.401409
210.16	1.41828
213.053	1.44313
215.946	1.77797
218.838	0.221306
221.731	1.26404
224.624	1.18093
227.516	0.373615
230.409	0.771431
233.302	1.0596
236.194	0.013416
239.087	0.175087
241.98	0.523655
244.873	0.021572
247.765	0.752827
250.658	0.457397
253.551	0.695732
256.443	0.118927
259.336	0.677055
262.229	0.477833
265.121	0.956051
268.014	1.00529
270.907	1.39084
273.8	2.22154
276.692	2.7276
279.585	4.89076
282.478	4.41582
285.37	8.25917
288.263	9.50053
291.156	12.4936
294.048	16.7188
296.941	19.6724
299.834	27.592
302.726	34.1539
305.619	35.2885
308.512	39.9059
311.405	40.624
314.297	45.178
317.19	43.3537
320.083	35.5296
322.975	24.914
325.868	18.0954
328.761	16.9205
331.654	15.5929
334.546	17.7482
337.439	18.3318
340.332	14.0794
343.224	8.27492
346.117	5.40873
349.01	4.74726
351.902	6.01864
354.795	7.58138
357.688	8.61708
360.58	10.4779
363.473	15.063
366.366	17.7158
369.259	19.9194
372.151	21.318
375.044	23.3274
377.937	22.3915
380.829	22.4746
383.722	17.4799
386.615	8.50408
389.507	2.46474
392.4	1.16772
395.293	1.45113
398.185	0.135277
401.078	0.643019
403.971	0.273001
406.864	0.207708
409.756	0.334387
412.649	0.472319
415.542	0.339394
418.434	0.251993
421.327	0.465155
424.22	0.340311
427.113	0.348167
430.005	0.029091
432.898	0.00477
435.791	0.546288
438.683	0.254833
441.576	0.145132
444.469	0.93462
447.361	1.28339
450.254	1.16231
453.147	0.564514
456.039	1.40098
458.932	1.52144
461.825	1.63029
464.718	1.46015
467.61	1.74575
470.503	1.27248
473.396	2.36712
476.288	2.44289
479.181	0.293158
482.074	2.33912
484.966	2.88723
487.859	1.55735
490.752	1.25376
493.645	1.31985
496.537	1.34196
499.43	1.12952
502.323	1.62643
505.215	1.13496
508.108	1.12141
511.001	0.3452
513.894	1.65848
516.786	1.1725
519.679	1.29703
522.572	0.681152
525.464	0.537178
528.357	0.829496
531.25	0.791279
534.142	0.923159
537.035	1.27599
539.928	1.16656
542.821	1.3215
545.713	1.18951
548.606	0.848886
551.499	1.22954
554.391	1.08766
557.284	0.861864
560.177	1.64206
563.069	1.22276
565.962	0.834408
568.855	1.53696
571.747	1.12277
574.64	1.08314
577.533	1.09302
580.426	0.947344
583.318	0.703865
586.211	0.836117
589.104	0.749849
591.996	0.77615
594.889	1.3781
597.782	1.76794
600.674	0.580305
603.567	0.578205
606.46	0.914021
609.352	1.32683
612.245	0.241749
615.138	0.327568
618.031	0.395821
620.923	1.4252
623.816	0.644114
626.709	1.31778
629.601	0.302996
632.494	0.241495
635.387	0.278669
638.279	1.13283
641.172	1.11696
644.065	0.85907
646.958	1.29632
649.85	1.47562
652.743	2.02746
655.636	1.39817
658.528	1.42604
661.421	1.91581
664.314	0.980509
667.207	1.38521
670.099	0.963268
672.992	1.27092
675.885	0.433699
678.777	1.04179
681.67	1.00669
684.563	0.621353
687.455	0.748795
690.348	0.760338
693.241	0.28186
696.134	0.294859
699.026	0.39835
701.919	0.750238
704.812	0.84516
707.704	0.975571
710.597	1.18679
713.49	0.624117
716.382	0.136795
719.275	0.54431
722.168	0.084686
725.061	0.566637
727.953	1.52855
730.846	0.388779
733.739	0.924038
736.631	0.748913
739.524	0.777727
742.417	0.285414
745.309	1.44248
748.202	1.54199
751.095	0.424528
753.987	0.058844
756.88	0.046627
759.773	1.78482
762.666	0.595598
765.558	0.195204
768.451	2.03484
771.344	0.829679
774.236	1.49841
777.129	0.465122
780.022	0.070589
782.914	1.16639
785.807	1.48387
788.7	0.946981
791.593	0.482712
794.485	0.683332
797.378	0.208439
800.271	0.304701
803.163	0.730614
806.056	0.952166
808.949	1.34541
811.841	1.12225
814.734	1.12713
817.627	1.45895
820.52	1.30184
823.412	1.41615
826.305	1.90603
829.198	0.758135
832.09	1.2895
834.983	2.31266
837.876	2.01324
840.769	3.00204
843.661	2.22532
846.554	2.64151
849.447	2.5077
852.339	2.07695
855.232	1.8145
858.125	2.38762
861.017	2.22819
863.91	1.86247
866.803	2.25047
869.696	2.01347
872.588	1.68874
875.481	1.8365
878.374	1.75839
881.266	1.03971
884.159	1.67127
887.052	0.273443
889.944	0.849213
892.837	0.977598
895.73	0.374678
898.622	0.338501
901.515	0.811405
904.408	0.573835
907.301	0.0061
910.193	0.129412
913.086	1.49025
915.979	0.404775
918.871	1.14167
921.764	0.733143
924.657	0.399314
927.549	0.108018
930.442	0.780438
933.335	0.210973
936.227	0.171022
939.12	1.37441
942.013	1.51881
944.906	0.931702
947.798	0.171106
950.691	1.88455
953.584	1.58913
956.476	1.84535
959.369	1.11159
962.262	1.23842
965.154	1.43616
968.047	0.080255
970.94	0.685567
973.833	1.4559
976.725	1.57776
979.618	1.31553
982.511	0.53795
985.403	0.797191
988.296	1.5631
991.189	1.36072
994.082	0.376471
996.974	0.57885
999.867	1.06904
1002.76	1.40454
1005.65	1.14059
1008.54	0.798152
1011.44	1.0986
1014.33	0.310508
1017.22	0.831536
1020.12	0.025021
1023.01	1.4239
1025.9	0.937078
1028.79	1.94245
1031.69	1.08036
1034.58	1.37562
1037.47	1.51658
1040.37	0.073048
1043.26	1.16385
1046.15	2.68264
1049.04	1.43768
1051.94	0.161416
1054.83	1.41513
1057.72	0.212601
1060.61	0.264954
1063.51	1.44284
1066.4	0.404685
1069.29	0.139712
1072.18	1.44885
1075.08	1.23447
1077.97	0.2855
1080.86	0.91754
1083.76	0.559429
1086.65	0.506345
1089.54	0.013523
1092.43	1.11481
1095.33	0.506578
1098.22	0.630256
1101.11	0.6229
1104	1.72741
1106.9	0.017942
1109.79	1.069
1112.68	0.488438
1115.58	0.469946
1118.47	1.25866
1121.36	1.14649
1124.25	0.825069
1127.15	1.42385
1130.04	0.992814
1132.93	1.05907
1135.82	1.69715
1138.72	0.325871
1141.61	0.325809
1144.5	1.9062
1147.39	0.118391
1150.29	0.844272
1153.18	0.796356
1156.07	0.300803
1158.96	0.22492
1161.86	0.791026
1164.75	0.721116
1167.64	0.161574
1170.54	0.671723
1173.43	1.51252
1176.32	0.949199
1179.21	0.67616
1182.11	0.627107
1185	0.619404
1187.89	1.61818
1190.79	1.35638
1193.68	1.41252
1196.57	0.559258
1199.46	1.54135
1202.36	0.017955
1205.25	1.2953
1208.14	0.707186
1211.03	2.06877
1213.93	0.528376
1216.82	1.24467
1219.71	0.830998
1222.61	1.33535
1225.5	1.45713
1228.39	1.30772
1231.28	0.74222
1234.18	0.828909
1237.07	0.827582
1239.96	0.381184
1242.85	0.943127
1245.75	2.28517
1248.64	0.465937
1251.53	1.90823
1254.42	1.22997
1257.32	0.515097
1260.21	1.45724
1263.1	0.756106
1265.99	2.0624
1268.89	1.25811
1271.78	1.50544
1274.67	1.48739
1277.57	1.89076
1280.46	0.209215
1283.35	0.708311
1286.24	0.029805
