Measurement: Raman, 532 nm, unoriented, Raman Data Processed
Mineral: Pyrite
Rruff sample: R100166
Ideal chemistry: FeS_2_
Locality: Boston Consolidated mine, Bingham Canyon, 20 mi SSW of Salt Lake City, Salt Lake County, Utah, USA
Source: Harvard microprobe standard, Mineralogical Museum, Harvard University
Description: Brass-yellow pyritohedron
Measured chemistry: FeS_2_ (Pure phase as determined by WDS analysis)
Raman shift (cm-1)	intensity
171.549	0
174.441	3.3383
177.334	0.747799
180.227	4.12615
183.119	1.40617
186.012	1.20873
188.905	1.3011
191.798	2.43447
194.69	4.11354
197.583	3.48494
200.476	2.41722
203.369	2.59886
206.261	3.00134
209.154	2.38083
212.047	1.62748
214.939	1.43172
217.832	1.70639
220.725	3.55502
223.617	3.41483
226.51	2.39032
229.403	2.43953
232.296	1.54247
235.188	1.53517
238.081	4.80991
240.974	1.08001
243.866	2.2247
246.759	2.19119
249.652	0.162504
252.544	2.58543
255.437	2.06062
258.33	2.7055
261.223	2.72813
264.115	1.71548
267.008	1.21427
269.901	1.12917
272.793	3.32892
275.686	1.54162
278.579	0.490833
281.471	0.402824
284.364	0.415272
287.257	1.0127
290.15	2.46844
293.042	0.879215
295.935	3.59897
298.828	2.0059
301.72	0.754831
304.613	0.144541
307.506	1.57698
310.399	1.6131
313.291	2.28577
316.184	0.239149
319.077	3.21285
321.969	0.751497
324.862	3.95914
327.755	10.1954
330.647	13.1048
333.54	16.3128
336.433	16.9759
339.325	34.021
342.218	61.3161
345.111	76.0963
348.004	13.9876
350.896	5.77812
353.789	4.54225
356.682	1.42779
359.574	0.556112
362.467	3.27196
365.36	11.0817
368.253	13.644
371.145	16.1325
374.038	22.3065
376.931	45.9302
379.823	77.6627
382.716	37.032
385.609	9.1995
388.502	2.50097
391.394	1.92081
394.287	0.627062
397.18	0.423771
400.072	1.60656
402.965	1.12324
405.858	1.17244
408.75	0.309406
411.643	0.77231
414.536	0.117813
417.428	2.37306
420.321	0.557196
423.214	1.19374
426.107	2.29726
428.999	4.35217
431.892	6.84424
434.785	2.51911
437.677	2.2414
440.57	0.797682
443.463	1.32214
446.356	1.94091
449.248	0.052206
452.141	2.75447
455.034	0.175333
457.926	0.936792
460.819	1.4443
463.712	0.040413
466.604	0.728088
469.497	1.21068
472.39	0.441797
475.283	0.18965
478.175	2.64115
481.068	0.16218
483.961	3.24144
486.853	4.04026
489.746	1.13601
492.639	2.71788
495.531	0.451256
498.424	1.98432
501.317	3.78084
504.21	0.38957
507.102	3.25635
509.995	0.606947
512.888	2.03016
515.78	0.021854
518.673	1.28224
521.566	0.377924
524.458	1.07037
527.351	0.717024
530.244	2.32596
533.137	1.53156
536.029	1.97806
538.922	1.72388
541.815	1.57856
544.707	2.84321
547.6	1.37547
550.493	2.01443
553.386	0.380156
556.278	0.987806
559.171	0.351627
562.064	1.03186
564.956	2.02214
567.849	0.342247
570.742	0.269991
573.635	1.89269
576.527	0.247047
579.42	2.26531
582.313	1.44646
585.205	1.28199
588.098	1.24991
590.991	0.97154
593.883	1.71307
596.776	2.4718
599.669	1.15461
602.562	0.26502
605.454	2.25591
608.347	1.08067
611.24	2.9449
614.132	0.468657
617.025	1.25638
619.918	0.528227
622.81	0.15251
625.703	1.25557
628.596	1.42874
631.489	1.49971
634.381	0.640728
637.274	2.03238
640.167	2.2099
643.059	0.148695
645.952	1.39896
648.845	0.986038
651.737	2.30974
654.63	2.73121
657.523	2.13144
660.416	3.27261
663.308	0.362019
666.201	1.78559
669.094	1.96777
671.986	2.09255
674.879	1.88788
677.772	2.4898
680.664	1.33301
683.557	2.99403
686.45	1.99608
689.343	0.307739
692.235	0.588694
695.128	1.79839
698.021	2.26125
700.913	1.9072
703.806	0.313829
706.699	0.160912
709.592	1.91335
712.484	1.46256
715.377	0.874903
718.27	0.529858
721.162	0.034218
724.055	2.4425
726.948	1.97768
729.841	1.10418
732.733	0.794407
735.626	1.09874
738.519	1.73078
741.411	1.53396
744.304	1.0545
747.197	0.804184
750.089	0.863401
752.982	1.12565
755.875	3.5361
758.768	1.31928
761.66	0.194569
764.553	1.56838
767.446	3.69253
770.338	0.092747
773.231	2.1194
776.124	1.74973
779.016	2.70565
781.909	0.134613
784.802	2.29915
787.694	0.731834
790.587	2.27197
793.48	0.96686
796.373	3.89398
799.265	0.935211
802.158	1.98622
805.051	3.8123
807.943	3.19108
810.836	2.31001
813.729	1.9294
816.621	3.4917
819.514	0.69314
822.407	1.423
825.3	1.84354
828.192	3.08268
831.085	2.13221
833.978	2.50649
836.87	2.70038
839.763	0.860704
842.656	3.38353
845.549	2.90731
848.441	2.87469
851.334	2.41786
854.227	2.8499
857.119	3.50127
860.012	1.53915
862.905	5.02744
865.798	4.98728
868.69	0.330305
871.583	3.29691
874.476	2.54571
877.368	2.90505
880.261	3.15437
883.154	3.85383
886.046	1.63637
888.939	0.944365
891.832	2.43586
894.725	0.844694
897.617	1.99779
900.51	2.28676
903.403	0.9809
906.295	1.24147
909.188	0.110857
912.081	0.409048
914.973	0.487541
917.866	1.49328
920.759	1.91833
923.652	1.33075
926.544	1.7677
929.437	1.89834
932.33	0.37534
935.222	2.00482
938.115	0.754426
941.008	2.52342
943.9	1.35263
946.793	2.45081
949.686	0.581688
952.579	2.14193
955.471	0.847993
958.364	1.62589
961.257	0.651575
964.149	1.65255
967.042	1.31695
969.935	0.411287
972.827	2.41743
975.72	0.71011
978.613	0.231362
981.506	0.206777
984.398	1.30947
987.291	1.33107
990.184	1.35426
993.077	1.68493
995.969	2.24374
998.862	2.49122
1001.75	1.80906
1004.65	0.656337
1007.54	3.20519
1010.43	2.06257
1013.33	0.735957
1016.22	1.43772
1019.11	0.405737
1022	1.9463
1024.9	2.31208
1027.79	0.256061
1030.68	0.943382
1033.57	1.87401
1036.47	3.33269
1039.36	3.61837
1042.25	0.154554
1045.14	1.25805
1048.04	1.8279
1050.93	2.40171
1053.82	0.924938
1056.72	1.10333
1059.61	0.311357
1062.5	1.80653
1065.39	2.21822
1068.29	0.963217
1071.18	1.38099
1074.07	0.319475
1076.96	0.628685
1079.86	1.64527
1082.75	1.88863
1085.64	1.95532
1088.54	0.857498
1091.43	1.91708
1094.32	0.435264
1097.21	0.118635
1100.11	0.432503
1103	1.19108
1105.89	1.85949
1108.79	2.38136
1111.68	2.0082
1114.57	1.46393
1117.46	2.54332
1120.36	3.02879
1123.25	0.635506
1126.14	0.475785
1129.03	1.8039
1131.93	2.15905
1134.82	0.778264
1137.71	0.598436
1140.6	1.39152
1143.5	2.28162
1146.39	2.18505
1149.28	1.462
1152.17	2.35993
1155.07	1.02867
1157.96	0.906605
1160.85	1.85984
1163.75	3.26896
1166.64	1.31203
1169.53	0.880972
1172.42	2.90211
1175.32	1.00411
1178.21	0.101819
1181.1	1.87987
1183.99	2.16814
1186.89	1.39357
1189.78	2.00398
1192.67	1.97158
1195.57	1.25341
1198.46	2.29611
1201.35	1.13624
1204.24	2.65523
1207.14	1.48253
1210.03	1.86031
1212.92	1.26889
1215.82	0.291006
1218.71	0.155734
1221.6	0.427128
1224.49	1.31594
1227.38	1.12813
1230.28	0.375774
1233.17	1.75606
1236.06	0.646893
1238.96	1.17904
1241.85	2.15041
1244.74	0.612267
1247.63	1.30633
1250.53	1.66382
1253.42	0.973105
1256.31	3.52992
1259.2	2.56557
1262.1	2.28401
1264.99	1.70508
1267.88	2.75508
1270.78	0.82509
1273.67	2.42476
1276.56	1.17981
1279.45	2.6002
1282.35	1.11344
1285.24	0.675665
1288.13	0.849077
1291.03	0.604015
1293.92	1.70064
1296.81	0.124336
1299.7	2.82583
1302.6	0
