Measurement: Raman, 532 nm, unoriented, Raman Data Processed
Mineral: Pyrite
Rruff sample: R050190
Ideal chemistry: FeS_2_
Locality: Huanzala mine, Huallanca District, Dos de Mayo Province, Huanuco Department, Peru
Source: Dave Bunk Minerals
Description: Brass yellow modified cubes with typical pyrite striations
Measured chemistry: Fe_1.00_S_2.00_
Raman shift (cm-1)	intensity
147.772	0
150.665	0.266768
153.558	1.29118
156.451	2.05368
159.343	0.101672
162.236	0.627517
165.129	0.408027
168.021	0.232801
170.914	1.06873
173.807	0.385276
176.699	0.367393
179.592	0.659645
182.485	0.335927
185.377	0.898861
188.27	0.161198
191.163	0.148455
194.056	0.174369
196.948	0.006629
199.841	0.301891
202.734	0.417231
205.626	0.150063
208.519	0.116687
211.412	0.139117
214.304	0.374753
217.197	0.322768
220.09	0.409551
222.983	0.046933
225.875	0.090961
228.768	0.101769
231.661	0.166595
234.553	0.225865
237.446	0.127336
240.339	0.339114
243.232	0.132357
246.124	0.23594
249.017	0.15601
251.91	0.255044
254.802	0.246334
257.695	0.446013
260.588	0.395238
263.48	0.595474
266.373	0.268586
269.266	0.465583
272.159	0.135568
275.051	0.108509
277.944	0.222015
280.837	0.491127
283.729	0.109409
286.622	0.341295
289.515	0.064664
292.407	0.190122
295.3	0.256213
298.193	0.340093
301.086	0.457082
303.978	0.320823
306.871	0.167655
309.764	0.26479
312.656	0.342392
315.549	0.72856
318.442	0.422785
321.334	0.836862
324.227	1.71648
327.12	8.77674
330.012	9.18478
332.905	11.8996
335.798	15.2842
338.691	21.2536
341.583	44.9376
344.476	73.3986
347.369	14.1562
350.261	4.64361
353.154	2.1217
356.047	1.06895
358.94	1.29023
361.832	3.239
364.725	7.93313
367.618	9.5609
370.51	11.7425
373.403	15.6005
376.296	30.0728
379.188	51.9573
382.081	39.9701
384.974	5.96206
387.866	2.17292
390.759	1.25903
393.652	0.562065
396.545	0.554224
399.437	0.026997
402.33	0.136189
405.223	0.341304
408.115	0.010785
411.008	0.102166
413.901	0.489866
416.793	0.801718
419.686	1.14361
422.579	1.08494
425.472	2.51561
428.364	3.96631
431.257	5.54926
434.15	2.19904
437.042	0.816471
439.935	0.574238
442.828	0.419699
445.721	0.040465
448.613	0.338163
451.506	0.140041
454.399	0.079717
457.291	0.000373
460.184	0.192686
463.077	0.340874
465.969	0.38154
468.862	0.4202
471.755	0.243164
474.647	0.319345
477.54	0.092444
480.433	0.347986
483.326	0.302275
486.218	0.761429
489.111	0.135615
492.004	0.378811
494.896	0.285058
497.789	0.332148
500.682	0.240003
503.575	0.031463
506.467	0.241678
509.36	0.053793
512.253	0.309612
515.145	0.265485
518.038	0.522615
520.931	0.299941
523.823	0.519876
526.716	0.080548
529.609	0.497511
532.501	0.416894
535.394	0.226133
538.287	0.474552
541.18	0.44087
544.072	0.43855
546.965	0.052239
549.858	0.1499
552.75	0.325251
555.643	0.46989
558.536	0.171378
561.428	0.248459
564.321	0.644261
567.214	0.313563
570.107	0.275755
572.999	0.265882
575.892	0.21631
578.785	0.267784
581.677	0.297715
584.57	0.131424
587.463	0.052469
590.356	0.145241
593.248	0.23417
596.141	0.32814
599.034	0.318928
601.926	0.03989
604.819	0.072082
607.712	0.372572
610.604	0.157896
613.497	0.30769
616.39	0.260181
619.283	0.063721
622.175	0.040786
625.068	0.090424
627.961	0.162391
630.853	0.245869
633.746	0.40866
636.639	0.280875
639.531	0.008697
642.424	0.205638
645.317	0.551818
648.21	0.438705
651.102	0.329154
653.995	0.217484
656.888	0.061646
659.78	0.4299
662.673	0.302736
665.566	0.276681
668.458	0.206337
671.351	0.524232
674.244	0.081558
677.136	0.373817
680.029	0.338931
682.922	0.251448
685.815	0.221495
688.707	0.65236
691.6	0.069428
694.493	0.087237
697.385	0.096471
700.278	0.112263
703.171	0.101898
706.063	0.474118
708.956	0.057679
711.849	0.225855
714.741	0.316181
717.634	0.188523
720.527	0.309663
723.42	0.152342
726.312	0.035468
729.205	0.165995
732.098	0.112091
734.99	0.353793
737.883	0.108128
740.776	0.158536
743.668	0.429218
746.561	0.074894
749.454	0.256032
752.347	0.194381
755.239	0.116278
758.132	0.279799
761.025	0.326504
763.917	0.381628
766.81	0.336235
769.703	0.418516
772.596	0.486328
775.488	0.360394
778.381	0.29711
781.274	0.151067
784.166	0.209986
787.059	0.233584
789.952	0.56847
792.844	0.358584
795.737	0.591657
798.63	0.416258
801.523	0.349951
804.415	0.467625
807.308	0.680009
810.201	0.588812
813.093	0.737678
815.986	0.669695
818.879	0.607385
821.771	0.672893
824.664	0.540755
827.557	0.402322
830.449	0.454795
833.342	1.06277
836.235	0.625277
839.128	0.764259
842.02	0.653851
844.913	0.520498
847.806	0.777415
850.698	0.688448
853.591	0.672127
856.484	1.14661
859.376	0.79363
862.269	1.08147
865.162	0.831412
868.055	0.80959
870.947	0.599452
873.84	0.834461
876.733	0.558137
879.625	0.809358
882.518	0.409434
885.411	0.365409
888.303	0.209707
891.196	0.272649
894.089	0.221657
896.982	0.339663
899.874	0.063801
902.767	0.165122
905.66	0.188145
908.552	0.070487
911.445	0.010529
914.338	0.079662
917.231	0.274104
920.123	0.043116
923.016	0.143515
925.909	0.063486
928.801	0.217164
931.694	0.034351
934.587	0.296171
937.479	0.267658
940.372	0.330354
943.265	0.244914
946.158	0.350399
949.05	0.158694
951.943	0.242151
954.836	0.18526
957.728	0.311212
960.621	0.368973
963.514	0.132606
966.406	0.445541
969.299	0.405962
972.192	0.370779
975.085	0.368618
977.977	0.215421
980.87	0.002904
983.763	0.039537
986.655	0.164006
989.548	0.310155
992.441	0.361914
995.333	0.212401
998.226	0.324533
1001.12	0.371404
1004.01	0.096645
1006.9	0.331395
1009.8	0.111882
1012.69	0.295969
1015.58	0.168905
1018.48	0.329877
1021.37	0.284448
1024.26	0.584742
1027.15	0.499457
1030.05	0.428671
1032.94	0.227449
1035.83	0.371125
1038.72	0.692666
1041.62	0.338825
1044.51	0.461846
1047.4	0.299941
1050.3	0.430911
1053.19	0.009689
1056.08	0.150966
1058.97	0.397623
1061.87	0.242125
1064.76	0.527197
1067.65	0.205467
1070.54	0.271382
1073.44	0.225698
1076.33	0.204754
1079.22	0.342481
1082.11	0.143088
1085.01	0.18393
1087.9	0.384062
1090.79	0.214329
1093.68	0.158037
1096.58	0.245144
1099.47	0.054894
1102.36	0.373888
1105.26	0.123752
1108.15	0.286342
1111.04	0.309088
1113.93	0.259552
1116.83	0.334243
1119.72	0.173841
1122.61	0.458728
1125.51	0.089791
1128.4	0.056213
1131.29	0.322437
1134.18	0.079737
1137.08	0.120807
1139.97	0.146493
1142.86	0.040015
1145.75	0.063295
1148.65	0.04315
1151.54	0.319753
1154.43	0.061931
1157.33	0.195029
1160.22	0.267475
1163.11	0.169828
1166	0.211366
1168.89	0.263057
1171.79	0.339431
1174.68	0.140236
1177.57	0.237766
1180.47	0.18436
1183.36	0.166295
1186.25	0.323981
1189.14	0.064548
1192.04	0.32575
1194.93	0.099643
1197.82	0.3247
1200.71	0.512192
1203.61	0.304615
1206.5	0.139665
1209.39	0.334507
1212.29	0.046157
1215.18	0.059251
1218.07	0.31072
1220.96	0.050755
1223.86	0.179879
1226.75	0.170678
1229.64	0.064307
1232.54	0.244826
1235.43	0.317934
1238.32	0.54439
1241.21	0.200065
1244.11	0.219768
1247	0.049501
1249.89	0.32393
1252.78	0.184721
1255.68	0.206381
1258.57	0.117612
1261.46	0.3966
1264.35	0.401777
1267.25	0.196975
1270.14	0.381052
1273.03	0.381971
1275.92	0.506704
1278.82	0.222091
1281.71	0.151052
1284.6	0.240075
1287.5	0.151327
1290.39	0.143961
1293.28	0.065877
