Measurement: Raman, 532 nm, unoriented, Raman Data Processed
Mineral: Pyrite
Rruff sample: R080030
Ideal chemistry: FeS_2_
Locality: Schaft 209, Aue, Niederschlema, Erzgebirge, Saxony, Germany
Source: William W. Pinch
Description: Dark-bronze and blue, tarnished pseudohexagonal prisms; bright grey when a fresh surface is exposed. Associated with wire silver. These crystals were labeled argentopyrite, but are pseudomorphs.
Measured chemistry: Fe_1.04_Ag_0.01_As_0.08_S_2_
Raman shift (cm-1)	intensity
158.801	0
161.693	1.34913
164.586	1.72183
167.479	0.156155
170.371	2.53746
173.264	2.33826
176.157	0.141483
179.049	2.33021
181.942	1.35359
184.835	0.613098
187.728	2.87773
190.62	2.0258
193.513	1.45081
196.406	0.759422
199.298	2.21205
202.191	2.11413
205.084	1.40216
207.976	0.929676
210.869	1.3532
213.762	1.59359
216.655	1.75204
219.547	2.2539
222.44	2.34645
225.333	3.13208
228.225	1.21691
231.118	1.05797
234.011	1.18161
236.904	0.155476
239.796	0.057827
242.689	0.512119
245.582	0.874752
248.474	0.032059
251.367	0.134048
254.26	1.02999
257.152	0.200932
260.045	0.671474
262.938	0.310959
265.83	1.12215
268.723	0.286621
271.616	0.434536
274.509	0.605324
277.401	0.083649
280.294	1.51577
283.187	1.85511
286.079	2.93546
288.972	5.52569
291.865	8.06273
294.757	12.8837
297.65	14.8926
300.543	22.4995
303.435	29.1544
306.328	36.5794
309.221	40.6519
312.114	45.1754
315.006	50.8615
317.899	58.5419
320.792	65.2012
323.684	57.3417
326.577	42.5192
329.47	31.4169
332.363	33.215
335.255	36.6556
338.148	44.4071
341.041	49.7205
343.933	47.4215
346.826	36.6273
349.719	39.2469
352.611	47.5394
355.504	57.1212
358.397	67.9223
361.29	74.781
364.182	73.6007
367.075	70.5362
369.968	68.6715
372.86	68.934
375.753	71.3466
378.646	61.8487
381.538	38.2971
384.431	26.2005
387.324	18.3191
390.217	11.243
393.109	6.48546
396.002	4.53492
398.895	1.88892
401.787	1.86422
404.68	0.456787
407.573	2.52242
410.465	2.1815
413.358	1.90472
416.251	1.37656
419.144	1.81348
422.036	3.50074
424.929	2.2586
427.822	3.12497
430.714	0.8535
433.607	0.464603
436.5	0.723312
439.392	0.53437
442.285	0.009518
445.178	0.464725
448.07	0.420502
450.963	0.107351
453.856	1.39364
456.749	0.253197
459.641	0.03533
462.534	0.341146
465.427	0.264853
468.319	0.853296
471.212	0.944141
474.105	1.61559
476.998	2.87423
479.89	1.66326
482.783	3.12609
485.676	2.89506
488.568	1.72762
491.461	2.40989
494.354	2.02235
497.246	2.98017
500.139	3.31444
503.032	3.0846
505.925	2.92852
508.817	2.63641
511.71	1.88329
514.603	2.67576
517.495	2.39209
520.388	2.26032
523.281	1.97225
526.173	1.07926
529.066	1.46843
531.959	2.0536
534.851	1.62001
537.744	1.79641
540.637	2.9701
543.53	2.74581
546.422	1.55849
549.315	1.37771
552.208	1.85696
555.1	1.61747
557.993	1.37626
560.886	1.68759
563.779	1.04113
566.671	1.11259
569.564	1.7509
572.457	0.70302
575.349	1.17081
578.242	1.14506
581.135	1.21918
584.027	1.01981
586.92	0.645134
589.813	1.86886
592.706	1.20847
595.598	1.79121
598.491	0.74526
601.384	0.512018
604.276	2.94053
607.169	0.8293
610.062	0.583733
612.954	1.5465
615.847	2.04138
618.74	0.77828
621.633	1.58634
624.525	0.874743
627.418	1.16956
630.311	1.05373
633.203	0.190445
636.096	0.782284
638.989	0.903372
641.881	0.263197
644.774	1.40909
647.667	1.09046
650.559	1.52946
653.452	1.20392
656.345	0.604216
659.238	1.5596
662.13	1.08005
665.023	2.11205
667.916	0.547731
670.808	1.43597
673.701	1.07453
676.594	0.668467
679.486	0.693886
682.379	1.39929
685.272	1.36736
688.165	0.885477
691.057	1.14687
693.95	1.0625
696.843	0.320347
699.735	0.36795
702.628	0.63426
705.521	0.163843
708.413	0.190302
711.306	1.13745
714.199	1.2438
717.092	0.324499
719.984	0.295309
722.877	1.01652
725.77	0.623329
728.662	0.730537
731.555	1.35471
734.448	0.745108
737.341	1.37255
740.233	0.949772
743.126	1.5953
746.019	0.016598
748.911	1.03439
751.804	1.66332
754.697	1.01579
757.589	0.14152
760.482	0.397776
763.375	1.18816
766.268	1.04138
769.16	1.19427
772.053	1.99074
774.946	0.528198
777.838	2.15708
780.731	1.38011
783.624	0.527861
786.516	0.931992
789.409	0.551933
792.302	0.882616
795.194	0.503281
798.087	0.658836
800.98	0.214128
803.873	1.00519
806.765	0.305889
809.658	1.47585
812.551	1.04627
815.443	1.13343
818.336	1.00347
821.229	0.612934
824.121	1.58289
827.014	1.74931
829.907	1.46891
832.8	0.120697
835.692	0.978313
838.585	0.546951
841.478	1.01829
844.37	1.33354
847.263	1.3431
850.156	1.49779
853.048	0.864662
855.941	1.11329
858.834	1.32309
861.727	1.07119
864.619	1.12452
867.512	0.629745
870.405	1.20057
873.297	0.974939
876.19	1.80941
879.083	0.984779
881.976	1.25863
884.868	1.26446
887.761	0.658205
890.654	1.30134
893.546	0.261938
896.439	0.181974
899.332	0.981821
902.224	0.338116
905.117	0.093372
908.01	0.797106
910.903	0.547668
913.795	0.865137
916.688	0.297094
919.581	1.52844
922.473	0.150024
925.366	0.395185
928.259	0.485153
931.151	1.08313
934.044	0.749031
936.937	1.51151
939.83	2.28958
942.722	1.07307
945.615	0.937449
948.508	1.5672
951.4	0.518858
954.293	1.37668
957.186	1.10291
960.078	1.78148
962.971	1.93974
965.864	0.436104
968.756	1.04253
971.649	0.298416
974.542	1.37985
977.434	0.019825
980.327	1.07068
983.22	0.274683
986.113	2.00285
989.005	0.800646
991.898	1.51018
994.791	1.31418
997.683	1.75843
1000.58	1.50727
1003.47	0.354563
1006.36	0.738657
1009.25	1.08656
1012.15	1.97703
1015.04	1.19603
1017.93	0.673573
1020.83	1.40049
1023.72	0.92771
1026.61	1.46432
1029.5	1.12246
1032.4	1.3879
1035.29	1.46354
1038.18	1.08884
1041.07	1.84217
1043.97	1.45153
1046.86	2.0069
1049.75	0.678724
1052.64	1.69689
1055.54	1.07917
1058.43	0.449474
1061.32	1.46046
1064.22	1.42653
1067.11	1.22778
1070	0.877537
1072.89	0.520214
1075.79	0.458725
1078.68	1.15488
1081.57	0.175346
1084.46	0.62747
1087.36	0.524519
1090.25	0.114185
1093.14	1.24462
1096.04	1.00913
1098.93	0.902338
1101.82	0.064878
1104.71	1.19979
1107.61	0.349691
1110.5	0.529093
1113.39	0.228346
1116.28	1.7722
1119.18	0.624233
1122.07	0.97064
1124.96	0.898155
1127.86	0.576176
1130.75	0.894941
1133.64	0.11989
1136.53	0.421021
1139.43	0.774702
1142.32	1.64394
1145.21	0.817963
1148.1	1.97619
1151	0.357613
1153.89	0.710459
1156.78	1.32814
1159.67	0.50268
1162.57	1.20285
1165.46	0.879034
1168.35	1.31894
1171.24	0.100445
1174.14	1.76307
1177.03	1.86705
1179.92	1.21458
1182.82	1.11908
1185.71	0.563576
1188.6	1.13709
1191.49	0.421774
1194.39	1.27268
1197.28	0.827423
1200.17	0.10969
1203.07	0.65843
1205.96	1.98724
1208.85	0.750443
1211.74	0.688667
1214.64	1.36932
1217.53	0.043331
1220.42	1.37793
1223.31	1.19554
1226.21	1.39444
1229.1	1.14286
1231.99	0.66898
1234.88	1.72714
1237.78	1.12442
1240.67	0.922466
1243.56	0.739069
1246.46	1.49625
1249.35	1.53422
1252.24	1.58957
1255.13	0.394897
1258.03	0.907349
1260.92	0.051882
1263.81	1.39155
1266.7	1.10566
1269.6	0.474659
1272.49	0.507778
1275.38	0.746252
1278.28	1.45775
1281.17	0.050341
1284.06	0.443922
1286.95	1.51126
1289.85	1.50173
1292.74	0.492662
1295.63	1.48299
1298.52	0.100945
1301.42	2.00598
1304.31	0.332838
