Measurement: Raman, 514 nm, unoriented, Raman Data Processed
Mineral: Pyrite
Rruff sample: R050190
Ideal chemistry: FeS_2_
Locality: Huanzala mine, Huallanca District, Dos de Mayo Province, Huanuco Department, Peru
Source: Dave Bunk Minerals
Description: Brass yellow modified cubes with typical pyrite striations
Measured chemistry: Fe_1.00_S_2.00_
Raman shift (cm-1)	intensity
142.016	0
146.172	9.866
150.327	83.075
154.48	114.196
158.63	14.352
162.779	154.89
166.926	89.421
171.07	75.187
175.213	75.262
179.354	86.082
183.493	156.841
187.63	131.343
191.765	239.228
195.898	293.24
200.029	327.053
204.158	527.917
208.285	419.05
212.41	49.214
216.533	52.511
220.654	42.962
224.773	31.425
228.891	5.291
233.006	1.075
237.119	4.71
241.231	8.624
245.34	13.622
249.448	0.637
253.553	8.623
257.657	7.553
261.758	16.391
265.858	10.085
269.956	40.594
274.052	1.06
278.146	8.121
282.237	15.143
286.327	12.014
290.416	21.8
294.502	31.53
298.586	17.275
302.668	3.962
306.749	38.954
310.827	90.481
314.903	70.273
318.978	116.739
323.051	144.067
327.121	176.954
331.19	347.479
335.257	890.811
339.322	3262.02
343.385	6566.01
347.446	1187.56
351.505	598.701
355.563	457.548
359.618	418.165
363.672	594.576
367.723	848.716
371.773	1985.78
375.821	7346.37
379.866	12804.2
383.91	2178.77
387.952	881.337
391.992	521.55
396.031	372.323
400.067	273.472
404.101	217.576
408.134	155.093
412.165	145.528
416.193	124.312
420.22	172.941
424.245	196.964
428.268	502.781
432.289	361.389
436.309	171.377
440.326	110.813
444.342	77.413
448.355	59.77
452.367	35.101
456.377	33.265
460.385	43.59
464.391	38.135
468.395	28.936
472.398	15.113
476.398	33.759
480.397	50.89
484.394	38.063
488.389	35.701
492.382	31.994
496.373	23.787
500.362	5.498
504.349	10.411
508.335	17.984
512.319	40.656
516.3	31.493
520.28	26.961
524.259	66.451
528.235	26.757
532.209	35.54
536.182	39.358
540.152	31.779
544.121	28.052
548.088	40.404
552.053	46.189
556.017	44.389
559.978	38.732
563.938	45.827
567.895	50.475
571.851	44.66
575.805	44.863
579.758	34.087
583.708	30.326
587.657	20.56
591.603	21.775
595.548	19.011
599.491	4.665
603.432	18.274
607.372	34.411
611.309	38.019
615.245	14.379
619.179	21.418
623.111	7.673
627.041	20.096
630.97	21.839
634.896	5.686
638.821	0.477
642.744	5.256
646.665	2.391
650.584	8.624
654.502	17.214
658.418	8.598
662.331	16.033
666.244	0.446
670.154	10.211
674.062	12.773
677.969	10.299
681.874	19.851
685.777	0.388
689.678	15.914
693.577	2.626
697.475	10.73
701.371	6.912
705.265	4.777
709.157	36.584
713.047	6.927
716.936	28.253
720.823	4.44
724.708	22.841
728.591	41.964
732.472	28.393
736.352	30.593
740.23	48.517
744.106	22.888
747.98	36.012
751.853	71.448
755.723	59.267
759.592	49.25
763.459	53.36
767.325	47.471
771.188	48.45
775.05	69.666
778.91	56.435
782.768	47.64
786.625	34.223
790.479	44.088
794.332	52.799
798.183	36.557
802.033	42.523
805.88	58.906
809.726	65.541
813.57	43.15
817.413	34.967
821.253	18.304
825.092	11.187
828.929	10.14
832.764	43.607
836.598	3.455
840.429	18.277
844.259	27.856
848.088	24.18
851.914	14.98
855.739	23.853
859.562	32.488
863.383	21.056
867.203	43.965
871.02	14.89
874.836	11.41
878.65	21.334
882.463	11.729
886.274	16.83
890.083	5.033
893.89	1.894
897.695	4.584
901.499	9.64
905.301	23.532
909.102	39.435
912.9	43.351
916.697	0.723
920.492	44.223
924.285	63.18
928.077	58.146
931.867	32.158
935.655	54.184
939.442	43.238
943.226	68.305
947.009	63.701
950.791	78.5
954.57	76.633
958.348	91.792
962.124	99.974
965.899	86.172
969.671	72.389
973.442	96.624
977.211	80.892
980.979	96.388
984.745	129.514
988.509	149.855
992.271	137.389
996.032	127.862
999.791	142.763
1003.55	188.279
1007.3	195.809
1011.06	185.713
1014.81	168.256
1018.56	160.82
1022.31	147.419
1026.06	131.035
1029.8	149.67
1033.55	153.918
1037.29	162.119
1041.03	177.835
1044.77	149.299
1048.5	161.988
1052.24	155.795
1055.97	175.342
1059.7	190.109
1063.43	159.281
1067.16	164.545
1070.89	174.355
1074.61	163.179
1078.34	173.015
1082.06	147.868
1085.78	144.153
1089.5	140.125
1093.21	131.008
1096.93	118.653
1100.64	122.571
1104.35	108.598
1108.06	43.493
1111.77	108.277
1115.48	63.653
1119.18	38.665
1122.89	92.143
1126.59	96.249
1130.29	102.679
1133.99	70.348
1137.68	91.81
1141.38	52.779
1145.07	51.751
1148.76	47.898
1152.45	22.069
1156.14	13.267
1159.83	23.602
1163.51	32.973
1167.19	39.792
1170.88	3.834
1174.56	20.817
1178.23	13.803
1181.91	33.857
1185.59	11.427
1189.26	8.439
1192.93	76.507
1196.6	8.489
1200.27	6.477
1203.94	20.424
1207.6	4.363
1211.27	11.393
1214.93	28.305
1218.59	16.195
1222.25	17.08
1225.9	8.955
1229.56	11.819
1233.21	0.332
1236.86	39.497
1240.51	20.387
1244.16	21.179
1247.81	10.953
1251.45	3.29
1255.1	17.922
1258.74	0.912
1262.38	5.331
1266.02	2.509
1269.66	8.886
1273.29	0.68
1276.93	10.187
1280.56	7.653
1284.19	19.094
1287.82	20.495
1291.45	2.877
1295.07	4.442
1298.7	3.596
1302.32	0.371
1305.94	0.205
1309.56	3.538
1313.18	18.684
1316.8	18.874
1320.41	17.041
1324.02	1.188
1327.63	31.31
1331.24	36.409
1334.85	16.324
1338.46	15.603
1342.06	11.637
1345.67	35.603
1349.27	23.606
1352.87	18.612
1356.47	33.616
1360.07	50.534
1363.66	66.302
1367.25	53.468
1370.85	45.313
1374.44	47.265
1378.03	41.642
1381.61	6.625
1385.2	40.985
1388.78	20.222
1392.37	27.672
1395.95	70.783
1399.53	29.053
1403.1	48.578
1406.68	28.895
1410.26	45.712
1413.83	31.182
1417.4	23.827
1420.97	37.06
1424.54	44.728
1428.1	41.456
1431.67	37.931
1435.23	51.475
1438.8	20.061
1442.36	34.439
1445.91	35.953
1449.47	54.405
1453.03	20.815
1456.58	29.033
1460.13	40.355
1463.68	64.7
1467.23	38.956
1470.78	45.355
1474.33	47.998
1477.87	48.732
1481.42	47.475
1484.96	23.305
1488.5	33.197
1492.04	35.603
1495.57	31.357
1499.11	47.723
1502.64	25.293
1506.17	34.129
1509.71	33.333
1513.23	26.649
1516.76	15.272
1520.29	29.495
1523.81	0
