Measurement: Raman, 780 nm, unoriented, Raman Data Processed
Mineral: Pyromorphite
Rruff sample: R060285
Ideal chemistry: Pb_5_(PO_4_)_3_Cl
Locality: Les Farges mine, Correze Ussel, France
Source: Herb Obodda
Description: Aggregate of green hexagonal prisms
Measured chemistry: Pb_5.00_((P_0.99_As_0.01_)_Î£=1_O_4_)_3_Cl_1.00_
Raman shift (cm-1)	intensity
124.799	0
128.174	1.26502
131.549	7.35022
134.924	12.4462
138.298	24.4592
141.673	51.6838
145.048	65.2462
148.423	89.9169
151.798	103.1
155.173	119.131
158.547	133.172
161.922	133.114
165.297	136.306
168.672	141.153
172.047	138.168
175.422	146.074
178.796	137.436
182.171	114.18
185.546	97.1611
188.921	85.6903
192.296	57.1367
195.67	44.5266
199.045	28.8543
202.42	27.3939
205.795	2.03699
209.17	6.90649
212.544	2.36145
215.919	2.49609
219.294	0.866577
222.669	2.59741
226.044	6.52405
229.419	0.12085
232.793	0.773315
236.168	6.78076
239.543	3.24072
242.918	8.46399
246.293	13.4479
249.667	2.82275
253.042	16.864
256.417	7.80371
259.792	10.4922
263.167	9.76819
266.542	1.97241
269.916	11.4902
273.291	3.68567
276.666	6.99707
280.041	8.10046
283.416	0.589966
286.791	0.305542
290.165	0.588623
293.54	1.85608
296.915	12.0304
300.29	30.2133
303.665	38.3105
307.039	55.5812
310.414	75.0061
313.789	86.8781
317.164	106.974
320.539	125.122
323.913	140.868
327.288	146.228
330.663	150.969
334.038	163.201
337.413	147.013
340.788	160.996
344.162	147.258
347.537	130.825
350.912	121.326
354.287	112.328
357.662	112.115
361.036	105.979
364.411	100.755
367.786	88.3594
371.161	94.0621
374.536	110.585
377.911	122.09
381.285	136.859
384.66	157.414
388.035	182.145
391.41	209.584
394.785	190.186
398.159	150.951
401.534	131.341
404.909	142.188
408.284	138.405
411.659	131.783
415.034	108.344
418.408	91.8689
421.783	51.2694
425.158	41.3105
428.533	22.1139
431.908	22.193
435.282	6.86438
438.657	4.31348
442.032	3.95569
445.407	7.69617
448.782	2.74731
452.156	3.50232
455.531	5.88745
458.906	1.60986
462.281	2.25232
465.656	1.41394
469.031	4.76562
472.405	9.54407
475.78	1.89392
479.155	0.151855
482.53	2.54089
485.905	6.95129
489.279	7.65295
492.654	10.9679
496.029	14.2319
499.404	7.04578
502.779	9.9303
506.154	8.9823
509.528	13.1047
512.903	14.6738
516.278	12.3886
519.653	8.48889
523.028	0.333374
526.403	17.4608
529.777	11.7546
533.152	13.2789
536.527	18.8247
539.902	22.035
543.277	22.2616
546.651	14.4181
550.026	25.726
553.401	22.9354
556.776	18.2194
560.151	15.4637
563.525	12.1215
566.9	18.9508
570.275	15.703
573.65	24.2164
577.025	19.6388
580.399	8.08215
583.774	11.4276
587.149	1.48608
590.524	13.7407
593.899	5.6471
597.274	5.76868
600.649	0.15332
604.023	5.55066
607.398	6.73279
610.773	6.42769
614.148	1.47742
617.523	13.1323
620.897	13.2653
624.272	3.3092
627.647	14.2484
631.022	20.4642
634.397	11.6348
637.771	21.2924
641.146	14.9401
644.521	11.5458
647.896	14.0857
651.271	18.2314
654.646	14.7988
658.02	19.6481
661.395	25.0278
664.77	25.0857
668.145	22.3817
671.52	26.6364
674.894	23.016
678.269	15.2573
681.644	21.089
685.019	10.9578
688.394	10.7291
691.769	9.91882
695.143	10.1533
698.518	9.15649
701.893	8.24927
705.268	0.865479
708.643	9.4314
712.018	0.726318
715.392	9.60071
718.767	8.2478
722.142	4.7262
725.517	12.0708
728.891	2.13806
732.266	5.39648
735.641	2.9032
739.016	0.475098
742.391	5.68152
745.766	7.76269
749.14	6.74573
752.515	4.83679
755.89	0.28894
759.265	12.5511
762.64	4.92871
766.014	0.499506
769.389	1.80322
772.764	8.02637
776.139	17.4651
779.514	11.0409
782.889	12.5508
786.263	11.5839
789.638	10.6445
793.013	12.309
796.388	12.3115
799.763	17.4634
803.138	22.0207
806.512	28.8552
809.887	47.7988
813.262	58.697
816.637	84.0953
820.012	66.6007
823.386	43.1932
826.761	32.2222
830.136	22.1091
833.511	11.7443
836.886	20.5536
840.26	18.0154
843.635	11.2333
847.01	11.1028
850.385	15.173
853.76	10.9752
857.135	7.44971
860.509	6.729
863.884	2.3866
867.259	0.283325
870.634	7.00696
874.009	1.2605
877.384	4.09582
880.758	1.16943
884.133	4.1333
887.508	3.71069
890.883	1.26807
894.258	8.51282
897.632	19.9156
901.007	38.2721
904.382	75.4003
907.757	139.747
911.132	206.099
914.506	303.82
917.881	388.235
921.256	332.735
924.631	213.362
928.006	152.836
931.381	139.844
934.755	160.542
938.13	195.809
941.505	218.868
944.88	223.775
948.255	192.15
951.63	129.475
955.004	78.8718
958.379	54.1957
961.754	36.2091
965.129	22.0477
968.504	8.45252
971.878	4.0979
975.253	10.2996
978.628	14.4703
982.003	4.66858
985.378	0.405762
988.752	3.28082
992.127	7.22679
995.502	6.92175
998.877	15.8184
1002.25	18.5947
1005.63	19.0525
1009	26.1969
1012.38	23.3882
1015.75	22.5532
1019.13	16.6846
1022.5	26.9077
1025.88	22.7962
1029.25	21.0383
1032.62	13.36
1036	17.1255
1039.38	14.2492
1042.75	14.2943
1046.12	15.8737
1049.5	14.4734
1052.87	17.9509
1056.25	7.4339
1059.62	8.31885
1063	14.7181
1066.37	17.7284
1069.75	21.7328
1073.12	21.0598
1076.5	20.9744
1079.87	20.9421
1083.25	14.704
1086.62	14.8846
1090	16.457
1093.37	11.8101
1096.75	5.25964
1100.12	10.0671
1103.5	8.03857
1106.87	7.56616
1110.25	7.79748
1113.62	4.95337
1116.99	1.26953
1120.37	0.311401
1123.74	0.07251
1127.12	1.89941
1130.49	3.32288
1133.87	2.70386
1137.24	15.93
1140.62	19.7756
1143.99	23.1125
1147.37	38.429
1150.74	36.62
1154.12	46.475
1157.49	59.3541
1160.87	68.6612
1164.24	81.8197
1167.62	89.2812
1170.99	98.0386
1174.37	100.263
1177.74	103.214
1181.12	113.698
1184.49	120.198
1187.87	125.204
1191.24	128.946
1194.62	130.926
1197.99	125.615
1201.37	134.356
1204.74	122.516
1208.12	127.666
1211.49	133.677
1214.87	123.314
1218.24	121.734
1221.62	109.044
1224.99	98.8436
1228.37	94.2338
1231.74	80.0909
1235.11	61.6095
1238.49	54.2953
1241.86	40.7426
1245.24	31.2621
1248.61	24.2053
1251.99	17.4343
1255.36	12.2402
1258.74	4.11719
1262.11	9.8335
1265.49	2.13525
1268.86	4.35107
1272.24	11.8308
1275.61	6.01514
1278.99	4.40283
1282.36	8.55469
1285.74	0
