Measurement: Raman, 532 nm, unoriented, Raman Data Processed
Mineral: Pyrope
Rruff sample: R060445
Ideal chemistry: Mg_3_Al_2_(SiO_4_)_3_
Locality: Tanzania
Source: Gemological Institute of America
Description: Deep red water worn pebble, variety rhodolite
Measured chemistry: (Mg_1.83_Fe_1.08_Ca_0.07_Mn_0.02_)_Î£=3_Al_2.00_(Si_1.00_O_4_)_3_
Raman shift (cm-1)	intensity
116.478	0
119.853	0.48338
123.228	1.87252
126.603	4.94063
129.977	11.211
133.352	13.764
136.727	15.7196
140.102	21.2006
143.477	24.1933
146.852	25.4139
150.226	24.4846
153.601	20.556
156.976	17.1778
160.351	13.8571
163.726	12.721
167.101	11.906
170.475	11.5357
173.85	14.3334
177.225	15.143
180.6	18.433
183.975	20.1668
187.349	19.5176
190.724	19.1269
194.099	20.0172
197.474	21.8873
200.849	26.8112
204.224	32.6556
207.598	39.9841
210.973	38.3792
214.348	25.8628
217.723	13.6407
221.097	5.48229
224.472	1.12138
227.847	0.647896
231.222	1.35149
234.597	1.20664
237.972	0.208385
241.346	0.182583
244.721	0.417194
248.096	0.008617
251.471	0.355591
254.846	0.247711
258.221	1.03116
261.595	1.65597
264.97	2.14877
268.345	2.30803
271.72	2.12383
275.095	3.1156
278.469	4.41541
281.844	4.87336
285.219	3.45739
288.594	3.14746
291.969	2.59195
295.344	3.71091
298.718	5.23601
302.093	8.51015
305.468	9.83075
308.843	14.9467
312.218	21.7101
315.592	31.4492
318.967	37.0478
322.342	33.9836
325.717	39.4203
329.092	49.1944
332.466	67.0846
335.841	92.5079
339.216	121.464
342.591	147.417
345.966	173.005
349.341	217.525
352.715	277.034
356.09	322.495
359.465	281.777
362.84	195.306
366.215	139.753
369.589	113.463
372.964	101.013
376.339	86.4591
379.714	58.274
383.089	34.8082
386.464	20.1968
389.838	12.0807
393.213	6.22331
396.588	3.47504
399.963	2.89235
403.338	0.779488
406.712	2.10464
410.087	0.092747
413.462	0.004536
416.837	0.545128
420.212	0.448174
423.587	0.518448
426.961	0.450012
430.336	1.17587
433.711	0.973522
437.086	0.321434
440.461	0.594482
443.835	0.631935
447.21	0.777981
450.585	0.20573
453.96	1.50924
457.335	0.387177
460.709	1.08648
464.084	1.79921
467.459	2.71386
470.834	4.86717
474.209	6.50701
477.584	9.61277
480.958	14.4192
484.333	20.8167
487.708	23.9593
491.083	15.7059
494.458	14.5053
497.832	18.9966
501.207	27.0682
504.582	40.7759
507.957	40.8941
511.332	23.8513
514.707	13.6861
518.081	9.79122
521.456	8.61379
524.831	9.1966
528.206	11.0608
531.581	9.72406
534.955	12.136
538.33	16.5998
541.705	26.2931
545.08	43.277
548.455	65.0817
551.83	95.3095
555.204	137.717
558.579	181.975
561.954	168.318
565.329	100.877
568.704	49.8952
572.078	25.9618
575.453	12.3392
578.828	6.77624
582.203	4.0351
585.578	3.78522
588.952	4.88565
592.327	4.17857
595.702	2.71891
599.077	0.164341
602.452	1.38126
605.827	0.677002
609.201	0.318668
612.576	0.727985
615.951	1.19536
619.326	0.797081
622.701	1.77954
626.075	2.13792
629.45	6.64317
632.825	12.7277
636.2	21.3014
639.575	31.9843
642.949	33.1211
646.324	23.4267
649.699	13.0429
653.074	7.34873
656.449	4.65456
659.824	2.259
663.198	1.20341
666.573	0.681215
669.948	0.232738
673.323	0.095713
676.698	0.076368
680.072	0.137907
683.447	0.485653
686.822	0.414801
690.197	0.378302
693.572	1.24343
696.947	1.65525
700.321	1.08522
703.696	1.68903
707.071	1.43933
710.446	1.88527
713.821	2.37137
717.196	2.60226
720.57	3.80472
723.945	3.58372
727.32	3.02115
730.695	3.56932
734.07	3.3969
737.444	3.64317
740.819	3.50176
744.194	3.20436
747.569	3.93969
750.944	4.3274
754.318	4.97319
757.693	4.38016
761.068	4.62571
764.443	3.77463
767.818	3.52895
771.193	3.33813
774.567	3.25626
777.942	3.57425
781.317	3.02706
784.692	2.29781
788.067	1.47828
791.441	1.52103
794.816	1.42658
798.191	0.857445
801.566	0.324265
804.941	0.162178
808.316	0.490559
811.69	0.222778
815.065	0.138477
818.44	0.129799
821.815	0.418011
825.19	0.644974
828.564	1.94555
831.939	0.73674
835.314	0.656998
838.689	1.01891
842.064	3.20409
845.438	6.52688
848.813	13.8893
852.188	23.4128
855.563	39.671
858.938	57.6208
862.313	83.5634
865.687	100.956
869.062	86.7289
872.437	59.1242
875.812	38.5936
879.187	28.4095
882.562	26.5811
885.936	31.2562
889.311	39.2451
892.686	52.4323
896.061	73.2365
899.436	95.6925
902.81	133.886
906.185	194.748
909.56	308.581
912.935	486.619
916.31	744.535
919.684	1059.13
923.059	1198.24
926.434	902.903
929.809	525.196
933.184	297.21
936.558	177.086
939.933	107.941
943.308	67.9926
946.683	42.3182
950.058	25.7713
953.433	15.8324
956.807	9.77761
960.182	4.38113
963.557	1.66925
966.932	0.231789
970.307	1.54841
973.682	0.851753
977.056	0.957272
980.431	2.08809
983.806	4.29469
987.181	5.91112
990.556	5.17333
993.93	2.84668
997.305	1.41738
1000.68	0.460423
1004.05	0.816467
1007.43	0.721798
1010.8	0.78986
1014.18	1.36637
1017.55	2.53518
1020.93	3.36121
1024.3	6.543
1027.68	8.00638
1031.05	10.6084
1034.43	13.7695
1037.8	17.1699
1041.18	21.5093
1044.55	29.2155
1047.93	35.1006
1051.3	43.7809
1054.68	46.451
1058.05	42.7607
1061.43	31.6101
1064.8	20.1091
1068.18	12.4374
1071.55	6.85992
1074.93	4.8417
1078.3	3.55608
1081.68	3.24805
1085.05	2.37643
1088.42	2.03068
1091.8	1.01858
1095.17	1.08267
1098.55	1.37905
1101.92	1.09928
1105.3	0.841431
1108.67	0.842472
1112.05	0.746782
1115.42	0.682859
1118.8	0.464842
1122.17	0.048286
1125.55	0.090275
1128.92	0.067123
1132.3	0.526287
1135.67	0.705046
1139.05	0.897352
1142.42	0.209412
1145.8	0.522055
1149.17	0.573292
1152.55	0.628696
1155.92	0.808098
1159.3	0.870125
1162.67	1.04699
1166.05	0.969664
1169.42	1.12655
1172.8	0.969332
1176.17	1.52392
1179.55	3.19287
1182.92	3.59406
1186.3	3.24464
1189.67	2.57645
1193.05	2.45817
1196.42	2.51266
1199.79	2.5629
1203.17	2.27138
1206.54	2.84863
1209.92	2.44293
1213.29	0.887831
1216.67	1.6155
1220.04	2.0017
1223.42	1.32733
1226.79	1.26791
1230.17	0.820734
1233.54	1.40072
1236.92	0.515436
1240.29	0.215109
1243.67	0.613388
1247.04	1.1629
1250.42	0.403112
1253.79	0.574608
1257.17	0.102217
1260.54	0.984468
1263.92	0.096554
1267.29	0.443485
1270.66	1.33668
1274.04	1.65375
1277.41	0.870686
1280.79	0.640684
1284.16	2.11425
1287.54	1.35783
1290.91	1.61947
1294.29	0.469774
1297.66	1.00492
1301.04	0.319044
