Measurement: Raman, 532 nm, unoriented, Raman Data Processed
Mineral: Pyromorphite
Rruff sample: R050027
Ideal chemistry: Pb_5_(PO_4_)_3_Cl
Locality: Yangshuo, Guangxi Autonomous Region, China
Source: Eugene Schlepp
Description: Light green hexagonal prismatic hoppered single crystals
Measured chemistry: Pb_5.00_(P_1.00_O_4_)_3_Cl_1.00_
Raman shift (cm-1)	intensity
131.823	0
135.198	126.409
138.573	816.727
141.948	1400.35
145.323	2104.24
148.698	2912.88
152.072	3997.65
155.447	4887.47
158.822	5398.6
162.197	5882.54
165.572	6701.77
168.946	7854.54
172.321	9237.99
175.696	10129.1
179.071	9848.65
182.446	8773.73
185.821	7916.27
189.195	7099
192.57	5775.46
195.945	4242.2
199.32	2907.2
202.695	2070.01
206.07	1574.01
209.444	1243.45
212.819	968.195
216.194	740.225
219.569	615.506
222.944	386.245
226.318	240.871
229.693	140.916
233.068	93.1201
236.443	17.2041
239.818	60.6511
243.192	94.3745
246.567	44.2026
249.942	76.0498
253.317	9.74951
256.692	22.8227
260.067	50.0413
263.441	13.6702
266.816	20.833
270.191	33.5156
273.566	23.9553
276.941	9.00635
280.315	25.5959
283.69	7.81519
287.065	43.9839
290.44	54.2156
293.815	84.0544
297.19	43.3572
300.564	11.1318
303.939	18.7041
307.314	53.864
310.689	7.04028
314.064	10.7222
317.438	35.8589
320.813	45.0933
324.188	70.1362
327.563	129.947
330.938	90.9509
334.313	152.764
337.687	142.88
341.062	195.546
344.437	195.659
347.812	236.559
351.187	204.135
354.562	251.516
357.936	291.274
361.311	382.437
364.686	520.843
368.061	772.997
371.436	1264.31
374.81	2070.65
378.185	3791.7
381.56	6440.89
384.935	10183.5
388.31	14517.7
391.685	17669
395.059	14002.1
398.434	8651.55
401.809	7610.38
405.184	8731.29
408.559	9313.81
411.933	6787.03
415.308	4378.92
418.683	3098.03
422.058	1772.8
425.433	1003.42
428.808	582.651
432.182	430.676
435.557	264.795
438.932	194.953
442.307	91.4785
445.682	111.901
449.056	97.2739
452.431	92.3733
455.806	85.7532
459.181	101.908
462.556	40.2429
465.93	58.2651
469.305	10.6555
472.68	13.5449
476.055	28.4551
479.43	61.0466
482.805	28.3875
486.179	31.1541
489.554	18.7895
492.929	52.1411
496.304	15.8623
499.679	69.9536
503.053	116.945
506.428	80.7727
509.803	90.1116
513.178	81.3435
516.553	105.278
519.928	128.037
523.302	154.892
526.677	183.099
530.052	286.823
533.427	433.745
536.802	629.058
540.177	962.177
543.551	1410.7
546.926	1600.41
550.301	2009.81
553.676	1820.98
557.051	835.28
560.425	415.805
563.8	421.401
567.175	626.434
570.55	870.723
573.925	1228.78
577.299	865.981
580.674	316.281
584.049	144.551
587.424	110.614
590.799	98.0999
594.174	90.3757
597.548	89.5232
600.923	98.1274
604.298	88.4946
607.673	106.877
611.048	74.7322
614.423	89.1545
617.797	40.5593
621.172	63.0242
624.547	26.0225
627.922	64.7688
631.297	5.68921
634.671	51.6711
638.046	1.40772
641.421	16.9446
644.796	19.313
648.171	7.20019
651.545	30.7317
654.92	2.38672
658.295	15.0166
661.67	18.8201
665.045	26.2625
668.42	24.2029
671.794	4.66919
675.169	36.5869
678.544	17.9485
681.919	42.3975
685.294	19.6436
688.668	42.6787
692.043	37.6499
695.418	4.15771
698.793	13.0877
702.168	11.7627
705.543	36.9727
708.917	26.977
712.292	47.6399
715.667	34.5515
719.042	20.7651
722.417	19.0828
725.792	40.772
729.166	37.3181
732.541	28.2532
735.916	28.3777
739.291	26.0947
742.666	39.1326
746.04	53.1743
749.415	68.1462
752.79	83.4934
756.165	84.3308
759.54	101.114
762.915	162.235
766.289	191.524
769.664	239.547
773.039	264.548
776.414	266.658
779.789	327.668
783.163	331.976
786.538	368.95
789.913	458.807
793.288	418.584
796.663	472.741
800.038	434.026
803.412	440.212
806.787	420.163
810.162	452.502
813.537	628.099
816.912	748.322
820.286	789.729
823.661	710.373
827.036	652.904
830.411	587.038
833.786	544.882
837.16	477.878
840.535	463.622
843.91	452.945
847.285	402.287
850.66	371.474
854.035	247.449
857.409	145.154
860.784	44.8828
864.159	17.772
867.534	41.331
870.909	91.0542
874.284	158.072
877.658	116.87
881.033	158.482
884.408	51.7114
887.783	27.6792
891.158	65.3906
894.533	280.643
897.907	641.822
901.282	1449.62
904.657	3385.2
908.032	8563.22
911.407	18265.1
914.781	30395.1
918.156	40375.9
921.531	27648.8
924.906	13783.1
928.281	10397.3
931.655	12212
935.03	17994.7
938.405	26495.1
941.78	34660.6
945.155	36653.4
948.529	29217.7
951.904	18419.4
955.279	10803.2
958.654	6403.86
962.029	4163.47
965.404	3174.51
968.778	2997.75
972.153	3506.53
975.528	4133.33
978.903	4167.9
982.278	3328.01
985.653	2097.18
989.027	1026.25
992.402	418.393
995.777	284.925
999.152	520.855
1002.53	1204.88
1005.9	1887.27
1009.28	2627.38
1012.65	3136.93
1016.03	3484.74
1019.4	3794.12
1022.78	3546.15
1026.15	2858.41
1029.53	2065.05
1032.9	1422.31
1036.28	931.605
1039.65	608.157
1043.02	322.676
1046.4	182.342
1049.77	8.67529
1053.15	64.2417
1056.52	136.084
1059.9	186.72
1063.27	172.705
1066.65	86.7993
1070.02	37.2515
1073.4	75.1797
1076.77	196.191
1080.15	179.303
1083.52	317.629
1086.9	325.525
1090.27	338.018
1093.65	429.2
1097.02	392.169
1100.4	367.246
1103.77	356.014
1107.15	293.093
1110.52	239.563
1113.9	219.185
1117.27	159.1
1120.64	76.9263
1124.02	95.4126
1127.39	122.683
1130.77	153.367
1134.14	231.153
1137.52	306.03
1140.89	484.61
1144.27	602.634
1147.64	643.217
1151.02	675.092
1154.39	614.611
1157.77	500.94
1161.14	344.159
1164.52	269.421
1167.89	224.498
1171.27	131.199
1174.64	111.707
1178.02	84.5862
1181.39	15.4578
1184.77	27.3127
1188.14	50.7969
1191.52	87.2192
1194.89	81.8523
1198.27	44.1606
1201.64	31.7847
1205.02	46.7165
1208.39	41.3452
1211.77	20.4683
1215.14	43.5862
1218.52	71.605
1221.89	68.1992
1225.27	37.7297
1228.64	57.9194
1232.01	4.35229
1235.39	18.5742
1238.76	44.2815
1242.14	17.4819
1245.51	34.2839
1248.89	10.5
1252.26	12.9592
1255.64	7.43945
1259.01	6.08423
1262.39	21.8372
1265.76	30.1155
1269.14	7.22339
1272.51	57.2588
1275.89	47.415
1279.26	13.6941
1282.64	20.3247
1286.01	8.79053
1289.39	8.18774
1292.76	31.8721
1296.14	29.0115
1299.51	8.52393
1302.88	42.3374
1306.26	31.0205
