Measurement: Raman, 780 nm, unoriented, Raman Data Processed
Mineral: Pyrope
Rruff sample: R100153
Ideal chemistry: Mg_3_Al_2_(SiO_4_)_3_
Locality: Sri Lanka
Source: William W. Pinch
Description: Light purplish-red gemstones. X-ray diffraction and Raman spectra were collected from the gemstone on the left.
Raman shift (cm-1)	intensity
131.585	0
134.478	1.3983
137.371	5.57053
140.263	10.2776
143.156	14.4434
146.049	14.1601
148.941	13.608
151.834	14.4447
154.727	14.8537
157.62	11.7669
160.512	10.4721
163.405	6.26858
166.298	2.2458
169.19	1.12702
172.083	0.264229
174.976	3.67485
177.869	7.04726
180.761	3.10609
183.654	0.559288
186.547	2.24693
189.439	5.76514
192.332	13.0628
195.225	24.165
198.117	38.5089
201.01	58.8562
203.903	82.5422
206.796	96.8941
209.688	103.986
212.581	86.4727
215.474	63.0457
218.366	38.3599
221.259	21.6546
224.152	11.0686
227.044	3.17207
229.937	2.33536
232.83	0.202927
235.722	2.34919
238.615	1.14529
241.508	2.14039
244.401	2.04324
247.293	2.01959
250.186	2.1013
253.079	0.17688
255.971	0.082687
258.864	0.923431
261.757	1.74589
264.649	0.287224
267.542	1.18854
270.435	0.321297
273.328	0.146996
276.22	1.35996
279.113	1.99797
282.006	2.46291
284.898	3.56271
287.791	4.83833
290.684	5.13254
293.576	8.59228
296.469	11.37
299.362	13.9449
302.255	18.4879
305.147	23.3251
308.04	37.4611
310.933	58.8541
313.825	81.0936
316.718	88.7575
319.611	74.5802
322.503	67.3931
325.396	69.5423
328.289	86.6356
331.182	113.624
334.074	149.606
336.967	190.357
339.86	235.86
342.752	299.833
345.645	399.665
348.538	543.176
351.43	697.289
354.323	736.199
357.216	600.307
360.108	415.869
363.001	291.558
365.894	223.256
368.787	189.88
371.679	167.299
374.572	141.017
377.465	106.859
380.357	77.8772
383.25	54.307
386.143	37.2593
389.036	28.6073
391.928	18.5505
394.821	13.87
397.714	7.59906
400.606	5.52643
403.499	2.72057
406.392	3.1824
409.284	2.37427
412.177	1.83485
415.07	0.126686
417.962	1.40079
420.855	0.602596
423.748	0.717194
426.641	2.35331
429.533	2.12842
432.426	0.005268
435.319	0.264946
438.211	0.394245
441.104	0.657333
443.997	0.19397
446.889	1.24855
449.782	0.767403
452.675	0.556263
455.567	2.06947
458.46	3.86997
461.353	3.75968
464.246	7.35132
467.138	9.75365
470.031	15.8132
472.924	17.6435
475.816	29.7493
478.709	44.7589
481.602	65.8584
484.495	71.4165
487.387	53.7514
490.28	38.9775
493.173	40.129
496.065	57.6183
498.958	97.5929
501.851	156.611
504.743	181.05
507.636	124.65
510.529	63.3683
513.422	35.7368
516.314	24.9329
519.207	18.9143
522.1	15.6531
524.992	14.9323
527.885	15.2533
530.778	17.5029
533.67	22.0676
536.563	25.0985
539.456	40.6017
542.348	58.6751
545.241	82.2097
548.134	116.818
551.027	170.496
553.919	254.54
556.812	335.731
559.705	328.417
562.597	223.549
565.49	127.558
568.383	69.2703
571.275	38.8653
574.168	21.4814
577.061	15.3552
579.954	12.325
582.846	14.7151
585.739	19.0185
588.632	22.5583
591.524	14.4358
594.417	6.84494
597.31	0.187916
600.202	1.0838
603.095	1.15179
605.988	0.400784
608.881	1.98243
611.773	0.247307
614.666	1.11414
617.559	1.08407
620.451	4.18394
623.344	7.86698
626.237	16.7073
629.129	29.756
632.022	51.4111
634.915	81.6211
637.808	109.472
640.7	99.5281
643.593	66.9373
646.486	37.3905
649.378	24.4863
652.271	18.2742
655.164	12.2821
658.056	8.3581
660.949	7.06034
663.842	3.859
666.735	2.59085
669.627	2.96727
672.52	3.36321
675.413	1.21977
678.305	0.503899
681.198	0.894211
684.091	0.038872
686.983	0.28471
689.876	1.87647
692.769	1.39362
695.662	0.239861
698.554	2.89907
701.447	0.853668
704.34	3.3587
707.232	3.48235
710.125	4.55782
713.018	2.9749
715.91	5.45404
718.803	0.701155
721.696	4.36445
724.588	4.22641
727.481	6.90155
730.374	7.0327
733.266	7.09818
736.159	8.08546
739.052	8.39223
741.945	8.14044
744.837	7.08106
747.73	8.33584
750.623	7.56841
753.515	8.17783
756.408	7.70057
759.301	7.42104
762.193	8.4776
765.086	8.37237
767.979	7.40759
770.872	7.57286
773.764	6.65214
776.657	5.22717
779.55	3.52436
782.442	3.39619
785.335	2.57818
788.228	1.6086
791.12	3.04455
794.013	0.476727
796.906	1.66995
799.799	0.053246
802.691	0.004349
805.584	0.217533
808.477	0.54348
811.369	3.45046
814.262	0.890816
817.155	2.09443
820.048	2.20671
822.94	2.39592
825.833	2.23339
828.726	1.17129
831.618	1.09467
834.511	3.14491
837.404	5.98354
840.296	12.8329
843.189	20.8432
846.082	35.3248
848.975	54.957
851.867	83.3413
854.76	118.459
857.653	171.138
860.545	232.414
863.438	257.326
866.331	223.419
869.223	162.455
872.116	118.88
875.009	88.7398
877.901	73.6757
880.794	69.8609
883.687	75.1467
886.58	91.0454
889.472	112.58
892.365	146.638
895.258	191.865
898.15	239.871
901.043	291.085
903.936	375.691
906.828	528.523
909.721	749.545
912.614	1094.04
915.506	1570.56
918.399	1960.2
921.292	1843.14
924.185	1303.93
927.077	813.771
929.97	506.341
932.863	327.921
935.755	215.565
938.648	147.77
941.541	100.013
944.433	67.2937
947.326	45.7521
950.219	30.617
953.112	19.7705
956.004	12.0964
958.897	7.50626
961.79	2.32555
964.682	0.477425
967.575	0.926956
970.468	1.77027
973.361	3.29253
976.253	2.24408
979.146	1.18241
982.039	0.964626
984.931	3.12668
987.824	1.54874
990.717	0.441967
993.609	0.040962
996.502	0.616985
999.395	1.7695
1002.29	0.396641
1005.18	0.575291
1008.07	4.06447
1010.97	4.18785
1013.86	6.74271
1016.75	11.7425
1019.64	14.9981
1022.54	20.091
1025.43	25.7513
1028.32	34.4036
1031.21	41.7859
1034.11	52.7364
1037	67.1564
1039.89	85.8792
1042.79	105.026
1045.68	123.376
1048.57	137.91
1051.46	136.38
1054.36	118.547
1057.25	91.7365
1060.14	63.7292
1063.03	41.2857
1065.93	25.3637
1068.82	18.104
1071.71	13.92
1074.61	8.69729
1077.5	7.35576
1080.39	6.5079
1083.28	4.39744
1086.18	3.95068
1089.07	3.37835
1091.96	3.15126
1094.85	1.75549
1097.75	2.30501
1100.64	2.01401
1103.53	0.258345
1106.42	1.45726
1109.32	0.11442
1112.21	0.131128
1115.1	0.904591
1117.99	0.749342
1120.89	0.787312
1123.78	0.387886
1126.67	0.382734
1129.57	1.00422
1132.46	0.210068
1135.35	0.368952
1138.24	0.415413
1141.14	1.88911
1144.03	0.577515
1146.92	1.21037
1149.82	1.4997
1152.71	0.142557
1155.6	3.27623
1158.49	2.91044
1161.39	0.922998
1164.28	3.25989
1167.17	3.98294
1170.06	4.38894
1172.96	4.21866
1175.85	5.60398
1178.74	5.26261
1181.63	5.42746
1184.53	5.02479
1187.42	5.00851
1190.31	5.43666
1193.21	6.08555
1196.1	4.99963
1198.99	5.33642
1201.88	5.19554
1204.78	4.58646
1207.67	5.088
1210.56	2.65103
1213.45	3.28125
1216.35	2.12115
1219.24	3.80936
1222.13	1.13216
1225.03	1.47245
1227.92	1.69159
1230.81	0.883068
1233.7	1.285
1236.6	0.178394
1239.49	1.31999
1242.38	1.35321
1245.27	0.635881
1248.17	0.83057
1251.06	0.716784
1253.95	1.11143
1256.85	0.009403
1259.74	0.95698
1262.63	1.85146
1265.52	1.42209
1268.42	2.01456
1271.31	1.13975
1274.2	0.739796
1277.09	0.556732
1279.99	0.431507
1282.88	0.062683
