Measurement: Raman, 532 nm, unoriented, Raman Data Processed
Mineral: Pyrope
Rruff sample: R050113
Ideal chemistry: Mg_3_Al_2_(SiO_4_)_3_
Locality: Warsik, Pakistan
Source: Farooq and Nazia Sawal
Description: Reddish-purple fragment
Measured chemistry: (Mg_1.83_Fe^2+^_1.12_Ca_0.03_Mn_0.02_)_Σ=3_(Al_1.82_Fe^3+^_0.18_)_Σ=2_((Si_0.99_Al_0.01_)_Σ=1_O_4_)_3_
Raman shift (cm-1)	intensity
142.192	0
145.084	67.9124
147.977	133.252
150.87	253.466
153.762	354.353
156.655	395.611
159.548	469.467
162.44	572.175
165.333	747.275
168.226	814.792
171.119	521.666
174.011	213.637
176.904	90.1094
179.797	20.849
182.689	10.4924
185.582	25.6628
188.475	15.2622
191.368	46.5496
194.26	115.844
197.153	102.557
200.046	145.333
202.938	272.731
205.831	306.618
208.724	422.937
211.616	418.667
214.509	374.813
217.402	337.518
220.294	248.591
223.187	171.512
226.08	151.029
228.972	107.954
231.865	94.1921
234.758	92.8882
237.651	74.7717
240.543	53.3828
243.436	9.29858
246.329	15.0508
249.221	8.57495
252.114	11.1628
255.007	20.1902
257.899	32.9182
260.792	9.29321
263.685	14.7319
266.578	26.0884
269.47	41.1887
272.363	1.34033
275.256	27.8044
278.148	29.2219
281.041	21.262
283.934	43.8037
286.827	57.1548
289.719	128.869
292.612	87.4316
295.505	145.983
298.397	184.613
301.29	215.576
304.183	296.644
307.075	416.228
309.968	529.713
312.861	658.353
315.753	699.112
318.646	745.949
321.539	869.646
324.432	1155.46
327.324	1447.51
330.217	1824.82
333.11	2262.21
336.002	2701.49
338.895	3139.31
341.788	3808.08
344.68	4325.93
347.573	4021.83
350.466	2866.13
353.359	1958.38
356.251	1457.86
359.144	1282.89
362.037	1260.06
364.929	1313.89
367.822	1392.72
370.715	1375.69
373.608	1183.58
376.5	854.123
379.393	586.975
382.286	396.831
385.178	240.857
388.071	135.016
390.964	107.15
393.856	104.87
396.749	24.3157
399.642	35.3201
402.534	51.0784
405.427	20.1511
408.32	39.3809
411.213	7.48657
414.105	8.42163
416.998	7.34302
419.891	10.5325
422.783	12.9858
425.676	14.436
428.569	30.6531
431.461	19.3379
434.354	7.32153
437.247	6.64917
440.139	50.259
443.032	0.995361
445.925	0.628906
448.818	49.6855
451.71	16.7625
454.603	57.0523
457.496	8.39941
460.388	49.6375
463.281	99.7493
466.174	136.601
469.067	194.873
471.959	240.832
474.852	291.215
477.745	333.907
480.637	293.053
483.53	292.032
486.423	337.539
489.315	459.853
492.208	606.121
495.101	797.617
497.993	1066.82
500.886	1093.28
503.779	644.684
506.672	245.597
509.564	145.575
512.457	97.1118
515.35	59.8794
518.242	17.6406
521.135	56.636
524.028	22.5784
526.92	9.87109
529.813	7.19873
532.706	38.4978
535.599	56.9204
538.491	193.333
541.384	266.046
544.277	427.286
547.169	562.663
550.062	776.924
552.955	866.823
555.847	950.655
558.74	765.429
561.633	459.551
564.526	239.831
567.418	168.244
570.311	138.617
573.204	90.4485
576.096	137.12
578.989	139.578
581.882	189.318
584.774	125.264
587.667	60.9788
590.56	77.3457
593.452	71.3008
596.345	87.8911
599.238	70.0269
602.131	12.1672
605.023	1.03101
607.916	29.5916
610.809	7.29785
613.701	3.0896
616.594	105.534
619.487	88.1821
622.38	113.43
625.272	158.351
628.165	200.919
631.058	244.432
633.95	266.441
636.843	172.127
639.736	86.1245
642.628	68.4434
645.521	74.1304
648.414	46.2876
651.307	22.5134
654.199	11.2378
657.092	17.6726
659.985	14.6892
662.877	14.9263
665.77	4.47729
668.663	10.5737
671.555	0.894775
674.448	10.4917
677.341	2.54736
680.234	42.5056
683.126	27.0666
686.019	35.7493
688.912	13.5952
691.804	37.2622
694.697	2.7019
697.59	18.5706
700.482	62.0864
703.375	57.0471
706.268	49.946
709.16	70.4753
712.053	39.762
714.946	47.0505
717.839	78.4639
720.731	50.9177
723.624	73.8884
726.517	74.792
729.409	40.0571
732.302	56.9004
735.195	10.5488
738.087	100.375
740.98	15.8765
743.873	31.9807
746.766	40.5613
749.658	42.6653
752.551	71.9995
755.444	43.647
758.336	71.6548
761.229	79.3958
764.122	51.1982
767.014	80.5178
769.907	82.4978
772.8	65.5762
775.692	42.3992
778.585	32.1814
781.478	43.1355
784.371	54.4187
787.263	41.0105
790.156	56.8721
793.049	45.6626
795.941	97.4773
798.834	28.3403
801.727	11.345
804.62	30.5039
807.512	19.6079
810.405	31.1052
813.298	32.648
816.19	8.84399
819.083	4.64233
821.976	5.08936
824.868	12.2786
827.761	2.36231
830.654	9.54541
833.547	15.4863
836.439	11.6401
839.332	9.29419
842.225	80.0335
845.117	106.284
848.01	121.017
850.903	245.731
853.795	330.267
856.688	405.444
859.581	563.183
862.473	589.177
865.366	520.15
868.259	375.048
871.152	344.635
874.044	308.918
876.937	333.153
879.83	339.862
882.722	460.387
885.615	603.008
888.508	828.373
891.4	1081.61
894.293	1424.92
897.186	1961.74
900.079	2615.42
902.971	3744.44
905.864	5408.67
908.757	7277.19
911.649	9238.32
914.542	10773.5
917.435	10486.5
920.327	7993.12
923.22	5192.21
926.113	3227.71
929.005	2124.5
931.898	1429.52
934.791	967.817
937.684	654.453
940.576	445.859
943.469	345.629
946.362	184.419
949.254	114.59
952.147	92.8884
955.04	65.1841
957.933	55.6848
960.825	29.5017
963.718	35.0469
966.611	5.41138
969.503	34.6084
972.396	23.6352
975.289	2.49683
978.181	4.03662
981.074	7.32056
983.967	0.247559
986.86	5.03296
989.752	8.43701
992.645	16.5608
995.538	7.23706
998.43	13.4565
1001.32	48.9424
1004.22	34.3433
1007.11	90.0176
1010	90.5237
1012.89	117.298
1015.79	127.651
1018.68	161.485
1021.57	218.562
1024.46	240.785
1027.36	432.331
1030.25	444.619
1033.14	626.636
1036.04	738.785
1038.93	758.948
1041.82	746.04
1044.71	655.826
1047.61	524.088
1050.5	374.265
1053.39	245.066
1056.28	152.91
1059.18	143.152
1062.07	92.5581
1064.96	89.596
1067.86	72.8882
1070.75	83.1619
1073.64	26.1848
1076.53	33.8003
1079.43	17.8691
1082.32	4.41968
1085.21	3.96948
1088.1	21.9048
1091	7.96362
1093.89	49.0354
1096.78	38.219
1099.67	13.0418
1102.57	7.59961
1105.46	13.1511
1108.35	4.86011
1111.24	24.1655
1114.14	63.1135
1117.03	31.1936
1119.92	54.6484
1122.82	49.0837
1125.71	3.20776
1128.6	35.0259
1131.49	9.39966
1134.39	58.3711
1137.28	18.0371
1140.17	27.3594
1143.07	36.648
1145.96	47.4075
1148.85	67.769
1151.74	14.833
1154.64	8.32398
1157.53	69.3171
1160.42	28.2615
1163.31	107.027
1166.21	68.8362
1169.1	57.3899
1171.99	49.8687
1174.88	120.531
1177.78	60.596
1180.67	69.313
1183.56	68.8501
1186.46	17.7825
1189.35	48.4705
1192.24	33.0625
1195.13	44.5144
1198.03	61.9895
1200.92	40.0027
1203.81	7.3501
1206.7	19.8791
1209.6	63.523
1212.49	23.3723
1215.38	40.6279
1218.28	61.3533
1221.17	26.752
1224.06	12.5137
1226.95	30.7588
1229.85	24.49
1232.74	19.3027
1235.63	45.532
1238.52	61.146
1241.42	55.9124
1244.31	89.9546
1247.2	14.0789
1250.1	50.9465
1252.99	21.3132
1255.88	68.6736
1258.77	67.2061
1261.67	53.7146
1264.56	23.8101
1267.45	44.3852
1270.34	15.2205
1273.24	60.384
1276.13	54.5862
1279.02	33.1357
1281.91	2.60889
1284.81	23.3831
1287.7	3.37353
1290.59	21.5657
1293.48	15.4119
