Measurement: Raman, 532 nm, unoriented, Raman Data Processed
Mineral: Pyrosmalite-(Fe)
Rruff sample: R060438
Ideal chemistry: Fe^2+^_8_Si_6_O_15_(OH)_10_
Locality: Monchi mine, Brugillos del Cerro, Badoz Province, Spain
Source: Michael Scott
Description: Colorless hexagonal prisms
Measured chemistry: (Fe^2+^_7.44_Mn_0.31_Mg_0.25_)_Σ=8_Si_6.00_O_15_((OH)_8.20_Cl_1.80_)_Σ=10_ ; OH estimated by difference and charge balance
Raman shift (cm-1)	intensity
161.906	0
164.799	0.596069
167.692	18.1169
170.584	44.8811
173.477	77.1329
176.37	120.609
179.263	166.162
182.155	209.366
185.048	255.819
187.941	298.462
190.833	331.541
193.726	347.646
196.619	326.35
199.512	271.142
202.404	232.697
205.297	215.629
208.19	188.425
211.082	148.937
213.975	107.808
216.868	76.8435
219.761	52.7918
222.653	39.1502
225.546	32.9455
228.439	15.3262
231.331	5.61412
234.224	3.28151
237.117	4.37711
240.009	6.78674
242.902	6.1257
245.795	0.81752
248.688	4.83081
251.58	8.71501
254.473	12.3535
257.366	20.4091
260.258	18.0808
263.151	21.9261
266.044	25.0572
268.936	23.5778
271.829	24.1575
274.722	24.7454
277.615	30.1848
280.507	36.6719
283.4	33.1396
286.293	26.5695
289.185	20.9494
292.078	24.2142
294.971	32.2032
297.863	41.9708
300.756	60.1657
303.649	78.5644
306.541	90.8134
309.434	102.732
312.327	109.354
315.22	119.071
318.112	135.916
321.005	162.902
323.898	212.374
326.791	239.547
329.683	191.401
332.576	95.1195
335.469	40.8374
338.361	22.9745
341.254	11.2074
344.147	0.043701
347.039	4.36293
349.932	2.64053
352.825	0.980728
355.717	9.76697
358.61	25.6953
361.503	41.9484
364.396	49.8689
367.288	48.0909
370.181	35.7608
373.074	22.7326
375.966	19.6972
378.859	13.9251
381.752	8.62698
384.644	9.44722
387.537	16.6037
390.43	14.1767
393.323	19.5683
396.215	24.9454
399.108	28.7157
402.001	35.3239
404.894	33.032
407.786	33.2059
410.679	36.0541
413.572	40.6127
416.464	42.9199
419.357	44.4785
422.25	43.4275
425.142	35.895
428.035	22.054
430.928	15.9857
433.82	12.6088
436.713	17.5153
439.606	11.8291
442.499	10.3478
445.391	0.294266
448.284	2.97406
451.177	2.35004
454.069	0.632538
456.962	7.85774
459.855	18.396
462.748	30.4947
465.64	46.0873
468.533	62.6593
471.426	68.967
474.318	59.6403
477.211	51.1476
480.104	61.6505
482.996	76.8461
485.889	83.1798
488.782	62.175
491.675	36.1946
494.567	22.8623
497.46	13.7644
500.353	7.3888
503.245	10.5916
506.138	6.16989
509.031	0.548119
511.923	1.82976
514.816	6.51444
517.709	5.15259
520.602	2.7276
523.494	5.16241
526.387	2.95789
529.28	2.21942
532.172	0.007057
535.065	0.782242
537.958	2.85924
540.851	0.514114
543.743	0.084641
546.636	3.31271
549.529	0.870682
552.421	1.62989
555.314	1.56801
558.207	1.0609
561.099	0.143799
563.992	4.02655
566.885	3.52773
569.778	8.55118
572.67	9.82883
575.563	9.88583
578.456	17.8818
581.348	28.2667
584.241	35.7017
587.134	46.3147
590.027	64.3641
592.919	91.9832
595.812	136.118
598.705	207.388
601.597	333.052
604.49	514.391
607.383	741.563
610.275	1026.02
613.168	1332.93
616.061	1506.17
618.953	1344.01
621.846	901.723
624.739	531.44
627.632	320.664
630.524	210
633.417	149.524
636.31	111.597
639.202	88.4346
642.095	74.6912
644.988	67.0361
647.881	55.6166
650.773	51.6363
653.666	51.3296
656.559	45.971
659.451	48.1713
662.344	48.1457
665.237	45.5941
668.13	41.2355
671.022	33.4189
673.915	23.6047
676.808	13.2727
679.7	8.85655
682.593	6.30293
685.486	4.18478
688.378	0.798859
691.271	0.510239
694.164	2.74745
697.057	2.46243
699.949	1.23956
702.842	1.20503
705.735	1.85933
708.627	2.78982
711.52	6.37617
714.413	12.9695
717.305	7.07555
720.198	4.79153
723.091	2.41451
725.984	8.63098
728.876	10.6629
731.769	12.4472
734.662	14.6761
737.554	18.7338
740.447	20.5947
743.34	22.173
746.232	19.1286
749.125	14.6405
752.018	8.11676
754.91	13.9581
757.803	8.6395
760.696	12.1627
763.589	15.1203
766.481	11.6816
769.374	15.1778
772.267	7.37685
775.159	8.2476
778.052	3.67163
780.945	0.348495
783.838	2.19675
786.73	0.12822
789.623	0.839172
792.516	1.89087
795.408	2.92416
798.301	5.23671
801.194	14.8109
804.087	20.2047
806.979	27.7951
809.872	40.8115
812.765	52.4633
815.657	61.8228
818.55	71.9467
821.443	77.0646
824.335	70.9044
827.228	48.305
830.121	32.5906
833.014	20.0345
835.906	12.0278
838.799	8.23624
841.692	4.70634
844.584	1.53961
847.477	3.87972
850.37	2.26239
853.263	2.97292
856.155	2.5706
859.048	0.083801
861.941	3.40553
864.833	1.25557
867.726	2.67273
870.619	2.99486
873.511	4.28279
876.404	4.91155
879.297	0.820587
882.189	4.24419
885.082	2.42615
887.975	1.23677
890.868	1.89963
893.76	0.392334
896.653	0.5616
899.546	2.06195
902.438	1.56943
905.331	3.32042
908.224	0.22821
911.116	1.27368
914.009	0.855713
916.902	1.81728
919.795	0.570892
922.687	0.23671
925.58	1.12692
928.473	1.51433
931.365	0.533112
934.258	1.96179
937.151	0.310455
940.044	0.651398
942.936	0.813354
945.829	0.626953
948.722	0.433594
951.614	0.334457
954.507	2.42734
957.4	2.38963
960.293	1.50029
963.185	3.14548
966.078	3.04857
968.971	4.40892
971.863	3.57504
974.756	3.43506
977.649	5.72234
980.541	9.15009
983.434	8.87231
986.327	14.6099
989.22	17.2939
992.112	23.42
995.005	31.1048
997.898	38.8996
1000.79	47.7011
1003.68	64.8111
1006.58	80.7837
1009.47	100.623
1012.36	131.531
1015.25	174.183
1018.15	230.399
1021.04	286.14
1023.93	328.765
1026.83	339.627
1029.72	304.443
1032.61	239.539
1035.5	174.95
1038.4	120.259
1041.29	92.2858
1044.18	67.3116
1047.07	49.07
1049.97	40.1569
1052.86	31.5933
1055.75	20.707
1058.64	17.1453
1061.54	13.3324
1064.43	8.54506
1067.32	4.35402
1070.21	5.0793
1073.11	6.48665
1076	2.63274
1078.89	5.61841
1081.79	5.48247
1084.68	5.42166
1087.57	3.12315
1090.46	3.76781
1093.36	1.37923
1096.25	1.19006
1099.14	0.796738
1102.04	0.231659
1104.93	1.41745
1107.82	0.72908
1110.71	1.46654
1113.61	0.874084
1116.5	2.6631
1119.39	2.11883
1122.28	4.69208
1125.18	3.07448
1128.07	5.54047
1130.96	6.5043
1133.86	2.72345
1136.75	2.71258
1139.64	3.2608
1142.53	2.95785
1145.43	1.92668
1148.32	2.16293
1151.21	2.65773
1154.1	3.48183
1157	1.12062
1159.89	2.20911
1162.78	3.16258
1165.67	6.30261
1168.57	3.97636
1171.46	0.209427
1174.35	2.35274
1177.24	9.10741
1180.14	8.04094
1183.03	11.582
1185.92	13.7156
1188.82	10.6576
1191.71	10.8393
1194.6	7.21869
1197.49	7.37083
1200.39	4.3765
1203.28	1.10561
1206.17	2.735
1209.07	1.75479
1211.96	0.733215
1214.85	1.59868
1217.74	1.39505
1220.64	3.1147
1223.53	4.15016
1226.42	3.22197
1229.31	3.36887
1232.21	2.46042
1235.1	3.89069
1237.99	2.11346
1240.88	2.82564
1243.78	2.41115
1246.67	1.75871
1249.56	1.59787
1252.45	1.19633
1255.35	2.54855
1258.24	2.14737
1261.13	3.27966
1264.03	2.77351
1266.92	1.06329
1269.81	0.695313
1272.7	1.84421
1275.6	2.65244
1278.49	0.402649
1281.38	1.83957
1284.28	3.18561
1287.17	3.43353
1290.06	5.47511
1292.95	3.40877
1295.85	4.60045
1298.74	2.61182
1301.63	2.68501
