Measurement: Raman, 785 nm, unoriented, Raman Data Processed
Mineral: Pyromorphite
Rruff sample: R050027
Ideal chemistry: Pb_5_(PO_4_)_3_Cl
Locality: Yangshuo, Guangxi Autonomous Region, China
Source: Eugene Schlepp
Description: Light green hexagonal prismatic hoppered single crystals
Measured chemistry: Pb_5.00_(P_1.00_O_4_)_3_Cl_1.00_
Raman shift (cm-1)	intensity
117.162	0
120.055	36.3079
122.948	27.5089
125.841	33.3313
128.733	157.458
131.626	187.718
134.519	42.6187
137.411	54.4978
140.304	45.9728
143.197	369.467
146.089	717.988
148.982	941.794
151.875	992.976
154.768	1027.69
157.66	1109.93
160.553	1268.17
163.446	1508.69
166.338	1733.28
169.231	1969.41
172.124	2075.43
175.017	2178.02
177.909	2184.51
180.802	2136.01
183.695	2019.8
186.587	1932.02
189.48	1762.67
192.373	1566.29
195.265	1314.55
198.158	1011.83
201.051	793.348
203.944	603.302
206.836	449.445
209.729	298.599
212.622	147.101
215.514	134.202
218.407	87.792
221.3	121.398
224.192	113.372
227.085	96.5396
229.978	134.865
232.87	205.547
235.763	343.322
238.656	499.826
241.549	693.329
244.441	898.441
247.334	1111.42
250.227	1253.5
253.119	1549.17
256.012	1738.59
258.905	1915.38
261.798	2104.73
264.69	2104.13
267.583	2085.69
270.476	1893.81
273.368	1745.78
276.261	1493.95
279.154	1202.73
282.046	1016.4
284.939	660.484
287.832	508.166
290.724	350.286
293.617	192.559
296.51	144.719
299.403	53.2085
302.295	40.6265
305.188	69.3242
308.081	89.2271
310.973	149.984
313.866	86.2607
316.759	158.302
319.651	152.573
322.544	104.501
325.437	111.356
328.33	133.367
331.222	123.008
334.115	97.1123
337.008	67.228
339.9	51.7632
342.793	71.5449
345.686	3.49121
348.579	13.7168
351.471	11.7896
354.364	14.6497
357.257	24.075
360.149	35.4902
363.042	106.045
365.935	40.6753
368.827	18.1443
371.72	8.81738
374.613	81.7075
377.505	164.311
380.398	291.577
383.291	541.848
386.184	760.544
389.076	1129.75
391.969	1438.13
394.862	1299.57
397.754	969.738
400.647	787.061
403.54	937.327
406.433	1145.46
409.325	1166.32
412.218	955.023
415.111	833.197
418.003	677.933
420.896	458.184
423.789	335.558
426.681	164.689
429.574	165.789
432.467	110.943
435.36	79.3362
438.252	94.7107
441.145	52.3215
444.038	74.2876
446.93	25.9563
449.823	59.6545
452.716	28.3533
455.608	23.9443
458.501	24.2722
461.394	8.85205
464.286	6.8667
467.179	12.6428
470.072	12.3332
472.965	9.82617
475.857	9.09204
478.75	4.45435
481.643	6.69458
484.535	29.4863
487.428	21.9209
490.321	17.6882
493.214	76.8916
496.106	41.5383
498.999	99.4651
501.892	75.0537
504.784	97.741
507.677	73.0022
510.57	138.828
513.462	113.221
516.355	87.0286
519.248	108.579
522.14	86.9092
525.033	119.123
527.926	148.161
530.819	150.254
533.711	178.827
536.604	214.38
539.497	238.422
542.389	289.474
545.282	312.043
548.175	325.032
551.067	364.941
553.96	397.701
556.853	360.791
559.745	311.868
562.638	269.764
565.531	275.502
568.424	322.331
571.316	392.236
574.209	475.402
577.102	428.769
579.994	307.04
582.887	282.036
585.78	261.408
588.673	251.013
591.565	224.835
594.458	234.936
597.351	215.856
600.243	192.932
603.136	192.841
606.029	162.446
608.921	147.79
611.814	132.313
614.707	113.907
617.6	123.548
620.492	57.8727
623.385	59.9348
626.278	45.803
629.17	39.4447
632.063	14.9414
634.956	14.5309
637.848	3.03931
640.741	1.25745
643.634	6.00305
646.527	2.72095
649.419	5.73755
652.312	1.40723
655.205	10.8541
658.097	7.01685
660.99	8.69214
663.883	28.1376
666.775	20.0201
669.668	42.2653
672.561	46.6401
675.454	62.1525
678.346	30.6311
681.239	34.2079
684.132	23.1425
687.024	66.3828
689.917	29.5615
692.81	32.954
695.702	41.4031
698.595	29.2667
701.488	23.9622
704.381	32.2175
707.273	26.7115
710.166	11.7583
713.059	12.3301
715.951	5.59381
718.844	4.23468
721.737	27.9465
724.63	18.1288
727.522	8.30627
730.415	11.5667
733.308	7.90527
736.2	12.8602
739.093	19.9163
741.986	11.8647
744.878	14.5504
747.771	21.7602
750.664	12.8055
753.557	27.3761
756.449	8.06146
759.342	25.6334
762.235	14.3796
765.127	24.1108
768.02	22.4045
770.913	32.6136
773.805	29.321
776.698	50.6984
779.591	9.70288
782.484	31.0219
785.376	25.0744
788.269	23.2643
791.162	17.8254
794.054	9.92102
796.947	19.8453
799.84	12.0343
802.732	39.4096
805.625	18.474
808.518	7.43881
811.41	17.4964
814.303	23.2613
817.196	54.3062
820.089	62.8104
822.981	45.205
825.874	53.1569
828.767	64.0074
831.659	55.4521
834.552	62.8245
837.445	55.3766
840.337	53.8113
843.23	38.9943
846.123	32.0322
849.016	58.7001
851.908	21.7931
854.801	16.2977
857.694	14.4244
860.586	24.5312
863.479	8.57782
866.372	0.803955
869.264	5.78363
872.157	10.1373
875.05	6.02899
877.943	17.9036
880.835	12.4797
883.728	24.3011
886.621	11.882
889.513	47.6718
892.406	31.9395
895.299	53.1703
898.192	73.1874
901.084	153.667
903.977	318.49
906.87	647.555
909.762	1374.52
912.655	2485.25
915.548	4272.97
918.44	5757.53
921.333	4259.99
924.226	2206.17
927.119	1272.69
930.011	1048.84
932.904	1170.49
935.797	1557.43
938.689	2110.49
941.582	2750.33
944.475	3155.65
947.367	2942.48
950.26	2141.23
953.153	1420.02
956.045	911.644
958.938	610.897
961.831	417.007
964.724	313.821
967.616	242.752
970.509	243.068
973.402	294.344
976.294	362.492
979.187	446.495
982.08	452.069
984.972	437.022
987.865	392.659
990.758	379.54
993.651	361.677
996.543	264.961
999.436	292.508
1002.33	308.965
1005.22	298.179
1008.11	321.951
1011.01	262.525
1013.9	227.366
1016.79	184.961
1019.68	197.039
1022.58	21.8716
1025.47	55.5523
1028.36	20.4385
1031.26	112.981
1034.15	127.035
1037.04	143.505
1039.93	136.062
1042.83	151.78
1045.72	51.8237
1048.61	9.74609
1051.51	121.24
1054.4	274.815
1057.29	460.013
1060.18	676.955
1063.08	958.381
1065.97	1299.39
1068.86	1611.93
1071.75	1969.07
1074.65	2502.57
1077.54	2962.98
1080.43	3593.67
1083.32	4239.48
1086.22	4822.61
1089.11	5505.26
1092	6147.86
1094.89	6895.7
1097.79	7494.38
1100.68	8292.57
1103.57	8930.04
1106.47	9600.87
1109.36	10379.8
1112.25	10901.8
1115.14	11658.8
1118.04	12147.3
1120.93	12390.8
1123.82	12924.1
1126.71	13008.3
1129.61	12912.9
1132.5	12632.7
1135.39	12382.7
1138.29	11997.2
1141.18	11447.6
1144.07	10752.3
1146.96	10109.6
1149.86	9436.72
1152.75	8494.19
1155.64	7590.42
1158.53	6667.07
1161.43	5778.84
1164.32	4858.16
1167.21	4060.36
1170.11	3351.64
1173	2653.39
1175.89	2079.38
1178.78	1362.71
1181.68	1071.51
1184.57	681.576
1187.46	343.904
1190.35	186.25
1193.25	158.178
1196.14	49.0176
1199.03	20.0137
1201.92	5.89258
1204.82	225.514
1207.71	501.769
1210.6	693.762
1213.5	541.771
1216.39	492.205
1219.28	248.305
1222.17	294.09
1225.07	18.6094
