Measurement: Raman, 532 nm, unoriented, Raman Data Processed
Mineral: Pyrolusite
Rruff sample: R050361
Ideal chemistry: MnO_2_
Locality: Serra do Navio, Amapa, Brazil
Source: University of Arizona Mineral Museum
Description: Black prismatic crystals
Measured chemistry: Mn_1.00_O_2_
Raman shift (cm-1)	intensity
156.957	0
159.85	0.438845
162.743	3.29528
165.635	0.747482
168.528	0.368313
171.421	2.40662
174.313	0.507702
177.206	0.658222
180.099	0.988367
182.992	0.508684
185.884	2.1357
188.777	0.279848
191.67	0.650337
194.562	1.8941
197.455	0.628485
200.348	0.62644
203.24	1.23808
206.133	1.27471
209.026	2.56495
211.918	2.40112
214.811	1.43194
217.704	1.74132
220.597	1.82118
223.489	1.27203
226.382	0.191881
229.275	0.648163
232.167	0.642
235.06	0.361317
237.953	0.633945
240.845	0.365025
243.738	0.703867
246.631	0.502371
249.524	1.39169
252.416	2.34963
255.309	0.603672
258.202	1.86202
261.094	3.17589
263.987	1.80968
266.88	2.49569
269.772	1.74059
272.665	1.82186
275.558	1.87898
278.451	3.37374
281.343	1.61498
284.236	1.86139
287.129	1.71624
290.021	1.225
292.914	0.576746
295.807	1.18409
298.7	0.422134
301.592	0.905149
304.485	0.762785
307.378	2.08341
310.27	1.64834
313.163	0.770723
316.056	0.276627
318.948	0.25938
321.841	1.17759
324.734	0.89187
327.627	0.105524
330.519	2.52874
333.412	0.990427
336.305	1.15766
339.197	0.502968
342.09	1.69897
344.983	1.86087
347.875	1.15512
350.768	2.21914
353.661	2.84156
356.553	3.58228
359.446	2.09961
362.339	2.1329
365.232	1.14861
368.124	3.16899
371.017	1.02996
373.91	0.71236
376.802	2.46368
379.695	1.29633
382.588	2.27656
385.481	2.95936
388.373	2.54835
391.266	3.22534
394.159	3.83763
397.051	2.57694
399.944	2.34362
402.837	2.09836
405.729	2.25648
408.622	2.64925
411.515	0.345058
414.408	0.854437
417.3	0.557833
420.193	0.909885
423.086	0.646854
425.978	0.048903
428.871	0.534239
431.764	0.469656
434.656	1.04137
437.549	0.966772
440.442	1.13233
443.334	0.222494
446.227	1.01313
449.12	0.14566
452.013	1.73904
454.905	0.922775
457.798	1.45455
460.691	1.50142
463.583	2.73292
466.476	1.43364
469.369	1.82424
472.262	0.298754
475.154	1.05186
478.047	0.222586
480.94	0.297779
483.832	0.033663
486.725	0.068094
489.618	1.42614
492.51	2.33061
495.403	2.46619
498.296	2.30396
501.188	1.49371
504.081	3.13201
506.974	3.42392
509.867	3.27201
512.759	4.22479
515.652	7.00107
518.545	8.58596
521.437	11.6751
524.33	14.807
527.223	19.0984
530.115	21.7492
533.008	24.0344
535.901	21.8346
538.794	17.6869
541.686	12.18
544.579	10.6394
547.472	7.82179
550.364	6.22831
553.257	6.8563
556.15	6.68988
559.043	7.48139
561.935	6.99554
564.828	7.29588
567.721	7.55565
570.613	6.60245
573.506	6.09309
576.399	4.81137
579.291	3.06394
582.184	1.81134
585.077	1.09165
587.97	0.886673
590.862	0.785025
593.755	0.319193
596.648	0.8634
599.54	0.363773
602.433	0.223106
605.326	0.911297
608.218	0.197718
611.111	0.668188
614.004	1.55749
616.896	0.669174
619.789	0.970945
622.682	2.83189
625.575	2.87414
628.467	3.11645
631.36	4.72086
634.253	4.93667
637.145	7.33546
640.038	9.67194
642.931	11.7996
645.823	16.4454
648.716	18.7541
651.609	23.1607
654.502	27.9688
657.394	31.1214
660.287	32.7164
663.18	31.92
666.072	29.6366
668.965	27.3848
671.858	23.9533
674.75	19.6638
677.643	16.6427
680.536	13.2326
683.429	9.99904
686.321	7.71268
689.214	6.22257
692.107	5.04607
694.999	3.63895
697.892	2.47554
700.785	1.14711
703.678	1.00177
706.57	0.641148
709.463	0.574673
712.356	1.97148
715.248	0.373812
718.141	0.71483
721.034	0.662373
723.926	0.337198
726.819	0.081343
729.712	0.770845
732.605	0.320757
735.497	0.061756
738.39	0.138252
741.283	2.12138
744.175	0.475229
747.068	1.19339
749.961	0.642559
752.853	0.829018
755.746	1.03339
758.639	0.462193
761.532	1.22583
764.424	1.12784
767.317	1.68135
770.21	0.116573
773.102	2.0161
775.995	1.86139
778.888	1.05425
781.78	1.04767
784.673	0.444178
787.566	0.258318
790.458	2.25213
793.351	0.130793
796.244	1.38757
799.137	1.69156
802.029	0.501602
804.922	1.39227
807.815	0.642635
810.707	2.2155
813.6	0.157476
816.493	1.03446
819.385	1.36762
822.278	1.6224
825.171	2.77019
828.064	2.11651
830.956	1.64534
833.849	1.16387
836.742	2.11747
839.634	0.649126
842.527	0.195925
845.42	0.83316
848.312	0.353456
851.205	1.11886
854.098	1.24033
856.991	0.864124
859.883	1.89403
862.776	2.02679
865.669	1.76578
868.561	0.692205
871.454	1.16057
874.347	0.602981
877.24	1.25878
880.132	2.05122
883.025	1.1811
885.918	0.85689
888.81	0.68758
891.703	2.63999
894.596	0.996158
897.488	0.984468
900.381	0.363859
903.274	0.38647
906.167	0.731627
909.059	0.687121
911.952	0.084426
914.845	0.585024
917.737	1.50138
920.63	0.631978
923.523	1.48626
926.415	1.08815
929.308	0.779341
932.201	1.0413
935.093	0.977208
937.986	0.650336
940.879	0.581008
943.772	0.347171
946.664	0.234729
949.557	0.254575
952.45	0.666183
955.342	0.889728
958.235	0.708492
961.128	0.830048
964.02	1.42189
966.913	1.45052
969.806	0.359027
972.699	0.442637
975.591	1.12139
978.484	0.757536
981.377	0.983317
984.269	0.625539
987.162	1.0316
990.055	1.7828
992.947	1.22086
995.84	0.629181
998.733	0.568307
1001.63	1.49235
1004.52	0.89032
1007.41	0.022385
1010.3	1.10317
1013.2	0.713913
1016.09	0.288541
1018.98	0.208949
1021.88	1.41121
1024.77	1.08125
1027.66	0.70139
1030.55	1.80479
1033.44	1.87939
1036.34	0.422484
1039.23	1.67051
1042.12	1.29932
1045.02	1.13735
1047.91	1.72406
1050.8	0.870201
1053.69	1.04139
1056.59	1.17831
1059.48	1.89763
1062.37	1.18092
1065.27	1.22217
1068.16	0.753585
1071.05	1.67715
1073.94	1.18646
1076.84	1.42418
1079.73	0.983019
1082.62	1.00442
1085.51	1.19456
1088.41	1.20249
1091.3	0.097508
1094.19	1.90265
1097.09	1.49253
1099.98	0.861928
1102.87	0.620687
1105.76	1.76305
1108.66	0.834962
1111.55	0.68554
1114.44	1.51133
1117.33	0.074121
1120.23	0.536649
1123.12	0.325358
1126.01	0.559673
1128.9	1.18391
1131.8	2.13382
1134.69	1.05129
1137.58	1.54027
1140.47	1.78511
1143.37	1.10269
1146.26	0.456592
1149.15	1.8938
1152.05	1.93981
1154.94	0.494355
1157.83	0.954163
1160.72	1.72599
1163.62	1.00174
1166.51	1.0664
1169.4	0.014001
1172.3	1.08692
1175.19	1.22908
1178.08	0.717683
1180.97	0.937051
1183.87	0.431332
1186.76	0.849092
1189.65	0.486573
1192.54	0.145974
1195.44	1.76495
1198.33	1.89524
1201.22	1.32514
1204.12	0.530773
1207.01	1.04374
1209.9	0.721123
1212.79	0.912894
1215.68	1.24607
1218.58	1.22844
1221.47	1.58005
1224.36	1.77583
1227.26	0.616083
1230.15	0.167958
1233.04	0.751288
1235.93	1.2908
1238.83	0.846547
1241.72	1.39679
1244.61	0.713554
1247.51	0.59737
1250.4	1.66966
1253.29	0.264187
1256.18	1.07735
1259.08	0.85522
1261.97	0.128393
1264.86	1.77172
1267.75	0.864594
1270.65	0.535285
1273.54	1.44471
1276.43	1.16651
1279.33	1.37627
1282.22	1.0537
1285.11	0.889748
1288	0.99338
1290.9	0.676958
1293.79	1.0791
1296.68	1.24027
1299.57	0.424756
1302.47	1.15573
