Measurement: Raman, 785 nm, unoriented, Raman Data Processed
Mineral: Pyrophyllite
Rruff sample: R050051
Ideal chemistry: Al_2_Si_4_O_10_(OH)_2_
Locality: Cottonstone Mountain, Mecklenburg County, North Carolina, USA
Source: University of Arizona Mineral Museum
Description: Radiating lamellar aggregates
Measured chemistry: (Al_.991_Fe_.008_Mg_.001_)_2_Si_4_O_10_(OH)_2_
Raman shift (cm-1)	intensity
166.338	0
169.231	260.94
172.124	533.958
175.017	337.576
177.909	74.8852
180.802	25.8594
183.695	34.2022
186.587	202.534
189.48	505.435
192.373	1162.45
195.265	1908.4
198.158	939.216
201.051	320.712
203.944	158.11
206.836	144.724
209.729	163.168
212.622	298.65
215.514	374.561
218.407	228.8
221.3	96.4644
224.192	0.426758
227.085	26.6025
229.978	40.6103
232.87	1.98389
235.763	30.4043
238.656	29.3745
241.549	95.3496
244.441	302.024
247.334	809.941
250.227	1234.19
253.119	1783.7
256.012	2763.84
258.905	5359.63
261.798	9800.84
264.69	4407.54
267.583	965.689
270.476	394.486
273.368	228.406
276.261	144.649
279.154	147.504
282.046	142.092
284.939	97.2783
287.832	165.234
290.724	164.91
293.617	71.9995
296.51	16.9199
299.403	28.0767
302.295	7.85742
305.188	19.8989
308.081	6.10986
310.973	10.4541
313.866	66.666
316.759	126.418
319.651	52.1519
322.544	35.1875
325.437	23.4136
328.33	53.7461
331.222	49.7544
334.115	150.739
337.008	125.122
339.9	171.376
342.793	177.105
345.686	252.511
348.579	267.95
351.471	378.459
354.364	449.102
357.257	515.889
360.149	544.402
363.042	562.697
365.935	462.443
368.827	375.294
371.72	377.673
374.613	314.298
377.505	313.457
380.398	252
383.291	144.381
386.184	162.325
389.076	108.901
391.969	95.332
394.862	71.6231
397.754	32.8125
400.647	11.5771
403.54	21.8018
406.433	35.7134
409.325	1.90772
412.218	24.7681
415.111	29.1807
418.003	55.874
420.896	19.4849
423.789	26.2554
426.681	17.4629
429.574	29.6089
432.467	102.655
435.36	161.874
438.252	139.624
441.145	203.558
444.038	197.544
446.93	153.75
449.823	101.183
452.716	115.135
455.608	160.021
458.501	204.947
461.394	265.136
464.286	366.506
467.179	419.802
470.072	400.665
472.965	328.265
475.857	249.496
478.75	145.911
481.643	71.8052
484.535	49.8462
487.428	14.5537
490.321	10.9209
493.214	32.7725
496.106	37.4697
498.999	22.0156
501.892	7.39551
504.784	23.666
507.677	94.4912
510.57	76.9644
513.462	22.2812
516.355	88.564
519.248	75.7158
522.14	33.4717
525.033	35.5762
527.926	59.0178
530.819	13.449
533.711	2.70386
536.604	18.0339
539.497	21.8225
542.389	18.1677
545.282	21.7761
548.175	19.2273
551.067	10.7227
553.96	14.1968
556.853	15.6472
559.745	51.0676
562.638	12.1592
565.531	8.8689
568.424	21.8618
571.316	39.4514
574.209	51.3875
577.102	24.6899
579.994	40.8909
582.887	19.2224
585.78	53.8154
588.673	100.557
591.565	114.29
594.458	97.928
597.351	171.329
600.243	120.98
603.136	142.85
606.029	149.742
608.921	159.268
611.814	138.221
614.707	139.877
617.6	156.479
620.492	172.834
623.385	120.723
626.278	133.59
629.17	127.21
632.063	97.8669
634.956	86.3047
637.848	47.2468
640.741	69.8904
643.634	51.0178
646.527	43.9817
649.419	12.6982
652.312	0.343506
655.205	16.4924
658.097	10.5991
660.99	26.4348
663.883	4.80786
666.775	24.084
669.668	28.8296
672.561	55.1128
675.454	24.5645
678.346	121.943
681.239	99.7471
684.132	171.564
687.024	272.629
689.917	387.65
692.81	616.246
695.702	1016.4
698.595	1606.81
701.488	2332.74
704.381	3078.06
707.273	3193.68
710.166	2289.41
713.059	1221.11
715.951	770.862
718.844	423.769
721.737	266.267
724.63	183.129
727.522	126.876
730.415	70.3057
733.308	32.169
736.2	39.9216
739.093	41.7966
741.986	57.5774
744.878	32.8127
747.771	43.1326
750.664	56.5891
753.557	4.31494
756.449	30.1282
759.342	15.127
762.235	35.1252
765.127	11.551
768.02	49.1848
770.913	14.814
773.805	11.8967
776.698	62.0898
779.591	35.0181
782.484	33.2466
785.376	21.6558
788.269	16.0581
791.162	3.28223
794.054	38.3008
796.947	23.0757
799.84	50.9702
802.732	112.819
805.625	147.489
808.518	171.941
811.41	312.862
814.303	308.672
817.196	203.17
820.089	115.084
822.981	115.817
825.874	85.0442
828.767	78.1499
831.659	164.032
834.552	182.778
837.445	233.579
840.337	279.662
843.23	174.35
846.123	54.386
849.016	81.4334
851.908	28.7222
854.801	86.6538
857.694	2.30151
860.586	7.74536
863.479	42.6438
866.372	33.6543
869.264	5.49097
872.157	37.4495
875.05	1.13965
877.943	4.40576
880.835	37.3284
883.728	12.1172
886.621	13.7275
889.513	1.50269
892.406	54.2986
895.299	40.9895
898.192	36.1172
901.084	52.0908
903.977	79.8328
906.87	41.0603
909.762	26.0295
912.655	78.8933
915.548	132.585
918.44	135.67
921.333	132.452
924.226	145.597
927.119	80.9146
930.011	32.6487
932.904	28.6326
935.797	18.6057
938.689	34.8503
941.582	37.4414
944.475	92.8428
947.367	102.215
950.26	123.539
953.153	172.03
956.045	295.473
958.938	398.923
961.831	297.97
964.724	219.24
967.616	126.61
970.509	110.713
973.402	71.7258
976.294	71.6706
979.187	43.5657
982.08	14.5032
984.972	16.6345
987.865	17.26
990.758	34.1877
993.651	9.5354
996.543	40.5557
999.436	10.7388
1002.33	9.90747
1005.22	8.25391
1008.11	38.012
1011.01	35.3188
1013.9	6.16699
1016.79	0.883545
1019.68	14.0161
1022.58	12.48
1025.47	4.53369
1028.36	47.3049
1031.26	9.63867
1034.15	18.8796
1037.04	45.6226
1039.93	48.221
1042.83	43.5457
1045.72	58.2766
1048.61	95.5779
1051.51	119.871
1054.4	45.8303
1057.29	80.5195
1060.18	97.0127
1063.08	188.981
1065.97	261.477
1068.86	227.024
1071.75	149.574
1074.65	89.637
1077.54	54.8191
1080.43	18.0144
1083.32	28.2715
1086.22	30.1426
1089.11	11.3528
1092	48.2007
1094.89	15.7671
1097.79	25.9204
1100.68	4.35693
1103.57	22.3396
1106.47	28.3901
1109.36	12.971
1112.25	37.9475
1115.14	46.405
1118.04	5.20508
1120.93	40.6292
1123.82	25.7061
1126.71	51.5911
1129.61	14.6719
1132.5	1.06665
1135.39	6.64771
1138.29	21.5942
1141.18	24.0183
1144.07	2.33106
1146.96	26.7812
1149.86	50.3101
1152.75	51.813
1155.64	1.54394
1158.53	40.5149
1161.43	44.9522
1164.32	30.571
1167.21	38.98
1170.11	36.45
1173	35.7148
1175.89	49.197
1178.78	44.3044
1181.68	22.887
1184.57	4.29053
1187.46	10.5151
1190.35	58.2266
1193.25	30.6169
1196.14	28.6987
1199.03	22.6699
1201.92	35.2341
1204.82	50.7815
1207.71	50.7073
1210.6	42.533
1213.5	32.4287
1216.39	40.8127
1219.28	32.4082
1222.17	72.8035
1225.07	25.1123
1227.96	36.2673
1230.85	43.2268
1233.74	15.6892
1236.64	41.3516
1239.53	9.19336
