Measurement: Raman, 780 nm, unoriented, Raman Data Processed
Mineral: Pyrobelonite
Rruff sample: R080057
Ideal chemistry: PbMn^2+^VO_4_(OH)
Locality: Ty Coch Manganese mine, Glamorgan County, Wales, United Kingdom
Source: Michael Scott
Description: Fiery-red grains on light-pink calcite vein
Raman shift (cm-1)	intensity
127.548	0
130.923	5.54445
134.298	35.9416
137.673	77.0949
141.047	121.186
144.422	170.736
147.797	217.715
151.172	239.009
154.547	233.11
157.921	186.371
161.296	108.421
164.671	68.724
168.046	60.0136
171.421	66.3042
174.796	82.5693
178.17	101.304
181.545	92.0894
184.92	47.1488
188.295	24.3533
191.669	15.0082
195.044	7.92052
198.419	1.7934
201.794	2.17328
205.169	1.40196
208.544	1.00164
211.918	2.52969
215.293	2.63864
218.668	3.05035
222.043	3.80354
225.418	3.75107
228.792	3.42798
232.167	1.6924
235.542	0.115875
238.917	1.24933
242.292	2.48061
245.667	4.55324
249.041	7.19557
252.416	9.13402
255.791	9.78851
259.166	7.41479
262.541	4.39703
265.916	3.74658
269.29	7.50777
272.665	15.233
276.04	29.1211
279.415	58.277
282.79	109.659
286.164	170.719
289.539	234.486
292.914	313.944
296.289	418.306
299.664	539.329
303.038	610.416
306.413	571.237
309.788	546.673
313.163	616.155
316.538	749.55
319.913	869.615
323.287	942.198
326.662	1041.64
330.037	1146.25
333.412	1161.16
336.787	967.919
340.161	658.447
343.536	419.965
346.911	278.837
350.286	197.959
353.661	149.997
357.036	115.652
360.41	81.9252
363.785	68.6803
367.16	80.5336
370.535	111.26
373.91	135.037
377.284	125.144
380.659	69.0102
384.034	25.2045
387.409	10.4357
390.784	6.4872
394.159	0.268021
397.533	12.2435
400.908	14.5603
404.283	3.75232
407.658	41.1255
411.033	88.3895
414.407	147.885
417.782	215.081
421.157	281.6
424.532	324.362
427.907	305.692
431.281	243.15
434.656	174.723
438.031	112.296
441.406	72.9906
444.781	47.5084
448.156	30.8914
451.53	22.7999
454.905	14.8206
458.28	6.42768
461.655	1.16038
465.03	0.910675
468.404	0.535667
471.779	0.954506
475.154	0.650818
478.529	0.611374
481.904	0.844482
485.279	1.39761
488.653	2.69071
492.028	3.00135
495.403	4.54176
498.778	5.42131
502.153	6.9429
505.527	8.19457
508.902	9.37709
512.277	11.0359
515.652	12.0797
519.027	14.132
522.402	14.8139
525.776	15.7509
529.151	16.113
532.526	15.2564
535.901	15.7997
539.276	15.1913
542.65	15.2922
546.025	14.7897
549.4	14.6369
552.775	14.7491
556.15	14.0115
559.524	14.0289
562.899	14.6709
566.274	14.228
569.649	13.8142
573.024	14.1241
576.399	15.7267
579.773	15.4261
583.148	16.2931
586.523	22.0678
589.898	18.9268
593.273	19.2816
596.648	18.0089
600.022	17.3073
603.397	16.9292
606.772	15.6044
610.147	13.7725
613.521	12.6363
616.896	10.4051
620.271	8.41656
623.646	6.18805
627.021	4.13815
630.396	2.28988
633.77	0.590557
637.145	1.4183
640.52	2.01099
643.895	2.36421
647.27	1.80148
650.644	0.353676
654.019	3.04128
657.394	8.86127
660.769	10.6249
664.144	10.7361
667.519	12.8173
670.893	17.4496
674.268	21.5222
677.643	25.4431
681.018	27.3334
684.393	29.9773
687.768	36.4067
691.142	42.321
694.517	49.1987
697.892	45.3757
701.267	30.5532
704.642	13.0159
708.016	0.115341
711.391	4.60851
714.766	1.30276
718.141	11.7056
721.516	37.1832
724.89	84.321
728.265	172.114
731.64	298.942
735.015	528.731
738.39	889.944
741.765	1339.24
745.139	1851.07
748.514	2403.08
751.889	2779.7
755.264	2548.58
758.639	1780.44
762.014	1109.32
765.388	709.842
768.763	488.193
772.138	363.502
775.513	294.741
778.888	241.557
782.262	173.636
785.637	103.755
789.012	55.3436
792.387	25.8898
795.762	8.94615
799.136	0.40506
802.511	3.77429
805.886	2.39992
809.261	4.00536
812.636	14.47
816.011	28.659
819.385	51.9014
822.76	84.6389
826.135	130.958
829.51	185.794
832.885	259.392
836.26	324.84
839.634	371.28
843.009	436.197
846.384	560.968
849.759	702.508
853.134	895.746
856.508	1084.15
859.883	1010.99
863.258	556.378
866.633	238.901
870.008	111.677
873.382	56.191
876.757	27.0211
880.132	12.8762
883.507	4.76836
886.882	0.177032
890.256	2.25485
893.631	2.52179
897.006	2.2355
900.381	0.433205
903.756	2.64475
907.131	3.709
910.505	2.76311
913.88	4.06835
917.255	5.94773
920.63	7.62936
924.005	8.95482
927.38	8.43442
930.754	7.98912
934.129	8.76115
937.504	8.92205
940.879	9.45605
944.254	9.3879
947.628	8.64803
951.003	6.42196
954.378	5.24298
957.753	3.95422
961.128	3.17597
964.502	3.56709
967.877	2.46027
971.252	2.60111
974.627	2.34474
978.002	1.44558
981.376	1.8417
984.751	1.69585
988.126	1.78385
991.501	1.57148
994.876	1.65528
998.251	1.14998
1001.62	0.685879
1005	0.242516
1008.38	0.673317
1011.75	0.319427
1015.12	0.454716
1018.5	0.007561
1021.87	0.383339
1025.25	0.30616
1028.62	0.518433
1032	0.140003
1035.37	0.301834
1038.75	0.089218
1042.12	0.236691
1045.5	0.165745
1048.87	0.032219
1052.25	0.013393
1055.62	0.452965
1059	0.362713
1062.37	0.4053
1065.75	1.35431
1069.12	2.87701
1072.5	9.05764
1075.87	16.4029
1079.25	21.8479
1082.62	25.3757
1086	23.8081
1089.37	13.896
1092.74	5.30793
1096.12	1.47531
1099.49	0.921425
1102.87	0.912384
1106.24	0.45504
1109.62	0.492748
1112.99	1.13419
1116.37	1.36729
1119.74	1.34257
1123.12	3.53883
1126.49	1.56499
1129.87	1.49726
1133.24	1.08852
1136.62	0.635887
1139.99	0.191559
1143.37	0.323412
1146.74	0.13769
1150.12	0.013264
1153.49	0.3361
1156.87	0.23184
1160.24	0.600508
1163.62	1.23941
1166.99	1.41533
1170.37	1.54804
1173.74	1.92664
1177.12	1.97552
1180.49	1.89343
1183.87	2.27081
1187.24	2.57185
1190.62	2.35797
1193.99	2.21269
1197.37	1.64439
1200.74	1.99066
1204.11	1.73858
1207.49	0.947254
1210.86	1.20052
1214.24	0.522476
1217.61	1.09329
1220.99	0.131298
1224.36	0.385738
1227.74	0.771456
1231.11	0.178829
1234.49	0.17346
1237.86	0.574423
1241.24	0.679165
1244.61	1.44298
1247.99	0.891235
1251.36	1.1276
1254.74	1.31901
1258.11	1.57042
1261.49	1.03002
1264.86	0.786774
1268.24	0.666998
1271.61	0.523458
1274.99	0.522881
1278.36	0.654402
1281.73	0.282934
1285.11	0.006388
