Measurement: Raman, 780 nm, unoriented, Raman Data Processed
Mineral: Pyroaurite
Rruff sample: R120011
Ideal chemistry: Mg_6_Fe^3+^_2_CO_3_(OH)_16_4H_2_O
Locality: Scotch Lake quarry, Scotch Lake, Cape Breton County, Nova Scotia, Canada
Source: Donald Doell
Description: Orange hexagonal tablets
Raman shift (cm-1)	intensity
175.492	0
178.385	1.36057
181.277	3.32741
184.17	2.1899
187.063	4.56324
189.955	2.03434
192.848	3.86023
195.741	3.22223
198.633	0.021118
201.526	3.24791
204.419	2.93465
207.311	5.54218
210.204	4.31157
213.097	2.82305
215.99	5.1078
218.882	3.23029
221.775	3.99246
224.668	0.323647
227.56	2.1219
230.453	1.07345
233.346	1.05691
236.238	1.2607
239.131	3.91029
242.024	1.37939
244.917	3.08277
247.809	2.142
250.702	2.18144
253.595	5.15789
256.487	1.60362
259.38	1.10893
262.273	3.30354
265.166	3.27304
268.058	4.93799
270.951	6.58263
273.844	11.0841
276.736	14.2913
279.629	21.2007
282.522	27.6934
285.414	34.0461
288.307	41.0267
291.2	40.1579
294.092	34.9606
296.985	26.2524
299.878	21.5635
302.771	18.2429
305.663	14.1907
308.556	12.2758
311.449	11.081
314.341	5.84676
317.234	5.61385
320.127	4.12735
323.019	4.29679
325.912	3.33347
328.805	2.05994
331.698	1.84343
334.59	2.05578
337.483	0.26252
340.376	1.52959
343.268	0.203011
346.161	3.45636
349.054	3.39502
351.947	2.89951
354.839	0.376633
357.732	0.194496
360.625	1.83205
363.517	1.88419
366.41	1.94363
369.303	4.11627
372.195	5.21352
375.088	8.59582
377.981	10.4138
380.873	14.4313
383.766	16.4187
386.659	18.5423
389.552	15.5281
392.444	12.6555
395.337	11.8408
398.23	9.12369
401.122	7.66755
404.015	4.05245
406.908	4.20789
409.8	2.6119
412.693	2.07999
415.586	1.15632
418.479	0.205528
421.371	2.41122
424.264	0.785675
427.157	1.91246
430.049	4.6709
432.942	8.50266
435.835	12.7734
438.728	14.8458
441.62	19.2622
444.513	18.6985
447.406	20.2225
450.298	17.5125
453.191	16.5866
456.084	11.7215
458.976	9.51139
461.869	7.02738
464.762	4.55215
467.654	2.89383
470.547	0.49514
473.44	0.347931
476.333	1.04485
479.225	0.180748
482.118	1.83447
485.011	0.822716
487.903	1.16723
490.796	1.41799
493.689	6.27492
496.582	9.27331
499.474	13.0404
502.367	14.7661
505.26	23.0091
508.152	31.3447
511.045	46.0489
513.938	64.7579
516.83	86.6822
519.723	110.435
522.616	142.349
525.509	173.522
528.401	185.835
531.294	165.592
534.187	132.123
537.079	96.7345
539.972	72.626
542.865	54.2773
545.757	36.291
548.65	27.1651
551.543	19.2818
554.436	13.7041
557.328	10.6308
560.221	5.8579
563.114	4.29092
566.006	4.80807
568.899	2.97761
571.792	0.760521
574.684	0.383923
577.577	0.727615
580.47	0.642715
583.362	0.078419
586.255	0.389034
589.148	1.17591
592.041	0.396015
594.933	1.30605
597.826	0.573017
600.719	1.40837
603.611	2.62139
606.504	2.59137
609.397	0.390228
612.29	1.39386
615.182	0.233837
618.075	1.06994
620.968	2.89963
623.86	2.63656
626.753	1.49879
629.646	0.006977
632.538	0.67897
635.431	0.924191
638.324	2.85765
641.217	0.507626
644.109	2.86927
647.002	1.37584
649.895	1.3536
652.787	2.6736
655.68	0.584717
658.573	0.778618
661.466	0.433151
664.358	0.524284
667.251	1.45612
670.144	0.632614
673.036	1.80671
675.929	2.7889
678.822	2.80455
681.714	2.57264
684.607	1.88651
687.5	3.52437
690.393	3.18838
693.285	5.60624
696.178	5.84388
699.071	2.63272
701.963	2.81566
704.856	1.20691
707.749	2.42593
710.641	2.74653
713.534	2.41468
716.427	1.53597
719.319	0.36055
722.212	1.53519
725.105	1.78879
727.998	2.28727
730.89	1.68288
733.783	1.58314
736.676	1.62475
739.568	2.22372
742.461	1.73102
745.354	2.13179
748.246	2.55218
751.139	2.4375
754.032	0.655243
756.925	2.81085
759.817	2.02108
762.71	0.105358
765.603	0.500481
768.495	1.09645
771.388	2.26659
774.281	0.911015
777.173	0.926651
780.066	0.599438
782.959	0.675285
785.852	1.74855
788.744	1.35033
791.637	2.36535
794.53	2.23229
797.422	0.453217
800.315	0.996933
803.208	2.17519
806.101	3.19302
808.993	1.63229
811.886	1.09895
814.779	1.61677
817.671	2.56041
820.564	2.05267
823.457	0.550545
826.349	1.43528
829.242	2.86232
832.135	3.41542
835.028	2.90665
837.92	0.614635
840.813	0.714951
843.706	1.56925
846.598	0.909733
849.491	2.55212
852.384	0.759212
855.276	1.18984
858.169	1.14303
861.062	0.707947
863.955	1.4188
866.847	3.73549
869.74	1.13207
872.633	1.52109
875.525	2.05393
878.418	0.008926
881.311	3.1243
884.203	1.8139
887.096	2.4826
889.989	2.07881
892.881	3.24921
895.774	2.26507
898.667	2.97004
901.56	1.18818
904.452	1.93131
907.345	0.838394
910.238	0.827316
913.13	3.13647
916.023	1.13602
918.916	0.191559
921.808	1.1671
924.701	0.656715
927.594	0.731544
930.487	2.22338
933.379	1.42091
936.272	0.584999
939.165	0.018921
942.057	0.255028
944.95	0.892044
947.843	1.13088
950.736	2.02393
953.628	2.13239
956.521	0.713768
959.414	2.03747
962.306	2.22383
965.199	3.96885
968.092	0.719887
970.984	0.909805
973.877	0.758705
976.77	0.227493
979.663	1.8128
982.555	2.32478
985.448	2.072
988.341	2.72919
991.233	0.322906
994.126	4.18733
997.019	2.6198
999.911	1.51199
1002.8	1.21736
1005.7	1.38509
1008.59	1.3131
1011.48	1.98524
1014.38	1.26298
1017.27	0.779106
1020.16	3.36149
1023.05	0.110451
1025.95	1.35635
1028.84	1.36318
1031.73	1.54239
1034.62	0.142754
1037.52	2.58837
1040.41	3.12466
1043.3	3.73465
1046.19	6.32475
1049.09	11.1765
1051.98	15.9706
1054.87	28.2578
1057.77	49.1771
1060.66	61.831
1063.55	32.7154
1066.44	11.5767
1069.34	5.61686
1072.23	3.59148
1075.12	2.4287
1078.01	2.50197
1080.91	0.813629
1083.8	3.44142
1086.69	4.03009
1089.59	0.984756
1092.48	1.01529
1095.37	1.2834
1098.26	0.430298
1101.16	0.058151
1104.05	0.311661
1106.94	1.6671
1109.83	1.42473
1112.73	1.46236
1115.62	1.09024
1118.51	0.107437
1121.4	0.086227
1124.3	0.357132
1127.19	0.941605
1130.08	1.57016
1132.98	1.99495
1135.87	3.84847
1138.76	5.01819
1141.65	3.71959
1144.55	3.94768
1147.44	3.11691
1150.33	4.77801
1153.22	5.65318
1156.12	3.77803
1159.01	3.96852
1161.9	0.697113
1164.8	2.99143
1167.69	3.18358
1170.58	3.25473
1173.47	1.11491
1176.37	3.12143
1179.26	1.91257
1182.15	3.39552
1185.04	0.615891
1187.94	2.08195
1190.83	2.87495
1193.72	2.78145
1196.62	3.30873
1199.51	0.854675
1202.4	0.9897
1205.29	1.91182
1208.19	2.56873
1211.08	3.08911
1213.97	3.06125
1216.86	3.30904
1219.76	0.596268
1222.65	0.578262
1225.54	1.90805
1228.43	3.52249
1231.33	3.05429
1234.22	2.8205
1237.11	1.21265
1240.01	2.08655
1242.9	0.555084
1245.79	0.309357
1248.68	2.19183
1251.58	2.59335
1254.47	3.39212
1257.36	4.97549
1260.25	7.86093
1263.15	6.10104
1266.04	2.68662
1268.93	3.27844
1271.83	3.19342
1274.72	1.81094
1277.61	2.59287
1280.5	2.69055
1283.4	2.56741
