Measurement: Raman, 532 nm, unoriented, Raman Data Processed
Mineral: Pyroxmangite
Rruff sample: R070212
Ideal chemistry: Mn^2+^SiO_3_
Locality: Isanago mine,  Ohro (Ōro; Ouro; Ooro),  Naka-gun,  Kyoto Prefecture,  Kinki Region,  Honshu Island,  Japan
Source: Michael Scott
Description: Pale yellow to brown semitransparent massive associated with quartz
Measured chemistry: (Mn_0.47_Fe^2+^_0.39_Mg_0.08_Ca_0.06_)_Σ=1_Si_1.00_O_3_ ; veins: (Mn_0.35_Fe_0.26_Ca_0.22_Mg_0.17_)_Σ=1_CO_3_ (rhodochrosite)
Raman shift (cm-1)	intensity
184.374	0
187.267	60.748
190.16	95.5137
193.052	139.371
195.945	255.436
198.838	292.084
201.731	290.78
204.623	343.06
207.516	352.599
210.409	325.144
213.301	323.272
216.194	214.644
219.087	225.712
221.979	25.7891
224.872	67.5352
227.765	12.3662
230.657	17.9551
233.55	33.8389
236.443	31.167
239.336	104.388
242.228	2.60449
245.121	7.92188
248.014	68.1357
250.906	147.645
253.799	192.628
256.692	374.6
259.584	675.319
262.477	822.284
265.37	894.551
268.263	821.502
271.155	655.073
274.048	495.94
276.941	483.006
279.833	469.124
282.726	509.519
285.619	559.171
288.512	535.966
291.404	606.794
294.297	575.309
297.19	533.46
300.082	624.249
302.975	589.935
305.868	475.162
308.76	558.885
311.653	636.195
314.546	649.092
317.438	826.534
320.331	929.237
323.224	1136.2
326.117	1261.39
329.009	1322.25
331.902	1547.48
334.795	1668.41
337.687	1588.63
340.58	1336.13
343.473	987.274
346.365	735.472
349.258	613.907
352.151	534.258
355.044	465.411
357.936	432.965
360.829	388.912
363.722	257.065
366.614	146.442
369.507	108.733
372.4	41.6289
375.293	51.4941
378.185	15.0723
381.078	18.1699
383.971	52.9853
386.863	208.283
389.756	301.181
392.649	437.195
395.541	584.427
398.434	504.887
401.327	596.13
404.219	535.055
407.112	614.452
410.005	877.009
412.898	1149.16
415.79	1293.96
418.683	1609.39
421.576	1629.85
424.469	1267.84
427.361	905.086
430.254	567.784
433.147	331.626
436.039	10.8906
438.932	21.3711
441.825	29.7441
444.717	16.6533
447.61	12.0957
450.503	166.398
453.396	390.91
456.288	723.879
459.181	1234.06
462.074	1993.88
464.966	1867.57
467.859	1141.49
470.752	603.481
473.644	327.167
476.537	269.634
479.43	237.737
482.322	208.601
485.215	127.938
488.108	74.1738
491.001	90.0225
493.893	113.821
496.786	229.995
499.679	152.6
502.571	219.895
505.464	279.967
508.357	417.877
511.25	784.039
514.142	922.37
517.035	1184.65
519.928	1246.21
522.82	1105.31
525.713	868.346
528.606	692.247
531.498	386.234
534.391	293.417
537.284	239.03
540.177	154.733
543.069	152.081
545.962	125.805
548.855	202.429
551.747	277.824
554.64	219.068
557.533	108.363
560.425	118.154
563.318	153
566.211	56.1582
569.104	29.375
571.996	110.623
574.889	55.4746
577.782	149.594
580.674	45.2695
583.567	71.791
586.46	6.83789
589.352	68.6074
592.245	15.2656
595.138	25.9531
598.031	47.0234
600.923	42.1895
603.816	84.1816
606.709	35.543
609.601	29.9277
612.494	138.074
615.387	105.158
618.279	219.793
621.172	255.94
624.065	415.629
626.958	472.262
629.85	560.006
632.743	848.199
635.636	1081.5
638.528	1558.18
641.421	2298.16
644.314	3056.34
647.207	4444.31
650.099	5940.74
652.992	7575.83
655.885	9345.33
658.777	11004.2
661.67	12513.1
664.563	13787.6
667.455	13623.6
670.348	11532.7
673.241	8396.35
676.134	5644.17
679.026	3890.49
681.919	2868.28
684.812	2235.11
687.704	2025.3
690.597	1868.11
693.49	1884.82
696.382	1909.79
699.275	1878.76
702.168	1667.61
705.061	1378.1
707.953	992.229
710.846	654.898
713.739	515.328
716.631	547.346
719.524	407.15
722.417	369.078
725.309	247.256
728.202	245.586
731.095	252.068
733.987	159.492
736.88	115.49
739.773	90.8691
742.666	137.783
745.558	130.043
748.451	103.293
751.344	80.7773
754.236	72.8184
757.129	33.1562
760.022	2.49414
762.915	84.9473
765.807	15.8594
768.7	40.9121
771.593	17.6367
774.485	19.4512
777.378	28.8398
780.271	47.7793
783.163	31.709
786.056	227.258
788.949	240.471
791.842	177.06
794.734	191.857
797.627	195.26
800.52	155.422
803.412	265.44
806.305	194.158
809.198	243.656
812.091	130.234
814.983	184.748
817.876	192.359
820.769	106.416
823.661	127.029
826.554	7.05859
829.447	93.6602
832.339	14.4355
835.232	11.5684
838.125	110.803
841.018	11.8984
843.91	108.481
846.803	134.148
849.696	107.18
852.588	221.664
855.481	127.856
858.374	325.508
861.266	435.74
864.159	622.596
867.052	623.592
869.944	744.309
872.837	774.865
875.73	749.99
878.623	634.971
881.515	392.258
884.408	338.873
887.301	233.18
890.193	271.846
893.086	136.879
895.979	272.832
898.871	85.209
901.764	163.496
904.657	64.5781
907.55	104.291
910.442	99.0078
913.335	29.1133
916.228	68.1836
919.12	10.1562
922.013	26.793
924.906	47.9492
927.798	210.549
930.691	292.625
933.584	360.156
936.477	302.59
939.369	392.103
942.262	382.846
945.155	480.357
948.047	778.469
950.94	964.332
953.833	1500.24
956.726	1964.38
959.618	2863.03
962.511	3855.88
965.404	5157.78
968.296	6109.58
971.189	6942.97
974.082	7006.38
976.974	6683.27
979.867	6297.4
982.76	6156.02
985.653	6229.11
988.545	6802.17
991.438	7060.14
994.331	7187.52
997.223	6892.17
1000.12	6398.03
1003.01	5670.25
1005.9	5056.29
1008.79	4699.28
1011.69	4551.47
1014.58	4422.43
1017.47	3937.03
1020.37	3267.32
1023.26	2517.08
1026.15	1901.65
1029.04	1488.82
1031.94	1170.63
1034.83	918.398
1037.72	776.17
1040.61	418.674
1043.51	280.426
1046.4	173.244
1049.29	104.637
1052.18	1.14648
1055.08	118.584
1057.97	44.9004
1060.86	95.2695
1063.76	12.5332
1066.65	3.57422
1069.54	29.2344
1072.43	134.256
1075.33	319.316
1078.22	760.842
1081.11	1034.79
1084	1065.07
1086.9	990.125
1089.79	807.521
1092.68	622.121
1095.58	499.154
1098.47	329.441
1101.36	272.982
1104.25	278.369
1107.15	232.299
1110.04	104.166
1112.93	74.3281
1115.82	19.1797
1118.72	22.1309
1121.61	104.285
1124.5	21.7617
1127.39	117.373
1130.29	1.9043
1133.18	169.531
1136.07	148.414
1138.97	58.3848
1141.86	225.865
1144.75	95.6934
1147.64	160.723
1150.54	247.699
1153.43	171.871
1156.32	198.344
1159.21	216.461
1162.11	181.949
1165	292.738
1167.89	243.822
1170.79	206.029
1173.68	221.707
1176.57	122.762
1179.46	58.6562
1182.36	97.5332
1185.25	46.8965
1188.14	40.002
1191.03	18.1992
1193.93	168.562
1196.82	142.736
1199.71	133.807
1202.61	189.115
1205.5	68.2519
1208.39	143.435
1211.28	61.6523
1214.18	120.914
1217.07	13.248
1219.96	192.49
1222.85	169.957
1225.75	65.2617
1228.64	17.0645
1231.53	88.332
1234.42	70.0684
1237.32	121.475
1240.21	131.51
1243.1	61.2832
1246	5.4668
1248.89	28.1309
1251.78	57.5625
1254.67	157.123
1257.57	95.957
1260.46	133.691
1263.35	110.934
1266.24	117.182
1269.14	28.0469
1272.03	119.031
1274.92	86.4258
1277.82	36.4141
1280.71	105.523
1283.6	117.113
1286.49	93.3066
1289.39	56.1504
1292.28	72.5098
1295.17	90.9668
1298.06	38.2168
1300.96	121.197
1303.85	2.23047
