Measurement: Raman, 780 nm, unoriented, Raman Data Processed
Mineral: Pyrope
Rruff sample: R050112
Ideal chemistry: Mg_3_Al_2_(SiO_4_)_3_
Locality: Cruzeiro mine, San Jose, Minas Gerais, Brazil
Source: Carlos and Paulo Vasconcelos
Description: Dark red crystal fragment
Measured chemistry: (Mg_1.49_Fe^2+^_1.18_Ca_0.29_Mn_0.04_)_Σ=3_(Al_1.99_Fe^3+^_0.01_)_Σ=2_(Si_1.00_O_4_)_3_
Raman shift (cm-1)	intensity
119.952	0
122.844	48.8491
125.737	34.6536
128.63	17.1306
131.522	89.7019
134.415	32.8772
137.308	76.8132
140.201	104.117
143.093	85.5813
145.986	98.8093
148.879	119.887
151.771	100.964
154.664	106.89
157.557	35.4719
160.449	42.6582
163.342	7.45361
166.235	24.1177
169.127	3.25391
172.02	43.3191
174.913	114.348
177.806	166.437
180.698	192.526
183.591	183.982
186.484	110.789
189.376	70.7637
192.269	130.392
195.162	204.066
198.055	210.702
200.947	280.648
203.84	371.898
206.733	369.35
209.625	381.873
212.518	377.754
215.411	303.324
218.304	209.841
221.196	146.728
224.089	127.226
226.982	87.0835
229.874	83.6323
232.767	62.4568
235.66	31.3872
238.552	71.4617
241.445	83.9966
244.338	46.1645
247.231	32.2417
250.123	12.8074
253.016	68.5579
255.909	52.846
258.801	33.0894
261.694	16.2734
264.587	11.2842
267.479	9.0708
270.372	11.627
273.265	12.4353
276.158	26.6484
279.05	72.2339
281.943	26.2205
284.836	46.9385
287.728	47.156
290.621	14.5415
293.514	18.1414
296.406	88.5933
299.299	38.4055
302.192	73.1328
305.084	235.393
307.977	182.424
310.87	237.371
313.763	311.245
316.655	382.847
319.548	408.338
322.441	394.754
325.333	473.615
328.226	521.203
331.119	721.263
334.012	922.665
336.904	1195.15
339.797	1466.36
342.69	1754.79
345.582	2161.37
348.475	2712.5
351.368	3312.43
354.26	3859.43
357.153	3749.88
360.046	3182.08
362.938	2394.51
365.831	1871.83
368.724	1617.77
371.617	1469.22
374.509	1261.32
377.402	1082.3
380.295	788.867
383.187	594.419
386.08	470.127
388.973	306.102
391.865	257.572
394.758	147.741
397.651	102.431
400.544	75.9731
403.436	65.0471
406.329	76.8442
409.222	7.25
412.114	22.2466
415.007	11.7605
417.9	9.5564
420.793	12.081
423.685	20.9653
426.578	5.86011
429.471	3.16675
432.363	38.2876
435.256	5.99854
438.149	28.8105
441.041	0.603516
443.934	3.74316
446.827	9.23828
449.719	20.7546
452.612	8.40137
455.505	85.7366
458.398	63.3992
461.29	35.9605
464.183	127.2
467.076	91.2705
469.969	115.472
472.861	125.307
475.754	169.278
478.647	204.107
481.539	252.853
484.432	312.849
487.325	256.617
490.217	180.142
493.11	169.83
496.003	230.248
498.896	367.828
501.788	547.729
504.681	685.947
507.574	578.835
510.466	366.573
513.359	203.696
516.252	161.488
519.144	121.721
522.037	106.816
524.93	128.871
527.822	69.1675
530.715	123.244
533.608	198.513
536.501	163.63
539.393	295.242
542.286	341.379
545.179	491.537
548.071	702.008
550.964	1034.78
553.857	1525.75
556.75	1941.48
559.642	1943.42
562.535	1322.29
565.428	721.14
568.32	402.568
571.213	170.384
574.106	68.2913
576.998	57.8711
579.891	29.4185
582.784	23.071
585.677	46.8052
588.569	12.2752
591.462	35.519
594.355	18.8318
597.247	3.2749
600.14	6.0105
603.033	11.2664
605.925	30.8674
608.818	14.8477
611.711	44.3916
614.604	28.269
617.496	10.9937
620.389	18.5566
623.282	13.7737
626.174	80.0466
629.067	106.525
631.96	211.344
634.852	296.701
637.745	420.776
640.638	437.839
643.53	315.435
646.423	198.161
649.316	159.947
652.209	124.888
655.101	69.0254
657.994	50.4509
660.887	30.9612
663.779	19.0359
666.672	0.540771
669.565	41.7727
672.458	1.19055
675.35	17.4679
678.243	42.1099
681.136	23.7462
684.028	4.19519
686.921	26.017
689.814	40.0284
692.707	35.9065
695.599	6.54333
698.492	27.9656
701.385	55.5828
704.277	61.3966
707.17	14.0181
710.063	56.8452
712.955	42.4672
715.848	41.4926
718.741	28.6282
721.634	77.66
724.526	85.4343
727.419	53.3934
730.312	82.0879
733.204	44.4357
736.097	43.3167
738.99	106.737
741.882	78.6654
744.775	61.0145
747.668	51.5048
750.561	53.6448
753.453	41.8509
756.346	60.9885
759.239	29.3606
762.131	42.3512
765.024	80.3505
767.917	78.0627
770.809	62.8652
773.702	32.7633
776.595	48.3024
779.487	22.6135
782.38	21.5935
785.273	2.36951
788.166	17.4562
791.058	26.4264
793.951	17.9921
796.844	1.94238
799.736	20.5209
802.629	19.5828
805.522	22.3766
808.414	0.952271
811.307	38.738
814.2	4.73987
817.093	18.8894
819.985	10.1592
822.878	10.997
825.771	11.8729
828.663	29.4912
831.556	46.1647
834.449	1.21716
837.342	39.4692
840.234	99.417
843.127	118.205
846.02	192.153
848.912	318.719
851.805	483.776
854.698	688.936
857.591	871.686
860.483	1019.67
863.376	967.476
866.269	778.631
869.161	576.704
872.054	415.321
874.947	344.372
877.839	314.676
880.732	322
883.625	370.66
886.518	472.592
889.41	605.459
892.303	812.364
895.196	1047.56
898.088	1267.9
900.981	1681.24
903.874	2370.6
906.766	3528.94
909.659	5323.75
912.552	7587.46
915.444	9780.79
918.337	10490.1
921.23	8684.93
924.123	5846.03
927.015	3784.39
929.908	2407.24
932.801	1580.36
935.693	1068.09
938.586	726.491
941.479	479.759
944.371	366.227
947.264	224.216
950.157	159.17
953.05	98.8995
955.942	79.9597
958.835	24.4407
961.728	29.0894
964.62	10.7661
967.513	0.087524
970.406	19.2822
973.298	15.4219
976.191	4.33716
979.084	14.1532
981.977	0.156982
984.869	9.07703
987.762	23.0431
990.655	5.78284
993.547	7.95532
996.44	4.20825
999.333	6.48315
1002.23	27.9633
1005.12	6.56201
1008.01	12.5642
1010.9	41.1671
1013.8	63.0138
1016.69	95.8755
1019.58	101.706
1022.47	133.513
1025.37	184.72
1028.26	149.65
1031.15	232.015
1034.05	297.166
1036.94	300.094
1039.83	402.945
1042.72	485.007
1045.62	528.942
1048.51	552.031
1051.4	536.496
1054.29	444.116
1057.19	330.454
1060.08	241.032
1062.97	158.59
1065.87	118.297
1068.76	48.3291
1071.65	67.0278
1074.54	50.3877
1077.44	32.7096
1080.33	65.8168
1083.22	20.6271
1086.11	32.3893
1089.01	38.9409
1091.9	42.687
1094.79	51.4357
1097.68	42.2064
1100.58	17.9729
1103.47	54.2046
1106.36	37.6586
1109.26	22.2871
1112.15	25.8843
1115.04	0.664551
1117.93	26.5265
1120.83	15.1708
1123.72	17.1587
1126.61	8.20483
1129.5	12.662
1132.4	14.378
1135.29	21.9489
1138.18	12.6719
1141.08	11.8171
1143.97	24.2246
1146.86	42.2345
1149.75	31.1003
1152.65	82.3335
1155.54	79.9556
1158.43	24.0977
1161.32	41.1725
1164.22	29.7507
1167.11	10.5939
1170	26.7658
1172.89	34.8804
1175.79	25.6222
1178.68	26.1182
1181.57	40.0624
1184.47	51.648
1187.36	21.1467
1190.25	45.4403
1193.14	23.9041
1196.04	24.6446
1198.93	20.9259
1201.82	38.2163
1204.71	23.8289
1207.61	42.0759
1210.5	38.6405
1213.39	22.64
1216.29	55.5475
1219.18	30.9308
1222.07	29.3782
1224.96	36.181
1227.86	16.0102
1230.75	9.98206
1233.64	19.6792
1236.53	42.9005
1239.43	197.143
1242.32	10.0555
1245.21	33.5977
1248.11	14.4473
1251	65.4944
1253.89	77.8524
1256.78	10.0452
1259.68	4.94067
1262.57	55.2451
1265.46	28.0164
