Measurement: Raman, 780 nm, unoriented, Raman Data Processed
Mineral: Pyrope
Rruff sample: R060448
Ideal chemistry: Mg_3_Al_2_(SiO_4_)_3_
Locality: India
Source: Gemological Institute of America
Description: Deep red water worn pebble, variety rhodolite
Measured chemistry: (Mg_1.47_Fe_1.27_Ca_0.21_Mn_0.05_)_Î£=3_Al_2.00_(Si_1.00_O_4_)_3_
Raman shift (cm-1)	intensity
113.59	0
116.965	0.291142
120.34	1.0643
123.715	0.870266
127.089	0.130325
130.464	0.575073
133.839	0.057171
137.214	1.21067
140.589	2.05398
143.963	2.00798
147.338	2.10865
150.713	4.16971
154.088	1.19829
157.463	1.56924
160.838	1.16902
164.212	0.584467
167.587	0.094904
170.962	1.68228
174.337	4.6605
177.712	7.01264
181.086	5.40983
184.461	3.91111
187.836	2.40555
191.211	2.67775
194.586	4.13748
197.96	6.58124
201.335	8.60758
204.71	10.7318
208.085	13.2568
211.46	12.3638
214.835	9.14177
218.209	4.52055
221.584	3.66588
224.959	0.892473
228.334	1.04756
231.709	0.436859
235.083	0.583372
238.458	0.102783
241.833	0.704659
245.208	0.802158
248.583	1.05084
251.958	0.017782
255.332	0.038967
258.707	0.08856
262.082	0.478661
265.457	0.351833
268.832	0.144985
272.207	0.826515
275.581	0.221468
278.956	0.899216
282.331	0.440529
285.706	0.975626
289.08	1.26002
292.455	1.20139
295.83	1.30455
299.205	2.40345
302.58	4.03101
305.955	4.91484
309.329	6.28834
312.704	11.7463
316.079	14.8766
319.454	15.9792
322.829	17.0173
326.204	20.4941
329.578	29.0189
332.953	40.057
336.328	54.7206
339.703	65.9746
343.078	79.4525
346.452	99.7857
349.827	131.324
353.202	161.621
356.577	152.416
359.952	109.239
363.327	77.3444
366.701	61.6703
370.076	54.246
373.451	49.1409
376.826	39.7313
380.201	29.4169
383.575	19.6299
386.95	13.1159
390.325	8.18163
393.7	5.25747
397.075	3.32394
400.45	2.05832
403.824	1.42953
407.199	1.46433
410.574	1.0016
413.949	0.203299
417.324	0.552937
420.698	0.339771
424.073	0.345547
427.448	0.127401
430.823	0.052435
434.198	0.964485
437.572	0.542229
440.947	0.54875
444.322	0.52247
447.697	0.971176
451.072	0.170942
454.447	0.986122
457.821	1.00803
461.196	1.68047
464.571	1.30516
467.946	1.36344
471.321	3.298
474.695	4.17527
478.07	6.07038
481.445	7.42524
484.82	9.2449
488.195	5.94807
491.57	5.15378
494.944	6.31523
498.319	9.23256
501.694	17.9003
505.069	22.9306
508.444	14.4824
511.818	7.48908
515.193	4.92426
518.568	3.67179
521.943	3.18386
525.318	4.05509
528.692	3.49857
532.067	4.24023
535.442	6.57496
538.817	8.77822
542.192	13.19
545.567	20.3207
548.941	27.6035
552.316	40.7506
555.691	60.1148
559.066	68.6428
562.441	46.9256
565.816	23.5725
569.19	10.4215
572.565	5.75998
575.94	3.25987
579.315	2.00541
582.69	1.30535
586.064	1.53415
589.439	1.97518
592.814	0.741936
596.189	0.167044
599.564	0.91506
602.938	0.03014
606.313	0.505934
609.688	0.84371
613.063	0.429083
616.438	0.026407
619.812	0.601446
623.187	1.27045
626.562	2.47286
629.937	3.62916
633.312	8.58361
636.687	12.5298
640.061	13.0927
643.436	9.54256
646.811	6.04892
650.186	3.58133
653.561	1.92316
656.936	1.03587
660.31	0.371482
663.685	0.912226
667.06	0.659791
670.435	0.579428
673.81	0.204612
677.184	0.627586
680.559	0.484229
683.934	0.063977
687.309	0.245529
690.684	0.643429
694.058	0.49381
697.433	0.181504
700.808	0.912659
704.183	0.938713
707.558	0.643031
710.933	0.723175
714.307	1.24817
717.682	0.731101
721.057	1.54451
724.432	1.25376
727.807	1.40811
731.182	0.811772
734.556	1.87828
737.931	1.12901
741.306	1.29131
744.681	1.45548
748.056	0.994227
751.43	2.06492
754.805	1.40203
758.18	1.21244
761.555	1.48158
764.93	1.83615
768.304	1.26267
771.679	1.04682
775.054	1.60929
778.429	1.22532
781.804	0.533525
785.178	0.66396
788.553	0.977058
791.928	0.445102
795.303	0.912913
798.678	0.54127
802.053	0.0983
805.427	0.605279
808.802	0.327066
812.177	0.449665
815.552	0.136044
818.927	0.011774
822.302	0.607584
825.676	0.137014
829.051	0.347025
832.426	0.363964
835.801	0.630732
839.176	1.13517
842.55	3.08498
845.925	5.53562
849.3	10.4608
852.675	14.7695
856.05	22.2682
859.424	31.8192
862.799	36.2897
866.174	31.4257
869.549	21.6857
872.924	15.5555
876.299	12.6782
879.673	10.7757
883.048	13.2849
886.423	16.0864
889.798	21.1828
893.173	29.7518
896.548	40.2434
899.922	53.6529
903.297	78.009
906.672	117.233
910.047	176.127
913.422	259.993
916.796	355.596
920.171	374.211
923.546	266.099
926.921	155.939
930.296	91.2476
933.67	56.8635
937.045	34.9733
940.42	21.6488
943.795	14.1949
947.17	9.46143
950.544	5.75982
953.919	3.1899
957.294	2.09961
960.669	1.49132
964.044	0.497122
967.419	0.035095
970.793	0.454239
974.168	0.378136
977.543	0.167074
980.918	0.523641
984.293	0.402521
987.668	0.214965
991.042	0.386531
994.417	0.130883
997.792	0.090438
1001.17	0.632865
1004.54	0.238192
1007.92	0.135212
1011.29	1.17312
1014.67	1.86442
1018.04	2.08331
1021.42	3.61435
1024.79	4.45335
1028.16	6.02362
1031.54	7.48554
1034.91	8.96327
1038.29	11.1776
1041.66	14.3897
1045.04	16.9825
1048.41	18.7898
1051.79	18.7335
1055.16	16.4256
1058.54	11.0217
1061.91	5.87816
1065.29	4.19928
1068.66	2.89391
1072.04	2.11382
1075.41	1.33415
1078.79	1.17743
1082.16	1.36225
1085.54	0.851837
1088.91	1.41728
1092.29	0.741058
1095.66	0.755811
1099.04	0.139498
1102.41	0.531246
1105.79	0.427116
1109.16	0.403585
1112.54	0.515741
1115.91	0.143933
1119.29	0.760015
1122.66	0.234583
1126.04	0.399007
1129.41	0.264357
1132.79	0.220111
1136.16	0.294609
1139.53	0.156567
1142.91	0.568324
1146.28	0.565677
1149.66	0.708085
1153.03	0.489549
1156.41	0.478587
1159.78	0.629282
1163.16	0.898944
1166.53	1.36248
1169.91	1.27566
1173.28	1.51124
1176.66	0.498951
1180.03	1.37678
1183.41	1.4129
1186.78	1.63744
1190.16	0.447067
1193.53	1.35535
1196.91	1.57357
1200.28	1.10071
1203.66	0.291321
1207.03	0.923331
1210.4	0.695444
1213.78	0.58758
1217.15	1.35538
1220.53	1.12181
1223.9	0.16024
1227.28	0.090074
1230.65	0.3
1234.03	0.268307
1237.4	0.647429
1240.78	0.638104
1244.15	0.682031
1247.53	0.185863
1250.9	0.014101
1254.28	0.16678
1257.65	0.562935
1261.03	0.364268
1264.4	0.389093
1267.78	1.04005
1271.15	0.296038
1274.53	0.520374
1277.9	0.600678
1281.28	0.284701
1284.65	0.224132
