Measurement: Raman, 780 nm, unoriented, Raman Data Processed
Mineral: Pyroxene
Rruff sample: R110130
Locality: Little Deer Creek eclogite, Skagit County, Washington, USA
Source: Bart Cannon
Description: Blocky transparent green crystals coating a surface of a rock. Single crystal X-ray diffraction shows that this sample is composed of exsolution lamellae of diopside and jadeite
Raman shift (cm-1)	intensity
160.546	0
163.439	0.232971
166.332	2.23592
169.224	4.26085
172.117	6.5293
175.01	7.7715
177.902	7.30101
180.795	10.5919
183.688	13.2441
186.581	18.356
189.473	20.9932
192.366	16.1603
195.259	14.6343
198.151	9.43445
201.044	7.48389
203.937	6.70784
206.829	3.99037
209.722	5.42901
212.615	5.5932
215.507	5.599
218.4	4.98229
221.293	1.84175
224.186	3.75862
227.078	3.15693
229.971	0.548141
232.864	2.98406
235.756	2.81457
238.649	1.69326
241.542	3.46169
244.435	2.77002
247.327	0.185333
250.22	0.223206
253.113	0.737328
256.005	0.126984
258.898	0.470863
261.791	0.96759
264.683	4.55872
267.576	0.232704
270.469	2.56261
273.361	4.00122
276.254	1.91087
279.147	2.05717
282.04	0.435684
284.932	0.154755
287.825	1.96836
290.718	0.39782
293.61	0.73838
296.503	3.01555
299.396	0.066742
302.288	4.44408
305.181	5.49983
308.074	4.72073
310.967	6.19619
313.859	7.13766
316.752	9.34808
319.645	10.1356
322.537	13.0593
325.43	15.3314
328.323	16.4942
331.216	19.2859
334.108	19.5157
337.001	18.5346
339.894	21.2207
342.786	17.7278
345.679	19.9519
348.572	18.0856
351.464	14.799
354.357	15.9498
357.25	15.9717
360.142	15.3796
363.035	13.7904
365.928	15.7871
368.821	18.7514
371.713	21.6481
374.606	20.1162
377.499	22.2821
380.391	23.7921
383.284	22.8697
386.177	21.5744
389.07	19.4966
391.962	19.9615
394.855	16.5067
397.748	13.3504
400.64	13.3499
403.533	12.1043
406.426	9.51459
409.318	10.2054
412.211	11.5641
415.104	7.51827
417.997	5.52274
420.889	3.8102
423.782	3.80077
426.675	1.53582
429.567	1.47743
432.46	0.50428
435.353	0.414589
438.245	0.591888
441.138	0.918648
444.031	0.492508
446.923	0.636597
449.816	0.154411
452.709	0.511314
455.602	1.30638
458.494	0.530785
461.387	0.955826
464.28	0.724236
467.172	0.566032
470.065	1.92265
472.958	2.18013
475.851	2.10327
478.743	0.911667
481.636	2.19651
484.529	1.74898
487.421	2.87624
490.314	4.24771
493.207	2.90012
496.099	3.32639
498.992	3.19998
501.885	3.03489
504.777	6.32662
507.67	6.5856
510.563	8.88579
513.456	11.4654
516.348	9.11052
519.241	8.28332
522.134	6.60548
525.026	7.03344
527.919	7.51232
530.812	8.93021
533.705	10.5022
536.597	14.4278
539.49	13.8976
542.383	16.6533
545.275	18.9014
548.168	19.237
551.061	21.7787
553.953	22.1457
556.846	24.7828
559.739	25.121
562.631	21.7705
565.524	20.3708
568.417	18.5217
571.31	19.091
574.202	15.0904
577.095	15.34
579.988	13.3617
582.88	13.32
585.773	8.66606
588.666	11.9419
591.558	10.8444
594.451	8.70635
597.344	7.79961
600.237	6.61352
603.129	4.24259
606.022	3.05585
608.915	0.938568
611.807	0.663635
614.7	1.79244
617.593	0.61129
620.486	0.648163
623.378	1.25908
626.271	0.231773
629.164	2.04664
632.056	1.30041
634.949	0.60825
637.842	0.882427
640.734	1.23458
643.627	4.75448
646.52	5.4455
649.413	8.93251
652.305	6.50689
655.198	11.182
658.091	13.5155
660.983	18.2874
663.876	23.9126
666.769	35.0213
669.661	51.1505
672.554	68.8874
675.447	92.8859
678.34	116.55
681.232	123.472
684.125	105.656
687.018	74.3778
689.91	50.4333
692.803	34.1911
695.696	22.5605
698.588	19.4608
701.481	12.1887
704.374	11.8963
707.266	9.37397
710.159	8.30608
713.052	7.31638
715.945	7.12971
718.837	5.97851
721.73	1.4293
724.623	4.4885
727.515	4.30451
730.408	5.23769
733.301	4.33693
736.193	2.89417
739.086	3.721
741.979	2.5763
744.872	2.36605
747.764	1.96303
750.657	3.38557
753.55	0.606903
756.442	0.313572
759.335	0.633396
762.228	0.241116
765.12	1.60413
768.013	0.663277
770.906	0.118313
773.799	1.55709
776.691	0.134514
779.584	2.30325
782.477	2.40484
785.369	2.59532
788.262	0.168037
791.155	2.61165
794.048	0.973545
796.94	1.41121
799.833	0.237438
802.726	0.450592
805.618	2.61427
808.511	1.54187
811.404	1.59825
814.296	2.22263
817.189	2.66998
820.082	1.67823
822.975	3.0229
825.867	3.53614
828.76	2.48574
831.653	2.68065
834.545	2.18249
837.438	2.05617
840.331	1.73769
843.223	2.89545
846.116	2.2122
849.009	2.8739
851.902	3.37499
854.794	2.22794
857.687	3.15959
860.58	0.670296
863.472	0.919914
866.365	3.39617
869.258	3.09439
872.15	3.61562
875.043	2.76711
877.936	5.31036
880.829	4.35151
883.721	5.09243
886.614	4.13836
889.507	4.51215
892.399	4.43943
895.292	2.05839
898.185	4.34843
901.077	5.26501
903.97	5.89732
906.863	4.68722
909.756	4.41793
912.648	7.01255
915.541	5.95749
918.434	5.22376
921.326	5.38111
924.219	4.33513
927.112	1.82861
930.005	2.74
932.897	1.72673
935.79	2.15409
938.683	2.86049
941.575	0.118275
944.468	0.241447
947.361	0.836151
950.253	0.216602
953.146	0.697941
956.039	0.325169
958.932	0.70866
961.824	0.09095
964.717	0.456741
967.61	0.588505
970.502	1.87579
973.395	0.46624
976.288	2.07997
979.18	6.16705
982.073	4.87814
984.966	5.28658
987.859	7.22794
990.751	10.7534
993.644	12.3542
996.537	18.002
999.429	22.5504
1002.32	27.1858
1005.22	31.8085
1008.11	35.035
1011	39.1462
1013.89	41.114
1016.78	41.1155
1019.68	43.9437
1022.57	40.8806
1025.46	40.2691
1028.36	34.3189
1031.25	31.402
1034.14	22.9563
1037.03	21.8716
1039.93	17.9352
1042.82	15.2624
1045.71	13.2459
1048.61	10.9361
1051.5	11.1691
1054.39	8.95422
1057.28	8.53057
1060.18	6.95184
1063.07	5.98689
1065.96	4.83179
1068.85	5.87852
1071.75	4.29105
1074.64	1.86378
1077.53	2.44345
1080.42	1.46647
1083.32	3.73382
1086.21	2.2748
1089.1	1.30505
1092	0.919655
1094.89	0.107246
1097.78	1.92806
1100.67	2.11654
1103.57	1.68179
1106.46	1.0772
1109.35	2.52164
1112.24	1.9025
1115.14	1.21951
1118.03	0.214722
1120.92	1.59956
1123.82	1.23963
1126.71	2.30107
1129.6	1.1144
1132.49	1.95055
1135.39	1.63235
1138.28	1.91786
1141.17	0.736591
1144.06	4.01924
1146.96	0.484051
1149.85	1.628
1152.74	0.848335
1155.63	0.355988
1158.53	1.22657
1161.42	1.22738
1164.31	0.622932
1167.21	1.64912
1170.1	2.02677
1172.99	0.556316
1175.88	2.04788
1178.78	1.36544
1181.67	3.78553
1184.56	2.76289
1187.45	2.39895
1190.35	3.51101
1193.24	3.23795
1196.13	1.24416
1199.03	1.83487
1201.92	3.468
1204.81	2.13376
1207.7	2.21306
1210.6	4.12419
1213.49	2.63431
1216.38	3.34722
1219.27	2.59398
1222.17	2.32317
1225.06	3.46663
1227.95	3.12129
1230.85	2.05311
1233.74	0.446686
1236.63	2.29884
1239.52	0.973419
1242.42	0.751644
1245.31	1.42719
1248.2	2.43562
1251.09	3.00472
1253.99	2.94808
1256.88	2.23107
1259.77	1.31916
1262.66	1.74078
1265.56	2.1321
1268.45	2.19843
1271.34	1.24052
1274.24	2.03916
1277.13	1.94481
1280.02	0.31823
1282.91	0.742565
