Measurement: Raman, 532 nm, unoriented, Raman Data Processed
Mineral: Pyrosmalite-(Mn)
Rruff sample: R110207
Ideal chemistry: Mn^2+^_8_Si_6_O_15_(OH,Cl)_10_
Locality: Kyurasawa mine, Ashio, Tochigi Prefecture, Kanto Region, Japan
Source: Royal Ontario Museum
Description: Pink massive with good cleavage
Raman shift (cm-1)	intensity
166.667	0
169.559	1.26387
172.452	41.9982
175.345	117.523
178.237	214.079
181.13	300.015
184.023	377.387
186.916	447.099
189.808	480.741
192.701	452.261
195.594	386.472
198.486	330.539
201.379	297.612
204.272	263.557
207.164	220.298
210.057	173.29
212.95	134.587
215.843	102.975
218.735	83.1758
221.628	70.4679
224.521	53.5387
227.413	39.8245
230.306	27.8204
233.199	18.2725
236.091	10.0971
238.984	4.48173
241.877	0.522171
244.769	1.04268
247.662	3.71706
250.555	3.91801
253.448	4.6803
256.34	1.55393
259.233	0.980133
262.126	2.3103
265.018	2.01519
267.911	1.936
270.804	3.30866
273.697	1.39212
276.589	1.31046
279.482	5.033
282.375	10.0407
285.267	18.2958
288.16	30.521
291.053	46.6666
293.945	64.8808
296.838	89.7598
299.731	121.151
302.623	149.977
305.516	170.66
308.409	180.18
311.302	182.964
314.194	190.214
317.087	210.596
319.98	249.611
322.872	279.442
325.765	240.761
328.658	165.728
331.55	121.312
334.443	94.4356
337.336	73.3071
340.229	60.7982
343.121	56.2011
346.014	58.9015
348.907	70.1287
351.799	87.3438
354.692	102.503
357.585	97.8897
360.478	88.1976
363.37	76.1155
366.263	68.2206
369.156	63.9781
372.048	60.8693
374.941	58.6614
377.834	60.6967
380.726	59.0597
383.619	60.2116
386.512	66.0926
389.404	73.21
392.297	82.1119
395.19	87.2816
398.083	92.519
400.975	94.3053
403.868	92.7108
406.761	91.9661
409.653	88.2784
412.546	82.011
415.439	63.6342
418.332	41.6148
421.224	22.8068
424.117	9.66035
427.01	3.57564
429.902	0.713737
432.795	0.986084
435.688	2.36347
438.58	1.34985
441.473	2.82155
444.366	5.48259
447.259	5.43677
450.151	2.72885
453.044	3.25194
455.937	10.2922
458.829	17.1969
461.722	24.0599
464.615	33.26
467.507	49.1273
470.4	58.3874
473.293	56.011
476.185	53.0819
479.078	57.4487
481.971	57.1597
484.864	48.6796
487.756	32.7103
490.649	21.7302
493.542	15.219
496.434	10.654
499.327	8.69814
502.22	5.11784
505.113	4.70264
508.005	1.4319
510.898	0.152821
513.791	1.64524
516.683	1.48368
519.576	0.949818
522.469	0.196743
525.361	0.062309
528.254	1.1637
531.147	0.107483
534.04	0.210312
536.932	0.101437
539.825	0.128025
542.718	0.628181
545.61	1.30634
548.503	3.26649
551.396	3.22214
554.288	3.2498
557.181	2.96564
560.074	3.49315
562.967	3.12007
565.859	6.92156
568.752	8.64202
571.645	11.7326
574.537	16.1554
577.43	21.7898
580.323	29.3811
583.216	40.2638
586.108	54.8427
589.001	76.9573
591.894	110.858
594.786	165.949
597.679	257.249
600.572	406.178
603.464	612.071
606.357	857.77
609.25	1157.64
612.142	1477.88
615.035	1649.86
617.928	1427.61
620.821	957.967
623.713	569.963
626.606	347.235
629.499	229.266
632.391	159.713
635.284	115.742
638.177	86.4882
641.069	65.1118
643.962	49.8822
646.855	40.2553
649.747	31.3734
652.64	25.8965
655.533	19.905
658.426	15.3277
661.318	9.87978
664.211	6.76419
667.104	4.72051
669.996	2.64786
672.889	0.401268
675.782	0.665783
678.674	0.280231
681.567	1.10216
684.46	1.7121
687.353	1.09971
690.245	0.835136
693.138	0.714722
696.031	1.97604
698.923	4.76361
701.816	5.2679
704.709	7.02219
707.601	8.05163
710.494	10.2272
713.387	10.5517
716.28	10.8261
719.172	11.0542
722.065	11.0402
724.958	12.722
727.85	11.8155
730.743	10.7659
733.636	9.09917
736.529	7.26532
739.421	7.15536
742.314	5.14531
745.207	5.61007
748.099	5.00194
750.992	5.13976
753.885	4.44838
756.777	3.86359
759.67	2.67019
762.563	1.66661
765.456	0.685596
768.348	0.23579
771.241	0.727379
774.134	0.65572
777.026	0.639877
779.919	1.24329
782.812	2.37543
785.704	1.8942
788.597	4.57709
791.49	6.41616
794.383	10.6897
797.275	16.7982
800.168	23.7413
803.061	32.7274
805.953	43.6296
808.846	50.237
811.739	57.61
814.631	59.3039
817.524	54.4333
820.417	40.2902
823.309	30.4016
826.202	18.7077
829.095	11.256
831.988	7.80859
834.88	4.99768
837.773	2.78727
840.666	3.82021
843.558	2.92115
846.451	3.28818
849.344	2.14566
852.236	1.80249
855.129	1.07172
858.022	1.0435
860.915	0.383377
863.807	1.11291
866.7	1.19234
869.593	2.00014
872.485	5.8733
875.378	3.98323
878.271	3.69331
881.163	3.80519
884.056	4.21696
886.949	5.45917
889.842	8.09438
892.734	10.1866
895.627	16.4748
898.52	22.2686
901.412	29.0966
904.305	32.2777
907.198	26.5023
910.091	17.1766
912.983	10.2925
915.876	5.32734
918.769	3.37975
921.661	1.38256
924.554	0.383266
927.447	0.177555
930.339	0.615013
933.232	0.711464
936.125	1.2377
939.018	0.339188
941.91	1.30644
944.803	0.393345
947.696	0.981853
950.588	1.83211
953.481	1.25799
956.374	1.99781
959.266	2.68796
962.159	2.86493
965.052	3.22767
967.944	3.51274
970.837	4.60347
973.73	5.55796
976.623	6.1051
979.515	7.02872
982.408	7.95712
985.301	9.8087
988.193	11.7878
991.086	14.6442
993.979	17.5192
996.871	21.8259
999.764	26.6271
1002.66	32.1299
1005.55	40.9396
1008.44	47.8498
1011.34	60.0419
1014.23	79.6612
1017.12	118.141
1020.01	182.828
1022.91	275.645
1025.8	388.558
1028.69	525.975
1031.58	603.295
1034.48	481.668
1037.37	274.364
1040.26	147.22
1043.15	86.4026
1046.05	54.5275
1048.94	36.8859
1051.83	25.9136
1054.73	18.1188
1057.62	12.3347
1060.51	10.2455
1063.4	7.10388
1066.3	5.06569
1069.19	3.48929
1072.08	2.38206
1074.97	1.94241
1077.87	0.275753
1080.76	0.114689
1083.65	0.589912
1086.55	0.070137
1089.44	0.09293
1092.33	0.505791
1095.22	0.632141
1098.12	0.820377
1101.01	0.532349
1103.9	0.204826
1106.79	0.46627
1109.69	0.128159
1112.58	0.663631
1115.47	0.066929
1118.37	1.32962
1121.26	0.607277
1124.15	1.4365
1127.04	0.568607
1129.94	1.03475
1132.83	1.19868
1135.72	1.61329
1138.61	1.2652
1141.51	1.67139
1144.4	2.94923
1147.29	3.27582
1150.18	3.5309
1153.08	4.47153
1155.97	5.06214
1158.86	6.03446
1161.76	7.51124
1164.65	7.70955
1167.54	8.29092
1170.43	8.78416
1173.33	7.36513
1176.22	5.56449
1179.11	3.28379
1182	2.1308
1184.9	1.46076
1187.79	1.21723
1190.68	0.27375
1193.58	0.479748
1196.47	0.455185
1199.36	0.147732
1202.25	0.438522
1205.15	0.707615
1208.04	0.577259
1210.93	0.515141
1213.82	0.833176
1216.72	1.47736
1219.61	1.13534
1222.5	1.63528
1225.39	1.56086
1228.29	1.26061
1231.18	1.97865
1234.07	1.07527
1236.97	0.661316
1239.86	1.82347
1242.75	0.81892
1245.64	0.694824
1248.54	1.05828
1251.43	0.028675
1254.32	1.53371
1257.21	0.353752
1260.11	0.484119
1263	0.683308
1265.89	0.351841
1268.79	0.109566
1271.68	0.875511
1274.57	0.905914
1277.46	1.38573
1280.36	0.221375
1283.25	0.014729
1286.14	2.06948
1289.03	1.74873
1291.93	1.95373
1294.82	0.936611
1297.71	0.908882
1300.61	0.131592
