Measurement: Raman, 532 nm, unoriented, Raman Data Processed
Mineral: Pyrope
Rruff sample: R100153
Ideal chemistry: Mg_3_Al_2_(SiO_4_)_3_
Locality: Sri Lanka
Source: William W. Pinch
Description: Light purplish-red gemstones. X-ray diffraction and Raman spectra were collected from the gemstone on the left.
Raman shift (cm-1)	intensity
131.533	0
134.908	1.98708
138.283	0.610672
141.657	4.77224
145.032	13.8366
148.407	17.764
151.782	24.0854
155.157	37.2788
158.532	44.0534
161.906	44.2946
165.281	43.0175
168.656	50.1596
172.031	50.3248
175.406	47.7218
178.78	46.6117
182.155	39.996
185.53	37.3196
188.905	40.8905
192.28	46.6379
195.655	55.3314
199.029	69.4816
202.404	83.185
205.779	99.3468
209.154	104.066
212.529	89.7488
215.904	65.3505
219.278	43.2067
222.653	26.404
226.028	15.1024
229.403	11.3842
232.778	6.48777
236.152	6.77442
239.527	4.70409
242.902	3.18427
246.277	3.7316
249.652	1.2766
253.026	0.691544
256.401	0.380608
259.776	0.317856
263.151	0.899498
266.526	0.672966
269.901	0.923576
273.276	3.21108
276.65	1.49866
280.025	0.879341
283.4	0.216866
286.775	1.14148
290.15	1.54312
293.524	4.50893
296.899	7.15466
300.274	13.2734
303.649	22.4891
307.024	30.3117
310.399	44.1117
313.773	63.5014
317.148	74.6702
320.523	65.966
323.898	62.41
327.273	72.5405
330.647	96.2608
334.022	129.425
337.397	179.922
340.772	239.857
344.147	316.395
347.522	413.972
350.896	536.327
354.271	602.734
357.646	512.888
361.021	353.994
364.396	241.014
367.77	184.506
371.145	156.458
374.52	127.554
377.895	96.8993
381.27	65.1003
384.644	43.039
388.019	27.5282
391.394	19.3033
394.769	11.9807
398.144	7.53859
401.519	3.27247
404.894	3.50588
408.268	2.08312
411.643	2.75636
415.018	0.63129
418.393	1.18912
421.767	0.148674
425.142	1.21812
428.517	0.439632
431.892	1.12968
435.267	0.817669
438.642	0.739902
442.017	1.62069
445.391	1.8097
448.766	0.540119
452.141	0.819439
455.516	2.78058
458.891	4.5704
462.265	5.34739
465.64	8.36298
469.015	14.2251
472.39	21.1976
475.765	30.7702
479.139	43.9006
482.514	61.5139
485.889	62.0745
489.264	49.3559
492.639	48.6262
496.014	62.4323
499.388	93.4887
502.763	139.125
506.138	150.446
509.513	90.3949
512.888	45.4809
516.263	25.2162
519.637	18.5201
523.012	16.4745
526.387	14.2701
529.762	14.9328
533.137	17.9282
536.511	24.5179
539.886	38.9094
543.261	62.4373
546.636	94.8538
550.011	142.536
553.386	206.186
556.76	276.587
560.135	285.717
563.51	194.433
566.885	99.9989
570.26	50.6115
573.635	28.3862
577.009	15.0867
580.384	11.8071
583.759	12.303
587.134	16.9725
590.509	16.8846
593.883	7.12497
597.258	3.03635
600.633	0.566952
604.008	1.892
607.383	0.524689
610.758	1.45325
614.132	0.668201
617.507	0.633129
620.882	3.89928
624.257	10.5338
627.632	24.1265
631.006	41.4624
634.381	60.6571
637.756	82.731
641.131	83.98
644.506	56.5891
647.881	32.5715
651.255	19.5024
654.63	13.3535
658.005	8.24559
661.38	5.43253
664.755	4.67442
668.13	1.65781
671.504	2.88026
674.879	2.58044
678.254	0.167316
681.629	0.879986
685.004	0.64402
688.378	1.91778
691.753	1.43557
695.128	2.30989
698.503	1.32764
701.878	3.52226
705.253	1.23501
708.627	5.4806
712.002	4.20497
715.377	5.57887
718.752	5.51245
722.127	3.14036
725.501	5.98613
728.876	5.17385
732.251	6.16531
735.626	7.03403
739.001	9.24943
742.375	8.64963
745.75	9.17559
749.125	8.44284
752.5	10.2121
755.875	8.68002
759.25	9.01434
762.625	7.94614
765.999	8.93733
769.374	8.18938
772.749	8.61056
776.124	7.36257
779.499	4.55896
782.873	4.54003
786.248	3.87421
789.623	3.54924
792.998	1.16868
796.373	1.28719
799.747	0.009392
803.122	0.216988
806.497	0.560089
809.872	0.96117
813.247	0.685795
816.621	2.54552
819.996	0.836533
823.371	1.03306
826.746	1.44328
830.121	0.486183
833.496	1.20356
836.87	4.20528
840.245	9.73719
843.62	20.8331
846.995	38.0083
850.37	62.9046
853.745	102.83
857.119	148.166
860.494	202.03
863.869	229.841
867.244	199.692
870.619	141.565
873.994	100.508
877.368	79.8813
880.743	75.5655
884.118	85.992
887.493	104.699
890.868	138.158
894.242	184.417
897.617	244.997
900.992	326.617
904.367	455.493
907.742	699.859
911.116	1072.76
914.491	1576.79
917.866	2099.72
921.241	2156.92
924.616	1553.09
927.991	916.866
931.365	529.99
934.74	322.72
938.115	202.546
941.49	128.02
944.865	80.6428
948.24	50.6459
951.614	33.4219
954.989	19.2883
958.364	10.6891
961.739	4.34188
965.114	1.48352
968.489	0.966064
971.863	4.32843
975.238	2.76152
978.613	0.540062
981.988	1.062
985.362	2.44654
988.737	2.02971
992.112	0.340675
995.487	0.892094
998.862	0.956169
1002.24	1.53558
1005.61	0.777531
1008.99	2.15855
1012.36	6.09873
1015.74	10.0523
1019.11	14.7583
1022.49	17.8952
1025.86	26.9966
1029.23	36.4404
1032.61	48.5317
1035.98	60.2443
1039.36	81.3043
1042.73	102.347
1046.11	123.945
1049.48	135.244
1052.86	127.733
1056.23	103.718
1059.61	69.7879
1062.98	41.7148
1066.36	25.2708
1069.73	15.3081
1073.11	12.2646
1076.48	7.91917
1079.86	6.27096
1083.23	4.5759
1086.61	2.82863
1089.98	3.72036
1093.36	0.890482
1096.73	2.51514
1100.11	1.40407
1103.48	1.24571
1106.86	1.35492
1110.23	2.09598
1113.61	0.922966
1116.98	0.170683
1120.36	0.184107
1123.73	0.16284
1127.11	0.545092
1130.48	0.174515
1133.86	0.805964
1137.23	0.136269
1140.6	1.10182
1143.98	1.65742
1147.35	1.7179
1150.73	1.4021
1154.1	1.94019
1157.48	1.56282
1160.85	3.25626
1164.23	4.0823
1167.6	3.84776
1170.98	5.48696
1174.35	7.34291
1177.73	7.68554
1181.1	7.97282
1184.48	7.24996
1187.85	6.06123
1191.23	5.70413
1194.6	6.05586
1197.98	5.54267
1201.35	5.1462
1204.73	5.55609
1208.1	5.35137
1211.48	3.52566
1214.85	3.07117
1218.22	2.85866
1221.6	1.80794
1224.97	0.998678
1228.35	1.43876
1231.72	1.08258
1235.1	1.41085
1238.47	0.591909
1241.85	0.163769
1245.22	0.467531
1248.6	0.682592
1251.97	1.37149
1255.35	1.37788
1258.72	1.4505
1262.1	2.57608
1265.47	2.77416
1268.85	2.37993
1272.22	1.5667
1275.6	2.32405
1278.97	3.15065
1282.35	2.2859
1285.72	1.93613
1289.1	2.04244
1292.47	1.73073
1295.85	0.329714
1299.22	2.35845
1302.6	0
