Measurement: Raman, 532 nm, unoriented, Raman Data Processed
Mineral: Pyrochlore
Rruff sample: R060165
Ideal chemistry: Ca_2_Nb_2_O_7_
Locality: Betafo, Madagascar
Source: Marcus Origlieri
Description: Red-brown octahedon superficially altered yellow
Measured chemistry: ([box]_1.02_U^4+^_0.95_Ca_0.03_)_Σ=2_(Nb_1.03_Ti_0.65_Al_0.13_Ta_0.10_Fe^3+^_0.06_Th_0.03_)_Σ=2_(O_5.80_(OH)_1.20_)_Σ=7_
Raman shift (cm-1)	intensity
150.528	0
153.421	175.907
156.314	224.763
159.207	194.134
162.099	141.457
164.992	112.825
167.885	100.635
170.777	101.354
173.67	57.1099
176.563	21.6084
179.455	13.4783
182.348	8.51986
185.241	2.58826
188.133	6.48096
191.026	0.428345
193.919	12.2208
196.812	14.0207
199.704	12.003
202.597	4.50061
205.49	-1.13275
208.382	3.01639
211.275	7.90957
214.168	3.77143
217.06	15.0176
219.953	30.219
222.846	51.6716
225.739	66.5815
228.631	82.0566
231.524	102.024
234.417	117.596
237.31	136.285
240.202	147.046
243.095	150.303
245.988	146.043
248.88	136.399
251.773	132.515
254.666	132.934
257.558	125.545
260.451	126.138
263.344	117.669
266.236	103.025
269.129	91.179
272.022	82.71
274.915	73.9498
277.807	68.1918
280.7	61.5621
283.593	53.239
286.485	50.2172
289.378	53.9784
292.271	45.8656
295.163	44.2352
298.056	42.4612
300.949	39.6014
303.842	42.4506
306.734	42.5143
309.627	44.0503
312.52	49.037
315.413	46.7711
318.305	45.0421
321.198	36.891
324.091	36.5493
326.983	41.9402
329.876	40.8113
332.769	41.5414
335.661	44.906
338.554	51.3314
341.447	57.8396
344.339	71.3831
347.232	87.8656
350.125	106.659
353.018	124.687
355.91	146.718
358.803	170.947
361.696	198.535
364.588	232.735
367.481	257.569
370.374	283.315
373.267	300.711
376.159	300.319
379.052	291.613
381.945	276.603
384.837	248.306
387.73	218.269
390.623	180.375
393.515	143.761
396.408	105.485
399.301	72.6873
402.194	48.8352
405.086	33.9429
407.979	15.3957
410.872	10.3218
413.764	0.059082
416.657	4.74219
419.55	7.97302
422.442	7.95142
425.335	9.93469
428.228	5.75281
431.121	2.70264
434.013	4.47412
436.906	10.3002
439.799	14.2418
442.691	27.4463
445.584	36.1337
448.477	47.1718
451.37	58.9606
454.262	73.2782
457.155	85.4292
460.048	98.4185
462.94	105.621
465.833	116.887
468.726	120.357
471.618	124.307
474.511	128.006
477.404	122.175
480.297	115.605
483.189	116.421
486.082	108.26
488.975	104.362
491.867	102.959
494.76	107.525
497.653	112.954
500.546	118.345
503.438	116.332
506.331	113.926
509.224	110.827
512.116	102.622
515.009	94.923
517.902	80.2716
520.794	67.5481
523.687	55.9642
526.58	43.9833
529.472	32.272
532.365	24.8871
535.258	18.5819
538.151	11.2421
541.043	1.57507
543.936	2.26172
546.829	3.42676
549.721	2.06055
552.614	3.02173
555.507	4.07349
558.4	3.43567
561.292	5.375
564.185	0.126587
567.078	0.864136
569.97	7.71594
572.863	12.2341
575.756	18.671
578.649	23.759
581.541	39.8469
584.434	50.5454
587.327	68.114
590.219	79.7417
593.112	98.7062
596.005	119.423
598.898	145.846
601.79	172.019
604.683	204.02
607.576	237.172
610.468	271.223
613.361	299.687
616.254	339.394
619.146	381.111
622.039	422.564
624.932	460.676
627.824	500.592
630.717	536.673
633.61	567.107
636.503	587.091
639.395	594.246
642.288	603.212
645.181	600.993
648.073	584.265
650.966	557.36
653.859	525.839
656.751	478.14
659.644	434.178
662.537	375.058
665.43	319.537
668.322	265.1
671.215	214.966
674.108	169.834
677	130.987
679.893	93.8346
682.786	65.9498
685.679	44.7723
688.571	26.8464
691.464	7.84302
694.357	1.05151
697.249	2.70288
700.142	6.00146
703.035	10.3335
705.928	13.5193
708.82	12.3105
711.713	3.26489
714.606	3.24219
717.498	14.7617
720.391	21.8289
723.284	34.4596
726.177	54.188
729.069	68.3748
731.962	92.7531
734.855	112.245
737.747	134.688
740.64	162.863
743.533	187.644
746.425	210.788
749.318	230.726
752.211	248.736
755.104	267.343
757.996	279.741
760.889	284.902
763.782	282.861
766.674	268.714
769.567	255.573
772.46	245.01
775.352	226.083
778.245	206.513
781.138	184.76
784.03	169.964
786.923	152.668
789.816	133.113
792.709	121.915
795.601	110.427
798.494	102.411
801.387	99.4601
804.279	92.5402
807.172	95.2883
810.065	95.0244
812.957	98.1493
815.85	102.447
818.743	108.374
821.636	120.148
824.528	132.335
827.421	144.528
830.314	155.321
833.207	162.204
836.099	162.491
838.992	161.113
841.885	151.796
844.777	134.196
847.67	111.296
850.563	82.3092
853.455	64.9512
856.348	45.6949
859.241	28.9602
862.134	16.8088
865.026	14.1562
867.919	1.36084
870.812	0.273682
873.704	3.51202
876.597	5.34259
879.49	6.18426
882.382	4.23914
885.275	3.64447
888.168	1.40051
891.061	1.59491
893.953	2.39771
896.846	5.61072
899.739	13.8056
902.631	17.5911
905.524	19.0153
908.417	25.4539
911.309	30.5593
914.202	33.1003
917.095	36.9085
919.988	40.768
922.88	43.7714
925.773	47.6333
928.666	49.7614
931.558	52.4631
934.451	52.6621
937.344	53.0559
940.236	50.0838
943.129	49.4994
946.022	47.2832
948.915	43.0046
951.807	40.538
954.7	38.4161
957.593	31.8696
960.486	28.96
963.378	24.03
966.271	16.7519
969.164	15.457
972.056	12.6881
974.949	10.8448
977.842	7.88031
980.734	9.13123
983.627	3.17071
986.52	1.64587
989.413	0.964478
992.305	1.27679
995.198	0.069336
998.091	0.668091
1000.98	2.42143
1003.88	1.98345
1006.77	1.03882
1009.66	1.23541
1012.55	2.77228
1015.45	4.38428
1018.34	4.60663
1021.23	7.75012
1024.12	7.10785
1027.02	9.88367
1029.91	8.35248
1032.8	12.8457
1035.7	10.0805
1038.59	10.9192
1041.48	11.793
1044.37	14.6213
1047.27	12.5041
1050.16	11.8648
1053.05	12.8723
1055.94	14.5861
1058.84	9.90479
1061.73	9.74078
1064.62	8.78632
1067.52	8.42562
1070.41	8.80923
1073.3	9.54523
1076.19	7.49347
1079.09	5.39398
1081.98	1.56842
1084.87	4.79394
1087.76	10.2305
1090.66	3.94336
1093.55	6.2204
1096.44	3.37567
1099.34	3.61731
1102.23	4.33716
1105.12	5.52679
1108.01	2.74231
1110.91	2.52252
1113.8	3.5622
1116.69	2.23663
1119.58	1.6908
1122.48	3.76324
1125.37	1.74072
1128.26	6.81476
1131.15	3.64026
1134.05	3.66223
1136.94	3.97882
1139.83	4.13513
1142.73	4.10028
1145.62	4.61609
1148.51	3.32452
1151.4	2.9411
1154.3	1.55975
1157.19	2.60467
1160.08	0.252014
1162.97	3.9964
1165.87	1.50934
1168.76	1.23315
1171.65	0.546936
1174.55	0.436035
1177.44	0.18689
1180.33	0.133972
1183.22	0.937256
1186.12	0.308533
1189.01	1.72504
1191.9	4.14374
1194.79	0.307861
1197.69	3.53632
1200.58	4.04627
1203.47	1.68762
1206.37	3.91437
1209.26	4.59906
1212.15	5.39941
1215.04	4.60327
1217.94	3.70435
1220.83	4.41101
1223.72	4.2381
1226.61	2.68475
1229.51	3.4162
1232.4	2.98096
1235.29	3.03424
1238.18	0.557617
1241.08	3.06683
1243.97	0.097168
1246.86	1.68866
1249.76	3.23474
1252.65	0.228455
1255.54	2.47461
1258.43	2.20154
1261.33	2.1062
1264.22	1.96173
1267.11	5.5993
1270.01	5.06909
1272.9	5.06885
1275.79	1.00476
1278.68	2.59296
1281.58	1.53876
1284.47	2.42609
1287.36	2.05426
1290.25	3.88666
1293.15	3.5661
1296.04	3.46033
1298.93	2.45703
1301.82	0.386414
