Measurement: Raman, 514 nm, unoriented, Raman Data Processed
Mineral: Pyrope
Rruff sample: R050113
Ideal chemistry: Mg_3_Al_2_(SiO_4_)_3_
Locality: Warsik, Pakistan
Source: Farooq and Nazia Sawal
Description: Reddish-purple fragment
Measured chemistry: (Mg_1.83_Fe^2+^_1.12_Ca_0.03_Mn_0.02_)_Σ=3_(Al_1.82_Fe^3+^_0.18_)_Σ=2_((Si_0.99_Al_0.01_)_Σ=1_O_4_)_3_
Raman shift (cm-1)	intensity
52.866	0
57.065	19.385
61.262	21.515
65.458	5.976
69.651	11.233
73.842	57.152
78.031	56.385
82.218	90.929
86.404	64.255
90.587	166.825
94.768	150.344
98.947	164.494
103.124	127.938
107.3	205.503
111.473	166.147
115.644	278.814
119.813	208.407
123.981	205.841
128.146	284.047
132.309	341.968
136.47	447.541
140.63	488.331
144.787	574.208
148.942	620.309
153.096	957.713
157.247	1281.57
161.396	1767.09
165.544	2181.34
169.689	2114.1
173.833	1266.29
177.974	611.79
182.114	411.584
186.251	346.743
190.387	427.045
194.52	540.705
198.652	777.645
202.782	1063.86
206.909	1586.34
211.035	1919.09
215.159	1860.11
219.281	1414.59
223.4	1020.8
227.518	725.294
231.634	573.712
235.748	523.37
239.86	463.803
243.97	347.732
248.079	348.107
252.185	307.428
256.289	259.563
260.391	232.037
264.492	228.311
268.59	201.804
272.687	235.681
276.781	224.383
280.874	247.78
284.964	234.934
289.053	252.734
293.14	319.991
297.225	411.772
301.308	479.745
305.389	806.905
309.468	1417.25
313.545	1840.78
317.62	1655.49
321.693	1554.38
325.765	1702.44
329.834	2481.65
333.902	3913.01
337.967	7101.51
342.031	12673.2
346.093	15897.9
350.153	11658.8
354.21	6293.9
358.267	3423.14
362.321	2213.6
366.373	1691.29
370.423	1308.2
374.471	980.972
378.518	694.813
382.563	446.451
386.605	297.356
390.646	207.506
394.685	125.896
398.722	51.526
402.757	64.327
406.79	26.278
410.821	12.354
414.851	4.535
418.878	21.22
422.904	35.952
426.927	28.71
430.949	47.497
434.969	16.39
438.987	14.293
443.003	30.188
447.018	28.891
451.03	11.014
455.041	29.106
459.049	117.271
463.056	219.477
467.061	339.719
471.064	598.994
475.065	1138.3
479.064	1418.62
483.062	956.969
487.057	788.331
491.051	1255.7
495.043	2979.09
499.032	5074.47
503.02	3956.95
507.007	1917.35
510.991	996.671
514.973	645.981
518.954	563.737
522.933	451.41
526.91	444.833
530.885	533.685
534.858	605.556
538.829	726.225
542.799	1141.55
546.766	1862.66
550.732	3417.15
554.696	5113.74
558.658	4554.99
562.618	2711.88
566.576	1476.35
570.533	979.14
574.488	825.268
578.44	948.755
582.391	1203.24
586.341	967.074
590.288	577.613
594.233	371.359
598.177	316.042
602.119	186.346
606.059	193.269
609.997	168.495
613.933	153.719
617.868	207.83
621.801	336.825
625.731	729.705
629.66	1211.47
633.588	1485.11
637.513	984.64
641.437	548.047
645.358	304.335
649.278	210.503
653.196	152.551
657.113	44.479
661.027	80.284
664.94	39.971
668.851	16.522
672.76	27.11
676.667	33.023
680.572	10.27
684.476	22.846
688.378	58.808
692.278	45.199
696.176	11.978
700.072	10.062
703.967	39.44
707.86	19.098
711.751	3.025
715.64	4.802
719.527	6.469
723.413	13.001
727.297	26.429
731.179	48.769
735.059	68.053
738.937	40.291
742.814	56.515
746.689	28.73
750.562	59.955
754.433	38.143
758.303	40.3
762.17	29.43
766.036	31.518
769.901	51.557
773.763	39.544
777.624	42.48
781.482	22.369
785.339	52.214
789.195	75.018
793.048	47.784
796.9	23.518
800.75	94.228
804.598	132.923
808.445	139.617
812.289	143.285
816.132	155.097
819.973	220.777
823.813	208.115
827.65	264.563
831.486	349.744
835.32	342.896
839.152	493.197
842.983	589.703
846.812	810.405
850.639	1156.58
854.464	1690.16
858.288	2647.98
862.11	3698.52
865.93	3654.68
869.748	2955.55
873.564	2502.33
877.379	2365.55
881.192	2686.39
885.004	3159.24
888.813	4163.38
892.621	5621.59
896.427	7860.93
900.232	10097.4
904.034	13449.9
907.835	21504.4
911.634	37056.1
915.432	57161.8
919.227	55497.7
923.021	35107.6
926.813	19630.6
930.604	11484.6
934.393	7278.83
938.18	4875.1
941.965	3385.46
945.749	2424
949.53	1792.05
953.311	1456.07
957.089	1199.85
960.866	1035.44
964.641	930.319
968.414	877.746
972.185	784.936
975.955	775.537
979.723	779.709
983.49	761.66
987.254	708.131
991.017	605.792
994.779	650.843
998.538	655.966
1002.3	651.007
1006.05	710.945
1009.81	756.24
1013.56	825.324
1017.31	927.066
1021.06	1163.88
1024.81	1458.75
1028.55	1835.68
1032.3	2505.65
1036.04	3452.68
1039.78	4239.79
1043.52	4263.94
1047.26	3482.12
1050.99	2353.3
1054.73	1458.47
1058.46	971.861
1062.19	633.125
1065.92	435.667
1069.65	328.074
1073.37	242.778
1077.1	200.676
1080.82	133.442
1084.54	117.215
1088.26	115.101
1091.97	82.516
1095.69	57.73
1099.4	37.824
1103.12	3.575
1106.83	1.96
1110.54	45.731
1114.24	20.776
1117.95	5.056
1121.65	31.474
1125.35	5.815
1129.06	21.844
1132.75	38.829
1136.45	5.08
1140.15	62.851
1143.84	23.721
1147.53	30.958
1151.22	0.63
1154.91	45.029
1158.6	48.888
1162.28	107.235
1165.97	154.798
1169.65	158.933
1173.33	170.89
1177.01	177.54
1180.69	236.68
1184.36	212.614
1188.04	193.539
1191.71	225.22
1195.38	198.22
1199.05	175.902
1202.71	149.853
1206.38	200.821
1210.04	127.065
1213.71	181.805
1217.37	139.628
1221.03	108.404
1224.68	125.936
1228.34	111.765
1231.99	105.514
1235.65	135.861
1239.3	138.91
1242.95	170.646
1246.59	207.686
1250.24	199.516
1253.88	199.526
1257.53	177.834
1261.17	176.377
1264.81	166.266
1268.45	215.842
1272.08	151.351
1275.72	165.603
1279.35	159.406
1282.98	158.698
1286.61	123.835
1290.24	116.142
1293.87	124.083
1297.49	54.021
1301.11	51.781
1304.73	14.284
1308.36	14.06
1311.97	16.946
1315.59	36.555
1319.2	4.918
1322.82	6.978
1326.43	2.843
1330.04	16.631
1333.65	2.58
1337.26	50.52
1340.86	49.22
1344.47	46.715
1348.07	0.033
1351.67	23.886
1355.27	36.483
1358.87	96.021
1362.46	82.155
1366.06	44.857
1369.65	91.432
1373.24	68.046
1376.83	87.522
1380.42	122.963
1384	96.427
1387.59	115.096
1391.17	151.924
1394.75	127.918
1398.33	164.832
1401.91	167.325
1405.49	201.419
1409.06	197.557
1412.64	213.588
1416.21	245.748
1419.78	227.542
1423.35	247.31
1426.91	199.441
1430.48	202.986
1434.05	247.148
1437.61	225.579
1441.17	231.076
1444.73	190.65
1448.29	255.354
1451.84	299.455
1455.4	288.694
1458.95	281.514
1462.5	219.732
1466.05	209.439
1469.6	257.016
1473.15	214.541
1476.69	177.537
1480.24	244.811
1483.78	191.951
1487.32	219.346
1490.86	169.207
1494.39	153.072
1497.93	171.544
1501.46	117.144
1505	82.924
1508.53	86.028
1512.06	77.238
1515.59	1.408
1519.11	23.431
1522.64	10.668
