Measurement: Raman, 532 nm, unoriented, Raman Data Processed
Mineral: Pyrochroite
Rruff sample: R100045
Ideal chemistry: Mn^2+^(OH)_2_
Locality: N'Chwaning II mine, Kalahari Manganese Field, Northern Cape Province, South Africa
Source: Marcus Origlieri
Description: Red platy crystals frozen in matrix
Raman shift (cm-1)	intensity
90.4922	0
93.867	2.83884
97.2418	2.84725
100.617	2.84902
103.992	7.7643
107.366	4.17749
110.741	4.19045
114.116	4.81426
117.491	6.32921
120.865	5.19519
124.24	2.45227
127.615	0.996175
130.99	0.111492
134.365	0.336775
137.74	3.31377
141.114	2.74037
144.489	1.84705
147.864	8.92495
151.239	18.2999
154.614	23.4711
157.988	25.9234
161.363	28.1826
164.738	28.3581
168.113	32.1786
171.488	37.6151
174.863	28.6541
178.237	27.2545
181.612	25.0306
184.987	25.536
188.362	21.7505
191.737	17.982
195.112	16.263
198.486	16.7039
201.861	15.2861
205.236	12.8757
208.611	11.1207
211.986	9.57917
215.36	9.20269
218.735	9.80905
222.11	7.28756
225.485	6.74572
228.86	4.99015
232.234	5.42586
235.609	5.91298
238.984	0.227131
242.359	3.03037
245.734	0.333355
249.109	2.86103
252.483	2.00297
255.858	3.75258
259.233	4.69471
262.608	5.68895
265.983	4.25792
269.358	2.21064
272.732	4.90144
276.107	1.08518
279.482	0.88118
282.857	2.43698
286.232	1.32025
289.606	2.01807
292.981	2.04588
296.356	1.66567
299.731	1.9688
303.106	2.87716
306.481	2.87767
309.855	2.08964
313.23	0.962517
316.605	3.55328
319.98	2.51277
323.355	0.48103
326.729	1.05211
330.104	1.74835
333.479	1.05523
336.854	0.879753
340.229	0.526634
343.603	1.30824
346.978	2.47752
350.353	0.69257
353.728	4.2209
357.103	5.66088
360.478	7.76773
363.852	5.39083
367.227	7.14521
370.602	5.78772
373.977	4.85474
377.352	3.3452
380.726	2.42574
384.101	3.35388
387.476	4.45998
390.851	2.5882
394.226	2.22314
397.601	0.866516
400.975	0.770084
404.35	0.296036
407.725	2.36322
411.1	0.676708
414.475	1.41556
417.849	2.62665
421.224	2.6263
424.599	1.30249
427.974	2.58088
431.349	2.49916
434.724	5.19414
438.098	3.70561
441.473	5.60863
444.848	6.81915
448.223	8.34845
451.598	7.82067
454.972	8.47755
458.347	10.7503
461.722	10.9153
465.097	10.5695
468.472	9.22371
471.846	8.61024
475.221	8.99027
478.596	5.78419
481.971	6.41367
485.346	3.90329
488.721	2.37483
492.095	4.83181
495.47	3.65375
498.845	0.241871
502.22	2.05037
505.595	1.70478
508.969	3.63808
512.344	1.37993
515.719	0.243801
519.094	0.560638
522.469	3.12513
525.844	0.506371
529.218	1.1205
532.593	0.63467
535.968	0.2878
539.343	1.78659
542.718	1.62461
546.092	0.019253
549.467	1.45494
552.842	0.394394
556.217	2.75841
559.592	1.0417
562.967	0.888641
566.341	1.38246
569.716	0.928326
573.091	2.08156
576.466	3.77372
579.841	3.92849
583.216	4.99859
586.59	6.83466
589.965	5.83112
593.34	11.071
596.715	14.4681
600.09	15.5853
603.464	19.2079
606.839	24.5302
610.214	30.8385
613.589	33.6239
616.964	39.9669
620.338	47.0922
623.713	53.193
627.088	62.3911
630.463	72.1746
633.838	83.8784
637.212	95.7054
640.587	109.428
643.962	115.486
647.337	119.013
650.712	113.526
654.087	99.9861
657.461	77.9964
660.836	64.9262
664.211	51.7737
667.586	38.2729
670.961	31.7128
674.335	21.5176
677.71	16.6687
681.085	11.9198
684.46	9.29826
687.835	8.04539
691.21	5.15509
694.584	2.17619
697.959	3.55024
701.334	0.67593
704.709	0.365261
708.084	1.35278
711.458	1.14556
714.833	0.573811
718.208	0.092525
721.583	3.22036
724.958	1.31098
728.332	0.843426
731.707	0.24194
735.082	1.48001
738.457	2.05252
741.832	2.33792
745.207	2.15384
748.581	1.70191
751.956	2.1483
755.331	3.04806
758.706	0.307774
762.081	2.82029
765.456	2.63121
768.83	0.567429
772.205	2.97601
775.58	2.9376
778.955	2.29683
782.33	2.24707
785.704	0.717823
789.079	1.98781
792.454	1.3106
795.829	1.97678
799.204	2.82842
802.578	1.03748
805.953	3.52667
809.328	1.9694
812.703	0.717827
816.078	2.99415
819.453	2.96049
822.827	2.97071
826.202	0.40494
829.577	1.42015
832.952	1.75218
836.327	2.13443
839.702	0.874393
843.076	1.59933
846.451	0.182997
849.826	1.3579
853.201	3.71969
856.576	1.94964
859.95	2.60248
863.325	3.70031
866.7	0.818521
870.075	1.9184
873.45	1.57963
876.824	1.23186
880.199	2.4038
883.574	1.91692
886.949	3.72122
890.324	0.844646
893.698	0.66082
897.073	1.27212
900.448	0.468634
903.823	0.567583
907.198	1.1171
910.573	0.468966
913.947	1.5062
917.322	1.46508
920.697	2.49081
924.072	2.02958
927.447	1.96251
930.822	1.70425
934.196	1.5307
937.571	0.455803
940.946	0.366112
944.321	1.91996
947.696	1.53205
951.07	0.857243
954.445	1.97264
957.82	0.437145
961.195	1.25951
964.57	2.41283
967.944	0.573395
971.319	3.04808
974.694	1.76282
978.069	1.22609
981.444	1.86848
984.819	1.64279
988.193	0.785454
991.568	2.1459
994.943	1.78904
998.318	1.50751
1001.69	1.42892
1005.07	1.54666
1008.44	1.06525
1011.82	2.56561
1015.19	2.91694
1018.57	2.69231
1021.94	1.72421
1025.32	0.392259
1028.69	1.84499
1032.07	2.70585
1035.44	3.77219
1038.82	1.75481
1042.19	1.31119
1045.57	1.96775
1048.94	1.46988
1052.32	0.55438
1055.69	2.78132
1059.07	1.87878
1062.44	1.34751
1065.81	0.095727
1069.19	0.390733
1072.56	0.628763
1075.94	1.6009
1079.31	0.32252
1082.69	2.39915
1086.06	1.37204
1089.44	1.98678
1092.81	2.27885
1096.19	0.860315
1099.56	1.68514
1102.94	1.47122
1106.31	2.31469
1109.69	1.5671
1113.06	3.54665
1116.44	1.96213
1119.81	2.18922
1123.19	1.16381
1126.56	0.095596
1129.94	0.589773
1133.31	1.36077
1136.68	2.67096
1140.06	1.46153
1143.43	2.53554
1146.81	1.77337
1150.18	1.96896
1153.56	0.405347
1156.93	1.90463
1160.31	0.441085
1163.68	3.54433
1167.06	1.26536
1170.43	1.23397
1173.81	1.991
1177.18	1.94349
1180.56	2.85064
1183.93	2.24542
1187.31	0.356567
1190.68	2.7184
1194.06	1.51409
1197.43	2.32712
1200.81	1.72411
1204.18	1.93465
1207.56	2.80825
1210.93	2.03135
1214.31	1.19121
1217.68	0.815982
1221.06	1.06939
1224.43	2.03188
1227.81	1.30697
1231.18	1.15684
1234.56	0.527759
1237.93	1.81526
1241.31	1.53247
1244.68	1.66742
1248.05	2.12999
1251.43	1.20857
1254.8	1.67267
1258.18	0.206105
1261.55	2.12474
1264.93	1.84293
1268.3	1.38264
1271.68	4.33559
1275.05	0.415195
1278.43	0.849044
1281.8	0.891869
1285.18	0.017403
1288.55	1.58515
1291.93	1.5478
1295.3	1.4532
1298.68	2.0621
1302.05	1.51944
