Measurement: Raman, 785 nm, unoriented, Raman Data Processed
Mineral: Pyrophanite
Rruff sample: R070211
Ideal chemistry: Mn^2+^TiO_3_
Locality: Harstigen Mine, Pajsberg, Filipstad, Varmland, Sweden
Source: Michael Scott
Description: Red-brown platy crystals with deep red internal hints, associated with barite
Raman shift (cm-1)	intensity
150.911	0
153.803	45.2524
156.696	9.58325
159.589	150.388
162.481	541.764
165.374	965.743
168.267	511.501
171.16	169.584
174.052	51.0102
176.945	23.2981
179.838	5.6355
182.73	144.446
185.623	295.036
188.516	599.124
191.408	922.03
194.301	1294.64
197.194	1940.17
200.087	3182.88
202.979	3558.96
205.872	1929.97
208.765	771.127
211.657	265.47
214.55	86.6633
217.443	15.6228
220.335	6.31714
223.228	106.715
226.121	156.15
229.013	293.424
231.906	496.676
234.799	708.472
237.692	773.599
240.584	753.45
243.477	918.259
246.37	1376.02
249.262	2083.02
252.155	2936.55
255.048	4064.06
257.941	5629.96
260.833	7524.3
263.726	8194.2
266.619	6124.79
269.511	3628.85
272.404	2042.94
275.297	1140.24
278.19	646.793
281.082	334.586
283.975	199.602
286.868	77.9219
289.76	37.2949
292.653	83.2256
295.546	11.6028
298.438	31.8176
301.331	0.351807
304.224	25.3547
307.116	103.394
310.009	207.355
312.902	327.227
315.795	572.359
318.687	894.723
321.58	1342.08
324.473	1790.23
327.365	2360.43
330.258	3132.53
333.151	3735.12
336.043	3487.04
338.936	2700.39
341.829	2151.13
344.721	2202.89
347.614	2486.01
350.507	3115.54
353.4	3892.77
356.292	5298.99
359.185	6494.57
362.078	5157.32
364.97	2609.03
367.863	1190.14
370.756	613.584
373.649	293.408
376.541	120.324
379.434	71.7898
382.327	14.9302
385.219	54.189
388.112	30.0149
391.005	10.0037
393.897	33.488
396.79	91.6033
399.683	127.674
402.575	119.498
405.468	178.05
408.361	126.031
411.254	155.825
414.146	150.879
417.039	145.273
419.932	188.139
422.824	207.807
425.717	228.272
428.61	252.421
431.502	324.186
434.395	379.396
437.288	472.719
440.181	665.745
443.073	889.82
445.966	1091.15
448.859	1464.86
451.751	1971.54
454.644	2561.47
457.537	3286.96
460.43	4167.5
463.322	4757.28
466.215	4791.89
469.108	4009.88
472	2809.99
474.893	1887.98
477.786	1287.44
480.678	943.425
483.571	709.14
486.464	573.971
489.356	523.133
492.249	470.828
495.142	353.748
498.035	372.567
500.927	272.562
503.82	244.834
506.713	173.268
509.605	144.927
512.498	123.876
515.391	130.242
518.284	40.6716
521.176	34.5691
524.069	8.79199
526.962	29.749
529.854	8.59473
532.747	33.7275
535.64	32.166
538.533	1.86719
541.425	17.4722
544.318	2.9082
547.211	28.012
550.103	20.2061
552.996	28.9329
555.889	0.164307
558.781	51.2012
561.674	47.7615
564.567	114.471
567.459	126.074
570.352	209.372
573.245	414.987
576.138	522.742
579.03	705.74
581.923	975.303
584.816	1288.64
587.708	1523.91
590.601	1860.9
593.494	2056.22
596.386	2120.77
599.279	2073.5
602.172	1819.58
605.064	1527.55
607.957	1167.9
610.85	873.299
613.743	582.616
616.635	369.418
619.528	152.024
622.421	-24.8109
625.313	8.05261
628.206	50.6968
631.099	68.09
633.991	69.3983
636.884	16.9521
639.777	82.0132
642.67	256.456
645.562	456.477
648.455	748.905
651.348	1121.58
654.24	1695.99
657.133	2530.23
660.026	3492.86
662.918	4915.12
665.811	6609.13
668.704	8976.85
671.597	11961.4
674.489	15610.1
677.382	19599.1
680.275	23026.3
683.167	25037.8
686.06	24456.2
688.953	21730.1
691.846	18153.8
694.738	15119.4
697.631	12465
700.524	10342.1
703.416	8853.86
706.309	7500.01
709.202	6248.32
712.094	5214.76
714.987	4312.85
717.88	3618.56
720.773	3040.07
723.665	2592.97
726.558	2179.71
729.451	1877.84
732.343	1610.9
735.236	1296.35
738.129	1173.7
741.021	977.965
743.914	809.438
746.807	657.231
749.699	530.224
752.592	460.994
755.485	263.684
758.378	185.906
761.27	148.457
764.163	44.2583
767.056	14.0801
769.948	15.1123
772.841	13.1724
775.734	60.3567
778.626	4.875
781.519	49.967
784.412	45.5403
787.305	4.39307
790.197	5.97021
793.09	3.76978
795.983	8.95264
798.875	20.0237
801.768	4.44629
804.661	0.787354
807.553	22.1821
810.446	42.3252
813.339	40.9419
816.232	42.562
819.124	95.6585
822.017	117.223
824.91	120.556
827.802	163.68
830.695	175.007
833.588	151.094
836.481	218.707
839.373	215.733
842.266	215.215
845.159	195.33
848.051	213.805
850.944	177.166
853.837	161.578
856.729	131.344
859.622	133.869
862.515	111.204
865.408	106.902
868.3	66.4446
871.193	79.4512
874.086	71.4502
876.978	77.8516
879.871	75.9517
882.764	46.6833
885.656	62.5823
888.549	106.28
891.442	86.9228
894.335	97.5105
897.227	75.6797
900.12	55.6165
903.013	53.1731
905.905	55.0496
908.798	95.9893
911.691	51.6956
914.583	36.4678
917.476	44.637
920.369	60.5205
923.261	58.9431
926.154	50.5503
929.047	88.8303
931.94	111.615
934.832	55.553
937.725	77.5476
940.618	82.8179
943.51	104.187
946.403	77.3162
949.296	79.9416
952.188	92.9646
955.081	88.845
957.974	79.2175
960.867	53.7246
963.759	33.7522
966.652	32.4785
969.545	11.2766
972.437	6.24414
975.33	29.8296
978.223	13.7734
981.115	9.53174
984.008	15.1411
986.901	42.5986
989.794	15.0112
992.686	43.6741
995.579	25.7449
998.472	16.9722
1001.36	65.0503
1004.26	44.4258
1007.15	61.2244
1010.04	19.1184
1012.93	49.0427
1015.83	9.46729
1018.72	31.217
1021.61	47.6472
1024.51	23.325
1027.4	16.1987
1030.29	33.5684
1033.18	9.4209
1036.08	41.54
1038.97	50.4939
1041.86	25.9861
1044.76	69.322
1047.65	54.331
1050.54	52.6565
1053.43	55.552
1056.33	55.8335
1059.22	31.5476
1062.11	69.8391
1065	48.8162
1067.9	30.7559
1070.79	50.4522
1073.68	15.4529
1076.58	22.0852
1079.47	33.5159
1082.36	48.0625
1085.25	16.3142
1088.14	26.3733
1091.04	21.2004
1093.93	48.6548
1096.82	55.8057
1099.72	46.5261
1102.61	80.2388
1105.5	66.2246
1108.39	15.4758
1111.29	2.69971
1114.18	2.8042
1117.07	18.6768
1119.96	6.95728
1122.86	22.4563
1125.75	1.42285
1128.64	0.551514
1131.54	3.15161
1134.43	4.06177
1137.32	25.303
1140.21	55.1865
1143.11	54.615
1146	30.9106
1148.89	42.689
1151.79	83.8225
1154.68	63.169
1157.57	73.2395
1160.46	42.9021
1163.36	41.2629
1166.25	55.751
1169.14	60.0449
1172.03	40.3535
1174.93	17.4334
1177.82	46.792
1180.71	8.72754
1183.6	7.12231
1186.5	25.4582
1189.39	33.073
1192.28	10.946
1195.17	34.6301
1198.07	50.1033
1200.96	47.3503
1203.85	87.6914
1206.75	62.335
1209.64	60.9277
1212.53	83.2644
1215.42	45.6545
1218.32	48.3755
1221.21	17.9722
1224.1	13.9756
1226.99	12.4941
1229.89	45.6597
1232.78	0.689209
1235.67	2.65112
