Measurement: Raman, 514 nm, unoriented, Raman Data Processed
Mineral: Pyromorphite
Rruff sample: R050015
Ideal chemistry: Pb_5_(PO_4_)_3_Cl
Locality: Bunker Hill mine, Shoshone County, Idaho, USA
Source: Eugene Schlepp
Description: Yellowish green prismatic hexagonal single crystals
Measured chemistry: Pb_5.00_((P_0.88_As_0.12_)O_4_)_3_Cl_1.00_
Raman shift (cm-1)	intensity
73.842	0
78.031	2520.96
82.218	4570.77
86.404	14140.4
90.587	15230.9
94.768	5911.21
98.947	4771.32
103.124	12414.1
107.3	15786.6
111.473	7345.07
115.644	2430.55
119.813	532.675
123.981	304.25
128.146	500.433
132.309	148.539
136.47	217.858
140.63	1022.1
144.787	1665.29
148.942	2404.09
153.096	2880.78
157.247	3221.28
161.396	3543.45
165.544	3966.45
169.689	4608.06
173.833	5703.47
177.974	6558.95
182.114	6704.7
186.251	6599.85
190.387	5678.52
194.52	4356.86
198.652	3186.08
202.782	2321.12
206.909	1965.28
211.035	1468.13
215.159	945.44
219.281	732.098
223.4	482.094
227.518	322.413
231.634	101.026
235.748	33.77
239.86	105.801
243.97	111.635
248.079	147.486
252.185	144.406
256.289	148.488
260.391	119.981
264.492	98.201
268.59	32.186
272.687	24.056
276.781	47.357
280.874	61.003
284.964	116.334
289.053	182.153
293.14	224.965
297.225	209.624
301.308	303.458
305.389	485.316
309.468	752.219
313.545	1081.19
317.62	1438.26
321.693	1788.7
325.765	1933.66
329.834	1983.01
333.902	1981.1
337.967	2122.95
342.031	2234.06
346.093	2213.21
350.153	2064.95
354.21	1889.78
358.267	1671.93
362.321	1571.79
366.373	1607.95
370.423	1742.05
374.471	1928.81
378.518	2339.1
382.563	3164.42
386.605	4735.03
390.646	6820.35
394.685	6715.8
398.722	4714.55
402.757	4728.25
406.79	6847.64
410.821	8088.61
414.851	5852.38
418.878	4184.68
422.904	2720.08
426.927	1870.66
430.949	1458.95
434.969	1248.52
438.987	1052.53
443.003	893.263
447.018	797.91
451.03	697.13
455.041	711.205
459.049	626.152
463.056	557.378
467.061	554.716
471.064	527.368
475.065	503.155
479.064	415.316
483.062	431.229
487.057	415.927
491.051	389.12
495.043	390.963
499.032	436.213
503.02	451.73
507.007	429.617
510.991	432.904
514.973	427.733
518.954	419.902
522.933	443.268
526.91	454.816
530.885	478.988
534.858	530.669
538.829	659.083
542.799	872.509
546.766	893.085
550.732	1160.42
554.696	1225.95
558.658	796.71
562.618	589.23
566.576	573.366
570.533	735.139
574.488	1030.26
578.44	681.038
582.391	527.32
586.341	429.006
590.288	428.916
594.233	338.266
598.177	340.777
602.119	333.932
606.059	304.33
609.997	323.149
613.933	285.904
617.868	266.017
621.801	246.48
625.731	239.425
629.66	197.363
633.588	227.804
637.513	176.343
641.437	176.691
645.358	91.928
649.278	140.755
653.196	95.324
657.113	75.176
661.027	57.144
664.94	12.91
668.851	47.588
672.76	33.037
676.667	8.525
680.572	41.43
684.476	40.627
688.378	19.58
692.278	22.855
696.176	54.171
700.072	40.88
703.967	28.997
707.86	3.421
711.751	13.469
715.64	37.738
719.527	22.378
723.413	59.321
727.297	70.535
731.179	58.669
735.059	27.872
738.937	59.842
742.814	51.006
746.689	11.585
750.562	7.945
754.433	50.912
758.303	105.082
762.17	123.089
766.036	192.247
769.901	282.522
773.763	503.558
777.624	933.621
781.482	1331.46
785.339	1654.18
789.195	1740.22
793.048	1333.13
796.9	1219.1
800.75	1555.97
804.598	1884.01
808.445	2730.18
812.289	6370.27
816.132	19233.4
819.973	27341.1
823.813	10851.7
827.65	4516.69
831.486	2444.55
835.32	1659.03
839.152	1334.9
842.983	1103.92
846.812	1056.46
850.639	1063.17
854.464	909.169
858.288	583.541
862.11	379.795
865.93	235.116
869.748	149.658
873.564	132.44
877.379	97.732
881.192	129.034
885.004	170.94
888.813	223.672
892.621	309.775
896.427	454.064
900.232	681.236
904.034	1079.73
907.835	2288.92
911.634	4664.62
915.432	12817.8
919.227	28929.4
923.021	19370.5
926.813	10162.1
930.604	7563.19
934.393	9056.82
938.18	13796
941.965	22031.6
945.749	27784.8
949.53	22937.4
953.311	14363.5
957.089	8758.15
960.866	5643.27
964.641	4006.88
968.414	3217
972.185	2891.65
975.955	2929.8
979.723	2916.44
983.49	2720.57
987.254	2490.27
991.017	2203.57
994.779	1952.45
998.538	2122.91
1002.3	2480.96
1006.05	2879.63
1009.81	3398.91
1013.56	3735.82
1017.31	3878.27
1021.06	3800.32
1024.81	3434.94
1028.55	2926.04
1032.3	2375.82
1036.04	2043.98
1039.78	1699.61
1043.52	1467.34
1047.26	1293.24
1050.99	1098
1054.73	979.499
1058.46	824.733
1062.19	695.429
1065.92	658.573
1069.65	630.771
1073.37	621.413
1077.1	603.873
1080.82	646.39
1084.54	537.059
1088.26	567.265
1091.97	488.393
1095.69	452.283
1099.4	376.232
1103.12	288.261
1106.83	241.475
1110.54	126.921
1114.24	104.056
1117.95	82.128
1121.65	92.702
1125.35	197.41
1129.06	327.155
1132.75	110.993
1136.45	153.98
1140.15	176.655
1143.84	181.495
1147.53	367.231
1151.22	350.025
1154.91	345.976
1158.6	161.996
1162.28	142.375
1165.97	85.856
1169.65	34.488
1173.33	15.565
1177.01	75.111
1180.69	19.89
1184.36	53.34
1188.04	70.472
1191.71	61.159
1195.38	0.549
1199.05	30.507
1202.71	75.247
1206.38	16.118
1210.04	3.071
1213.71	23.659
1217.37	12.796
1221.03	1.271
1224.68	23.68
1228.34	24.966
1231.99	19.842
1235.65	14.546
1239.3	28.479
1242.95	62.641
1246.59	18.949
1250.24	16.526
1253.88	64.963
1257.53	39.615
1261.17	68.521
1264.81	80.13
1268.45	71.176
1272.08	87.842
1275.72	43.128
1279.35	78.995
1282.98	102.412
1286.61	123.401
1290.24	114.342
1293.87	125.551
1297.49	68.417
1301.11	149.802
1304.73	83.095
1308.36	175.85
1311.97	129.11
1315.59	110.987
1319.2	148.134
1322.82	179.729
1326.43	125.242
1330.04	146.457
1333.65	203.41
1337.26	171.732
1340.86	119.452
1344.47	109.046
1348.07	114.543
1351.67	116.677
1355.27	206.485
1358.87	145.544
1362.46	164.985
1366.06	139.344
1369.65	106.114
1373.24	122.509
1376.83	144.095
1380.42	126.537
1384	107.93
1387.59	149.71
1391.17	84.591
1394.75	92.718
1398.33	71.463
1401.91	116.251
1405.49	95.604
1409.06	93.552
1412.64	117.994
1416.21	71.038
1419.78	68.837
1423.35	81.122
1426.91	77.222
1430.48	75.672
1434.05	95.238
1437.61	87.497
1441.17	108.36
1444.73	93.917
1448.29	46.082
1451.84	86.071
1455.4	93.384
1458.95	118.038
1462.5	107.497
1466.05	171.464
1469.6	98.182
1473.15	136.364
1476.69	153.266
1480.24	55.131
1483.78	59.877
1487.32	63.448
1490.86	130.057
1494.39	120.868
1497.93	108.312
1501.46	76.973
1505	14.031
1508.53	30.823
1512.06	49.483
1515.59	51.466
1519.11	8.571
1522.64	0.029
