Measurement: Raman, 780 nm, unoriented, Raman Data Processed
Mineral: Pyrosmalite-(Fe)
Rruff sample: R050158
Ideal chemistry: Fe^2+^_8_Si_6_O_15_(OH)_10_
Locality: Burguillos del Cerro, Badajos, Spain
Source: Jim McGlasson
Description: Green subhedral crystal aggregate
Measured chemistry: (Fe^2+^_0.92_Mn^2+^_0.06_Mg_0.02_)_8_Si_6_O_15_(OH_0.83_Cl_0.17_)_10_
Raman shift (cm-1)	intensity
152.285	0
155.178	0.768875
158.07	11.0461
160.963	22.638
163.856	38.1392
166.749	45.804
169.641	60.5022
172.534	74.2317
175.427	90.9513
178.319	107.342
181.212	128.537
184.105	149.828
186.997	152.245
189.89	136.183
192.783	110.912
195.675	81.8051
198.568	53.0835
201.461	33.0793
204.354	15.4377
207.246	5.02375
210.139	2.00285
213.032	3.47381
215.924	4.11107
218.817	1.85944
221.71	1.55233
224.602	6.37887
227.495	12.8895
230.388	16.9013
233.281	22.2327
236.173	30.5244
239.066	41.3101
241.959	51.1544
244.851	62.9262
247.744	75.0403
250.637	85.2482
253.53	93.2164
256.422	96.4006
259.315	93.125
262.208	90.487
265.1	78.8414
267.993	65.5509
270.886	49.9238
273.778	32.0496
276.671	20.294
279.564	12.8186
282.457	11.1261
285.349	14.4
288.242	21.3165
291.135	26.8073
294.027	37.4725
296.92	44.7872
299.813	59.8956
302.705	74.7413
305.598	93.7699
308.491	110.206
311.384	112.67
314.276	113.968
317.169	122.04
320.062	144.437
322.954	169.614
325.847	185.26
328.74	130.371
331.632	58.3151
334.525	20.9384
337.418	4.32404
340.31	0.915955
343.203	2.20728
346.096	0.278709
348.989	4.23257
351.881	7.80061
354.774	15.2922
357.667	21.8258
360.559	28.0236
363.452	30.5262
366.345	27.1316
369.238	17.2343
372.13	9.88954
375.023	4.02274
377.916	0.682091
380.808	1.25857
383.701	1.31275
386.594	1.1225
389.486	1.77212
392.379	5.41775
395.272	9.57307
398.164	17.443
401.057	25.3004
403.95	32.3404
406.843	39.6284
409.735	47.0339
412.628	54.1847
415.521	61.4097
418.413	62.8139
421.306	54.9557
424.199	40.7879
427.091	27.8425
429.984	20.409
432.877	13.8116
435.77	12.4378
438.662	8.62219
441.555	4.12994
444.448	1.2242
447.34	0.259926
450.233	1.46256
453.126	1.82905
456.019	4.65713
458.911	6.33149
461.804	9.92469
464.697	16.8854
467.589	23.5129
470.482	30.1662
473.375	31.5188
476.267	36.7787
479.16	40.8199
482.053	50.6375
484.945	52.3658
487.838	36.123
490.731	23.2527
493.624	14.8547
496.516	10.6172
499.409	9.92941
502.302	9.47199
505.194	6.97354
508.087	6.25876
510.98	5.12728
513.872	6.53067
516.765	7.87643
519.658	7.61906
522.551	5.26803
525.443	2.25976
528.336	1.65156
531.229	1.55461
534.121	1.0192
537.014	0.548584
539.907	0.957153
542.799	0.020596
545.692	0.917038
548.585	0.090599
551.478	0.740967
554.37	0.488754
557.263	1.65622
560.156	1.39737
563.048	2.53914
565.941	2.95901
568.834	3.22702
571.726	5.07561
574.619	7.20266
577.512	9.05329
580.405	10.4743
583.297	15.9331
586.19	22.6524
589.083	31.4189
591.975	46.905
594.868	73.7757
597.761	115.359
600.653	168.915
603.546	218.864
606.439	271.642
609.332	329.339
612.224	380.593
615.117	395.821
618.01	328.217
620.902	218.969
623.795	129.617
626.688	81.1667
629.58	54.9902
632.473	39.7389
635.366	27.0759
638.259	23.6653
641.151	17.5193
644.044	13.5166
646.937	11.8982
649.829	10.3224
652.722	10.1668
655.615	10.1
658.507	10.4921
661.4	9.24633
664.293	9.20368
667.186	7.53491
670.078	4.77459
672.971	3.6975
675.864	1.25612
678.756	0.486954
681.649	0.152763
684.542	0.36224
687.434	0.028526
690.327	1.39026
693.22	0.794849
696.112	0.724121
699.005	0.306187
701.898	0.49498
704.791	1.70215
707.683	1.14866
710.576	2.51527
713.469	2.72445
716.361	2.86651
719.254	4.11357
722.147	5.09032
725.04	5.11433
727.932	5.00535
730.825	8.08972
733.718	7.66446
736.61	8.17525
739.503	6.59534
742.396	4.79988
745.288	4.24026
748.181	1.4255
751.074	2.48952
753.967	2.07977
756.859	2.14702
759.752	2.35533
762.645	2.97771
765.537	4.77689
768.43	3.58754
771.323	5.00843
774.216	1.72287
777.108	1.16775
780.001	0.253223
782.894	0.546078
785.786	0.202087
788.679	0.316795
791.572	2.71769
794.464	3.36914
797.357	5.16806
800.25	5.58916
803.143	10.0321
806.035	11.8975
808.928	14.3088
811.821	16.9456
814.713	16.508
817.606	14.8019
820.499	15.4074
823.391	10.3108
826.284	6.70748
829.177	4.02874
832.069	2.68178
834.962	1.6404
837.855	2.62153
840.748	1.70705
843.64	2.62693
846.533	2.41531
849.426	1.71708
852.318	2.4528
855.211	1.55215
858.104	3.7785
860.996	2.2481
863.889	2.7255
866.782	3.49008
869.675	1.72656
872.567	1.52935
875.46	2.47824
878.353	2.26585
881.245	1.17582
884.138	1.84061
887.031	1.3502
889.923	1.28187
892.816	0.162453
895.709	0.166935
898.602	0.304012
901.494	0.914227
904.387	0.519833
907.28	0.108459
910.172	1.00615
913.065	1.23489
915.958	0.079039
918.85	0.281742
921.743	0.753386
924.636	1.63314
927.529	0.112253
930.421	0.67952
933.314	0.156712
936.207	1.62702
939.099	2.50349
941.992	0.987171
944.885	1.25335
947.777	0.073895
950.67	0.860123
953.563	0.59745
956.456	0.083647
959.348	0.405045
962.241	2.08728
965.134	1.58883
968.026	0.03586
970.919	0.651894
973.812	0.505596
976.704	1.0881
979.597	1.26299
982.49	2.50326
985.383	1.04397
988.275	2.46962
991.168	4.02725
994.061	5.31897
996.953	6.89743
999.846	8.26109
1002.74	12.6349
1005.63	17.2878
1008.52	25.2528
1011.42	34.4406
1014.31	44.8593
1017.2	55.5281
1020.1	64.0594
1022.99	69.0713
1025.88	65.8885
1028.77	56.194
1031.67	43.1276
1034.56	33.5528
1037.45	24.3107
1040.34	18.6536
1043.24	15.6056
1046.13	12.6902
1049.02	9.47922
1051.91	7.21846
1054.81	6.16251
1057.7	5.22969
1060.59	2.75585
1063.48	3.32138
1066.38	2.15552
1069.27	1.5481
1072.16	2.30141
1075.06	1.01484
1077.95	1.49309
1080.84	0.829197
1083.73	0.800156
1086.63	0.136539
1089.52	0.581661
1092.41	0.625256
1095.31	0.642445
1098.2	0.114487
1101.09	1.15119
1103.98	0.656084
1106.88	1.41205
1109.77	1.424
1112.66	2.95315
1115.55	3.76652
1118.45	5.92261
1121.34	5.03409
1124.23	4.73282
1127.12	5.54256
1130.02	5.06623
1132.91	3.88626
1135.8	2.33799
1138.7	2.09683
1141.59	2.006
1144.48	1.89416
1147.37	0.927372
1150.27	0.169851
1153.16	0.598909
1156.05	0.453131
1158.94	0.211781
1161.84	1.08946
1164.73	2.22816
1167.62	1.66225
1170.52	0.023411
1173.41	1.67143
1176.3	1.62848
1179.19	2.35372
1182.09	1.56238
1184.98	1.49067
1187.87	1.42732
1190.76	1.87001
1193.66	1.94307
1196.55	1.20739
1199.44	0.877626
1202.34	1.1155
1205.23	0.985212
1208.12	0.141565
1211.01	1.23245
1213.91	1.93445
1216.8	0.330013
1219.69	1.05024
1222.58	1.76768
1225.48	1.23516
1228.37	0.531124
1231.26	1.2022
1234.15	0.146288
1237.05	0.052383
1239.94	0.825924
1242.83	0.853868
1245.72	0.989357
1248.62	0.102438
1251.51	1.19313
1254.4	1.11206
1257.3	1.71446
1260.19	0.153868
1263.08	1.72873
1265.97	0.519077
1268.87	0.86198
1271.76	1.76445
1274.65	2.27307
1277.55	1.42209
1280.44	1.04992
1283.33	0.390211
1286.22	0.76301
