Measurement: Raman, 532 nm, unoriented, Raman Data Processed
Mineral: Pyrobelonite
Rruff sample: R080057
Ideal chemistry: PbMn^2+^VO_4_(OH)
Locality: Ty Coch Manganese mine, Glamorgan County, Wales, United Kingdom
Source: Michael Scott
Description: Fiery-red grains on light-pink calcite vein
Raman shift (cm-1)	intensity
127.012	0
130.387	3.23052
133.762	12.3475
137.137	19.442
140.511	26.1475
143.886	30.2177
147.261	37.7363
150.636	41.424
154.011	42.1272
157.386	36.8024
160.76	28.7453
164.135	26.659
167.51	27.8295
170.885	29.2399
174.26	35.1805
177.634	43.4935
181.009	40.8399
184.384	23.4703
187.759	12.0618
191.134	5.11086
194.508	2.57964
197.883	0.018852
201.258	2.10898
204.633	1.09956
208.008	0.719849
211.382	0.271454
214.757	0.023941
218.132	0.242714
221.507	0.341919
224.882	2.29705
228.257	2.10696
231.631	3.86401
235.006	2.86408
238.381	1.41655
241.756	1.74927
245.131	1.31435
248.506	0.214699
251.88	0.224426
255.255	0.600166
258.63	0.532112
262.005	1.13477
265.38	0.114151
268.754	1.35364
272.129	5.57466
275.504	10.0676
278.879	19.8166
282.254	32.3948
285.628	46.019
289.003	63.2822
292.378	82.6877
295.753	102.733
299.128	121.072
302.503	128.779
305.877	120.316
309.252	117.425
312.627	126.054
316.002	149.643
319.377	181.754
322.752	218.176
326.126	257.014
329.501	286.762
332.876	286.427
336.251	246.208
339.625	193.534
343	141.655
346.375	99.8863
349.75	70.9373
353.125	48.5037
356.5	31.5368
359.875	16.6807
363.249	8.67723
366.624	6.31873
369.999	7.07695
373.374	9.537
376.748	8.87236
380.123	2.89731
383.498	1.46384
386.873	2.83072
390.248	0.747101
393.623	3.33426
396.997	7.40111
400.372	16.3615
403.747	36.7026
407.122	63.7092
410.497	100.365
413.872	145.712
417.246	201.213
420.621	251.056
423.996	274.81
427.371	256.048
430.746	217.023
434.12	172.052
437.495	127.158
440.87	90.3826
444.245	62.8575
447.62	45.9491
450.995	32.4029
454.369	23.7414
457.744	17.197
461.119	11.8437
464.494	7.28168
467.869	6.20639
471.243	2.67084
474.618	1.41925
477.993	0.647324
481.368	0.687836
484.743	1.41116
488.118	1.12698
491.492	0.947098
494.867	0.38166
498.242	0.446213
501.617	0.14061
504.991	0.252327
508.366	1.86
511.741	2.40245
515.116	2.51099
518.491	4.89254
521.866	5.43905
525.24	7.85991
528.615	8.13218
531.99	8.88488
535.365	9.004
538.74	10.7557
542.115	11.6802
545.489	11.9983
548.864	10.8515
552.239	11.9829
555.614	12.8119
558.989	12.754
562.363	13.5857
565.738	15.0371
569.113	16.0398
572.488	16.1542
575.863	15.1428
579.237	18.5589
582.612	18.5008
585.987	20.0861
589.362	19.9686
592.737	21.9012
596.112	21.5338
599.486	23.7638
602.861	25.1452
606.236	27.5361
609.611	27.8183
612.986	28.4676
616.361	25.8224
619.735	25.4731
623.11	22.7292
626.485	19.2379
629.86	16.9475
633.235	13.3363
636.609	11.3267
639.984	8.81574
643.359	5.88817
646.734	4.46805
650.109	0.960571
653.484	1.12659
656.858	1.41869
660.233	4.00005
663.608	4.62444
666.983	2.99991
670.357	1.99815
673.732	2.71054
677.107	10.3651
680.482	20.2083
683.857	32.4212
687.232	47.4172
690.606	65.3026
693.981	79.019
697.356	81.4699
700.731	73.5567
704.106	56.2801
707.481	39.7773
710.855	27.5893
714.23	23.7849
717.605	29.3491
720.98	50.7979
724.355	89.0216
727.729	160.05
731.104	271.432
734.479	442.887
737.854	699.682
741.229	1045.89
744.604	1462.82
747.978	1904.93
751.353	2219.16
754.728	2203.99
758.103	1832.32
761.477	1339.74
764.852	937.911
768.227	660.71
771.602	478.327
774.977	353.236
778.352	259.276
781.726	184.066
785.101	117.145
788.476	70.7751
791.851	37.3017
795.226	14.0916
798.601	1.35458
801.975	4.78015
805.35	5.80579
808.725	3.16507
812.1	3.0882
815.475	16.2359
818.849	33.9773
822.224	54.1451
825.599	83.759
828.974	120.596
832.349	158.908
835.723	197.5
839.098	250.785
842.473	319.325
845.848	409.348
849.223	511.375
852.598	601.923
855.972	575.309
859.347	398.552
862.722	208.79
866.097	100.622
869.472	47.3189
872.846	21.246
876.221	8.57452
879.596	2.42969
882.971	1.78377
886.346	2.80382
889.721	2.88068
893.095	2.229
896.47	0.917313
899.845	3.45714
903.22	8.31459
906.595	8.84662
909.97	8.08391
913.344	12.013
916.719	13.4209
920.094	15.4916
923.469	17.0501
926.844	18.9231
930.218	21.2086
933.593	22.6599
936.968	21.9506
940.343	24.0757
943.718	21.1532
947.092	18.3134
950.467	16.0564
953.842	14.0085
957.217	12.1615
960.592	11.8757
963.966	11.3035
967.341	9.49742
970.716	7.61791
974.091	8.9321
977.466	7.09456
980.841	6.9637
984.215	7.28508
987.59	4.85744
990.965	3.42618
994.34	2.64812
997.715	2.49994
1001.09	2.18527
1004.46	3.09673
1007.84	2.44486
1011.21	2.32564
1014.59	1.70874
1017.96	1.49274
1021.34	1.36446
1024.71	0.04715
1028.09	0.782425
1031.46	0.247696
1034.84	0.953781
1038.21	0.60936
1041.59	0.280807
1044.96	0.572769
1048.34	5.29062
1051.71	5.77
1055.09	0.777466
1058.46	2.40587
1061.84	0.616455
1065.21	0.048874
1068.59	0.230377
1071.96	1.07031
1075.34	1.6711
1078.71	2.34454
1082.09	5.44661
1085.46	8.06197
1088.84	8.55579
1092.21	5.65889
1095.58	3.58701
1098.96	4.67715
1102.33	4.67303
1105.71	5.23807
1109.08	6.18533
1112.46	5.37631
1115.83	6.44974
1119.21	6.39867
1122.58	6.47278
1125.96	5.98779
1129.33	3.62671
1132.71	4.30327
1136.08	2.91475
1139.46	3.25932
1142.83	2.90854
1146.21	3.9364
1149.58	4.98245
1152.96	4.39868
1156.33	6.83404
1159.71	7.45691
1163.08	9.10065
1166.45	9.24533
1169.83	8.74017
1173.2	7.26892
1176.58	9.13193
1179.95	9.3895
1183.33	7.85907
1186.7	8.17777
1190.08	8.6478
1193.45	5.54034
1196.83	6.48642
1200.2	5.12112
1203.58	5.73477
1206.95	4.54318
1210.33	2.75745
1213.7	2.70606
1217.08	3.40396
1220.45	0.797882
1223.83	1.42313
1227.2	2.67175
1230.58	0.742188
1233.95	0.4935
1237.33	1.77109
1240.7	0.314453
1244.08	0.337524
1247.45	0.103882
1250.83	0.418457
1254.2	0.424011
1257.58	0.649811
1260.95	4.02634
1264.33	2.15964
1267.7	3.59006
1271.08	4.42773
1274.45	4.19311
1277.82	1.4606
1281.2	2.0321
1284.57	2.21698
1287.95	1.58875
1291.32	1.2084
1294.7	2.44986
1298.07	0.81665
1301.45	0.343567
1304.82	0.560455
