Measurement: Raman, 785 nm, unoriented, Raman Data Processed
Mineral: Pyroxmangite
Rruff sample: R070212
Ideal chemistry: Mn^2+^SiO_3_
Locality: Isanago mine,  Ohro (Ōro; Ouro; Ooro),  Naka-gun,  Kyoto Prefecture,  Kinki Region,  Honshu Island,  Japan
Source: Michael Scott
Description: Pale yellow to brown semitransparent massive associated with quartz
Measured chemistry: (Mn_0.47_Fe^2+^_0.39_Mg_0.08_Ca_0.06_)_Σ=1_Si_1.00_O_3_ ; veins: (Mn_0.35_Fe_0.26_Ca_0.22_Mg_0.17_)_Σ=1_CO_3_ (rhodochrosite)
Raman shift (cm-1)	intensity
185.623	0
188.516	25.1736
191.408	0.621094
194.301	35.9429
197.194	147.86
200.087	197.844
202.979	215.85
205.872	210.134
208.765	179.178
211.657	123.907
214.55	131.041
217.443	90.5906
220.335	50.7544
223.228	83.7246
226.121	8.8999
229.013	4.38623
231.906	3.61011
234.799	28.5835
237.692	7.84546
240.584	25.4683
243.477	2.73804
246.37	29.5339
249.262	18.146
252.155	62.8159
255.048	152.818
257.941	191.682
260.833	365.16
263.726	513.577
266.619	540.961
269.511	464.68
272.404	381.61
275.297	357.18
278.19	328.67
281.082	335.818
283.975	380.846
286.868	411.008
289.76	392.906
292.653	441.132
295.546	385.017
298.438	405.098
301.331	402.072
304.224	427.756
307.116	423.94
310.009	424.193
312.902	474.026
315.795	512.443
318.687	564.453
321.58	673.886
324.473	795.18
327.365	873.357
330.258	989.12
333.151	1085.27
336.043	1069.21
338.936	1034.22
341.829	775.961
344.721	620.087
347.614	456.958
350.507	388.915
353.4	415.394
356.292	367.412
359.185	263
362.078	229.393
364.97	160.214
367.863	121.584
370.756	86.9712
373.649	57.3457
376.541	4.21362
379.434	17.626
382.327	50.0227
385.219	37.5872
388.112	68.9285
391.005	121.734
393.897	199.689
396.79	221.612
399.683	189.44
402.575	212.326
405.468	263.93
408.361	354.701
411.254	462.178
414.146	585.001
417.039	805.558
419.932	916.633
422.824	918.047
425.717	739.704
428.61	445.632
431.502	256.219
434.395	114.727
437.288	61.2432
440.181	46.4392
443.073	12.4673
445.966	14.0576
448.859	45.314
451.751	123.685
454.644	248.429
457.537	441.796
460.43	838.213
463.322	1262.41
466.215	1091.64
469.108	560.209
472	315.101
474.893	207.222
477.786	129.827
480.678	72.5986
483.571	55.7004
486.464	73.4116
489.356	78.2734
492.249	114.091
495.142	106.386
498.035	54.3528
500.927	71.5808
503.82	29.7612
506.713	73.8032
509.605	155.983
512.498	266.897
515.391	357.907
518.284	412.233
521.176	451.378
524.069	394.871
526.962	285.885
529.854	171.739
532.747	51.1094
535.64	47.4802
538.533	57.5312
541.425	70.4973
544.318	15.9197
547.211	48.2407
550.103	66.2112
552.996	97.4177
555.889	91.564
558.781	83.6235
561.674	47.5981
564.567	44.564
567.459	74.1504
570.352	69.771
573.245	55.7685
576.138	89.8389
579.03	99.7092
581.923	82.9558
584.816	44.9062
587.708	4.25903
590.601	27.9907
593.494	16.4651
596.386	3.1084
599.279	21.8506
602.172	42.2542
605.064	4.62842
607.957	4.75757
610.85	17.9885
613.743	44.9753
616.635	69.3823
619.528	64.0662
622.421	127.629
625.313	179.739
628.206	205.095
631.099	309.804
633.991	376.606
636.884	503.46
639.777	695.928
642.67	1008.74
645.562	1449.39
648.455	2021.26
651.348	2697.89
654.24	3441.53
657.133	4194.36
660.026	4948.13
662.918	5702.47
665.811	6240.12
668.704	6139.1
671.597	5016.08
674.489	3520.04
677.382	2347.76
680.275	1638.58
683.167	1145.94
686.06	935.413
688.953	864.118
691.846	811.514
694.738	847.349
697.631	898.878
700.524	789.521
703.416	720.491
706.309	537.089
709.202	402.006
712.094	285.973
714.987	196.945
717.88	162.251
720.773	151.984
723.665	113.978
726.558	99.558
729.451	75.1002
732.343	54.6149
735.236	50.2477
738.129	11.8677
741.021	21.9318
743.914	67.2635
746.807	17.8696
749.699	7.5249
752.592	38.0525
755.485	37.9504
758.378	18.7142
761.27	25.8539
764.163	42.7058
767.056	0.550537
769.948	27.358
772.841	8.66065
775.734	41.0378
778.626	3.20606
781.519	0.316406
784.412	18.1284
787.305	35.943
790.197	44.3959
793.09	67.3119
795.983	97.1511
798.875	35.046
801.768	83.2114
804.661	64.4733
807.553	34.6475
810.446	49.9496
813.339	61.5414
816.232	55.9612
819.124	44.4268
822.017	60.1338
824.91	61.7521
827.802	58.6882
830.695	77.9988
833.588	22.3945
836.481	29.5051
839.373	51.0244
842.266	18.3906
845.159	2.49182
848.051	32.8278
850.944	2.02844
853.837	39.3219
856.729	42.809
859.622	72.6299
862.515	108.21
865.408	139.767
868.3	165.773
871.193	177.518
874.086	158.885
876.978	170.594
879.871	100.653
882.764	62.4266
885.656	74.4001
888.549	53.8969
891.442	70.3394
894.335	54.5063
897.227	59.4293
900.12	80.0319
903.013	40.7246
905.905	17.9615
908.798	18.1883
911.691	4.77783
914.583	28.7551
917.476	6.93262
920.369	44.6157
923.261	18.8478
926.154	57.6331
929.047	79.1199
931.94	120.076
934.832	114.959
937.725	147.884
940.618	111.26
943.51	140.606
946.403	183.593
949.296	232.924
952.188	298.85
955.081	448.286
957.974	643.182
960.867	884.529
963.759	1245.43
966.652	1572.89
969.545	1924.57
972.437	2123.77
975.33	2145.05
978.223	2044.17
981.115	1886.95
984.008	1886.45
986.901	1991.31
989.794	2074.8
992.686	2178.43
995.579	2145.55
998.472	2027.45
1001.36	1835.6
1004.26	1620.89
1007.15	1399.98
1010.04	1302.71
1012.93	1199.89
1015.83	1172.65
1018.72	1014.55
1021.61	814.245
1024.51	628.229
1027.4	447.658
1030.29	297.38
1033.18	235.15
1036.08	218.031
1038.97	130.736
1041.86	68.7777
1044.76	41.022
1047.65	2.67248
1050.54	9.50098
1053.43	10.0276
1056.33	7.28748
1059.22	1.24695
1062.11	35.4717
1065	19.9961
1067.9	12.7902
1070.79	16.946
1073.68	28.6547
1076.58	35.5321
1079.47	74.1207
1082.36	112.092
1085.25	118.049
1088.14	85.2406
1091.04	93.9465
1093.93	76.8135
1096.82	37.6608
1099.72	46.0623
1102.61	34.0431
1105.5	36.3876
1108.39	41.6101
1111.29	20.2667
1114.18	31.2666
1117.07	27.8666
1119.96	2.88513
1122.86	8.39795
1125.75	16.9603
1128.64	18.6119
1131.54	23.1574
1134.43	25.4008
1137.32	27.0734
1140.21	35.6058
1143.11	1.90064
1146	36.8917
1148.89	32.1713
1151.79	52.5605
1154.68	47.874
1157.57	55.0787
1160.46	68.4426
1163.36	56.7691
1166.25	80.7029
1169.14	42.3182
1172.03	30.0824
1174.93	28.9466
1177.82	45.8115
1180.71	54.7303
1183.6	34.6262
1186.5	38.9628
1189.39	4.1098
1192.28	13.705
1195.17	49.6916
1198.07	25.3794
1200.96	42.2238
1203.85	34.6949
1206.75	43.9066
1209.64	47.8234
1212.53	37.7971
1215.42	7.94574
1218.32	32.1582
1221.21	27.579
1224.1	16.4175
1226.99	7.32672
1229.89	35.5214
1232.78	30.6993
1235.67	0.145386
