Measurement: Raman, 785 nm, unoriented, Raman Data Processed
Mineral: Pyrope
Rruff sample: R040159
Ideal chemistry: Mg_3_Al_2_(SiO_4_)_3_
Locality: Meronitz, Bohemia
Source: University of Arizona Mineral Museum
Description: Deep red crystal fragments
Measured chemistry: (Mg_2.17_Fe^2+^_0.47_Ca_0.34_Mn_0.02_)_Σ=3_(Al_1.86_Cr_0.11_Ti_0.03_)_Σ=2_((Si_0.99_Al_0.01_)_Σ=1_O_4_)_3_; trace amounts of Rb?
Raman shift (cm-1)	intensity
145.607	0
148.5	50.0761
151.393	82.4406
154.286	45.0824
157.178	10.1176
160.071	5.82294
162.964	30.9442
165.856	17.1423
168.749	57.8373
171.642	82.7421
174.534	48.095
177.427	107.153
180.32	112.713
183.212	151.808
186.105	172.98
188.998	208.18
191.891	259.154
194.783	270.952
197.676	314.333
200.569	342.237
203.461	344.485
206.354	358.836
209.247	328.685
212.139	294.48
215.032	244.784
217.925	201.66
220.818	180.833
223.71	105.359
226.603	84.9838
229.496	89.8643
232.388	96.4171
235.281	60.015
238.174	69.5292
241.066	69.5889
243.959	76.1892
246.852	73.9061
249.745	41.7004
252.637	40.309
255.53	44.2849
258.423	29.7504
261.315	25.0111
264.208	29.4217
267.101	30.1697
269.993	25.4969
272.886	9.36572
275.779	13.1687
278.672	7.66479
281.564	4.67786
284.457	18.4111
287.35	5.41186
290.242	9.17737
293.135	3.88623
296.028	5.6842
298.921	34.2727
301.813	7.69373
304.706	34.4312
307.599	64.7235
310.491	80.8093
313.384	142.073
316.277	150.883
319.169	153.592
322.062	159.657
324.955	177.264
327.847	225.317
330.74	256.678
333.633	339.206
336.526	409.349
339.418	510.955
342.311	649.325
345.204	829.152
348.096	1015.4
350.989	1337.89
353.882	1630.63
356.774	2101.09
359.667	2456.98
362.56	2547.98
365.452	2197.08
368.345	1678.54
371.238	1297.84
374.131	1018.67
377.023	814.091
379.916	644.905
382.809	517.961
385.701	389.063
388.594	295.769
391.487	249.513
394.38	175.219
397.272	143.889
400.165	100.5
403.058	68.5196
405.95	48.1022
408.843	45.062
411.736	38.3761
414.628	14.5983
417.521	42.8688
420.414	19.5281
423.307	20.0699
426.199	20.626
429.092	8.55493
431.985	14.4369
434.877	7.62061
437.77	2.77075
440.663	11.5912
443.555	7.72729
446.448	9.24353
449.341	27.0515
452.234	27.3397
455.126	20.3875
458.019	19.2954
460.912	37.7125
463.804	46.71
466.697	60.3776
469.59	62.2651
472.483	81.1837
475.375	82.4108
478.268	138.769
481.161	137.959
484.053	187.674
486.946	197.022
489.839	154.002
492.731	113.498
495.624	124.114
498.517	103.235
501.409	169.214
504.302	238.893
507.195	346.017
510.088	357.754
512.98	270.096
515.873	178.341
518.766	141.543
521.658	117.784
524.551	119.91
527.444	117.802
530.337	155.778
533.229	154.456
536.122	217.282
539.015	259.2
541.907	364.656
544.8	505.736
547.693	716.16
550.585	1020.44
553.478	1361.04
556.371	1778.91
559.263	1936.45
562.156	1528.52
565.049	908.071
567.942	510.164
570.834	265.196
573.727	147.315
576.62	69.1345
579.512	64.2047
582.405	38.3562
585.298	26.3967
588.19	52.712
591.083	39.3909
593.976	16.3446
596.869	1.66394
599.761	6.6106
602.654	4.20496
605.547	2.40088
608.439	5.65161
611.332	17.5888
614.225	4.79797
617.117	31.001
620.01	2.75488
622.903	29.8972
625.795	58.5065
628.688	101.133
631.581	174.339
634.474	255.556
637.366	409.692
640.259	536.726
643.152	593.056
646.044	457.434
648.937	279.781
651.83	190.589
654.722	128.994
657.615	98.2252
660.508	66.4248
663.401	47.4606
666.293	47.621
669.186	30.429
672.079	13.234
674.971	25.5123
677.864	11.8064
680.757	3.48444
683.649	12.6255
686.542	35.3214
689.435	5.00201
692.328	22.424
695.22	5.22076
698.113	7.20172
701.006	7.55823
703.898	13.2459
706.791	22.2549
709.684	20.2023
712.577	23.5679
715.469	28.3697
718.362	31.644
721.255	41.0179
724.147	48.541
727.04	42.731
729.933	37.4035
732.825	45.1027
735.718	37.0286
738.611	28.9894
741.504	26.5148
744.396	42.502
747.289	76.4843
750.182	50.7423
753.074	63.369
755.967	48.4554
758.86	38.3912
761.752	44.1534
764.645	47.0705
767.538	32.7053
770.431	29.1577
773.323	36.6085
776.216	18.2391
779.109	9.52637
782.001	27.7607
784.894	8.57965
787.787	7.62634
790.679	11.6943
793.572	14.5685
796.465	0.049194
799.357	15.3493
802.25	0.514832
805.143	18.7858
808.036	2.90521
810.928	2.47192
813.821	13.1147
816.714	2.64099
819.606	4.4303
822.499	18.1873
825.392	18.447
828.284	33.8844
831.177	36.5083
834.07	58.147
836.963	118.926
839.855	156.212
842.748	275.529
845.641	379.209
848.533	566.581
851.426	811.283
854.319	1079.06
857.212	1304.38
860.104	1350.4
862.997	1200.55
865.89	870.728
868.782	696.063
871.675	516.825
874.568	404.419
877.46	335.799
880.353	315.633
883.246	343.994
886.139	379.173
889.031	437.703
891.924	523.722
894.817	683.225
897.709	864.627
900.602	1176.15
903.495	1674.03
906.388	2466.51
909.28	3661.66
912.173	5299.78
915.066	6825.32
917.958	7646.05
920.851	6721.57
923.744	4764.02
926.636	3142.77
929.529	2074.62
932.422	1504.34
935.314	1025.82
938.207	664.149
941.1	428.974
943.993	302.947
946.885	190.2
949.778	142.208
952.671	99.8315
955.563	77.5071
958.456	29.4126
961.349	22.4642
964.241	7.62671
967.134	7.42481
970.027	11.1102
972.92	10.5696
975.812	2.06677
978.705	0.36731
981.598	17.9233
984.49	20.2209
987.383	10.3035
990.276	7.48505
993.168	7.81818
996.061	11.3657
998.954	2.84302
1001.85	20.1056
1004.74	11.8289
1007.63	3.52283
1010.52	26.3841
1013.42	49.3508
1016.31	77.7331
1019.2	97.8338
1022.1	106.493
1024.99	125.356
1027.88	145.852
1030.77	162.479
1033.67	192.172
1036.56	200.636
1039.45	263.9
1042.34	305.842
1045.24	374.503
1048.13	466.766
1051.02	498.36
1053.91	506.032
1056.81	422.649
1059.7	327.685
1062.59	200.496
1065.49	146.651
1068.38	86.248
1071.27	61.8884
1074.16	34.6072
1077.06	58.7732
1079.95	11.7795
1082.84	27.2463
1085.73	28.9039
1088.63	6.55524
1091.52	18.5183
1094.41	22.1423
1097.31	25.1493
1100.2	8.79492
1103.09	11.8009
1105.98	38.5909
1108.88	19.7554
1111.77	1.55981
1114.66	10.1598
1117.56	6.20825
1120.45	4.42059
1123.34	3.3493
1126.23	16.9241
1129.12	20.084
1132.02	17.2118
1134.91	11.3295
1137.8	5.11005
1140.7	9.51855
1143.59	0.405457
1146.48	16.477
1149.37	18.0015
1152.27	24.8713
1155.16	9.19745
1158.05	27.9172
1160.94	1.16821
1163.84	32.9936
1166.73	14.723
1169.62	8.9505
1172.52	12.7011
1175.41	25.5921
1178.3	0.015259
1181.19	31.3586
1184.09	22.9869
1186.98	22.1119
1189.87	14.1695
1192.77	27.1822
1195.66	21.9036
1198.55	1.60169
1201.44	14.5313
1204.34	15.973
1207.23	14.0423
1210.12	38.4778
1213.01	33.7306
1215.91	22.8426
1218.8	35.9326
1221.69	7.80377
1224.58	1.17194
1227.48	18.8149
1230.37	43.1106
1233.26	25.7837
1236.15	14.6108
