Measurement: Raman, 532 nm, unoriented, Raman Data Processed
Mineral: Pyromorphite
Rruff sample: R050085
Ideal chemistry: Pb_5_(PO_4_)_3_Cl
Locality: Bunker Hill mine, Shoshone County, Idaho, USA
Source: Eugene Schlepp
Description: Group of orange hexagonal prisms
Measured chemistry: Pb_5.00_(P_0.96_As_0.04_O_4_)_3_Cl_1.00_
Raman shift (cm-1)	intensity
146.287	0
149.662	329.806
153.037	1459.84
156.411	2517.28
159.786	2824.32
163.161	2689.76
166.536	2596.57
169.911	2913.41
173.286	3298.69
176.66	3437.92
180.035	3028.16
183.41	2364.47
186.785	1769.92
190.16	1332.72
193.535	1085.19
196.909	1045.03
200.284	830.76
203.659	763.524
207.034	718.773
210.409	588.449
213.783	483.705
217.158	415.906
220.533	281.983
223.908	130.629
227.283	36.9563
230.657	17.3804
234.032	61.9539
237.407	74.6616
240.782	67.3181
244.157	64.4255
247.532	44.2781
250.906	8.89502
254.281	0.025391
257.656	23.4294
261.031	28.729
264.406	50.0317
267.781	23.6851
271.155	54.7937
274.53	73.0126
277.905	66.6311
281.28	79.7737
284.655	62.4268
288.029	23.5073
291.404	48.8762
294.779	47.3861
298.154	23.8823
301.529	82.4851
304.904	172.174
308.278	334.687
311.653	562.89
315.028	752.168
318.403	928.605
321.778	1024.89
325.152	985.151
328.527	804.37
331.902	674.324
335.277	563.471
338.652	536.391
342.026	557.775
345.401	482.254
348.776	354.135
352.151	170.237
355.526	68.8962
358.901	59.1266
362.275	71.3053
365.65	217.013
369.025	519.319
372.4	912.952
375.775	1517.82
379.149	2345.3
382.524	3494.43
385.899	5115.92
389.274	6884.92
392.649	7272.64
396.024	4854.63
399.398	3189.27
402.773	3065.31
406.148	3794.52
409.523	4668.35
412.898	5205.81
416.272	5320.28
419.647	3859.27
423.022	2094.45
426.397	1144.47
429.772	683.805
433.147	477.363
436.521	348.406
439.896	171.44
443.271	85.1498
446.646	2.08771
450.021	10.8528
453.396	0.577454
456.77	15.9535
460.145	5.77264
463.52	6.98206
466.895	16.8524
470.27	15.4485
473.644	5.71472
477.019	15.7529
480.394	9.96832
483.769	4.99982
487.144	36.9487
490.519	16.399
493.893	30.3659
497.268	63.5471
500.643	75.1978
504.018	90.1757
507.393	80.4302
510.767	75.1384
514.142	94.5838
517.517	111.651
520.892	139.109
524.267	131.599
527.641	193.363
531.016	316.179
534.391	492.245
537.766	813.831
541.141	1210.3
544.516	1209.37
547.89	978.995
551.265	1076.4
554.64	913.887
558.015	512.163
561.39	403.519
564.764	541.13
568.139	761.654
571.514	1153.24
574.889	1384.17
578.264	670.733
581.639	288.501
585.013	162.95
588.388	110.171
591.763	73.709
595.138	64.847
598.513	60.2972
601.888	74.0656
605.262	63.4918
608.637	60.887
612.012	54.2343
615.387	47.8013
618.762	39.4888
622.136	28.033
625.511	24.8767
628.886	11.1197
632.261	19.8755
635.636	3.41144
639.01	5.98853
642.385	17.5502
645.76	3.61255
649.135	7.94104
652.51	3.10211
655.885	7.57141
659.259	10.0879
662.634	1.08289
666.009	12.9468
669.384	3.55457
672.759	2.98431
676.134	6.32648
679.508	18.3439
682.883	0.056763
686.258	2.14166
689.633	12.3422
693.008	5.48413
696.382	15.4786
699.757	9.85553
703.132	10.4576
706.507	2.83813
709.882	0.709839
713.256	5.30609
716.631	0.633423
720.006	5.97333
723.381	13.2014
726.756	7.03235
730.131	8.92639
733.505	0.358765
736.88	4.75769
740.255	11.114
743.63	27.9083
747.005	11.443
750.38	20.068
753.754	56.3051
757.129	103.371
760.504	170.492
763.879	211.307
767.254	320.356
770.628	447.342
774.003	646.466
777.378	992.626
780.753	1252.68
784.128	1479.58
787.503	1547.57
790.877	1400.88
794.252	1376.37
797.627	1656.49
801.002	2112.1
804.377	2988.46
807.751	5312.81
811.126	9469.17
814.501	15376.6
817.876	19500.5
821.251	11539.6
824.625	5290.7
828	3046.07
831.375	1890.18
834.75	1516.73
838.125	1306.48
841.5	1155.16
844.874	1161
848.249	1331.09
851.624	1250.29
854.999	787.337
858.374	323.272
861.749	135.829
865.123	4.68774
868.498	65.918
871.873	113.441
875.248	116.518
878.623	93.9771
881.997	114.932
885.372	50.9399
888.747	64.7681
892.122	195.981
895.497	409.884
898.871	950.082
902.246	2053.42
905.621	4741.29
908.996	10892.6
912.371	21276.8
915.746	36232.6
919.12	42178.4
922.495	23890.1
925.87	11736.5
929.245	7117.19
932.62	6860.73
935.995	8762.97
939.369	12119.2
942.744	14733.3
946.119	14273.9
949.494	10496.5
952.869	6451.77
956.243	3720.25
959.618	2150.3
962.993	1342.57
966.368	1125.71
969.743	1147.6
973.117	1332.24
976.492	1497.22
979.867	1509.64
983.242	1330.23
986.617	1084.16
989.992	1081.17
993.366	1282.15
996.741	1778.78
1000.12	2648.35
1003.49	3473.3
1006.87	4106.2
1010.24	4058.24
1013.62	3395.41
1016.99	2438.39
1020.37	1812.9
1023.74	1340.83
1027.12	934.633
1030.49	640.634
1033.86	384.516
1037.24	250.162
1040.61	157.982
1043.99	153.744
1047.36	24.7602
1050.74	58.646
1054.11	83.7353
1057.49	140.173
1060.86	89.5784
1064.24	70.2666
1067.61	37.0413
1070.99	0.537842
1074.36	81.6167
1077.74	60.7346
1081.11	145.126
1084.49	165.819
1087.86	152.31
1091.24	189.673
1094.61	234.523
1097.99	207.479
1101.36	183.031
1104.73	173.045
1108.11	114.842
1111.48	121.939
1114.86	91.9611
1118.23	70.7344
1121.61	94.8088
1124.98	127.393
1128.36	162.468
1131.73	204.58
1135.11	264.039
1138.48	304.024
1141.86	403.914
1145.23	452.069
1148.61	492.048
1151.98	448.125
1155.36	369.095
1158.73	289.612
1162.11	189.779
1165.48	151.521
1168.86	97.3032
1172.23	66.9867
1175.61	36.6248
1178.98	61.4441
1182.36	31.6732
1185.73	12.91
1189.11	49.4283
1192.48	26.624
1195.86	23.8584
1199.23	9.49854
1202.61	21.8119
1205.98	24.0541
1209.36	37.5079
1212.73	39.0783
1216.1	39.8445
1219.48	56.6838
1222.85	44.329
1226.23	39.5307
1229.6	58.8174
1232.98	34.8046
1236.35	28.4584
1239.73	12.9735
1243.1	30.5959
1246.48	12.8972
1249.85	30.8278
1253.23	25.7058
1256.6	1.61231
1259.98	1.32532
1263.35	1.21661
1266.73	2.11224
1270.1	0.097168
1273.48	5.89868
1276.85	15.79
1280.23	0.265564
1283.6	15.719
1286.98	13.5189
1290.35	8.86768
1293.72	16.9231
1297.1	10.5749
1300.47	22.4604
1303.85	3.3822
1307.22	6.10303
1310.6	15.3303
1313.97	16.2188
