Measurement: Raman, 514 nm, unoriented, Raman Data Processed
Mineral: Pyrope
Rruff sample: R040159
Ideal chemistry: Mg_3_Al_2_(SiO_4_)_3_
Locality: Meronitz, Bohemia
Source: University of Arizona Mineral Museum
Description: Deep red crystal fragments
Measured chemistry: (Mg_2.17_Fe^2+^_0.47_Ca_0.34_Mn_0.02_)_Σ=3_(Al_1.86_Cr_0.11_Ti_0.03_)_Σ=2_((Si_0.99_Al_0.01_)_Σ=1_O_4_)_3_; trace amounts of Rb?
Raman shift (cm-1)	intensity
122.592	0
126.758	42.894
130.922	86.542
135.083	147.311
139.243	185.161
143.401	202.153
147.557	247.369
151.711	165.893
155.863	136.244
160.013	42.342
164.161	36.954
168.308	6.365
172.452	45.203
176.594	46.469
180.734	154.496
184.872	260.821
189.008	373.43
193.143	511.313
197.275	584.469
201.405	607.071
205.534	713.351
209.66	678.158
213.784	433.281
217.907	330.57
222.027	192.887
226.146	194.119
230.263	206.107
234.377	187.853
238.49	251.716
242.601	254.717
246.709	286.858
250.816	311.143
254.921	348.578
259.024	376.176
263.125	363.947
267.224	372.895
271.321	402.025
275.416	418.362
279.51	370.654
283.601	414.063
287.69	422.943
291.778	427.009
295.863	513.394
299.947	506.072
304.029	607.164
308.108	710.562
312.186	802.077
316.262	897.981
320.336	983.742
324.408	1040.56
328.478	1281.23
332.546	1558.17
336.612	2022.19
340.677	2590.78
344.739	3364.48
348.799	4481.54
352.858	6746.72
356.915	9430
360.969	10263.4
365.022	8242.86
369.073	5780.44
373.122	4290.15
377.169	3121.99
381.215	2246.03
385.258	1681.26
389.299	1254.68
393.339	861.317
397.376	588.112
401.412	421.042
405.446	296.146
409.478	201.398
413.508	137.659
417.536	46.333
421.562	2.965
425.586	28.704
429.609	3.506
433.629	11.694
437.648	11.858
441.665	27.943
445.68	7.278
449.693	18.525
453.704	59.193
457.713	83.91
461.721	170.629
465.726	237.357
469.73	306.1
473.731	342.866
477.731	429.663
481.729	529.492
485.725	537.371
489.72	594.296
493.712	509.283
497.703	561.376
501.691	746.546
505.678	989.737
509.663	1055.93
513.646	935.13
517.627	851.328
521.607	884.71
525.584	987.088
529.56	1058.7
533.534	1135.59
537.506	1340.15
541.476	1880.22
545.444	2470.42
549.41	3893.09
553.375	6430.92
557.337	8578.42
561.298	7262.97
565.257	4160.72
569.214	2086.19
573.17	1287.38
577.123	892.164
581.075	712.514
585.024	694.775
588.972	578.031
592.918	515.207
596.863	469.496
600.805	348.599
604.746	752.064
608.685	684.756
612.621	382.915
616.557	303.226
620.49	317.8
624.421	370.205
628.351	423.502
632.279	719.693
636.205	1087.78
640.129	1456.76
644.051	1464.63
647.972	1048.39
651.89	684.037
655.807	485.575
659.722	347.999
663.636	264.309
667.547	159.505
671.457	111.587
675.365	101.555
679.271	93.406
683.175	13.137
687.077	0.701
690.978	1.054
694.877	65.849
698.774	22.153
702.669	49.775
706.562	22.783
710.454	21.138
714.344	28.731
718.232	55.576
722.118	7.255
726.002	8.135
729.885	35.795
733.766	26.666
737.645	37.715
741.522	15.042
745.397	24.714
749.271	31.668
753.143	86.828
757.013	57.242
760.881	36.587
764.748	31.87
768.613	4.092
772.476	16.245
776.337	21.333
780.196	91.362
784.054	82.896
787.91	131.254
791.764	121.123
795.616	125.944
799.467	170.722
803.316	207.457
807.163	208.157
811.008	247.827
814.851	287.485
818.693	405.154
822.533	524.808
826.371	672.438
830.208	1259.05
834.042	786.459
837.875	885.209
841.706	1119.86
845.536	1489.04
849.363	2003.46
853.189	2910.41
857.013	3887.8
860.836	4606.17
864.656	4218.81
868.475	3509.22
872.292	2784.39
876.108	2489.9
879.922	2368.93
883.733	2342.37
887.544	2687.52
891.352	3053.83
895.159	3623.51
898.964	4462.32
902.767	6049.95
906.568	9013.91
910.368	14926.1
914.166	25104
917.962	35291.2
921.757	33310.5
925.55	22079.9
929.341	13145.5
933.13	8377.16
936.918	5615.96
940.703	3816.85
944.488	2682.83
948.27	2068.92
952.051	1668.1
955.83	1391.39
959.607	1265.04
963.383	1104.94
967.156	1019.22
970.928	964.712
974.699	879.51
978.468	833.409
982.234	838.479
986	772.08
989.763	738.339
993.525	678.468
997.285	602.115
1001.04	475.643
1004.8	509.717
1008.55	498.679
1012.31	499.803
1016.06	582.581
1019.81	644.631
1023.56	818.145
1027.31	892.213
1031.05	921.326
1034.79	977.536
1038.53	1026.85
1042.27	1198.27
1046.01	1391.81
1049.75	1543.42
1053.48	1786.1
1057.22	1570.89
1060.95	1132.03
1064.68	710.544
1068.4	460.831
1072.13	290.809
1075.86	281.878
1079.58	156.02
1083.3	138.158
1087.02	137.286
1090.74	78.449
1094.45	62.634
1098.17	5.022
1101.88	48.476
1105.59	0.839
1109.3	32.371
1113.01	17.325
1116.71	33.829
1120.42	40.558
1124.12	130.769
1127.82	0.941
1131.52	6.35
1135.22	41.437
1138.91	54.365
1142.61	99.5
1146.3	64.684
1149.99	14.464
1153.68	21.428
1157.37	2.546
1161.06	26.245
1164.74	3.947
1168.42	28.43
1172.1	13.077
1175.78	23.604
1179.46	68.111
1183.14	54.926
1186.81	62.07
1190.48	72.772
1194.15	76.065
1197.83	79.375
1201.49	66.806
1205.16	81.178
1208.82	58.359
1212.49	101.234
1216.15	59.984
1219.81	65.384
1223.46	101.174
1227.12	103.775
1230.78	72.931
1234.43	111.418
1238.08	116.076
1241.73	111.58
1245.38	104.766
1249.03	79.826
1252.67	58.305
1256.31	140.985
1259.95	101.882
1263.6	68.003
1267.23	86.866
1270.87	92.647
1274.51	145.575
1278.14	163.928
1281.77	136.55
1285.4	176.801
1289.03	31.77
1292.66	112.077
1296.28	79.077
1299.91	105.118
1303.53	82.953
1307.15	89.323
1310.77	101.219
1314.38	89.024
1318	37.061
1321.61	95.161
1325.23	25.104
1328.84	55.914
1332.45	19.573
1336.06	3.869
1339.66	27.554
1343.27	24.872
1346.87	36.077
1350.47	37.123
1354.07	31.759
1357.67	82.385
1361.26	66.299
1364.86	6.126
1368.45	42.658
1372.04	6.948
1375.63	34.029
1379.22	20.986
1382.81	33.999
1386.39	53.096
1389.98	78.012
1393.56	29.168
1397.14	24.589
1400.72	42.166
1404.3	57.773
1407.87	46.336
1411.45	72.774
1415.02	62.412
1418.59	103.095
1422.16	14.272
1425.73	21.564
1429.29	54.66
1432.86	44.079
1436.42	72.158
1439.98	56.866
1443.54	60.771
1447.1	53.475
1450.66	97.74
1454.21	52.095
1457.77	47.108
1461.32	30.282
1464.87	60.697
1468.42	99.327
1471.96	99.776
1475.51	30.425
1479.06	70.862
1482.6	39.494
1486.14	77.842
1489.68	49.934
1493.22	40.385
1496.75	91.424
1500.29	63.933
1503.82	12.583
1507.35	79.575
1510.88	81.401
1514.41	36.98
1517.94	20.754
1521.46	0
