Measurement: Raman, 532 nm, unoriented, Raman Data Processed
Mineral: Pyrobelonite
Rruff sample: R100056
Ideal chemistry: PbMn^2+^VO_4_(OH)
Locality: Langban, Filipstad, Varmland, Sweden
Source: William W Pinch
Description: Isolated red blocky crystals
Raman shift (cm-1)	intensity
90.4922	0
93.867	1.58254
97.2418	0.067244
100.617	1.63953
103.992	2.64971
107.366	3.66897
110.741	3.81809
114.116	5.96227
117.491	4.50404
120.865	1.94612
124.24	0.569987
127.615	0.541192
130.99	1.07294
134.365	1.14042
137.74	3.33862
141.114	6.38771
144.489	10.7423
147.864	13.2729
151.239	22.1529
154.614	29.8024
157.988	31.1089
161.363	27.969
164.738	28.2591
168.113	27.4396
171.488	28.7574
174.863	29.6682
178.237	34.8139
181.612	30.3765
184.987	20.914
188.362	16.3005
191.737	10.4038
195.112	8.64711
198.486	8.2689
201.861	7.04937
205.236	6.9627
208.611	6.87278
211.986	6.36368
215.36	6.15489
218.735	5.05912
222.11	4.97975
225.485	6.26579
228.86	5.88407
232.234	5.80448
235.609	7.96683
238.984	4.57005
242.359	2.89562
245.734	2.3611
249.109	2.55006
252.483	0.87331
255.858	0.039028
259.233	0.115238
262.608	1.36196
265.983	0.401566
269.358	0.497795
272.732	1.15072
276.107	1.26351
279.482	3.97563
282.857	7.55307
286.232	13.2257
289.606	17.2532
292.981	24.1843
296.356	33.0612
299.731	40.1028
303.106	43.7863
306.481	39.7459
309.855	38.0168
313.23	41.1606
316.605	52.5362
319.98	68.6089
323.355	86.1245
326.729	106.694
330.104	126.267
333.479	126.691
336.854	109.426
340.229	81.6411
343.603	55.3618
346.978	37.8504
350.353	26.2539
353.728	18.2111
357.103	11.4682
360.478	3.86345
363.852	2.36497
367.227	0.364277
370.602	0.300255
373.977	0.571781
377.352	0.764519
380.726	0.735561
384.101	0.106239
387.476	1.5027
390.851	3.92355
394.226	5.27126
397.601	8.84731
400.975	12.5338
404.35	21.8707
407.725	39.5287
411.1	62.5445
414.475	93.279
417.849	131.654
421.224	168.113
424.599	192.989
427.974	180.076
431.349	157.075
434.724	121.009
438.098	88.6722
441.473	62.6831
444.848	43.2895
448.223	32.0848
451.598	23.8663
454.972	16.7078
458.347	13.8206
461.722	9.89594
465.097	7.31247
468.472	5.67331
471.846	4.3881
475.221	2.72707
478.596	1.64912
481.971	0.925713
485.346	1.37668
488.721	0.782974
492.095	0.252037
495.47	0.052376
498.845	1.24557
502.22	0.029572
505.595	0.382378
508.969	0.152107
512.344	1.35743
515.719	0.458166
519.094	0.518419
522.469	0.808386
525.844	3.2349
529.218	3.00417
532.593	2.34152
535.968	2.94964
539.343	3.4555
542.718	4.05269
546.092	4.20215
549.467	5.02983
552.842	4.95957
556.217	6.05647
559.592	6.17059
562.967	6.39888
566.341	7.18588
569.716	6.96961
573.091	7.7539
576.466	8.4371
579.841	8.63224
583.216	8.59887
586.59	9.53866
589.965	10.4418
593.34	10.7784
596.715	11.1051
600.09	12.1899
603.464	12.8223
606.839	14.1971
610.214	15.222
613.589	13.8634
616.964	12.6213
620.338	11.6882
623.713	11.059
627.088	9.27834
630.463	8.12795
633.838	7.39039
637.212	5.87759
640.587	4.67327
643.962	2.25628
647.337	1.35382
650.712	0.015942
654.087	0.153049
657.461	2.46064
660.836	2.45217
664.211	2.4959
667.586	2.51831
670.961	0.009125
674.335	3.31406
677.71	10.5836
681.085	17.292
684.46	29.8854
687.835	42.4551
691.21	60.4481
694.584	69.4264
697.959	71.8082
701.334	62.5193
704.709	45.3586
708.084	31.3904
711.458	21.3836
714.833	15.6123
718.208	17.8616
721.583	25.9504
724.958	44.9425
728.332	79.8253
731.707	138.708
735.082	232.086
738.457	379.046
741.832	583.545
745.207	848.569
748.581	1142.32
751.956	1340.55
755.331	1282.42
758.706	979.124
762.081	676.552
765.456	455.64
768.83	318.474
772.205	228.441
775.58	172.82
778.955	130.996
782.33	91.2791
785.704	56.2212
789.079	33.1145
792.454	16.8807
795.829	6.10934
799.204	0.045395
802.578	1.81674
805.953	4.23181
809.328	1.91681
812.703	1.51439
816.078	9.24986
819.453	16.7854
822.827	29.8877
826.202	46.4228
829.577	66.6345
832.952	88.6648
836.327	106.255
839.702	116.478
843.076	135.167
846.451	173.449
849.826	229.978
853.201	306.86
856.576	354.149
859.95	280.098
863.325	147.23
866.7	66.7986
870.075	31.3181
873.45	14.505
876.824	6.4754
880.199	3.1149
883.574	0.620045
886.949	1.06769
890.324	1.10881
893.698	1.78811
897.073	0.66608
900.448	0.814644
903.823	1.54553
907.198	4.27682
910.573	3.73557
913.947	6.24157
917.322	8.21844
920.697	8.77828
924.072	9.66764
927.447	9.91991
930.822	11.1225
934.196	11.979
937.571	11.8123
940.946	11.6226
944.321	11.6158
947.696	10.8177
951.07	9.54549
954.445	8.15132
957.82	6.16015
961.195	5.4933
964.57	4.23118
967.944	4.69419
971.319	4.29088
974.694	3.8237
978.069	3.91809
981.444	4.29892
984.819	3.5377
988.193	3.66925
991.568	2.83172
994.943	2.91368
998.318	2.7571
1001.69	2.3288
1005.07	2.758
1008.44	0.769741
1011.82	1.58728
1015.19	0.998375
1018.57	1.07895
1021.94	1.26796
1025.32	0.687084
1028.69	1.42723
1032.07	0.155964
1035.44	0.641712
1038.82	1.24169
1042.19	0.101318
1045.57	0.182968
1048.94	0.8452
1052.32	0.114429
1055.69	0.537151
1059.07	0.444366
1062.44	0.703953
1065.81	0.467201
1069.19	1.33234
1072.56	1.99785
1075.94	0.178226
1079.31	2.56391
1082.69	2.11975
1086.06	2.3158
1089.44	3.28213
1092.81	2.98476
1096.19	3.96034
1099.56	3.24566
1102.94	4.25914
1106.31	5.03512
1109.69	4.27186
1113.06	5.45144
1116.44	4.55784
1119.81	5.55064
1123.19	5.94728
1126.56	4.85792
1129.94	4.41821
1133.31	3.04304
1136.68	3.68147
1140.06	3.07019
1143.43	3.34859
1146.81	3.5932
1150.18	4.08517
1153.56	4.56445
1156.93	4.99082
1160.31	4.61827
1163.68	5.41676
1167.06	5.98499
1170.43	4.88306
1173.81	6.12799
1177.18	5.52335
1180.56	5.63163
1183.93	5.99575
1187.31	5.24722
1190.68	5.19773
1194.06	4.79958
1197.43	3.62452
1200.81	3.04253
1204.18	2.99557
1207.56	2.13895
1210.93	1.42297
1214.31	0.463549
1217.68	0.520176
1221.06	0.876015
1224.43	0.815142
1227.81	0.490656
1231.18	1.05131
1234.56	0.19698
1237.93	0.063387
1241.31	0.516834
1244.68	0.549761
1248.05	0.07638
1251.43	0.473186
1254.8	0.719057
1258.18	1.21503
1261.55	1.28627
1264.93	0.854073
1268.3	0.950735
1271.68	1.53564
1275.05	1.43798
1278.43	1.09677
1281.8	0.873129
1285.18	1.83787
1288.55	1.06344
1291.93	0.767878
1295.3	0.284851
1298.68	0.71719
1302.05	0.14888
