Measurement: Raman, 780 nm, unoriented, Raman Data Processed
Mineral: Pyroaurite
Rruff sample: R100053
Ideal chemistry: Mg_6_Fe^3+^_2_CO_3_(OH)_16_4H_2_O
Locality: Langban, Filipstad, Varmland, Sweden
Source: William W Pinch
Description: Pale bluish-green hexagonal tablets embedded in calcite, associated with magnetite
Raman shift (cm-1)	intensity
184.1	0
186.992	1.03747
189.885	2.39012
192.778	3.70646
195.67	1.28855
198.563	1.99303
201.456	1.12353
204.349	2.85825
207.241	2.35419
210.134	2.7619
213.027	4.63184
215.919	1.9432
218.812	2.79487
221.705	2.52395
224.597	0.356388
227.49	0.426914
230.383	1.09909
233.275	0.171219
236.168	0.3489
239.061	1.4755
241.954	2.07375
244.846	1.91091
247.739	1.18781
250.632	4.013
253.524	4.59091
256.417	6.12106
259.31	7.80105
262.202	10.8836
265.095	14.6003
267.988	16.5143
270.881	19.4448
273.773	22.8175
276.666	27.1428
279.559	26.9864
282.451	26.4174
285.344	25.7045
288.237	21.7163
291.13	19.3816
294.022	16.7498
296.915	16.4944
299.808	15.6156
302.7	14.2952
305.593	15.0396
308.486	14.664
311.378	12.9876
314.271	12.017
317.164	10.7571
320.057	10.0091
322.949	7.7463
325.842	6.3475
328.735	4.29633
331.627	3.40406
334.52	2.69658
337.413	2.072
340.305	1.13085
343.198	1.48402
346.091	0.445156
348.984	0.055584
351.876	0.087666
354.769	0.508984
357.662	0.661648
360.554	0.021999
363.447	1.36977
366.34	1.24978
369.233	1.9864
372.125	1.95448
375.018	2.74733
377.911	1.72993
380.803	1.79474
383.696	2.58006
386.589	2.28493
389.481	1.07085
392.374	1.10072
395.267	0.13414
398.159	1.16783
401.052	0.746132
403.945	2.52623
406.838	4.45896
409.73	7.26285
412.623	8.2984
415.516	10.7129
418.408	13.6759
421.301	16.5918
424.194	21.7699
427.087	24.3565
429.979	25.5586
432.872	26.2182
435.765	26.8109
438.657	26.7687
441.55	23.2651
444.443	19.9615
447.335	16.4824
450.228	11.9413
453.121	9.63224
456.014	6.81846
458.906	5.21652
461.799	3.00302
464.692	1.85877
467.584	0.433666
470.477	1.87142
473.37	0.701138
476.262	1.06384
479.155	2.17566
482.048	6.33126
484.94	9.29839
487.833	12.1944
490.726	16.9564
493.619	23.6542
496.511	31.6561
499.404	42.2507
502.297	54.6373
505.189	72.8625
508.082	93.3475
510.975	117.999
513.867	138.857
516.76	157.824
519.653	173.46
522.545	178.004
525.438	173.28
528.331	154.387
531.224	124.474
534.116	93.7709
537.009	68.3862
539.902	49.7547
542.794	35.3374
545.687	23.0853
548.58	16.9851
551.472	11.7361
554.365	9.38968
557.258	5.44796
560.151	3.77269
563.043	3.61171
565.936	1.43637
568.829	1.38331
571.721	0.270313
574.614	0.179283
577.507	0.854942
580.399	0.243961
583.292	0.33416
586.185	0.471054
589.078	0.146217
591.97	0.709229
594.863	0.696552
597.756	0.063396
600.649	0.96925
603.541	0.86644
606.434	0.74614
609.327	1.3698
612.219	1.19924
615.112	0.810282
618.005	1.93946
620.897	1.57853
623.79	2.10953
626.683	1.56382
629.576	1.89067
632.468	2.14945
635.361	1.61022
638.254	2.03006
641.146	1.78723
644.039	1.94278
646.932	1.40314
649.824	0.872549
652.717	0.95245
655.61	1.06546
658.503	0.972071
661.395	1.81808
664.288	2.5002
667.181	2.05103
670.073	1.52643
672.966	1.35281
675.859	2.92004
678.751	1.86073
681.644	1.62833
684.537	1.27635
687.429	2.03905
690.322	1.74268
693.215	1.61445
696.108	1.17047
699	2.47655
701.893	1.16247
704.786	0.738792
707.678	1.64987
710.571	1.28917
713.464	1.48198
716.356	0.729128
719.249	1.16768
722.142	1.35926
725.035	0.969175
727.927	1.4924
730.82	1.95989
733.713	0.001978
736.605	1.75502
739.498	1.36745
742.391	1.04261
745.284	1.12862
748.176	3.38422
751.069	2.80156
753.962	1.34002
756.854	1.48163
759.747	1.21501
762.64	1.59586
765.532	0.70504
768.425	0.288589
771.318	1.78271
774.211	0.810768
777.103	1.09372
779.996	0.737478
782.889	0.223763
785.781	0.572681
788.674	1.66571
791.567	1.2125
794.459	2.11185
797.352	1.64319
800.245	0.886696
803.138	1.17483
806.03	2.51865
808.923	1.18213
811.816	1.5334
814.708	1.57797
817.601	0.495365
820.494	2.19661
823.386	1.57498
826.279	0.932728
829.172	2.88095
832.064	0.890104
834.957	2.75507
837.85	2.94883
840.743	0.90597
843.635	2.39005
846.528	1.74864
849.421	0.923542
852.313	2.0846
855.206	1.89627
858.099	2.675
860.991	1.82434
863.884	1.81053
866.777	3.72638
869.67	1.44885
872.562	2.80007
875.455	3.40722
878.348	1.65558
881.24	1.05534
884.133	2.0048
887.026	0.524357
889.918	1.82159
892.811	0.375319
895.704	0.075687
898.597	0.542475
901.489	1.39801
904.382	0.539782
907.275	0.486204
910.167	0.106686
913.06	0.028921
915.953	1.25035
918.846	0.188307
921.738	0.39982
924.631	0.016769
927.524	0.287771
930.416	0.813469
933.309	0.021173
936.202	1.54786
939.094	1.89869
941.987	0.946983
944.88	1.46259
947.773	1.48859
950.665	2.69992
953.558	1.72956
956.451	2.35481
959.343	2.25529
962.236	3.01991
965.129	3.12425
968.021	0.886028
970.914	0.671967
973.807	0.591524
976.699	1.01515
979.592	1.11026
982.485	1.26186
985.378	0.240417
988.27	0.000881
991.163	0.04715
994.056	0.613554
996.948	1.01464
999.841	0.829859
1002.73	1.12385
1005.63	0.760954
1008.52	1.3578
1011.41	0.585436
1014.3	1.94738
1017.2	1.67363
1020.09	0.618374
1022.98	1.91008
1025.88	2.60442
1028.77	3.41708
1031.66	3.45916
1034.55	2.41372
1037.45	5.09739
1040.34	6.20433
1043.23	9.44655
1046.12	14.1584
1049.02	17.9719
1051.91	20.6539
1054.8	22.515
1057.69	21.2357
1060.59	14.7943
1063.48	8.0804
1066.37	5.2931
1069.27	3.08879
1072.16	1.96305
1075.05	2.66515
1077.94	1.88237
1080.84	1.80662
1083.73	3.19524
1086.62	5.07399
1089.52	1.46169
1092.41	0.19491
1095.3	1.02331
1098.19	0.243519
1101.09	1.99005
1103.98	0.226133
1106.87	2.16698
1109.76	0.856407
1112.66	0.693689
1115.55	0.722065
1118.44	1.16818
1121.34	1.58953
1124.23	0.722349
1127.12	0.841671
1130.01	1.20964
1132.9	0.874819
1135.8	1.15801
1138.69	0.813246
1141.58	1.89977
1144.48	0.315184
1147.37	1.88575
1150.26	1.38264
1153.15	0.463341
1156.05	2.12565
1158.94	0.641239
1161.83	2.3491
1164.72	1.0743
1167.62	1.95691
1170.51	2.02656
1173.4	1.24792
1176.3	1.36861
1179.19	1.37606
1182.08	1.743
1184.97	1.91228
1187.87	1.37496
1190.76	1.02487
1193.65	1.53689
1196.55	0.888655
1199.44	0.330896
1202.33	1.7765
1205.22	0.128159
1208.12	1.69622
1211.01	1.23121
1213.9	0.747358
1216.79	0.569273
1219.69	0.383726
1222.58	0.500231
1225.47	1.38029
1228.37	1.12781
1231.26	1.81322
1234.15	0.796957
1237.04	1.96173
1239.93	1.54448
1242.83	0.166702
1245.72	0.310511
1248.61	0.780476
1251.51	1.73798
1254.4	0.235075
1257.29	1.13234
1260.18	1.31235
1263.08	0.71047
1265.97	1.40729
1268.86	0.490877
1271.76	0.655445
1274.65	1.0357
1277.54	1.03099
1280.43	1.06153
1283.33	1.4433
