Measurement: Raman, 514 nm, unoriented, Raman Data Processed
Mineral: Pyrope
Rruff sample: R050446
Ideal chemistry: Mg_3_Al_2_(SiO_4_)_3_
Locality: Sunset Crater, Arizona, USA
Source: Marcus Origlieri
Description: Red fragment
Measured chemistry: (Mg_1.93_Fe^2+^_0.65_Ca_0.42_)_Î£=3_Al_2.00_(Si_1.00_O_4_)_3_
Raman shift (cm-1)	intensity
52.866	0
57.065	32.449
61.262	64.662
65.458	11.092
69.651	21.384
73.842	42.232
78.031	124.588
82.218	178.722
86.404	210.965
90.587	322.893
94.768	342.164
98.947	352.034
103.124	410.268
107.3	530.489
111.473	667.876
115.644	858.56
119.813	929.466
123.981	906.478
128.146	768.496
132.309	804.44
136.47	799.224
140.63	781.385
144.787	707.633
148.942	637.074
153.096	463.877
157.247	348.089
161.396	214.753
165.544	141.257
169.689	126.644
173.833	161.923
177.974	253.074
182.114	525.626
186.251	735.515
190.387	846.644
194.52	788.296
198.652	764.182
202.782	861.389
206.909	887.909
211.035	876.733
215.159	777.855
219.281	703.739
223.4	626.199
227.518	589.988
231.634	556.396
235.748	568.808
239.86	602.461
243.97	593.719
248.079	629.526
252.185	610.839
256.289	634.619
260.391	622.834
264.492	674.455
268.59	666.82
272.687	641.493
276.781	658.497
280.874	656.375
284.964	675.771
289.053	675.582
293.14	749.965
297.225	744.243
301.308	801.714
305.389	922.344
309.468	997.203
313.545	1126.29
317.62	1247.6
321.693	1478.12
325.765	1526.85
329.834	1911.79
333.902	2314.91
337.967	3087.2
342.031	4099.65
346.093	5168.25
350.153	6927
354.21	9709.89
358.267	13073.9
362.321	14128.1
366.373	11541.4
370.423	8154.83
374.471	5996.48
378.518	4664.41
382.563	3420.68
386.605	2558.33
390.646	1932.3
394.685	1383.55
398.722	935.124
402.757	643.011
406.79	495.204
410.821	416.654
414.851	223.317
418.878	82.163
422.904	15.192
426.927	49.399
430.949	43.293
434.969	61.043
438.987	12.918
443.003	48.861
447.018	23.918
451.03	68.084
455.041	48.466
459.049	5.96
463.056	99.323
467.061	137.684
471.064	215.046
475.065	199.401
479.064	318.745
483.062	454.07
487.057	532.371
491.051	523.64
495.043	443.873
499.032	641.062
503.02	925.202
507.007	1419.29
510.991	1362.32
514.973	1138.3
518.954	1084.46
522.933	1140.4
526.91	1179.82
530.885	1318.95
534.858	1372.34
538.829	1662.87
542.799	2142.53
546.766	2990.65
550.732	4493.87
554.696	7062.16
558.658	10115.5
562.618	9332.93
566.576	5484.14
570.533	2917.19
574.488	1694.37
578.44	1109.89
582.391	861.556
586.341	749.156
590.288	728.078
594.233	651.514
598.177	567.243
602.119	463.685
606.059	466.188
609.997	457.124
613.933	522.615
617.868	485.072
621.801	372.248
625.731	444.15
629.66	499.815
633.588	717.242
637.513	1115.43
641.437	1559.37
645.358	1469.08
649.278	1081.54
653.196	841.751
657.113	640.724
661.027	475.452
664.94	327.287
668.851	243.178
672.76	170.178
676.667	82.933
680.572	68.424
684.476	54.618
688.378	19.477
692.278	44.112
696.176	49.346
700.072	32.266
703.967	21.806
707.86	38.788
711.751	25.249
715.64	27.209
719.527	11.709
723.413	50.716
727.297	35.798
731.179	24.044
735.059	23.245
738.937	45.817
742.814	49.25
746.689	12.883
750.562	27.841
754.433	14.454
758.303	44.96
762.17	46.359
766.036	56.691
769.901	77.667
773.763	55.25
777.624	60.391
781.482	84.404
785.339	115.294
789.195	122.023
793.048	182.73
796.9	196.288
800.75	270.746
804.598	318.775
808.445	385.388
812.289	502.591
816.132	639.735
819.973	805.857
823.813	1048.98
827.65	1273.03
831.486	1405.51
835.32	1447.34
839.152	1625.65
842.983	1776.51
846.812	2341.3
850.639	3144.37
854.464	4161.75
858.288	5230.26
862.11	5289.95
865.93	4559.39
869.748	3693.72
873.564	3234.94
877.379	3028.87
881.192	3213.34
885.004	3641.16
888.813	4357.94
892.621	5283.01
896.427	6503.69
900.232	8409.33
904.034	12110.9
907.835	19255.8
911.634	31699.4
915.432	49563.3
919.227	59453.2
923.021	47734.6
926.813	30109.3
930.604	18259.1
934.393	11685.1
938.18	8068.19
941.965	5554.49
945.749	4095.95
949.53	3224.58
953.311	2560.37
957.089	2168.34
960.866	2030.47
964.641	1807.04
968.414	1693.08
972.185	1473.8
975.955	1409.1
979.723	1408.2
983.49	1381.26
987.254	1285.19
991.017	1212.99
994.779	1024.14
998.538	980.546
1002.3	796.125
1006.05	725.657
1009.81	835.386
1013.56	900.047
1017.31	1116.78
1021.06	1409.43
1024.81	1622.76
1028.55	1597.37
1032.3	1661.24
1036.04	1792.34
1039.78	1990.66
1043.52	2088.2
1047.26	2361.98
1050.99	2600.97
1054.73	2523.15
1058.46	2095.53
1062.19	1431.11
1065.92	943.804
1069.65	629.629
1073.37	471.581
1077.1	355.078
1080.82	280.798
1084.54	203.053
1088.26	216.4
1091.97	97.836
1095.69	133.363
1099.4	68.969
1103.12	29.658
1106.83	46.422
1110.54	6.743
1114.24	12.14
1117.95	69.939
1121.65	13.121
1125.35	23.677
1129.06	98.48
1132.75	8.755
1136.45	7.852
1140.15	76.692
1143.84	25.446
1147.53	4.376
1151.22	28.442
1154.91	67.752
1158.6	31.667
1162.28	42.4
1165.97	32.228
1169.65	43.444
1173.33	56.663
1177.01	174.989
1180.69	151.262
1184.36	214.468
1188.04	174.488
1191.71	211.801
1195.38	203.53
1199.05	130.105
1202.71	210.313
1206.38	253.133
1210.04	210.373
1213.71	205.217
1217.37	194.14
1221.03	161.162
1224.68	150.561
1228.34	131.981
1231.99	267.395
1235.65	180.697
1239.3	153.459
1242.95	239.346
1246.59	176.654
1250.24	199.986
1253.88	192.684
1257.53	136.219
1261.17	120.603
1264.81	199.571
1268.45	192.435
1272.08	212.806
1275.72	276.382
1279.35	248.48
1282.98	215.551
1286.61	181.457
1290.24	223.713
1293.87	260.77
1297.49	186.283
1301.11	169.931
1304.73	172.822
1308.36	183.295
1311.97	149.854
1315.59	65.966
1319.2	44.98
1322.82	19.165
1326.43	75.21
1330.04	86.121
1333.65	41.865
1337.26	86.469
1340.86	72.881
1344.47	1.132
1348.07	74.215
1351.67	57.153
1355.27	26.912
1358.87	77.582
1362.46	50.579
1366.06	90.027
1369.65	139.399
1373.24	26.687
1376.83	43.855
1380.42	44.397
1384	88.598
1387.59	51.14
1391.17	83.436
1394.75	87.503
1398.33	29.527
1401.91	55.461
1405.49	29.499
1409.06	125.84
1412.64	84.472
1416.21	47.961
1419.78	85.792
1423.35	4.199
1426.91	63.147
1430.48	117.128
1434.05	131.211
1437.61	93.646
1441.17	123.051
1444.73	238.074
1448.29	142.258
1451.84	134.201
1455.4	93.879
1458.95	207.189
1462.5	137.252
1466.05	42.312
1469.6	110.602
1473.15	78.259
1476.69	60.091
1480.24	133.542
1483.78	106.351
1487.32	117.914
1490.86	61.083
1494.39	174.899
1497.93	16.953
1501.46	88.526
1505	37.024
1508.53	85.759
1512.06	92.387
1515.59	100.938
1519.11	71.654
1522.64	13.747
