Measurement: Raman, 514 nm, unoriented, Raman Data Processed
Mineral: Pyromorphite
Rruff sample: R050027
Ideal chemistry: Pb_5_(PO_4_)_3_Cl
Locality: Yangshuo, Guangxi Autonomous Region, China
Source: Eugene Schlepp
Description: Light green hexagonal prismatic hoppered single crystals
Measured chemistry: Pb_5.00_(P_1.00_O_4_)_3_Cl_1.00_
Raman shift (cm-1)	intensity
78.031	0
82.218	2577.46
86.404	13945.4
90.587	13035.1
94.768	4292.68
98.947	3741.66
103.124	15380
107.3	18640.3
111.473	9940.11
115.644	2637.55
119.813	353.821
123.981	283.389
128.146	234.746
132.309	128.458
136.47	1214.27
140.63	2156.21
144.787	2928.06
148.942	3244.86
153.096	3305.16
157.247	3206.1
161.396	3238.31
165.544	3417.38
169.689	3909.48
173.833	4823.13
177.974	5789.64
182.114	7095.85
186.251	8565.57
190.387	8891.23
194.52	6930.99
198.652	4650.91
202.782	3110.45
206.909	2397.93
211.035	1766.79
215.159	1325.09
219.281	1072.76
223.4	855.522
227.518	624.949
231.634	433.197
235.748	272.446
239.86	158.643
243.97	19.876
248.079	104.318
252.185	93.146
256.289	58.035
260.391	90.044
264.492	103.128
268.59	94.634
272.687	65.739
276.781	16.793
280.874	30.012
284.964	42.545
289.053	14.799
293.14	40.125
297.225	10.999
301.308	113.836
305.389	161.633
309.468	144.543
313.545	197.143
317.62	225.962
321.693	396.425
325.765	454.574
329.834	559.722
333.902	643.779
337.967	764.715
342.031	899.122
346.093	957.585
350.153	1001.62
354.21	1038.83
358.267	1088.47
362.321	1129.78
366.373	1185.92
370.423	1266.31
374.471	1357.92
378.518	1682.17
382.563	2125.14
386.605	3089.86
390.646	4679.43
394.685	5015.84
398.722	5273.22
402.757	8589.63
406.79	14977.3
410.821	12520.6
414.851	6626.31
418.878	3967.86
422.904	2748.08
426.927	2128.06
430.949	1747.95
434.969	1474.94
438.987	1396.09
443.003	1281.71
447.018	1202.61
451.03	1173.85
455.041	1080.86
459.049	1089.82
463.056	1007.22
467.061	951.487
471.064	824.09
475.065	751.454
479.064	717.133
483.062	661.255
487.057	655.605
491.051	638.36
495.043	661.771
499.032	619.99
503.02	664.942
507.007	623.159
510.991	598.908
514.973	615.672
518.954	561.866
522.933	621.898
526.91	587.529
530.885	618.479
534.858	626.766
538.829	711.032
542.799	773.372
546.766	917.83
550.732	1386.65
554.696	1329.42
558.658	780.032
562.618	572.537
566.576	571.32
570.533	542.701
574.488	617.304
578.44	562.571
582.391	482.065
586.341	443.959
590.288	454.153
594.233	444.552
598.177	402.367
602.119	452.826
606.059	458.791
609.997	463.521
613.933	421.58
617.868	340.834
621.801	314.462
625.731	343.542
629.66	293.027
633.588	226.935
637.513	215.183
641.437	209.1
645.358	194.694
649.278	144.376
653.196	205.075
657.113	140.331
661.027	131.209
664.94	127.899
668.851	79.694
672.76	96.422
676.667	49.731
680.572	79.488
684.476	25.964
688.378	51.625
692.278	47.238
696.176	15.656
700.072	14.916
703.967	0.005
707.86	5.087
711.751	3.655
715.64	4.24
719.527	20.311
723.413	37.05
727.297	14.021
731.179	26.249
735.059	41.763
738.937	84.557
742.814	62.64
746.689	68.115
750.562	77.669
754.433	48.745
758.303	3.06
762.17	45.464
766.036	26.94
769.901	17.474
773.763	3.4
777.624	35.487
781.482	3.191
785.339	113.631
789.195	142.157
793.048	126.615
796.9	134.374
800.75	156.344
804.598	93.151
808.445	69.525
812.289	93.958
816.132	293.312
819.973	529.621
823.813	316.145
827.65	302.449
831.486	185.928
835.32	210.781
839.152	216.521
842.983	250.575
846.812	425.934
850.639	748.859
854.464	549.343
858.288	242.779
862.11	110.781
865.93	53.942
869.748	36.47
873.564	25.49
877.379	116.45
881.192	178.083
885.004	196.799
888.813	351.716
892.621	431.791
896.427	498.177
900.232	824.295
904.034	1293.56
907.835	2270.13
911.634	4407.94
915.432	11719
919.227	24559.5
923.021	15731.3
926.813	11331.2
930.604	12118.6
934.393	17155.7
938.18	27855.8
941.965	45430.2
945.749	56331.1
949.53	44509.4
953.311	27161.1
957.089	16185.2
960.866	10361.7
964.641	7063.56
968.414	5282.85
972.185	4380.57
975.955	3922.69
979.723	3588.25
983.49	3263.22
987.254	2729.64
991.017	2372.48
994.779	2098.72
998.538	2021.33
1002.3	2152.5
1006.05	2582.01
1009.81	3287.97
1013.56	4306.34
1017.31	5864.13
1021.06	7183.33
1024.81	7184.83
1028.55	6164.01
1032.3	4924.11
1036.04	3990.54
1039.78	3436.67
1043.52	2990.11
1047.26	2560.15
1050.99	2238.33
1054.73	1807.41
1058.46	1614.72
1062.19	1314.02
1065.92	1231.2
1069.65	1095.4
1073.37	1074.11
1077.1	1047.89
1080.82	1069.88
1084.54	924.09
1088.26	937.122
1091.97	871.59
1095.69	768.303
1099.4	710.184
1103.12	569.438
1106.83	409.455
1110.54	323.549
1114.24	189.954
1117.95	158.5
1121.65	226.866
1125.35	186.31
1129.06	145.123
1132.75	127.171
1136.45	237.345
1140.15	289.339
1143.84	362.077
1147.53	531.475
1151.22	564.692
1154.91	471.288
1158.6	302.593
1162.28	220.712
1165.97	131.747
1169.65	63.175
1173.33	16.302
1177.01	16.084
1180.69	18.404
1184.36	8.152
1188.04	3.535
1191.71	4.102
1195.38	21.592
1199.05	26.565
1202.71	31.553
1206.38	9.291
1210.04	39.174
1213.71	15.142
1217.37	42.274
1221.03	6.535
1224.68	0.276
1228.34	26.594
1231.99	10.998
1235.65	14.44
1239.3	18.427
1242.95	52.569
1246.59	13.987
1250.24	15.649
1253.88	29.731
1257.53	34.869
1261.17	6.284
1264.81	11.091
1268.45	42.481
1272.08	42.799
1275.72	13.134
1279.35	75.384
1282.98	54.671
1286.61	63.378
1290.24	19.948
1293.87	68.439
1297.49	44.962
1301.11	65.093
1304.73	62.825
1308.36	67.207
1311.97	51.084
1315.59	89.571
1319.2	81.665
1322.82	85.338
1326.43	39.033
1330.04	102.473
1333.65	130.321
1337.26	88.891
1340.86	141.513
1344.47	83.755
1348.07	146.616
1351.67	99.534
1355.27	162.321
1358.87	159.122
1362.46	119.841
1366.06	95.16
1369.65	137.665
1373.24	130.878
1376.83	72.896
1380.42	81.314
1384	128.476
1387.59	95.166
1391.17	94.592
1394.75	151.455
1398.33	121.422
1401.91	110.19
1405.49	40.114
1409.06	3.875
1412.64	68.204
1416.21	46.776
1419.78	145.635
1423.35	38.02
1426.91	123.81
1430.48	59.077
1434.05	36.936
1437.61	62.775
1441.17	79.206
1444.73	89.557
1448.29	170.326
1451.84	96.364
1455.4	105.993
1458.95	137.185
1462.5	50.148
1466.05	71.057
1469.6	113.944
1473.15	23.185
1476.69	92.308
1480.24	20.069
1483.78	67.082
1487.32	32.287
