Measurement: Raman, 780 nm, unoriented, Raman Data Processed
Mineral: Pyrope
Rruff sample: R080060
Ideal chemistry: Mg_3_Al_2_(SiO_4_)_3_
Locality: Synthetic at P = 23.5 kb, T = 1000 deg C for 23 hours
Source: Weiji Cheng
Description: Colorless single crystals
Measured chemistry: Mg_3.00_Al_2.00_(Si_1.00_O_4_)_3_; trace amounts of Fe
Raman shift (cm-1)	intensity
95.5656	0
98.4583	24.6723
101.351	13.4765
104.244	2.01697
107.136	0.978882
110.029	2.96918
112.922	4.591
115.814	14.5493
118.707	16.2188
121.6	21.1715
124.493	21.3506
127.385	26.4736
130.278	30.8785
133.171	35.9511
136.063	26.7209
138.956	20.9889
141.849	18.7036
144.742	18.299
147.634	21.1124
150.527	21.5344
153.42	24.8688
156.312	19.9133
159.205	19.5287
162.098	8.35968
164.99	14.6425
167.883	10.429
170.776	15.5714
173.668	15.9073
176.561	23.3527
179.454	34.5944
182.346	40.1605
185.239	56.7513
188.132	68.8372
191.025	89.9098
193.917	112.07
196.81	127.33
199.703	150.178
202.595	160.566
205.488	176.213
208.381	200.216
211.274	183.948
214.166	109.912
217.059	58.8246
219.952	32.6581
222.844	21.8861
225.737	12.6559
228.63	8.38953
231.522	8.87293
234.415	1.80225
237.308	0.73877
240.201	1.30554
243.093	0.197021
245.986	0.204224
248.879	4.46924
251.771	3.0094
254.664	1.68774
257.557	6.1322
260.449	7.21887
263.342	11.557
266.235	18.0499
269.127	18.4445
272.02	13.7012
274.913	5.6499
277.806	5.44861
280.698	3.1106
283.591	3.68115
286.484	0.452393
289.376	2.9574
292.269	2.177
295.162	0.504395
298.055	4.81128
300.947	5.19971
303.84	0.970215
306.733	0.593872
309.625	1.32495
312.518	5.00195
315.411	16.787
318.303	39.9158
321.196	52.6545
324.089	49.0961
326.981	52.1211
329.874	73.4596
332.767	91.9394
335.66	114.189
338.552	131.124
341.445	159.005
344.338	191.924
347.23	236.379
350.123	300.906
353.016	369.103
355.909	451.533
358.801	547.858
361.694	634.798
364.587	631.527
367.479	504.643
370.372	342.911
373.265	232.454
376.157	168.972
379.05	139.981
381.943	125.503
384.836	86.7296
387.728	38.8693
390.621	27.5995
393.514	17.7206
396.406	26.7602
399.299	46.6659
402.192	66.2517
405.084	101.076
407.977	146.649
410.87	191.469
413.762	198.279
416.655	156.191
419.548	104.981
422.441	73.2831
425.333	56.4988
428.226	48.1476
431.119	52.5261
434.011	57.2681
436.904	67.5823
439.797	79.1465
442.69	101.614
445.582	115.591
448.475	112.407
451.368	93.6191
454.26	62.0712
457.153	33.9811
460.046	17.3944
462.938	5.84216
465.831	1.81482
468.724	2.40503
471.616	0.991211
474.509	0.640625
477.402	4.76819
480.295	8.65222
483.187	4.38354
486.08	2.49622
488.973	10.0139
491.865	17.0309
494.758	9.7052
497.651	6.27234
500.543	6.36475
503.436	2.16675
506.329	5.57373
509.222	25.1779
512.114	36.5466
515.007	30.4111
517.9	20.0561
520.792	24.9481
523.685	36.0337
526.578	42.9014
529.471	53.766
532.363	69.6741
535.256	82.5099
538.149	108.337
541.041	126.923
543.934	160.57
546.827	192.412
549.719	224.004
552.612	273.192
555.505	340.376
558.398	433.56
561.29	522.097
564.183	490.093
567.076	368.944
569.968	268.091
572.861	211.414
575.754	166.373
578.646	135.378
581.539	103.241
584.432	84.8146
587.324	77.1763
590.217	66.1888
593.11	65.3971
596.003	55.4822
598.895	53.894
601.788	55.8506
604.681	64.5037
607.573	79.2447
610.466	99.8414
613.359	135.213
616.251	161.839
619.144	187.321
622.037	204.046
624.93	189.299
627.822	157.165
630.715	121.68
633.608	92.4441
636.5	77.9672
639.393	69.2596
642.286	72.597
645.178	90.6679
648.071	115.631
650.964	94.2325
653.857	39.7135
656.749	11.429
659.642	1.97382
662.535	2.72522
665.427	0.787415
668.32	3.48718
671.213	8.82629
674.106	1.2077
676.998	3.31372
679.891	0.498413
682.784	4.31689
685.676	2.68133
688.569	4.09033
691.462	3.50134
694.354	7.30249
697.247	7.57221
700.14	9.59668
703.033	8.53247
705.925	10.8961
708.818	12.0994
711.711	15.0638
714.603	12.171
717.496	14.0915
720.389	14.8231
723.281	13.5956
726.174	14.1976
729.067	10.6231
731.96	7.90094
734.852	9.21979
737.745	8.3432
740.638	8.23944
743.53	10.7144
746.423	13.2092
749.316	12.384
752.208	11.3253
755.101	14.9546
757.994	16.1392
760.886	16.0726
763.779	14.8129
766.672	17.2457
769.565	15.4102
772.457	17.6368
775.35	21.9331
778.243	12.3299
781.135	4.41833
784.028	6.36908
786.921	4.79218
789.813	0.397339
792.706	5.7218
795.599	5.49927
798.492	0.857422
801.384	0.242554
804.277	0.245544
807.17	2.39832
810.062	0.612549
812.955	1.82849
815.848	0.896423
818.74	0.928955
821.633	3.06598
824.526	3.66479
827.419	4.74725
830.311	0.369995
833.204	0.897095
836.097	0.384277
838.989	0.844177
841.882	5.83936
844.775	8.81348
847.668	21.8102
850.56	36.3616
853.453	64.6395
856.346	98.3276
859.238	138.911
862.131	181.594
865.024	253.315
867.916	304.086
870.809	266.414
873.702	170.114
876.595	91.1847
879.487	48.2986
882.38	21.8768
885.273	21.8073
888.165	19.4775
891.058	24.9077
893.951	34.7286
896.843	51.3123
899.736	66.4159
902.629	94.1873
905.521	117.028
908.414	182.847
911.307	276.992
914.2	427.482
917.092	602.035
919.985	821.512
922.878	1122.81
925.77	1397.42
928.663	1321.81
931.556	893.828
934.448	537.096
937.341	333.599
940.234	220.644
943.127	145.119
946.019	100.683
948.912	66.215
951.805	45.4092
954.697	30.2999
957.59	18.7409
960.483	17.8508
963.375	7.04285
966.268	6.02948
969.161	1.65851
972.054	0.827942
974.946	2.93689
977.839	4.26904
980.732	1.17859
983.624	0.024292
986.517	1.49262
989.41	1.04816
992.303	0.990784
995.195	0.793213
998.088	7.97784
1000.98	4.02179
1003.87	1.86847
1006.77	0.349365
1009.66	1.52557
1012.55	2.32696
1015.44	3.91949
1018.34	11.128
1021.23	7.88495
1024.12	7.74884
1027.02	13.1132
1029.91	14.7523
1032.8	16.1826
1035.69	17.3942
1038.59	19.6722
1041.48	20.6172
1044.37	23.7045
1047.26	27.55
1050.16	40.5488
1053.05	54.1265
1055.94	70.1479
1058.84	86.3525
1061.73	101.897
1064.62	103.958
1067.51	87.1
1070.4	62.3258
1073.3	47.501
1076.19	43.8488
1079.08	38.0474
1081.98	39.9221
1084.87	35.0212
1087.76	33.7248
1090.65	34.0805
1093.55	35.5332
1096.44	38.6548
1099.33	32.9258
1102.22	30.6396
1105.12	28.8838
1108.01	23.0871
1110.9	18.565
1113.8	18.2288
1116.69	12.8204
1119.58	3.53101
1122.47	6.12714
1125.37	2.83673
1128.26	1.94965
1131.15	2.91144
1134.05	2.40888
1136.94	2.70239
1139.83	3.52216
1142.72	0.788025
1145.62	5.37939
1148.51	14.1464
1151.4	17.4167
1154.29	23.2669
1157.19	28.0303
1160.08	24.1471
1162.97	20.8601
1165.87	27.2538
1168.76	33.1039
1171.65	38.7925
1174.54	34.3457
1177.43	28.3129
1180.33	14.713
1183.22	0.477173
1186.11	0.196167
