Measurement: Raman, 532 nm, unoriented, Raman Data Processed
Mineral: Pyromorphite
Rruff sample: R060285
Ideal chemistry: Pb_5_(PO_4_)_3_Cl
Locality: Les Farges mine, Correze Ussel, France
Source: Herb Obodda
Description: Aggregate of green hexagonal prisms
Measured chemistry: Pb_5.00_((P_0.99_As_0.01_)_Î£=1_O_4_)_3_Cl_1.00_
Raman shift (cm-1)	intensity
185.469	0
188.362	34
191.255	54.1709
194.147	40.502
197.04	6.7334
199.933	10.1065
202.825	27.3267
205.718	25.0459
208.611	19.415
211.504	28.6694
214.396	60.3823
217.289	105.905
220.182	98.9004
223.074	66.7217
225.967	39.3677
228.86	53.1851
231.752	41.8062
234.645	45.3721
237.538	7.56494
240.43	12.2056
243.323	21.8213
246.216	3.14648
249.109	9.43799
252.001	32.124
254.894	41.1792
257.787	46.3809
260.679	37.3433
263.572	33.4277
266.465	45.271
269.358	67.9736
272.25	32.9331
275.143	7.34717
278.036	1.41211
280.928	26.2368
283.821	1.41309
286.714	18.3657
289.606	38.437
292.499	35.6694
295.392	24.4829
298.284	33.3247
301.177	7.68848
304.07	1.15967
306.963	11.7651
309.855	15.2119
312.748	18.9619
315.641	33.9487
318.533	72.6655
321.426	77.7891
324.319	92.1738
327.212	94.8179
330.104	80.876
332.997	80.9458
335.89	72.8501
338.782	67.1265
341.675	88.3921
344.568	76.2217
347.46	61.7778
350.353	26.8267
353.246	1.11621
356.139	7.15625
359.031	20.2871
361.924	47.9111
364.817	62.3384
367.709	75.9673
370.602	75.7519
373.495	89.0527
376.387	164.696
379.28	241.106
382.173	328.907
385.065	471.477
387.958	637.883
390.851	814.74
393.744	901.436
396.636	742.293
399.529	613.731
402.422	615.874
405.314	723.606
408.207	863.168
411.1	861.83
413.993	678.739
416.885	531.554
419.778	372.619
422.671	267.618
425.563	134.398
428.456	92.5606
431.349	96.8545
434.241	83.9131
437.134	69.4492
440.027	43.2315
442.92	32.8926
445.812	2.20703
448.705	1.11133
451.598	2.32715
454.49	18.2744
457.383	9.65332
460.276	5.82812
463.168	23.2139
466.061	26.583
468.954	17.9092
471.846	3.70019
474.739	4.75
477.632	13.3359
480.525	5.80957
483.417	17.2227
486.31	22.9287
489.203	0.363281
492.095	1.37402
494.988	1.66797
497.881	18.5293
500.774	22.9141
503.666	40.6992
506.559	39.668
509.452	36.9648
512.344	49.1914
515.237	45.7285
518.13	23.7217
521.022	16.5459
523.915	33.7617
526.808	50.1309
529.701	38
532.593	44.1074
535.486	77.5928
538.379	70.7422
541.271	93.3936
544.164	108.647
547.057	86.9883
549.949	115.682
552.842	114.423
555.735	107.772
558.628	66.6856
561.52	60.4658
564.413	84.8389
567.306	83.4941
570.198	111.322
573.091	110.291
575.984	99.9766
578.876	59.3867
581.769	49.1357
584.662	65.8086
587.554	105.861
590.447	75.2305
593.34	31.457
596.233	36.625
599.125	38.9502
602.018	25.3936
604.911	49.9473
607.803	40.8506
610.696	60.5156
613.589	63.8496
616.481	29.5303
619.374	35.9902
622.267	32.0684
625.16	30.6641
628.052	33.5049
630.945	28.8574
633.838	48.1289
636.73	35.5918
639.623	9.15527
642.516	9.52441
645.409	1.88672
648.301	62.6484
651.194	27.6143
654.087	63.1699
656.979	32.0147
659.872	49.5078
662.765	36.7412
665.657	3.58887
668.55	12.9824
671.443	20.2695
674.335	45.9258
677.228	30.8018
680.121	12.999
683.014	27.2324
685.906	24.1914
688.799	4.20508
691.692	8.39062
694.584	6.4375
697.477	21.6436
700.37	23.6299
703.263	5.19043
706.155	1.06836
709.048	7.6416
711.941	48.9785
714.833	33.2598
717.726	2.61914
720.619	4.09668
723.511	11.2812
726.404	5.91894
729.297	23.9375
732.189	4.99023
735.082	9.37793
737.975	13.5127
740.868	22.9609
743.76	9.93555
746.653	44.5381
749.546	71.6406
752.438	82.2031
755.331	54.8584
758.224	49.6162
761.116	64.875
764.009	95.4053
766.902	112.28
769.795	140.973
772.687	198.017
775.58	262.938
778.473	351.591
781.365	447.915
784.258	564.523
787.151	709.699
790.043	820.227
792.936	972.763
795.829	1065.88
798.722	1026.8
801.614	990.312
804.507	839.416
807.4	757.486
810.292	664.267
813.185	677.877
816.078	806.292
818.971	907.323
821.863	796.076
824.756	539.379
827.649	436.134
830.541	349.497
833.434	298.842
836.327	264.151
839.219	209.253
842.112	225.272
845.005	238.167
847.898	251.546
850.79	262.057
853.683	198.839
856.576	122.825
859.468	75.3418
862.361	26.2217
865.254	12.9492
868.146	16.1104
871.039	7.80957
873.932	1.51562
876.824	20.915
879.717	10.3389
882.61	27.0117
885.503	22.3037
888.395	11.9629
891.288	8.08691
894.181	33.5254
897.073	60.6113
899.966	109.915
902.859	179.008
905.751	329.685
908.644	622.932
911.537	1019.75
914.43	1603.55
917.322	2397.32
920.215	2850.05
923.108	2241.64
926	1587.13
928.893	1246.65
931.786	1161.47
934.678	1368.51
937.571	1757.8
940.464	2277.31
943.357	2740.53
946.249	2856.86
949.142	2468.74
952.035	1828.39
954.927	1253.97
957.82	842.03
960.713	571.086
963.606	354.078
966.498	242.975
969.391	197.306
972.284	148.31
975.176	168.661
978.069	175.184
980.962	162.276
983.854	128.862
986.747	115.407
989.64	75.2353
992.533	42.1719
995.425	3.98535
998.318	15.4404
1001.21	58.8867
1004.1	119.786
1007	169.065
1009.89	230.675
1012.78	306.706
1015.67	301.412
1018.57	335.358
1021.46	323.874
1024.35	287.926
1027.24	229.267
1030.14	189.318
1033.03	173.556
1035.92	181.035
1038.82	105.087
1041.71	76.874
1044.6	66.7383
1047.49	68.3926
1050.39	55.7441
1053.28	40.2256
1056.17	38.9375
1059.07	2.86816
1061.96	8.78027
1064.85	19.1729
1067.74	24.7559
1070.63	16.5322
1073.53	8.00879
1076.42	22.9814
1079.31	25.7695
1082.21	39.6094
1085.1	48.6484
1087.99	13.4482
1090.88	6.65527
1093.78	56.3887
1096.67	31.6855
1099.56	16.8857
1102.45	15.9912
1105.35	25.4814
1108.24	37.5391
1111.13	54.3897
1114.03	27.6758
1116.92	37.4199
1119.81	44.5342
1122.7	56.2119
1125.6	27.5088
1128.49	2.25293
1131.38	2.92969
1134.28	31.7666
1137.17	37.1065
1140.06	42.666
1142.95	63.6514
1145.85	49.8613
1148.74	40.9609
1151.63	59.8359
1154.52	87.0352
1157.42	69.7188
1160.31	53.9365
1163.2	40.1758
1166.09	29.2754
1168.99	47.8984
1171.88	64.4551
1174.77	44.4248
1177.66	14.6435
1180.56	0.249023
1183.45	22.459
1186.34	47.4932
1189.24	13.9219
1192.13	7.73828
1195.02	17.7549
1197.91	46.4072
1200.81	31.8623
1203.7	21.9443
1206.59	27.6426
1209.48	25.833
1212.38	41.4199
1215.27	18.4854
1218.16	19.2314
1221.06	10.1611
1223.95	15.2227
1226.84	20.1357
1229.73	7.0625
1232.63	44.6143
1235.52	27.1182
1238.41	16.9619
1241.31	23.1504
1244.2	14.1924
1247.09	17.2803
1249.98	54.3897
1252.88	63.9297
1255.77	49.7773
1258.66	39.5352
1261.55	38.6172
1264.45	25.7441
1267.34	33.791
1270.23	89.9561
1273.12	39.5156
1276.02	37.9287
1278.91	16.2031
1281.8	20.1738
1284.69	1.39453
1287.59	0.887695
1290.48	16.209
1293.37	12.6875
1296.27	27.7939
1299.16	77.4092
1302.05	38.5185
