Measurement: Raman, 780 nm, unoriented, Raman Data Processed
Mineral: Pyrope
Rruff sample: R050446
Ideal chemistry: Mg_3_Al_2_(SiO_4_)_3_
Locality: Sunset Crater, Arizona, USA
Source: Marcus Origlieri
Description: Red fragment
Measured chemistry: (Mg_1.93_Fe^2+^_0.65_Ca_0.42_)_Î£=3_Al_2.00_(Si_1.00_O_4_)_3_
Raman shift (cm-1)	intensity
106.318	0
109.693	1.35408
113.068	2.73403
116.443	4.9291
119.817	6.00267
123.192	8.49508
126.567	6.81471
129.942	7.56463
133.317	7.10831
136.692	10.7665
140.066	14.0104
143.441	14.6445
146.816	13.3532
150.191	10.8662
153.566	8.11245
156.94	4.44073
160.315	2.76073
163.69	0.150234
167.065	0.680241
170.44	0.059158
173.815	0.543701
177.189	4.23117
180.564	8.76277
183.939	13.7026
187.314	21.0572
190.689	23.2377
194.064	30.1052
197.438	36.3028
200.813	40.9857
204.188	44.301
207.563	46.3007
210.938	42.3257
214.312	37.0051
217.687	30.7902
221.062	23.6256
224.437	17.6618
227.812	13.184
231.187	10.4861
234.561	8.54684
237.936	7.65589
241.311	6.37655
244.686	7.04329
248.061	6.02014
251.435	4.86401
254.81	3.9121
258.185	2.1104
261.56	3.86167
264.935	2.01235
268.31	1.44813
271.684	1.07629
275.059	0.573952
278.434	0.309586
281.809	1.33599
285.184	1.23582
288.558	0.897251
291.933	1.56315
295.308	1.97442
298.683	1.98605
302.058	3.73798
305.433	6.15705
308.807	10.6065
312.182	15.5415
315.557	20.5024
318.932	22.4185
322.307	20.1046
325.682	22.3076
329.056	23.1309
332.431	28.3082
335.806	38.454
339.181	51.9228
342.556	70.2725
345.93	95.5397
349.305	130.009
352.68	177.779
356.055	238.046
359.43	281.523
362.805	268.401
366.179	200.268
369.554	141.469
372.929	102.735
376.304	73.1792
379.679	54.5594
383.053	39.6251
386.428	29.2081
389.803	21.6065
393.178	15.7788
396.553	11.0178
399.928	7.69314
403.302	5.70071
406.677	5.70376
410.052	2.6315
413.427	1.96254
416.802	0.311258
420.176	0.417936
423.551	1.01021
426.926	1.42497
430.301	0.294411
433.676	0.360003
437.05	0.045925
440.425	0.293608
443.8	0.777445
447.175	0.405718
450.55	0.180777
453.925	0.810795
457.299	1.26635
460.674	3.59599
464.049	4.50647
467.424	5.12578
470.799	7.06369
474.173	9.0014
477.548	13.6221
480.923	19.2534
484.298	25.5095
487.673	26.7504
491.048	20.8381
494.422	15.5201
497.797	18.7404
501.172	30.4982
504.547	49.5861
507.922	62.1191
511.296	43.7807
514.671	25.2666
518.046	17.0314
521.421	12.1252
524.796	12.0383
528.171	12.115
531.545	12.9239
534.92	16.4766
538.295	21.9894
541.67	33.0635
545.045	46.2781
548.42	66.0678
551.794	97.9641
555.169	139.725
558.544	177.742
561.919	149.691
565.294	85.132
568.668	42.2945
572.043	21.0675
575.418	11.8871
578.793	6.86912
582.168	4.24982
585.543	6.17882
588.917	3.82779
592.292	4.19033
595.667	1.13518
599.042	0.414524
602.417	0.843777
605.791	0.549541
609.166	0.68037
612.541	0.511049
615.916	0.250923
619.291	1.03326
622.665	2.93604
626.04	6.50741
629.415	11.7906
632.79	19.872
636.165	35.4539
639.54	51.9799
642.914	58.2371
646.289	40.5033
649.664	25.5043
653.039	16.0514
656.414	11.6553
659.789	8.1463
663.163	6.74551
666.538	3.8317
669.913	3.1823
673.288	2.67491
676.663	1.68014
680.038	0.356913
683.412	0.678886
686.787	0.037745
690.162	0.763607
693.537	0.126833
696.912	0.762762
700.286	1.29135
703.661	1.65535
707.036	1.97673
710.411	1.03823
713.786	2.73965
717.16	1.87508
720.535	2.86285
723.91	2.11908
727.285	1.49569
730.66	2.77481
734.034	2.65086
737.409	2.87053
740.784	4.03694
744.159	3.53758
747.534	5.00759
750.909	4.73301
754.284	4.40421
757.658	3.86642
761.033	3.98558
764.408	3.6622
767.783	3.15827
771.158	2.14421
774.532	1.89796
777.907	1.44449
781.282	1.16223
784.657	1.71954
788.032	1.62329
791.407	0.058702
794.781	1.0057
798.156	0.48522
801.531	1.21516
804.906	1.58765
808.281	1.48527
811.655	1.12662
815.03	0.748556
818.405	1.47584
821.78	6.22421
825.155	5.59765
828.529	6.71403
831.904	8.48575
835.279	11.4842
838.654	15.6295
842.029	26.3072
845.404	40.7656
848.778	60.1314
852.153	87.324
855.528	117.116
858.903	127.999
862.278	110.381
865.653	79.9615
869.027	55.0714
872.402	38.5443
875.777	29.1081
879.152	26.4343
882.527	29.0408
885.901	36.9837
889.276	46.8544
892.651	62.7357
896.026	78.8297
899.401	104.567
902.775	154.557
906.15	239.134
909.525	372.823
912.9	549.344
916.275	709.164
919.65	693.442
923.024	494.916
926.399	297.686
929.774	177.434
933.149	110.54
936.524	69.2325
939.899	44.4433
943.273	26.7804
946.648	15.7692
950.023	9.17347
953.398	5.48339
956.773	2.05925
960.148	0.853271
963.522	0.633759
966.897	0.401806
970.272	1.52201
973.647	0.372196
977.021	1.52143
980.396	1.08692
983.771	0.494993
987.146	0.569088
990.521	0.858786
993.896	0.343912
997.27	0.083126
1000.64	0.146557
1004.02	1.48609
1007.39	1.47793
1010.77	2.35527
1014.14	5.84607
1017.52	8.48912
1020.89	11.7037
1024.27	15.0859
1027.64	17.2677
1031.02	20.6797
1034.39	24.463
1037.77	29.3845
1041.14	36.4357
1044.52	46.2242
1047.89	54.4878
1051.27	58.8364
1054.64	54.2318
1058.02	42.1894
1061.39	27.4811
1064.77	17.3117
1068.14	10.4532
1071.52	7.71855
1074.89	4.53856
1078.27	3.3303
1081.64	2.56512
1085.02	2.12748
1088.39	2.36436
1091.77	1.7036
1095.14	1.56462
1098.52	2.21341
1101.89	2.06216
1105.27	0.908139
1108.64	1.22595
1112.01	0.879984
1115.39	1.08619
1118.76	0.62606
1122.14	0.126375
1125.51	0.33837
1128.89	0.770331
1132.26	1.5559
1135.64	0.3704
1139.01	1.33078
1142.39	0.311163
1145.76	0.085221
1149.14	0.804708
1152.51	1.15218
1155.89	1.68963
1159.26	1.45638
1162.64	1.2467
1166.01	1.18805
1169.39	1.97638
1172.76	2.50693
1176.14	2.60541
1179.51	2.33831
1182.88	2.79492
1186.26	2.62857
1189.63	2.63219
1193.01	2.53553
1196.38	1.90081
1199.76	2.65288
1203.13	1.04771
1206.51	0.023238
1209.88	0.976245
1213.26	1.20233
1216.63	0.858946
1220.01	0.823889
1223.38	0.982285
1226.76	1.25828
1230.13	0.978102
1233.51	1.21292
1236.88	0.142117
1240.26	0.641916
1243.63	1.26451
1247.01	1.49
1250.38	0.049334
1253.76	0.123474
1257.13	1.04536
1260.51	1.16267
1263.88	1.82614
1267.26	0.60667
1270.63	0.775987
1274.01	0.471101
1277.38	1.86923
1280.76	0.519235
1284.13	0.06889
1287.51	0
