Measurement: Raman, 532 nm, unoriented, Raman Data Processed
Mineral: Pyrope
Rruff sample: R060448
Ideal chemistry: Mg_3_Al_2_(SiO_4_)_3_
Locality: India
Source: Gemological Institute of America
Description: Deep red water worn pebble, variety rhodolite
Measured chemistry: (Mg_1.47_Fe_1.27_Ca_0.21_Mn_0.05_)_Î£=3_Al_2.00_(Si_1.00_O_4_)_3_
Raman shift (cm-1)	intensity
114.072	0
117.447	0.176559
120.822	2.99531
124.197	1.53699
127.572	0.078835
130.946	1.32108
134.321	1.34787
137.696	3.39636
141.071	4.08344
144.446	4.7188
147.82	4.16168
151.195	5.46298
154.57	2.73743
157.945	2.89311
161.32	1.74101
164.694	0.579208
168.069	1.25983
171.444	2.67841
174.819	9.16633
178.194	13.1427
181.569	11.4072
184.943	6.33641
188.318	4.80386
191.693	4.88875
195.068	6.46882
198.443	11.96
201.817	17.7687
205.192	22.4517
208.567	24.8578
211.942	22.5026
215.317	15.9802
218.691	9.8323
222.066	5.14706
225.441	1.00392
228.816	1.82359
232.191	0.161728
235.566	0.993736
238.94	2.6181
242.315	0.365353
245.69	0.51482
249.065	0.026627
252.44	0.548679
255.815	1.38799
259.189	0.992455
262.564	1.37488
265.939	0.198788
269.314	1.34288
272.689	0.256165
276.063	0.403534
279.438	1.9241
282.813	2.61693
286.188	1.99487
289.563	2.55492
292.938	2.0956
296.312	3.35689
299.687	6.40939
303.062	9.20915
306.437	9.66502
309.812	13.652
313.186	21.8491
316.561	28.7789
319.936	29.2685
323.311	33.2218
326.686	42.4775
330.06	57.8753
333.435	79.1763
336.81	105.994
340.185	128.719
343.56	154.73
346.935	197.017
350.309	259.69
353.684	312.367
357.059	278.73
360.434	199.616
363.809	141.007
367.183	116.71
370.558	105.563
373.933	91.7467
377.308	73.0893
380.683	52.6675
384.058	34.9043
387.432	22.344
390.807	14.8474
394.182	9.51926
397.557	7.91839
400.932	5.3526
404.306	2.68599
407.681	2.57258
411.056	1.00402
414.431	0.205158
417.806	0.005772
421.18	0.248466
424.555	0.814695
427.93	1.01643
431.305	0.00787
434.68	0.278172
438.055	1.25393
441.429	0.790209
444.804	0.933699
448.179	0.936544
451.554	0.369883
454.929	1.83074
458.303	1.81481
461.678	2.16746
465.053	3.28083
468.428	2.62753
471.803	6.16273
475.178	7.24316
478.552	11.2871
481.927	16.1511
485.302	16.4604
488.677	11.8364
492.052	9.44677
495.426	12.0504
498.801	20.2892
502.176	36.4111
505.551	42.847
508.926	25.9817
512.301	12.8269
515.675	8.32391
519.05	8.49374
522.425	7.48296
525.8	8.25328
529.175	7.68069
532.549	7.83705
535.924	12.5063
539.299	18.0992
542.674	27.4397
546.049	38.7198
549.423	57.3753
552.798	84.3476
556.173	119.713
559.548	126.599
562.923	82.32
566.298	40.9002
569.672	19.0576
573.047	9.72419
576.422	5.7559
579.797	3.3223
583.172	2.23067
586.546	3.69618
589.921	4.09163
593.296	1.88293
596.671	0.428932
600.046	1.37909
603.42	0.499952
606.795	1.06332
610.17	1.82303
613.545	0.796764
616.92	0.363031
620.295	0.298906
623.669	0.740013
627.044	3.93416
630.419	7.70636
633.794	15.4198
637.169	22.849
640.543	24.6949
643.918	16.2503
647.293	9.50416
650.668	5.96339
654.043	3.78936
657.418	1.87137
660.792	1.12142
664.167	1.47476
667.542	0.644115
670.917	0.475554
674.292	1.14806
677.667	0.756155
681.041	1.09441
684.416	0.0116
687.791	0.424274
691.166	1.31416
694.541	1.51401
697.915	0.091137
701.29	0.266939
704.665	0.961664
708.04	1.49202
711.415	1.34675
714.789	2.27416
718.164	3.45851
721.539	2.67724
724.914	2.99967
728.289	1.33954
731.664	2.57745
735.038	2.67309
738.413	2.1752
741.788	2.33385
745.163	2.89357
748.538	3.06217
751.913	3.96729
755.287	2.27578
758.662	2.67176
762.037	2.80838
765.412	2.68723
768.787	2.06054
772.161	1.83061
775.536	4.07104
778.911	1.44127
782.286	2.2187
785.661	1.5235
789.035	1.74361
792.41	0.919224
795.785	1.07426
799.16	0.370655
802.535	0.129274
805.909	0.785326
809.284	0.634983
812.659	0.440033
816.034	0.719149
819.409	0.707905
822.784	1.24755
826.158	0.676388
829.533	0.936199
832.908	1.98779
836.283	2.03869
839.658	3.8369
843.033	7.30066
846.407	12.494
849.782	21.9665
853.157	30.384
856.532	45.6334
859.907	63.3649
863.281	70.0732
866.656	57.3422
870.031	39.8841
873.406	28.4024
876.781	23.2256
880.155	21.6796
883.53	26.2422
886.905	33.1725
890.28	43.266
893.655	58.2671
897.03	81.4013
900.404	108.635
903.779	155.959
907.154	235.02
910.529	351.354
913.904	518.158
917.278	694.791
920.653	697.851
924.028	477.7
927.403	278.935
930.778	163.144
934.153	99.8606
937.527	64.0942
940.902	40.2149
944.277	25.5509
947.652	16.0041
951.027	10.4225
954.401	8.02982
957.776	4.15815
961.151	2.68268
964.526	1.46588
967.901	0.931015
971.275	0.833023
974.65	0.797815
978.025	1.08733
981.4	0.749647
984.775	0.478508
988.15	0.092424
991.524	0.496037
994.899	0.532099
998.274	0.172529
1001.65	0.363443
1005.02	1.26352
1008.4	1.71057
1011.77	1.56589
1015.15	3.91405
1018.52	5.8079
1021.9	7.81924
1025.27	8.83287
1028.65	11.7438
1032.02	14.0212
1035.4	17.7337
1038.77	22.502
1042.15	27.9308
1045.52	32.6082
1048.9	35.8361
1052.27	33.8154
1055.65	29.5499
1059.02	18.9164
1062.4	11.0795
1065.77	7.42602
1069.14	4.69885
1072.52	4.24962
1075.89	2.33671
1079.27	2.00292
1082.64	1.80692
1086.02	2.21061
1089.39	1.13247
1092.77	0.734236
1096.14	0.04675
1099.52	0.556279
1102.89	0.926698
1106.27	0.658944
1109.64	0.18268
1113.02	0.79681
1116.39	0.613134
1119.77	1.50594
1123.14	0.500101
1126.52	0.757421
1129.89	0.662264
1133.27	1.38968
1136.64	0.602522
1140.02	0.936988
1143.39	0.519738
1146.77	1.19281
1150.14	1.96705
1153.52	1.05551
1156.89	0.845143
1160.27	1.88386
1163.64	1.01681
1167.02	2.01986
1170.39	2.03253
1173.77	1.78117
1177.14	1.10916
1180.51	3.162
1183.89	2.14044
1187.26	2.72736
1190.64	2.09598
1194.01	2.51457
1197.39	1.27975
1200.76	2.35868
1204.14	0.945661
1207.51	2.29436
1210.89	1.62637
1214.26	0.109003
1217.64	1.33946
1221.01	0.779137
1224.39	0.065187
1227.76	0.834196
1231.14	0.682383
1234.51	0.295139
1237.89	1.07878
1241.26	0.35158
1244.64	0.297312
1248.01	0.427395
1251.38	0.850069
1254.76	0.385525
1258.13	0.665716
1261.51	0.375227
1264.88	0.589701
1268.26	0.793629
1271.63	0.888309
1275.01	0.911804
1278.38	0.943659
1281.76	0.064022
1285.13	0.863892
