Measurement: Raman, 532 nm, unoriented, Raman Data Processed
Mineral: Pyrophanite
Rruff sample: R070211
Ideal chemistry: Mn^2+^TiO_3_
Locality: Harstigen Mine, Pajsberg, Filipstad, Varmland, Sweden
Source: Michael Scott
Description: Red-brown platy crystals with deep red internal hints, associated with barite
Raman shift (cm-1)	intensity
121.699	0
125.074	4.9533
128.449	3.64947
131.823	21.2422
135.198	64.4708
138.573	109.292
141.948	89.4832
145.323	122.38
148.698	221.201
152.072	349.153
155.447	554.528
158.822	899.575
162.197	1410.09
165.572	1202.12
168.946	432.876
172.321	156.034
175.696	61.5857
179.071	17.5019
182.446	39.429
185.821	120.246
189.195	265.496
192.57	467.272
195.945	832.875
199.32	1372.75
202.695	1357.63
206.07	526.895
209.444	142.864
212.819	31.1787
216.194	11.1429
219.569	14.1399
222.944	155.205
226.318	194.607
229.693	344.803
233.068	533.193
236.443	527.614
239.818	416.085
243.192	520.405
246.567	838.482
249.942	1382.7
253.317	2198.19
256.692	3241.72
260.067	4291.87
263.441	4190.29
266.816	2647.69
270.191	1424.05
273.566	801.106
276.941	445.161
280.315	242.142
283.69	118.494
287.065	43.5878
290.44	10.2892
293.815	24.1923
297.19	34.6876
300.564	4.35352
303.939	23.8601
307.314	67.0884
310.689	133.604
314.064	266.011
317.438	413.36
320.813	652.076
324.188	969.839
327.563	1332.07
330.938	1645.55
334.313	1696.81
337.687	1350.87
341.062	1129.65
344.437	1275.28
347.812	1679.02
351.187	2360.68
354.562	3329.78
357.936	4006
361.311	3093.03
364.686	1491.93
368.061	639.924
371.436	271.21
374.81	109.35
378.185	7.46094
381.56	28.5238
384.935	37.6255
388.31	31.8692
391.685	17.1024
395.059	34.8285
398.434	55.3786
401.809	89.1405
405.184	110.04
408.559	144.32
411.933	143.763
415.308	170.184
418.683	183.717
422.058	208.019
425.433	204.162
428.808	247.812
432.182	301.083
435.557	349.138
438.932	450.716
442.307	547.787
445.682	770.259
449.056	1081.25
452.431	1503.37
455.806	2043.64
459.181	2534.4
462.556	2885.37
465.93	2668.93
469.305	2003.04
472.68	1340.79
476.055	912.343
479.43	670.169
482.805	480.792
486.179	427.326
489.554	362.992
492.929	323.233
496.304	293.708
499.679	263.041
503.053	242.8
506.428	234.65
509.803	217.47
513.178	195.833
516.553	170.018
519.928	155.894
523.302	127.359
526.677	121.373
530.052	95.1777
533.427	80.2441
536.802	70.8778
540.177	41.0353
543.551	35.4246
546.926	0.520996
550.301	17.657
553.676	29.554
557.051	41.3719
560.425	16.8178
563.8	39.703
567.175	34.0458
570.55	97.6216
573.925	202.269
577.299	309.919
580.674	429.936
584.049	567.598
587.424	761.164
590.799	900.987
594.174	967.893
597.548	968.862
600.923	816.267
604.298	672.417
607.673	553.699
611.048	391.873
614.423	247.731
617.797	151.538
621.172	16.884
624.547	22.4544
627.922	58.3369
631.297	24.0466
634.671	34.8257
638.046	71.1733
641.421	187.474
644.796	412.394
648.171	732.139
651.545	1183.96
654.92	1842.83
658.295	2766.18
661.67	4068.28
665.045	5899.97
668.42	8250.89
671.794	11131
675.169	14554
678.544	17438.5
681.919	18953.2
685.294	18130.6
688.668	15664.4
692.043	12614.6
695.418	10229.2
698.793	8157.61
702.168	6662.78
705.543	5417.17
708.917	4404.01
712.292	3606.08
715.667	2912.73
719.042	2375.82
722.417	1981.3
725.792	1660.3
729.166	1412.9
732.541	1125.5
735.916	948.149
739.291	790.5
742.666	646.065
746.04	476.98
749.415	358.516
752.79	221.51
756.165	125.198
759.54	36.3169
762.915	1.34155
766.289	32.0912
769.664	30.2199
773.039	56.7943
776.414	42.3535
779.789	18.156
783.163	31.8284
786.538	13.2173
789.913	9.59998
793.288	10.3752
796.663	30.0723
800.038	38.1475
803.412	35.9309
806.787	89.1562
810.162	113.642
813.537	143.935
816.912	167.699
820.286	194.999
823.661	199.841
827.036	205.843
830.411	216.741
833.786	213.072
837.16	209.927
840.535	221.393
843.91	189.511
847.285	202.315
850.66	188.056
854.035	174.573
857.409	149.325
860.784	137.321
864.159	103.473
867.534	98.3486
870.909	92.643
874.284	82.4355
877.658	89.7799
881.033	73.4349
884.408	53.7656
887.783	49.605
891.158	33.0466
894.533	37.3225
897.907	30.2247
901.282	48.2954
904.657	49.8199
908.032	29.4615
911.407	28.8718
914.781	42.9054
918.156	49.1064
921.531	36.9473
924.906	21.9423
928.281	29.9955
931.655	28.1224
935.03	32.6869
938.405	36.2709
941.78	43.6342
945.155	48.636
948.529	59.7397
951.904	34.0351
955.279	36.1992
958.654	32.0254
962.029	14.944
965.404	27.7283
968.778	37.7363
972.153	14.1124
975.528	21.999
978.903	11.9269
982.278	4.19531
985.653	16.1249
989.027	6.93573
992.402	19.6155
995.777	22.9958
999.152	12.3447
1002.53	29.3928
1005.9	23.6584
1009.28	24.5104
1012.65	44.4997
1016.03	13.5613
1019.4	31.4794
1022.78	36.1129
1026.15	16.3669
1029.53	2.33478
1032.9	38.4293
1036.28	25.0743
1039.65	35.818
1043.02	18.0085
1046.4	24.3987
1049.77	25.8963
1053.15	10.5078
1056.52	34.5196
1059.9	10.3156
1063.27	3.74524
1066.65	3.12616
1070.02	26.9156
1073.4	18.953
1076.77	28.6705
1080.15	15.0632
1083.52	5.00519
1086.9	24.4116
1090.27	0.074463
1093.65	34.1824
1097.02	12.6376
1100.4	6.32538
1103.77	39.971
1107.15	18.876
1110.52	12.5965
1113.9	4.3031
1117.27	6.94434
1120.64	27.3059
1124.02	39.001
1127.39	19.6392
1130.77	25.6429
1134.14	24.4202
1137.52	40.666
1140.89	27.4362
1144.27	30.5941
1147.64	21.1412
1151.02	38.4839
1154.39	21.4577
1157.77	34.4749
1161.14	16.1974
1164.52	32.9434
1167.89	12.4353
1171.27	15.0887
1174.64	21.0475
1178.02	6.71082
1181.39	20.0006
1184.77	18.0624
1188.14	17.6585
1191.52	17.9665
1194.89	38.2496
1198.27	15.9753
1201.64	11.9416
1205.02	13.4638
1208.39	3.77893
1211.77	7.43866
1215.14	9.75787
1218.52	20.9592
1221.89	13.6071
1225.27	16.4908
1228.64	24.1956
1232.01	16.3852
1235.39	18.3877
1238.76	22.1362
1242.14	4.448
1245.51	6.38446
1248.89	17.7504
1252.26	65.2147
1255.64	24.6729
1259.01	37.3254
1262.39	36.0084
1265.76	46.6121
1269.14	37.911
1272.51	8.33887
1275.89	22.6647
1279.26	21.0656
1282.64	28.1339
1286.01	22.24
1289.39	27.6736
1292.76	12.3831
1296.14	0
