Measurement: Raman, 785 nm, unoriented, Raman Data Processed
Mineral: Pyromorphite
Rruff sample: R050085
Ideal chemistry: Pb_5_(PO_4_)_3_Cl
Locality: Bunker Hill mine, Shoshone County, Idaho, USA
Source: Eugene Schlepp
Description: Group of orange hexagonal prisms
Measured chemistry: Pb_5.00_(P_0.96_As_0.04_O_4_)_3_Cl_1.00_
Raman shift (cm-1)	intensity
154.286	0
157.178	39.5447
160.071	5.66418
162.964	69.8779
165.856	101.866
168.749	138.468
171.642	163.699
174.534	177.665
177.427	219.693
180.32	211.525
183.212	254.232
186.105	208.379
188.998	186.124
191.891	136.328
194.783	68.09
197.676	21.5115
200.569	0.09375
203.461	22.3713
206.354	46.4939
209.247	41.9502
212.139	31.9519
215.032	33.9727
217.925	67.5996
220.818	123.802
223.71	165.172
226.603	291.792
229.496	385.95
232.388	489.226
235.281	619.931
238.174	816.554
241.066	910.082
243.959	1066.45
246.852	1140.84
249.745	1243.5
252.637	1290.1
255.53	1379.53
258.423	1474.86
261.315	1500.69
264.208	1501.12
267.101	1480.13
269.993	1384.88
272.886	1328.2
275.779	1155.62
278.672	1058.75
281.564	900.894
284.457	842.559
287.35	723.668
290.242	625.721
293.135	574.401
296.028	552.447
298.921	527.05
301.813	562.457
304.706	570.281
307.599	566.392
310.491	604.951
313.384	557.941
316.277	610.793
319.169	643.787
322.062	612.45
324.955	552.479
327.847	627.01
330.74	567.95
333.633	546.494
336.526	511.705
339.418	567.651
342.311	489.029
345.204	528.617
348.096	422.293
350.989	445.379
353.882	412.569
356.774	351.662
359.667	278.963
362.56	216.857
365.452	149.535
368.345	123.9
371.238	49.4734
374.131	15.0393
377.023	51.6267
379.916	29.699
382.809	18.5007
385.701	30.6467
388.594	109.537
391.487	101.918
394.38	74.7044
397.272	18.7195
400.165	23.8347
403.058	46.5938
405.95	13.6736
408.843	3.83838
411.736	9.18066
414.628	17.8997
417.521	15.6804
420.414	3.94238
423.307	29.7864
426.199	36.6587
429.092	49.5325
431.985	19.1807
434.877	9.73852
437.77	18.7949
440.663	13.4573
443.555	12.4575
446.448	20.2134
449.341	5.76392
452.234	25.5356
455.126	39.2854
458.019	38.0947
460.912	52.8247
463.804	32.5737
466.697	32.2241
469.59	57.5286
472.483	59.1799
475.375	52.3733
478.268	82.7102
481.161	48.6108
484.053	21.7527
486.946	64.2449
489.839	41.8137
492.731	37.8323
495.624	23.9736
498.517	20.1577
501.409	4.41602
504.302	24.0447
507.195	32.2747
510.088	43.6892
512.98	54.5259
515.873	58.342
518.766	84.3648
521.658	55.6655
524.551	110.931
527.444	127.074
530.337	121.354
533.229	125.687
536.122	159.46
539.015	168.807
541.907	184.777
544.8	208.081
547.693	223.437
550.585	233.095
553.478	266.648
556.371	252.766
559.263	287.773
562.156	309.804
565.049	335.569
567.942	347.994
570.834	342.043
573.727	386.556
576.62	375.316
579.512	355.798
582.405	382.044
585.298	374.758
588.19	411.705
591.083	370.314
593.976	336.224
596.869	357.164
599.761	354.015
602.654	344.42
605.547	324.988
608.439	311.347
611.332	277.291
614.225	256.723
617.117	220.025
620.01	184.685
622.903	159.698
625.795	160.561
628.688	127.996
631.581	104.012
634.474	93.1363
637.366	62.005
640.259	75.7606
643.152	42.01
646.044	46.2786
648.937	27.0608
651.83	12.6213
654.722	19.1167
657.615	3.47266
660.508	14.9486
663.401	5.69617
666.293	20.9431
669.186	7.19458
672.079	0.648682
674.971	12.3223
677.864	17.7715
680.757	3.11609
683.649	14.9854
686.542	3.70361
689.435	18.033
692.328	7.14002
695.22	4.11743
698.113	29.9834
701.006	4.92425
703.898	25.8411
706.791	22.3788
709.684	44.8218
712.577	37.4722
715.469	38.6697
718.362	43.8149
721.255	43.7287
724.147	36.6956
727.04	27.0545
729.933	58.4362
732.825	45.0763
735.718	48.4764
738.611	40.4605
741.504	42.7599
744.396	60.473
747.289	48.1932
750.182	35.9111
753.074	19.9974
755.967	21.6135
758.86	31.6746
761.752	46.7298
764.645	27.1114
767.538	19.559
770.431	36.2143
773.323	16.421
776.216	26.7451
779.109	51.5865
782.001	26.9949
784.894	31.9487
787.787	32.9337
790.679	32.8394
793.572	29.0217
796.465	43.7239
799.357	42.9893
802.25	49.8702
805.143	73.7921
808.036	114.296
810.928	187.921
813.821	283.47
816.714	413.985
819.606	397.063
822.499	212.783
825.392	121.151
828.284	74.7876
831.177	49.0529
834.07	47.9277
836.963	32.8289
839.855	55.6002
842.748	50.3443
845.641	56.2467
848.533	64.2585
851.426	41.2801
854.319	35.1751
857.212	38.0222
860.104	26.4994
862.997	31.9003
865.89	3.19534
868.782	10.4903
871.675	13.7117
874.568	19.6229
877.46	4.68002
880.353	7.40851
883.246	31.9222
886.139	4.84357
889.031	7.6048
891.924	1.03647
894.817	7.32904
897.709	3.8074
900.602	6.37891
903.495	23.586
906.388	77.4622
909.28	178.413
912.173	308.401
915.066	540.524
917.958	768.653
920.851	650.49
923.744	383.611
926.636	205.022
929.529	136.109
932.422	143.474
935.314	189.336
938.207	220.25
941.1	318.988
943.993	336.53
946.885	318.92
949.778	220.703
952.671	120.008
955.563	56.8619
958.456	12.4774
961.349	17.3717
964.241	5.6217
967.134	7.69061
970.027	0.218262
972.92	6.8963
975.812	19.014
978.705	35.3831
981.598	35.1455
984.49	51.5992
987.383	35.7284
990.276	47.6604
993.168	72.6054
996.061	86.8219
998.954	113.339
1001.85	120.403
1004.74	115.477
1007.63	128.668
1010.52	109.895
1013.42	140.732
1016.31	102.659
1019.2	108.459
1022.1	67.9935
1024.99	60.5271
1027.88	29.0703
1030.77	5.96387
1033.67	2.33154
1036.56	7.08545
1039.45	28.1453
1042.34	21.4189
1045.24	38.3701
1048.13	13.269
1051.02	35.9551
1053.91	74.9353
1056.81	61.6877
1059.7	59.3379
1062.59	144.709
1065.49	208.125
1068.38	252.775
1071.27	386.29
1074.16	545.754
1077.06	657.534
1079.95	835.373
1082.84	1063.87
1085.73	1204.63
1088.63	1372.5
1091.52	1650.42
1094.41	1787.27
1097.31	1867.48
1100.2	2103.08
1103.09	2231.7
1105.98	2324.12
1108.88	2465.46
1111.77	2488.11
1114.66	2698.26
1117.56	2675.24
1120.45	2817.36
1123.34	2926.51
1126.23	3071.3
1129.12	3191.27
1132.02	3372.27
1134.91	3386.76
1137.8	3420.32
1140.7	3241.2
1143.59	3281.36
1146.48	3123.66
1149.37	2969.97
1152.27	2828.28
1155.16	2592.99
1158.05	2349.43
1160.94	2142.23
1163.84	1892.72
1166.73	1649.81
1169.62	1478.46
1172.52	1066.26
1175.41	747.148
1178.3	518.562
1181.19	175.877
1184.09	37.7305
1186.98	210.266
1189.87	115.102
1192.77	129.103
1195.66	546.488
1198.55	575.519
1201.44	884.889
1204.34	1134.68
1207.23	1399.17
1210.12	1771.19
1213.01	1849.02
1215.91	1602.55
1218.8	1454
1221.69	1332.18
1224.58	1320.26
1227.48	1160.7
1230.37	927.555
1233.26	752.402
1236.15	445.766
1239.05	176.391
1241.94	228.047
