Measurement: Raman, 532 nm, unoriented, Raman Data Processed
Mineral: Pyrosmalite-(Fe)
Rruff sample: R050158
Ideal chemistry: Fe^2+^_8_Si_6_O_15_(OH)_10_
Locality: Burguillos del Cerro, Badajos, Spain
Source: Jim McGlasson
Description: Green subhedral crystal aggregate
Measured chemistry: (Fe^2+^_0.92_Mn^2+^_0.06_Mg_0.02_)_8_Si_6_O_15_(OH_0.83_Cl_0.17_)_10_
Raman shift (cm-1)	intensity
154.493	0
157.386	3.35797
160.278	33.3349
163.171	77.5577
166.064	113.082
168.956	147.404
171.849	179.033
174.742	217.165
177.634	268.024
180.527	327.684
183.42	404.325
186.312	473.869
189.205	469.829
192.098	408.329
194.991	323.334
197.883	223.781
200.776	141.358
203.669	81.7969
206.561	40.1686
209.454	9.84143
212.347	7.14618
215.239	16.222
218.132	9.86295
221.025	2.64603
223.918	9.9527
226.81	25.2129
229.703	29.836
232.596	40.846
235.488	60.4238
238.381	85.9167
241.274	112.328
244.167	151.084
247.059	184.993
249.952	226.598
252.845	267.267
255.737	303.008
258.63	322.582
261.523	323.191
264.415	301.216
267.308	274.139
270.201	230.261
273.094	172.312
275.986	111.032
278.879	67.9103
281.772	35.912
284.664	30.1686
287.557	35.8899
290.45	53.592
293.342	73.0099
296.235	108.777
299.128	141.358
302.02	187.351
304.913	241.437
307.806	297.481
310.699	321.147
313.591	318.614
316.484	328.003
319.377	376.35
322.269	498.049
325.162	679.644
328.055	706.532
330.947	401.59
333.84	156.464
336.733	55.9251
339.625	18.2487
342.518	4.83414
345.411	9.14581
348.304	7.66031
351.196	3.74884
354.089	21.6474
356.982	44.7792
359.875	75.6997
362.767	114.576
365.66	119.658
368.553	104.764
371.445	77.5568
374.338	46.7943
377.231	23.3892
380.123	10.7853
383.016	0.218781
385.909	1.90765
388.801	7.49072
391.694	11.1877
394.587	24.2988
397.48	37.9283
400.372	61.3613
403.265	89.0947
406.158	106.498
409.05	138.432
411.943	176.525
414.836	222.945
417.728	265.867
420.621	274.865
423.514	236.935
426.406	166.093
429.299	119.517
432.192	88.7151
435.085	77.3726
437.977	67.7308
440.87	52.7973
443.763	28.6476
446.655	7.62027
449.548	4.07324
452.441	4.29221
455.334	3.43796
458.226	2.63501
461.119	11.211
464.012	20.9514
466.904	39.3279
469.797	59.6562
472.69	73.3433
475.582	84.8866
478.475	117.12
481.368	170.953
484.26	219.561
487.153	214.595
490.046	133.517
492.939	72.7628
495.831	41.7978
498.724	28.5369
501.617	20.2979
504.509	16.8929
507.402	17.3438
510.295	16.7313
513.188	19.443
516.08	24.623
518.973	26.463
521.866	25.4016
524.758	15.6866
527.651	7.81311
530.544	5.01315
533.436	0.420685
536.329	1.27539
539.222	1.32852
542.115	0.92157
545.007	0.105347
547.9	2.87985
550.793	0.583618
553.685	1.62872
556.578	0.262665
559.471	0.786133
562.363	5.56509
565.256	7.25403
568.149	10.0918
571.042	13.8142
573.934	16.5791
576.827	22.7457
579.72	29.8045
582.612	38.1223
585.505	51.8548
588.398	67.2385
591.29	98.1268
594.183	148.417
597.076	234.846
599.968	370.258
602.861	565.17
605.754	806.064
608.647	1113.38
611.539	1512.8
614.432	1900.6
617.325	1952.71
620.217	1540.01
623.11	965.256
626.003	568.522
628.895	354.385
631.788	236.299
634.681	168.628
637.574	123.759
640.466	98.0491
643.359	78.5652
646.252	65.7314
649.144	56.9675
652.037	48.3206
654.93	41.5803
657.822	42.7431
660.715	40.3561
663.608	43.4367
666.501	35.0996
669.393	28.6889
672.286	20.066
675.179	11.1965
678.071	7.67047
680.964	0.278412
683.857	2.19318
686.75	2.58002
689.642	4.76135
692.535	2.84006
695.428	0.030731
698.32	0.844299
701.213	5.25571
704.106	5.30875
706.998	6.29096
709.891	10.8287
712.784	12.5585
715.677	16.769
718.569	22.7936
721.462	26.0841
724.355	27.9943
727.247	36.4782
730.14	46.2931
733.033	50.3947
735.925	59.1504
738.818	60.3813
741.711	58.4543
744.604	47.8032
747.496	30.4634
750.389	20.1158
753.282	10.8873
756.174	13.7026
759.067	15.2576
761.96	27.2889
764.852	28.2259
767.745	35.1301
770.638	33.5962
773.53	27.0681
776.423	20.5229
779.316	10.0287
782.209	6.6235
785.101	3.10055
787.994	2.84992
790.887	6.13257
793.779	10.619
796.672	16.8473
799.565	22.2136
802.457	33.5257
805.35	49.1275
808.243	63.1777
811.136	77.6871
814.028	85.9251
816.921	88.7763
819.814	83.6519
822.706	74.6054
825.599	53.3373
828.492	30.5182
831.385	16.7627
834.277	6.80072
837.17	1.43308
840.063	1.42786
842.955	0.184326
845.848	1.35977
848.741	1.20609
851.633	1.64368
854.526	2.13647
857.419	0.430145
860.312	2.50745
863.204	1.48401
866.097	2.4881
868.99	3.06751
871.882	4.97412
874.775	5.02814
877.668	3.17044
880.56	3.42502
883.453	3.62125
886.346	5.37967
889.239	4.85657
892.131	3.80182
895.024	0.296417
897.917	1.57239
900.809	2.25562
903.702	0.977936
906.595	1.80319
909.487	0.563171
912.38	0.041199
915.273	1.91058
918.165	0.907532
921.058	1.91904
923.951	3.02389
926.844	1.99033
929.736	1.46979
932.629	3.83472
935.522	2.90329
938.414	1.685
941.307	2.56024
944.2	5.33606
947.092	3.10968
949.985	2.92093
952.878	2.55527
955.771	2.00503
958.663	0.6008
961.556	1.72009
964.449	0.670715
967.341	0.835663
970.234	1.85843
973.127	1.7879
976.019	0.966827
978.912	3.67273
981.805	7.08914
984.697	8.70904
987.59	11.416
990.483	15.4085
993.376	21.1332
996.268	30.3947
999.161	39.1213
1002.05	54.4698
1004.95	74.5552
1007.84	105.905
1010.73	150.35
1013.62	210.676
1016.52	288.583
1019.41	384.759
1022.3	474.273
1025.19	526.946
1028.09	521.12
1030.98	438.093
1033.87	339.401
1036.77	249.809
1039.66	185.828
1042.55	140.84
1045.44	112.358
1048.34	86.7897
1051.23	70.4625
1054.12	57.2106
1057.02	44.732
1059.91	35.76
1062.8	30.976
1065.69	24.6704
1068.59	19.4688
1071.48	9.95422
1074.37	9.16324
1077.26	5.71918
1080.16	4.65961
1083.05	0.302155
1085.94	1.83737
1088.84	0.377289
1091.73	0.459473
1094.62	0.141388
1097.51	0.193085
1100.41	1.54901
1103.3	1.13779
1106.19	3.3299
1109.08	6.08404
1111.98	7.96634
1114.87	16.3045
1117.76	18.2067
1120.65	29.4319
1123.55	37.9093
1126.44	45.5617
1129.33	47.6073
1132.22	44.292
1135.12	30.0605
1138.01	28.5399
1140.9	15.2372
1143.8	7.78137
1146.69	5.03717
1149.58	1.93973
1152.47	1.17502
1155.37	1.56808
1158.26	1.39752
1161.15	0.178986
1164.05	4.03357
1166.94	7.18854
1169.83	1.51376
1172.72	1.68576
1175.62	2.75879
1178.51	2.06061
1181.4	6.27673
1184.29	6.06915
1187.19	4.65595
1190.08	2.89493
1192.97	6.49652
1195.87	5.52011
1198.76	2.30469
1201.65	1.13327
1204.54	0.208771
1207.43	4.74029
1210.33	3.90247
1213.22	2.98517
1216.11	2.86926
1219.01	2.74045
1221.9	3.85034
1224.79	1.32031
1227.68	4.48895
1230.58	5.37589
1233.47	3.19266
1236.36	0.193573
1239.26	1.43475
1242.15	1.00827
1245.04	1.17584
1247.93	0.736664
1250.83	1.008
1253.72	0.151581
1256.61	3.33145
1259.5	0.786133
1262.4	2.63083
1265.29	3.30804
1268.18	4.34036
1271.08	6.20059
1273.97	3.8031
1276.86	3.89783
1279.75	3.73151
1282.65	4.65683
1285.54	4.32944
1288.43	2.93506
1291.32	5.42007
1294.22	4.54559
1297.11	0.230377
1300	5.40991
1302.89	1.90695
