Measurement: Raman, 514 nm, unoriented, Raman Data Processed
Mineral: Pyromorphite
Rruff sample: R050085
Ideal chemistry: Pb_5_(PO_4_)_3_Cl
Locality: Bunker Hill mine, Shoshone County, Idaho, USA
Source: Eugene Schlepp
Description: Group of orange hexagonal prisms
Measured chemistry: Pb_5.00_(P_0.96_As_0.04_O_4_)_3_Cl_1.00_
Raman shift (cm-1)	intensity
52.866	0
57.065	81.594
61.262	17.804
65.458	173.277
69.651	1066.5
73.842	2322.08
78.031	4684.1
82.218	9572.2
86.404	16493.9
90.587	17843.1
94.768	12761.2
98.947	14129.9
103.124	18074.5
107.3	20244.5
111.473	13921.2
115.644	9426.4
119.813	7248.1
123.981	6272.32
128.146	6021.02
132.309	6096.25
136.47	6668.85
140.63	7328.76
144.787	8047.12
148.942	8246.98
153.096	8044.78
157.247	7971.74
161.396	7863.95
165.544	7952.44
169.689	8312.16
173.833	9042.07
177.974	9818.67
182.114	10883.1
186.251	11378.1
190.387	10837.2
194.52	9244
198.652	6980.51
202.782	5350.07
206.909	4380.42
211.035	3599.46
215.159	3031.11
219.281	2653.02
223.4	2341.03
227.518	1951.85
231.634	1622.45
235.748	1411.81
239.86	1139.37
243.97	990.494
248.079	783.737
252.185	628.756
256.289	560.256
260.391	394.009
264.492	298.838
268.59	217.613
272.687	73.229
276.781	50.596
280.874	20.577
284.964	108.034
289.053	138.459
293.14	173.797
297.225	221.138
301.308	251.595
305.389	177.241
309.468	119.972
313.545	55.844
317.62	107.593
321.693	307.706
325.765	397.931
329.834	594.125
333.902	761.673
337.967	983.938
342.031	1178.47
346.093	1186.82
350.153	1062.85
354.21	887.764
358.267	733.568
362.321	605.418
366.373	506.079
370.423	562.443
374.471	657.416
378.518	1009.47
382.563	1630.63
386.605	2696.24
390.646	4140.31
394.685	4526.69
398.722	4221.33
402.757	5855.17
406.79	9786.19
410.821	10895.3
414.851	7414.48
418.878	4470.37
422.904	2573.69
426.927	1757.68
430.949	1189.57
434.969	954.302
438.987	827.829
443.003	656.461
447.018	536.932
451.03	427.206
455.041	356.482
459.049	327.401
463.056	256.278
467.061	171.409
471.064	81.401
475.065	27.103
479.064	16.952
483.062	18.013
487.057	0.127
491.051	39.107
495.043	25.707
499.032	26.339
503.02	43.633
507.007	51.568
510.991	103.833
514.973	107.926
518.954	141.975
522.933	148.611
526.91	134.273
530.885	235.868
534.858	308.127
538.829	325.037
542.799	489.099
546.766	631.523
550.732	974.397
554.696	1095.05
558.658	664.958
562.618	510.61
566.576	440.072
570.533	462.321
574.488	497.974
578.44	464.469
582.391	477.087
586.341	417.985
590.288	393.117
594.233	351.611
598.177	292.924
602.119	364.293
606.059	338.25
609.997	310.906
613.933	281.335
617.868	274.599
621.801	268.793
625.731	268.732
629.66	267.578
633.588	240.12
637.513	223.844
641.437	190.099
645.358	140.968
649.278	111.039
653.196	118.88
657.113	33.682
661.027	47.833
664.94	61.362
668.851	7.437
672.76	31.095
676.667	3.12
680.572	15.225
684.476	9.105
688.378	7.002
692.278	6.583
696.176	1.714
700.072	32.418
703.967	61.742
707.86	6.673
711.751	29.134
715.64	15.182
719.527	52.843
723.413	34.974
727.297	31.779
731.179	14.06
735.059	30.426
738.937	60.406
742.814	52.771
746.689	3.483
750.562	9.419
754.433	70.445
758.303	77.129
762.17	83.652
766.036	110.027
769.901	275.265
773.763	391.542
777.624	612.293
781.482	872.073
785.339	1085.61
789.195	1164.95
793.048	839.614
796.9	612.465
800.75	768.549
804.598	1035.69
808.445	1828.31
812.289	4995.55
816.132	14774.7
819.973	19262.7
823.813	9078.59
827.65	3642.59
831.486	1992.49
835.32	1377.55
839.152	1099.6
842.983	849.853
846.812	791.51
850.639	798.455
854.464	645.818
858.288	394.716
862.11	279.271
865.93	116.99
869.748	42.563
873.564	12.023
877.379	33.892
881.192	23.881
885.004	27.652
888.813	103.752
892.621	161.042
896.427	280.328
900.232	517.415
904.034	965.003
907.835	1910.01
911.634	3796.71
915.432	9874.95
919.227	20052.7
923.021	17083.9
926.813	11923.7
930.604	11052.9
934.393	14540.6
938.18	23206.9
941.965	36782.7
945.749	46639.9
949.53	40844.6
953.311	27293.9
957.089	17344.7
960.866	11601.1
964.641	8052.01
968.414	5891.56
972.185	4528.74
975.955	3938.55
979.723	3577.01
983.49	3352.07
987.254	2752.75
991.017	2384.07
994.779	2072.97
998.538	2006.46
1002.3	2074.55
1006.05	2396.24
1009.81	2892.55
1013.56	3754.46
1017.31	4638.95
1021.06	5551.04
1024.81	5902.7
1028.55	5321.84
1032.3	4587.51
1036.04	3896.61
1039.78	3319.9
1043.52	2774.91
1047.26	2384.43
1050.99	2024.72
1054.73	1706.25
1058.46	1392.12
1062.19	1211.04
1065.92	1064.67
1069.65	894.878
1073.37	868.21
1077.1	833.075
1080.82	838.089
1084.54	767.159
1088.26	763.735
1091.97	686.45
1095.69	635.794
1099.4	572.591
1103.12	424.824
1106.83	313.613
1110.54	247.284
1114.24	165.523
1117.95	187.174
1121.65	301.491
1125.35	551.551
1129.06	925.225
1132.75	504.91
1136.45	372.5
1140.15	333.553
1143.84	362.338
1147.53	468.575
1151.22	463.414
1154.91	377.545
1158.6	298.131
1162.28	166.093
1165.97	100.751
1169.65	51.048
1173.33	36.077
1177.01	21.963
1180.69	21.167
1184.36	21.215
1188.04	26.44
1191.71	6.564
1195.38	28.665
1199.05	60.268
1202.71	41.567
1206.38	42.807
1210.04	56.586
1213.71	6.386
1217.37	24.85
1221.03	0.467
1224.68	9.229
1228.34	33.068
1231.99	46.481
1235.65	10.343
1239.3	42.395
1242.95	63.022
1246.59	30.794
1250.24	6.014
1253.88	18.117
1257.53	13.483
1261.17	0.883
1264.81	6.004
1268.45	25.992
1272.08	38.098
1275.72	84.586
1279.35	53.034
1282.98	73.073
1286.61	47.382
1290.24	40.575
1293.87	101.307
1297.49	117.089
1301.11	108.606
1304.73	153.122
1308.36	128.306
1311.97	110.804
1315.59	144.901
1319.2	116.542
1322.82	125.377
1326.43	211.388
1330.04	131.839
1333.65	141.076
1337.26	152.923
1340.86	165.669
1344.47	173.025
1348.07	182.644
1351.67	193.692
1355.27	159.824
1358.87	133.281
1362.46	116.834
1366.06	175.645
1369.65	142.48
1373.24	113.396
1376.83	174.392
1380.42	169.907
1384	151.31
1387.59	133.208
1391.17	77.68
1394.75	113.886
1398.33	93.567
1401.91	104.79
1405.49	108.446
1409.06	93.609
1412.64	127.103
1416.21	41.162
1419.78	143.77
1423.35	73.354
1426.91	105.878
1430.48	111.242
1434.05	59.169
1437.61	41.371
1441.17	70.557
1444.73	98.833
1448.29	69.002
1451.84	109.64
1455.4	166.838
1458.95	120.873
1462.5	135.326
1466.05	161.742
1469.6	137.088
1473.15	155.798
1476.69	86.263
1480.24	4.712
1483.78	16.247
1487.32	21.524
1490.86	15.905
1494.39	97.384
1497.93	17.274
1501.46	46.483
1505	42.985
