Measurement: Raman, 780 nm, unoriented, Raman Data Processed
Mineral: Pyrope
Rruff sample: R060445
Ideal chemistry: Mg_3_Al_2_(SiO_4_)_3_
Locality: Tanzania
Source: Gemological Institute of America
Description: Deep red water worn pebble, variety rhodolite
Measured chemistry: (Mg_1.83_Fe_1.08_Ca_0.07_Mn_0.02_)_Î£=3_Al_2.00_(Si_1.00_O_4_)_3_
Raman shift (cm-1)	intensity
112.626	0
116.001	0.343285
119.376	0.515659
122.75	1.50643
126.125	1.6357
129.5	1.31407
132.875	1.45242
136.25	2.77779
139.624	3.56196
142.999	4.53827
146.374	4.28926
149.749	4.42495
153.124	4.23794
156.499	2.80145
159.873	2.07711
163.248	1.08972
166.623	0.756575
169.998	0.547234
173.373	0.18973
176.747	1.37087
180.122	3.57964
183.497	4.8556
186.872	3.66384
190.247	5.3896
193.621	6.77835
196.996	8.70604
200.371	13.0496
203.746	19.052
207.121	26.2215
210.495	26.0335
213.87	16.4095
217.245	8.10695
220.62	3.4804
223.995	1.13546
227.37	0.776508
230.744	0.885406
234.119	0.483126
237.494	0.267914
240.869	0.235304
244.244	0.212381
247.619	0.707111
250.993	0.7714
254.368	1.03343
257.743	0.241734
261.118	1.26386
264.493	0.507845
267.867	0.845587
271.242	1.55574
274.617	1.69727
277.992	1.79633
281.367	1.82979
284.741	1.96786
288.116	2.08495
291.491	0.716444
294.866	1.30419
298.241	2.1103
301.616	2.6476
304.99	4.10255
308.365	5.9582
311.74	10.4373
315.115	16.0172
318.49	18.7282
321.865	13.8013
325.239	13.9167
328.614	17.8129
331.989	24.4235
335.364	34.8822
338.739	45.204
342.113	56.8089
345.488	69.5206
348.863	95.846
352.238	131.918
355.613	159.336
358.987	136.121
362.362	88.1892
365.737	58.5777
369.112	46.6963
372.487	41.2283
375.861	33.6141
379.236	22.8068
382.611	13.1586
385.986	7.22683
389.361	4.91327
392.736	3.0838
396.11	1.03452
399.485	0.591135
402.86	0.360581
406.235	0.47663
409.61	0.173577
412.985	0.223143
416.359	0.11729
419.734	0.035711
423.109	0.535384
426.484	0.431865
429.859	0.496838
433.233	0.182649
436.608	0.064696
439.983	0.827703
443.358	0.015308
446.733	0.372672
450.108	0.084808
453.482	0.223826
456.857	0.725515
460.232	1.22423
463.607	0.855885
466.982	1.18879
470.356	2.12907
473.731	3.12807
477.106	4.20223
480.481	6.62849
483.856	10.9649
487.231	12.3383
490.605	8.27447
493.98	7.203
497.355	8.08247
500.73	13.9877
504.104	21.9554
507.479	23.3939
510.854	13.3323
514.229	6.78417
517.604	4.22265
520.979	3.08373
524.354	3.90692
527.728	3.79022
531.103	3.40293
534.478	5.09259
537.853	5.93413
541.227	10.4781
544.602	17.7323
547.977	24.9384
551.352	36.9725
554.727	58.0032
558.102	81.2999
561.476	76.1061
564.851	45.0689
568.226	22.7115
571.601	11.6144
574.976	6.24777
578.351	2.6726
581.725	1.78435
585.1	1.57867
588.475	2.895
591.85	3.49929
595.225	1.16004
598.599	0.074262
601.974	0.787763
605.349	0.251087
608.724	0.072944
612.099	0.594414
615.473	0.855203
618.848	0.745443
622.223	1.03667
625.598	1.59187
628.973	3.37446
632.347	6.39744
635.722	10.5751
639.097	17.5931
642.472	20.798
645.847	14.3208
649.222	6.69056
652.596	3.93083
655.971	2.46144
659.346	1.69972
662.721	0.864367
666.096	0.632301
669.471	0.279124
672.845	0.290433
676.22	0.394709
679.595	0.280247
682.97	0.365403
686.345	0.018212
689.719	0.161246
693.094	0.070257
696.469	0.045186
699.844	0.393453
703.219	0.058197
706.593	0.952956
709.968	0.804437
713.343	1.28507
716.718	0.502621
720.093	1.54449
723.468	0.826726
726.842	1.57131
730.217	1.47904
733.592	1.63176
736.967	1.73769
740.342	2.1041
743.716	2.0274
747.091	0.893223
750.466	1.17825
753.841	1.3487
757.216	1.88215
760.591	1.04648
763.965	1.66725
767.34	1.47024
770.715	1.37507
774.09	1.52403
777.465	0.891288
780.84	1.09492
784.214	0.744481
787.589	0.756155
790.964	0.544498
794.339	0.03061
797.714	0.244892
801.088	0.51728
804.463	0.417273
807.838	0.104259
811.213	0.059932
814.588	0.122828
817.962	0.121757
821.337	0.833257
824.712	0.043841
828.087	0.157082
831.462	0.060368
834.837	0.083791
838.211	0.2321
841.586	1.04179
844.961	3.22246
848.336	5.95371
851.711	10.189
855.085	16.0068
858.46	25.1817
861.835	37.7277
865.21	47.4935
868.585	43.1
871.96	28.6905
875.334	17.8268
878.709	12.0829
882.084	10.1938
885.459	11.8315
888.834	13.5981
892.208	18.7179
895.583	24.4144
898.958	34.0687
902.333	44.7047
905.708	64.0809
909.082	95.6329
912.457	147.824
915.832	228.17
919.207	347.087
922.582	407.957
925.957	303.969
929.331	174.588
932.706	97.8628
936.081	58.4076
939.456	35.1455
942.831	22.1725
946.205	12.7593
949.58	8.62642
952.955	5.08291
956.33	1.93318
959.705	1.59661
963.08	0.809158
966.454	0.733239
969.829	0.643556
973.204	0.365107
976.579	0.505373
979.954	0.493797
983.328	0.598077
986.703	1.90972
990.078	1.78556
993.453	1.52523
996.828	0.382751
1000.2	0.340444
1003.58	0.370811
1006.95	0.503902
1010.33	0.516859
1013.7	0.231791
1017.08	1.23591
1020.45	2.2317
1023.83	2.24394
1027.2	2.71388
1030.58	3.39841
1033.95	5.01346
1037.33	6.04024
1040.7	8.29693
1044.08	11.2337
1047.45	15.4154
1050.83	18.6928
1054.2	19.8377
1057.57	18.8697
1060.95	14.5693
1064.32	9.02861
1067.7	5.21108
1071.07	3.16738
1074.45	2.2883
1077.82	1.92153
1081.2	0.87591
1084.57	0.677367
1087.95	0.820486
1091.32	0.596672
1094.7	0.530102
1098.07	0.063817
1101.45	0.233205
1104.82	0.629396
1108.2	0.816855
1111.57	1.04527
1114.95	0.422902
1118.32	0.634006
1121.7	0.019705
1125.07	0.220236
1128.45	0.482899
1131.82	0.268326
1135.19	0.196338
1138.57	0.504144
1141.94	0.003512
1145.32	0.335772
1148.69	0.205194
1152.07	0.255299
1155.44	0.17695
1158.82	0.284456
1162.19	0.345811
1165.57	0.282684
1168.94	0.619981
1172.32	0.770278
1175.69	0.475873
1179.07	0.827281
1182.44	1.35447
1185.82	1.22554
1189.19	1.34279
1192.57	1.0429
1195.94	1.25141
1199.32	1.06402
1202.69	0.757903
1206.07	0.569537
1209.44	0.647192
1212.82	0.953866
1216.19	0.832237
1219.57	0.514866
1222.94	0.386119
1226.32	0.254274
1229.69	0.136662
1233.07	0.291897
1236.44	0.211558
1239.81	0.194846
1243.19	0.313349
1246.56	0.740129
1249.94	0.247251
1253.31	0.374819
1256.69	0.254732
1260.06	0.061145
1263.44	0.480131
1266.81	1.02978
1270.19	0.040304
1273.56	0.628366
1276.94	0.544283
1280.31	0.383248
1283.69	0.269627
