Measurement: Raman, 780 nm, unoriented, Raman Data Processed
Mineral: Pyrochlore
Rruff sample: R060165
Ideal chemistry: Ca_2_Nb_2_O_7_
Locality: Betafo, Madagascar
Source: Marcus Origlieri
Description: Red-brown octahedon superficially altered yellow
Measured chemistry: ([box]_1.02_U^4+^_0.95_Ca_0.03_)_Σ=2_(Nb_1.03_Ti_0.65_Al_0.13_Ta_0.10_Fe^3+^_0.06_Th_0.03_)_Σ=2_(O_5.80_(OH)_1.20_)_Σ=7_
Raman shift (cm-1)	intensity
150.362	0
153.254	98.2625
156.147	165.959
159.04	163.028
161.932	139.383
164.825	118.889
167.718	102.087
170.61	90.4174
173.503	58.3964
176.396	22.7661
179.288	21.6051
182.181	14.2687
185.074	2.34375
187.966	1.005
190.859	0.074341
193.752	2.14807
196.645	3.5437
199.537	5.45264
202.43	1.42189
205.323	0.973166
208.215	3.87321
211.108	3.64339
214.001	18.0923
216.893	37.7549
219.786	56.021
222.679	75.7184
225.572	91.5816
228.464	109.853
231.357	119.873
234.25	123.975
237.142	134.356
240.035	143.402
242.928	144.45
245.821	145.593
248.713	142.095
251.606	131.979
254.499	123.773
257.391	120.595
260.284	118.15
263.177	111.82
266.069	100.735
268.962	92.2222
271.855	86.0572
274.748	79.302
277.64	78.149
280.533	72.0478
283.426	66.5732
286.318	61.3838
289.211	60.4897
292.104	57.0558
294.996	52.8892
297.889	47.1375
300.782	44.5655
303.675	41.0501
306.567	42.5173
309.46	38.095
312.353	40.4091
315.245	34.5505
318.138	32.4626
321.031	30.104
323.923	25.0273
326.816	22.1865
329.709	23.4987
332.601	21.4949
335.494	22.829
338.387	26.2956
341.279	28.3497
344.172	34.0469
347.065	42.4461
349.958	51.237
352.85	63.0818
355.743	74.1818
358.636	92.346
361.528	109.333
364.421	129.673
367.314	142.519
370.207	162.426
373.099	172.22
375.992	175.44
378.885	173.045
381.777	167.272
384.67	150.561
387.563	129.944
390.455	107.219
393.348	82.8278
396.241	67.9274
399.134	45.4635
402.026	28.5493
404.919	16.204
407.812	9.23572
410.704	2.26746
413.597	3.66687
416.49	5.59296
419.382	8.06122
422.275	4.96173
425.168	4.5285
428.06	3.38818
430.953	0.065063
433.846	2.07556
436.739	6.58038
439.631	12.0233
442.524	14.4656
445.417	22.9393
448.309	27.5215
451.202	35.4984
454.095	47.4014
456.988	54.0426
459.88	57.5895
462.773	69.5185
465.666	74.8602
468.558	79.2146
471.451	82.4718
474.344	85.05
477.236	81.7405
480.129	74.1323
483.022	75.0076
485.914	70.4841
488.807	65.6467
491.7	68.4744
494.592	69.3496
497.485	70.0914
500.378	69.9244
503.271	69.9642
506.163	70.1843
509.056	67.0395
511.949	64.7183
514.841	62.5196
517.734	53.8105
520.627	46.6615
523.519	40.2444
526.412	30.1269
529.305	21.659
532.198	17.5708
535.09	15.478
537.983	6.56171
540.876	5.29376
543.768	2.10596
546.661	0.105438
549.554	0.701416
552.447	1.28171
555.339	1.90726
558.232	2.06744
561.125	1.65076
564.017	1.26776
566.91	1.66486
569.803	2.95606
572.695	5.00406
575.588	8.6012
578.481	17.5235
581.374	20.0917
584.266	26.6724
587.159	36.6219
590.052	43.7373
592.944	56.0073
595.837	67.1182
598.73	83.7203
601.622	96.3387
604.515	112.525
607.408	130.978
610.301	150.857
613.193	169.237
616.086	193.319
618.979	212.175
621.871	237.281
624.764	255.223
627.657	278.818
630.549	301.45
633.442	318.267
636.335	335.154
639.227	339.236
642.12	346.091
645.013	342.963
647.905	339.876
650.798	325.818
653.691	306.788
656.584	279.83
659.476	252.741
662.369	224.885
665.262	191.419
668.154	163.875
671.047	132.28
673.94	106.373
676.832	82.9224
679.725	64.8821
682.618	49.4417
685.511	34.2912
688.403	20.2325
691.296	11.029
694.189	6.25766
697.081	1.74841
699.974	0.172821
702.867	7.95453
705.76	6.46808
708.652	5.00662
711.545	4.84845
714.438	2.18005
717.33	1.61435
720.223	5.40848
723.116	9.55328
726.008	15.8543
728.901	24.1763
731.794	30.5415
734.687	39.4468
737.579	52.1187
740.472	62.2241
743.365	72.6162
746.257	83.3042
749.15	93.1693
752.043	99.6893
754.935	105.808
757.828	111.509
760.721	111.1
763.614	109.395
766.506	105.757
769.399	100.496
772.292	94.4443
775.184	86.232
778.077	78.7407
780.97	71.0413
783.862	63.0881
786.755	54.3117
789.648	49.4207
792.54	40.8312
795.433	36.8998
798.326	33.9461
801.218	31.3282
804.111	28.4556
807.004	31.9369
809.897	31.9682
812.789	32.8503
815.682	34.553
818.575	39.8417
821.467	44.2066
824.36	48.6386
827.253	54.273
830.145	60.048
833.038	63.8723
835.931	66.4646
838.824	68.0459
841.716	64.8482
844.609	56.8619
847.502	48.8146
850.394	40.8971
853.287	30.9828
856.18	18.9809
859.072	13.0336
861.965	7.4368
864.858	5.21799
867.751	4.90884
870.643	1.29272
873.536	1.88202
876.429	1.87508
879.321	2.91365
882.214	2.13931
885.107	2.28322
888	0.407898
890.892	1.56911
893.785	1.56621
896.678	1.75009
899.57	3.83806
902.463	3.58215
905.356	5.4247
908.248	7.3618
911.141	10.1634
914.034	10.4226
916.927	13.0244
919.819	14.1093
922.712	15.2208
925.605	16.2477
928.497	19.301
931.39	19.1349
934.283	19.8184
937.175	20.4088
940.068	19.8734
942.961	20.0618
945.854	15.7829
948.746	15.5003
951.639	15.5318
954.532	15.2333
957.424	12.3259
960.317	11.5488
963.21	10.1199
966.102	7.31465
968.995	5.33347
971.888	4.36276
974.78	3.77947
977.673	1.50989
980.566	0.336502
983.458	0.064453
986.351	0.306259
989.244	0.571053
992.137	0.31694
995.029	0.932106
997.922	0.036102
1000.82	0.355049
1003.71	1.2665
1006.6	1.24671
1009.49	1.0406
1012.38	1.09343
1015.28	1.6705
1018.17	2.02969
1021.06	3.47105
1023.96	4.10876
1026.85	3.51504
1029.74	4.10437
1032.63	4.60572
1035.53	4.58185
1038.42	5.29244
1041.31	5.54643
1044.2	5.33482
1047.1	6.08147
1049.99	3.97749
1052.88	4.4856
1055.78	4.93102
1058.67	3.88908
1061.56	4.93349
1064.45	5.18217
1067.35	4.31219
1070.24	3.4563
1073.13	3.60217
1076.03	4.41833
1078.92	3.92421
1081.81	4.29554
1084.7	5.12109
1087.6	4.4325
1090.49	3.59501
1093.38	4.57372
1096.27	3.92767
1099.17	4.76559
1102.06	4.16073
1104.95	4.58566
1107.84	5.1676
1110.74	5.49279
1113.63	4.46358
1116.52	4.74409
1119.41	5.01181
1122.31	5.26427
1125.2	5.45153
1128.09	5.79298
1130.99	6.824
1133.88	7.19536
1136.77	7.21809
1139.66	7.35465
1142.56	7.46109
1145.45	7.88985
1148.34	6.99325
1151.23	6.33441
1154.13	7.20311
1157.02	5.71551
1159.91	4.02846
1162.81	5.21975
1165.7	3.133
1168.59	2.43019
1171.48	1.32528
1174.38	1.33234
1177.27	0.691833
1180.16	0.67675
1183.06	0.32856
1185.95	1.15265
1188.84	0.535225
1191.73	1.02646
1194.62	1.31598
1197.52	0.114256
1200.41	0.652941
1203.3	1.38053
1206.2	1.62045
1209.09	1.32527
1211.98	2.07629
1214.87	2.77954
1217.77	3.56588
1220.66	5.95464
1223.55	7.77151
1226.44	11.8217
1229.34	11.9358
1232.23	15.2592
1235.12	17.5389
1238.02	19.8628
1240.91	22.2045
1243.8	22.0049
1246.69	24.99
1249.59	25.8898
1252.48	26.1309
1255.37	26.9222
1258.27	24.8093
1261.16	25.3969
1264.05	24.3443
1266.94	23.8667
1269.84	20.6693
1272.73	17.2123
1275.62	13.1483
1278.51	8.79907
1281.41	2.85086
1284.3	0.259125
