Measurement: Raman, 514 nm, unoriented, Raman Data Processed
Mineral: Pyrophyllite
Rruff sample: R050051
Ideal chemistry: Al_2_Si_4_O_10_(OH)_2_
Locality: Cottonstone Mountain, Mecklenburg County, North Carolina, USA
Source: University of Arizona Mineral Museum
Description: Radiating lamellar aggregates
Measured chemistry: (Al_.991_Fe_.008_Mg_.001_)_2_Si_4_O_10_(OH)_2_
Raman shift (cm-1)	intensity
119.813	0
122.592	51.125
125.369	177.406
128.146	185.824
130.922	256.675
133.696	233.507
136.47	377.59
139.243	313.129
142.016	237.904
144.787	354.013
147.557	416.734
150.327	263.531
153.096	368
155.863	293.823
158.63	579.762
161.396	488.621
164.161	494.182
166.926	714.189
169.689	680.475
172.452	897.92
175.213	760.441
177.974	676.768
180.734	615.475
183.493	583.883
186.251	557.158
189.008	761.273
191.765	1628.21
194.52	2032.94
197.275	1532.45
200.029	1073.72
202.782	771.688
205.534	844.787
208.285	993.262
211.035	1209.39
213.784	1507.08
216.533	1348.09
219.281	914.451
222.027	528.191
224.773	548.318
227.518	595.869
230.263	358.844
233.006	573.254
235.748	420.084
238.49	349.309
241.231	278.924
243.97	536.924
246.709	573.305
249.448	633.061
252.185	694.193
254.921	1188.93
257.657	2559.09
260.391	4916.6
263.125	3845.44
265.858	1826.85
268.59	1043.7
271.321	693.951
274.052	497.654
276.781	638.656
279.51	293.045
282.237	496.84
284.964	454.031
287.69	525.523
290.416	462.965
293.14	396.271
295.863	346.252
298.586	390.105
301.308	411.592
304.029	190.688
306.749	419.334
309.468	565.521
312.186	405.213
314.903	527.324
317.62	238.828
320.336	372.701
323.051	479.93
325.765	87.492
328.478	202.373
331.19	463.025
333.902	316.508
336.612	264.551
339.322	453.902
342.031	554.295
344.739	453.443
347.446	200.346
350.153	439.531
352.858	289.992
355.563	534.682
358.267	500.596
360.969	510.74
363.672	493.105
366.373	458.67
369.073	538.438
371.773	392.404
374.471	283.566
377.169	299.924
379.866	273.6
382.563	551.209
385.258	258.207
387.952	491.436
390.646	381.846
393.339	230.426
396.031	173.178
398.722	253.09
401.412	129.166
404.101	410.398
406.79	20.129
409.478	316.486
412.165	502.168
414.851	454.586
417.536	128.561
420.22	394.686
422.904	406.809
425.586	472.697
428.268	424.203
430.949	193.826
433.629	452.422
436.309	530.352
438.987	645.32
441.665	219.012
444.342	603.186
447.018	309.486
449.693	106.988
452.367	153.678
455.041	27.531
457.713	188.615
460.385	60.846
463.056	347.252
465.726	211.926
468.395	323.656
471.064	513.928
473.731	628.904
476.398	110.002
479.064	367.213
481.729	186.551
484.394	161.988
487.057	111.518
489.72	268.221
492.382	179.002
495.043	198.301
497.703	38.615
500.362	184.404
503.02	226.594
505.678	440.832
508.335	68.203
510.991	90.268
513.646	157.082
516.3	161.812
518.954	198.818
521.607	205.006
524.259	167.609
526.91	174.326
529.56	152.229
532.209	279.809
534.858	219.652
537.506	156.893
540.152	262.678
542.799	381.484
545.444	155.207
548.088	39.816
550.732	136.434
553.375	199.059
556.017	121.689
558.658	153.32
561.298	16.945
563.938	196.418
566.576	172.023
569.214	170.4
571.851	38.703
574.488	228.801
577.123	3
579.758	34.553
582.391	8.256
585.024	143.684
587.657	167.33
590.288	312.203
592.918	157.965
595.548	274.969
598.177	65.732
600.805	130.826
603.432	112.006
606.059	246.6
608.685	44.531
611.309	55.621
613.933	97.043
616.557	185.145
619.179	453.43
621.801	76.816
624.421	105.812
627.041	172.502
629.66	73.227
632.279	573.896
634.896	169.164
637.513	280.887
640.129	218.787
642.744	333.914
645.358	214.207
647.972	276.141
650.584	245.688
653.196	633.041
655.807	362.551
658.418	237.193
661.027	199.268
663.636	160.732
666.244	59.428
668.851	120.121
671.457	135.564
674.062	526.207
676.667	50.857
679.271	338.115
681.874	216.953
684.476	459.783
687.077	272.486
689.678	608.061
692.278	441.498
694.877	825.482
697.475	882.082
700.072	1216.07
702.669	1479.15
705.265	1987.76
707.86	2116.98
710.454	1746.23
713.047	1175.7
715.64	879.068
718.232	517.98
720.823	465.639
723.413	693.004
726.002	337.258
728.591	99.594
731.179	736.465
733.766	164.363
736.352	119.832
738.937	683.637
741.522	102.152
744.106	373.461
746.689	298.172
749.271	406.84
751.853	412.594
754.433	447.078
757.013	96.637
759.592	58.848
762.17	106.887
764.748	236.734
767.325	697.195
769.901	485.605
772.476	139.836
775.05	30.078
777.624	28.664
780.196	444.285
782.768	183.98
785.339	276.285
787.91	50.227
790.479	287.016
793.048	380.641
795.616	435.105
798.183	330.387
800.75	357.496
803.316	74.441
805.88	219.828
808.445	511.191
811.008	391.078
813.57	460.312
816.132	521.258
818.693	399.973
821.253	253.195
823.813	413.297
826.371	355.355
828.929	213.027
831.486	144.121
834.042	239.348
836.598	513.004
839.152	362.746
841.706	774.352
844.259	357.77
846.812	196.934
849.363	15.805
851.914	399.336
854.464	283.992
857.013	706.754
859.562	189.012
862.11	576.375
864.656	562.656
867.203	280.77
869.748	433.539
872.292	505.363
874.836	538.031
877.379	213.609
879.922	620.883
882.463	383.145
885.004	403.586
887.544	249.004
890.083	180.883
892.621	664.77
895.159	412.5
897.695	232.668
900.232	193.453
902.767	403.051
905.301	214.973
907.835	305.672
910.368	408.203
912.9	601.363
915.432	881.352
917.962	155.969
920.492	503.809
923.021	549.141
925.55	626.719
928.077	663.297
930.604	348.551
933.13	188.738
935.655	647.012
938.18	691.324
940.703	334.566
943.226	404.547
945.749	356.48
948.27	455.25
950.791	400.203
953.311	316.527
955.83	628.512
958.348	356.387
960.866	318.699
963.383	269.855
965.899	332.102
968.414	361.465
970.928	385.945
973.442	299.945
975.955	262.539
978.468	148.852
980.979	106.77
983.49	831.918
986	500.758
988.509	58.848
991.017	268.367
993.525	312.582
996.032	338.645
998.538	491.586
1001.04	579.023
1003.55	569.453
1006.05	220.93
1008.55	7.625
1011.06	336.898
1013.56	470.418
1016.06	346.121
1018.56	367.75
1021.06	298.055
1023.56	185.188
1026.06	178.797
1028.55	351.371
1031.05	398.574
1033.55	382.734
1036.04	255.828
1038.53	14.621
1041.03	717.352
1043.52	406.879
1046.01	163.91
1048.5	524.188
1050.99	524.484
1053.48	329.523
1055.97	4.609
1058.46	73.203
