Measurement: Raman, 532 nm, unoriented, Raman Data Processed
Mineral: Pyrophyllite
Rruff sample: R050051
Ideal chemistry: Al_2_Si_4_O_10_(OH)_2_
Locality: Cottonstone Mountain, Mecklenburg County, North Carolina, USA
Source: University of Arizona Mineral Museum
Description: Radiating lamellar aggregates
Measured chemistry: (Al_.991_Fe_.008_Mg_.001_)_2_Si_4_O_10_(OH)_2_
Raman shift (cm-1)	intensity
168.946	0
171.839	332.727
174.732	286.012
177.625	101.445
180.517	8.59375
183.41	271.047
186.303	688.285
189.195	1662.83
192.088	2643.12
194.981	3577.23
197.874	1490.06
200.766	383.168
203.659	359.922
206.552	355.219
209.444	671.465
212.337	1065.91
215.23	967.227
218.122	443.348
221.015	413.734
223.908	131.144
226.8	93.2539
229.693	265.047
232.586	207.445
235.479	214.562
238.371	330.555
241.264	206.856
244.157	467.91
247.049	1011.95
249.942	1608.31
252.835	2496.72
255.727	4385.79
258.62	7027.94
261.513	11630.7
264.406	3651.76
267.298	970.309
270.191	599.691
273.084	233.266
275.976	274.742
278.869	248.473
281.762	104.195
284.655	149.07
287.547	118.703
290.44	262.609
293.333	59.0352
296.225	64.9258
299.118	62.5234
302.011	46.9531
304.904	25.6094
307.796	76.1641
310.689	209.32
313.582	72.4219
316.474	105.641
319.367	31.4336
322.26	9.09375
325.152	68.5625
328.045	114.688
330.938	204.883
333.83	212.176
336.723	241.93
339.616	394.844
342.509	366.883
345.401	508.371
348.294	789.633
351.187	901.023
354.079	1078.61
356.972	1063.11
359.865	1214.38
362.757	1072.59
365.65	1128.71
368.543	851.371
371.436	659.703
374.328	640.277
377.221	475.762
380.114	509.215
383.006	500.039
385.899	179.871
388.792	213.027
391.685	154.75
394.577	235.535
397.47	218.293
400.363	19.8008
403.255	31.5664
406.148	8.57812
409.041	6.16406
411.933	190.156
414.826	324.781
417.719	56.9375
420.611	29.7422
423.504	173.219
426.397	200.266
429.29	279.438
432.182	639
435.075	535.984
437.968	338.828
440.86	472.656
443.753	544.695
446.646	150.93
449.538	299.281
452.431	226.289
455.324	393.273
458.217	315.125
461.109	678.07
464.002	720.336
466.895	746.688
469.787	696.695
472.68	342.734
475.573	535.477
478.466	359.016
481.358	308.617
484.251	89.6875
487.144	198.281
490.036	250.07
492.929	51.4062
495.822	128.5
498.714	181.305
501.607	191.578
504.5	274.219
507.393	172.367
510.285	185.055
513.178	340.695
516.071	19.7031
518.963	134.492
521.856	147.836
524.749	243.883
527.641	174.117
530.534	14.1953
533.427	194.984
536.32	138.609
539.212	132.023
542.105	146.891
544.998	185.391
547.89	15.4375
550.783	72.8359
553.676	195.103
556.568	170.37
559.461	126.142
562.354	115.95
565.247	135.258
568.139	69.5
571.032	111.469
573.925	39.125
576.817	261.477
579.71	150.43
582.603	116.062
585.495	262.008
588.388	326.656
591.281	339.938
594.174	78.875
597.066	93.0469
599.959	331.281
602.852	389.43
605.744	370.742
608.637	488.055
611.53	318.914
614.423	361.203
617.315	413.656
620.208	365.094
623.101	460.055
625.993	499.617
628.886	479.445
631.779	288.375
634.671	328.906
637.564	297.875
640.457	180.453
643.35	370.469
646.242	65.3516
649.135	270.977
652.028	319.32
654.92	237.961
657.813	428.438
660.706	377.461
663.598	255.953
666.491	228.07
669.384	197.742
672.277	226.992
675.169	479.023
678.062	368.812
680.955	365.969
683.847	598.883
686.74	555.961
689.633	770.766
692.525	1225.1
695.418	2554.37
698.311	3312.14
701.204	4664.38
704.096	5788.47
706.989	5538.43
709.882	3466.16
712.774	1983.11
715.667	1330.94
718.56	760.219
721.452	377.984
724.345	391.445
727.238	363.68
730.131	415.398
733.023	197.555
735.916	186.773
738.809	65.0859
741.701	3.67969
744.594	32.6719
747.487	55.8594
750.38	142.969
753.272	10.0547
756.165	146.555
759.058	93.6562
761.95	39.8438
764.843	126.195
767.736	15.8359
770.628	284.633
773.521	54.9609
776.414	195.914
779.307	80.8984
782.199	187.961
785.092	186.562
787.985	313.484
790.877	149.555
793.77	31.3516
796.663	207.68
799.555	397.867
802.448	416.352
805.341	619.43
808.234	1101.14
811.126	1510.55
814.019	1389.13
816.912	647.25
819.804	505.68
822.697	429.602
825.59	321.992
828.482	340.844
831.375	440.492
834.268	361.055
837.16	441.203
840.053	561.578
842.946	572.109
845.839	259.539
848.731	102.031
851.624	26.5938
854.517	224.148
857.409	54.4062
860.302	36.2188
863.195	91.6719
866.087	274.25
868.98	75.6875
871.873	49.4375
874.766	97.9688
877.658	270.969
880.551	204.664
883.444	235.703
886.337	278.75
889.229	131.367
892.122	274.969
895.015	67.7578
897.907	193.328
900.8	346.859
903.693	191.477
906.585	105.508
909.478	148.688
912.371	355.977
915.264	636.836
918.156	604.586
921.049	613.391
923.942	399.305
926.834	265.953
929.727	76.4219
932.62	212.102
935.512	78.5391
938.405	178.727
941.298	141.938
944.191	11.6797
947.083	307.312
949.976	438.891
952.869	649.75
955.761	957.461
958.654	651.734
961.547	650.156
964.439	390.039
967.332	225.445
970.225	504.227
973.117	141.789
976.01	329.047
978.903	363.75
981.796	251.625
984.688	218.805
987.581	255.094
990.474	186.375
993.366	405.555
996.259	67.1172
999.152	376.25
1002.04	121.086
1004.94	300.883
1007.83	157.211
1010.72	336.945
1013.62	65.6641
1016.51	359.422
1019.4	413.562
1022.29	419.008
1025.19	223.93
1028.08	33.5312
1030.97	361.055
1033.86	426.891
1036.76	282.852
1039.65	30.3203
1042.54	191.164
1045.43	329
1048.33	376.391
1051.22	280.047
1054.11	87.4766
1057.01	317.328
1059.9	479.688
1062.79	484.25
1065.68	602.234
1068.58	613.469
1071.47	438.867
1074.36	188.922
1077.26	441.984
1080.15	486.719
1083.04	227.633
1085.93	210.344
1088.83	9.34375
1091.72	279.422
1094.61	178.516
1097.5	156.156
1100.4	47.2109
1103.29	34.8203
1106.18	144.25
1109.07	276.047
1111.97	52.9688
1114.86	250.5
1117.75	33.6875
1120.64	344.93
1123.54	366.797
1126.43	152.453
1129.32	79.0312
1132.22	250.984
1135.11	268.594
1138	234.219
1140.89	24.9219
1143.79	314.531
1146.68	132.398
1149.57	665.391
1152.46	175.688
1155.36	290.445
1158.25	205.547
1161.14	346.484
1164.04	260.461
1166.93	246.992
1169.82	621.242
1172.71	337.852
1175.61	231.586
1178.5	430.055
1181.39	8.07031
1184.29	202.156
1187.18	320.062
1190.07	270.406
1192.96	391.141
1195.86	387.773
1198.75	121.43
1201.64	221.828
1204.53	251.852
1207.43	160.367
1210.32	215.18
1213.21	241.703
1216.1	92.5156
1219	332.297
1221.89	32.9609
1224.78	103.141
1227.67	49.7266
1230.57	229.781
1233.46	22.4062
1236.35	190.953
1239.25	98.0781
1242.14	211.469
1245.03	94.5078
1247.92	514.781
1250.82	38.0938
1253.71	417.656
1256.6	346.203
1259.49	246.484
1262.39	344.594
1265.28	242.391
1268.17	172.008
1271.07	437.047
1273.96	313.68
1276.85	535.109
1279.74	622.078
1282.64	141.43
1285.53	331.578
1288.42	60.2656
1291.32	391.555
1294.21	38.8203
1297.1	229
1299.99	245.555
1302.88	188.961
