Measurement: Raman, 532 nm, unoriented, Raman Data Processed
Mineral: Pyrope
Rruff sample: R050112
Ideal chemistry: Mg_3_Al_2_(SiO_4_)_3_
Locality: Cruzeiro mine, San Jose, Minas Gerais, Brazil
Source: Carlos and Paulo Vasconcelos
Description: Dark red crystal fragment
Measured chemistry: (Mg_1.49_Fe^2+^_1.18_Ca_0.29_Mn_0.04_)_Σ=3_(Al_1.99_Fe^3+^_0.01_)_Σ=2_(Si_1.00_O_4_)_3_
Raman shift (cm-1)	intensity
134.96	0
138.335	55.8116
141.709	42.298
145.084	83.0284
148.459	60.8408
151.834	38.4552
155.209	20.2951
158.584	1.66055
161.958	6.51389
165.333	1.51639
168.708	2.02353
172.083	25.9723
175.458	79.4698
178.832	66.8569
182.207	77.1828
185.582	63.6224
188.957	86.7252
192.332	108.692
195.707	131.869
199.081	145.923
202.456	187.413
205.831	200.907
209.206	194.449
212.581	179.928
215.955	129.326
219.33	87.458
222.705	48.1898
226.08	36.0996
229.455	15.5356
232.829	10.4901
236.204	0.95517
239.579	13.4689
242.954	5.27084
246.329	26.4801
249.704	0.321259
253.078	4.20941
256.453	3.25174
259.828	6.94705
263.203	11.9283
266.578	3.38638
269.952	12.7196
273.327	2.94098
276.702	3.27298
280.077	1.38431
283.452	24.9108
286.827	3.68204
290.201	21.8937
293.576	24.007
296.951	41.452
300.326	54.4811
303.701	124.553
307.075	156.733
310.45	221.634
313.825	252.236
317.2	296.625
320.575	322.097
323.95	387.794
327.324	513.392
330.699	691.731
334.074	930.892
337.449	1246.39
340.824	1641.31
344.198	2061.41
347.573	2421.29
350.948	2833.99
354.323	3088.56
357.698	2747.03
361.072	2032.91
364.447	1486.36
367.822	1231.14
371.197	1042.24
374.572	837.206
377.947	649.259
381.321	487.062
384.696	354.029
388.071	239.402
391.446	186.73
394.821	154.827
398.195	75.3639
401.57	53.5993
404.945	27.6008
408.32	14.5913
411.695	5.49423
415.07	8.824
418.444	4.06381
421.819	9.25806
425.194	2.82574
428.569	13.034
431.943	28.7994
435.318	6.93454
438.693	7.64966
442.068	5.93652
445.443	5.56973
448.818	0.4151
452.192	8.75488
455.567	20.3244
458.942	4.30279
462.317	21.5252
465.692	40.2289
469.067	90.8455
472.441	95.4609
475.816	124.218
479.191	184.49
482.566	232.13
485.941	190.309
489.315	165.99
492.69	203.473
496.065	262.199
499.44	346.23
502.815	474.661
506.19	403.611
509.564	258.903
512.939	137.674
516.314	107.66
519.689	55.9374
523.063	89.4162
526.438	91.4382
529.813	62.5294
533.188	99.2123
536.563	166.368
539.938	291.815
543.312	427.814
546.687	663.999
550.062	840.33
553.437	1033.14
556.812	1160.14
560.187	960.468
563.561	558.06
566.936	245.951
570.311	121.496
573.686	66.0085
577.061	16.2816
580.435	24.1403
583.81	33.5378
587.185	9.10007
590.56	6.97864
593.935	5.2392
597.309	5.68051
600.684	7.28503
604.059	5.85184
607.434	10.7518
610.809	6.23932
614.183	6.83005
617.558	9.71439
620.933	27.0442
624.308	50.1592
627.683	107.79
631.058	175.203
634.432	235.094
637.807	280.586
641.182	230.969
644.557	181.192
647.932	132.839
651.307	61.76
654.681	44.3469
658.056	30.8042
661.431	34.207
664.806	20.2358
668.181	22.8117
671.555	0.455048
674.93	7.17673
678.305	6.85567
681.68	12.0465
685.055	4.59662
688.429	13.4342
691.804	21.3874
695.179	10.4323
698.554	18.3088
701.929	20.1009
705.303	10.7407
708.678	29.4349
712.053	31.1207
715.428	42.0187
718.803	34.2579
722.178	45.6815
725.552	58.8678
728.927	42.9266
732.302	42.6956
735.677	52.5423
739.052	67.3027
742.427	63.2485
745.801	64.1982
749.176	63.4882
752.551	73.7225
755.926	46.6728
759.301	49.8772
762.675	46.3638
766.05	34.875
769.425	24.6488
772.8	35.7753
776.175	25.5922
779.549	10.5413
782.924	10.9993
786.299	30.4932
789.674	9.4686
793.049	5.35107
796.423	0.957352
799.798	5.5805
803.173	0.134735
806.548	9.21765
809.923	10.9578
813.298	0.431885
816.672	1.61029
820.047	3.57544
823.422	2.69131
826.797	2.09918
830.172	7.60315
833.547	19.0353
836.921	46.8695
840.296	109.192
843.671	160.437
847.046	264.638
850.42	436.051
853.795	581.192
857.17	717.881
860.545	774.127
863.92	664.977
867.295	486.986
870.669	342.575
874.044	275.206
877.419	248.755
880.794	288.675
884.169	390.241
887.543	526.269
890.918	703.41
894.293	972.234
897.668	1385.02
901.043	2073
904.418	3194.67
907.792	4850.77
911.167	6622.35
914.542	8065.14
917.917	8299.81
921.292	6395.79
924.667	4040.87
928.041	2378.17
931.416	1484.27
934.791	943.171
938.166	607.882
941.54	372.645
944.915	224.413
948.29	167.177
951.665	95.0701
955.04	58.9219
958.415	5.59766
961.789	24.6548
965.164	2.37299
968.539	12.2643
971.914	12.4451
975.289	2.5719
978.663	5.52496
982.038	9.89078
985.413	10.7129
988.788	1.98041
992.163	4.85263
995.538	1.05203
998.912	3.72229
1002.29	1.66785
1005.66	4.05762
1009.04	41.088
1012.41	62.1286
1015.79	87.0474
1019.16	111.338
1022.54	151.457
1025.91	175.135
1029.29	223.975
1032.66	281.607
1036.04	317.067
1039.41	403.936
1042.79	461.105
1046.16	492.903
1049.54	485.852
1052.91	399.714
1056.28	316.679
1059.66	189.522
1063.03	124.783
1066.41	84.1197
1069.78	45.5554
1073.16	38.7449
1076.53	32.0186
1079.91	17.642
1083.28	14.7721
1086.66	8.56526
1090.03	2.47835
1093.41	14.8802
1096.78	19.4332
1100.16	25.2238
1103.53	9.99083
1106.91	13.293
1110.28	10.3808
1113.66	29.1649
1117.03	15.7647
1120.41	3.04067
1123.78	12.7472
1127.15	16.2274
1130.53	14.9203
1133.9	20.1901
1137.28	11.7951
1140.65	13.9723
1144.03	11.8314
1147.4	27.8082
1150.78	30.2047
1154.15	7.10654
1157.53	22.7086
1160.9	12.9888
1164.28	29.9183
1167.65	19.2709
1171.03	21.8574
1174.4	33.8144
1177.78	38.3809
1181.15	24.3377
1184.53	34.7352
1187.9	35.7539
1191.28	22.3452
1194.65	26.9347
1198.03	22.2388
1201.4	22.8591
1204.78	12.5412
1208.15	34.1225
1211.53	9.60136
1214.9	17.2418
1218.28	15.1358
1221.65	12.7024
1225.03	15.1142
1228.4	15.5099
1231.78	10.7884
1235.15	4.51709
1238.52	18.5748
1241.9	18.6925
1245.27	14.4729
1248.65	10.8696
1252.02	5.94321
1255.4	6.41386
1258.77	23.2676
1262.15	19.5821
1265.52	6.35551
1268.9	20.993
1272.27	17.0379
1275.65	32.7567
1279.02	31.4177
1282.4	16.2763
1285.77	35.1666
1289.15	14.9288
1292.52	9.99323
