Measurement: Raman, 532 nm, unoriented, Raman Data Processed
Mineral: Pyrochlore
Rruff sample: R060288
Ideal chemistry: Ca_2_Nb_2_O_7_
Locality: Tatarka River, Krasnoyarskiy Kray, Siberia, Russia
Source: Herb Obodda
Description: Brown fragment
Raman shift (cm-1)	intensity
172.934	0
175.827	36.5273
178.72	98.8496
181.612	152.722
184.505	198.288
187.398	226.056
190.29	239.68
193.183	245.744
196.076	235.884
198.968	306.639
201.861	340.63
204.754	310.066
207.647	260.785
210.539	186.305
213.432	133.475
216.325	71.5327
219.217	16.8804
222.11	8.96631
225.003	24.5093
227.895	19.5186
230.788	14.478
233.681	26.1265
236.573	57.7866
239.466	91.8555
242.359	134.792
245.252	152.878
248.144	189.899
251.037	219.304
253.93	244.982
256.822	269.155
259.715	287.015
262.608	299.518
265.5	336.399
268.393	354.39
271.286	362.092
274.179	362.374
277.071	364.264
279.964	349.833
282.857	302.61
285.75	283.165
288.642	266.3
291.535	231.572
294.428	206.884
297.32	182.243
300.213	137.031
303.106	126.3
305.998	98.8623
308.891	85.4316
311.784	59.8762
314.676	45.0791
317.569	47.9102
320.462	32.3423
323.355	16.4009
326.247	7.6897
329.14	9.25415
332.033	6.02734
334.925	4.45825
337.818	17.4229
340.711	18.3096
343.603	32.2227
346.496	36.2446
349.389	36.6672
352.281	62.2334
355.174	78.0095
358.067	93.2959
360.96	115.589
363.852	145.733
366.745	133.529
369.638	142.292
372.53	140.531
375.423	135.213
378.316	137.696
381.209	135.293
384.101	131.405
386.994	131.568
389.887	137.732
392.779	127.498
395.672	111.062
398.565	126.549
401.457	131.908
404.35	154.717
407.243	175.413
410.135	185.904
413.028	193.167
415.921	203.005
418.814	199.299
421.706	179.726
424.599	175.888
427.492	155.6
430.384	159.333
433.277	138.918
436.17	121.152
439.062	114.983
441.955	90.6094
444.848	61.977
447.741	38.0266
450.633	31.365
453.526	19.9971
456.419	2.5835
459.311	5.01147
462.204	15.1921
465.097	12.9199
467.99	17.5029
470.882	11.9341
473.775	7.97339
476.668	10.46
479.56	32.7109
482.453	47.8142
485.346	79.1907
488.238	81.6426
491.131	98.7881
494.024	89.3311
496.916	83.9119
499.809	86.2498
502.702	91.3088
505.595	90.9927
508.487	75.1206
511.38	73.4695
514.273	64.2061
517.165	55.7053
520.058	41.6252
522.951	15.5393
525.844	23.8005
528.736	21.4065
531.629	26.4746
534.522	26.1375
537.414	34.4971
540.307	32.8892
543.2	31.1314
546.092	22.4204
548.985	23.0137
551.878	10.9062
554.771	2.24268
557.663	9.12988
560.556	21.7769
563.449	8.9751
566.341	3.34131
569.234	16.895
572.127	14.6743
575.019	60.4248
577.912	81.4912
580.805	146.211
583.697	219.751
586.59	296.092
589.483	358.865
592.376	420.247
595.268	480.588
598.161	534.611
601.054	581.014
603.946	633.9
606.839	698.455
609.732	729.981
612.625	776.093
615.517	814.663
618.41	822.213
621.303	839.044
624.195	861.68
627.088	872.691
629.981	870.434
632.873	880.888
635.766	870.27
638.659	853.637
641.552	827.232
644.444	791.483
647.337	771.026
650.23	737.97
653.122	710.562
656.015	655.567
658.908	607.2
661.8	552.305
664.693	513.714
667.586	475.49
670.479	427.052
673.371	374.962
676.264	351.515
679.157	298.596
682.049	263.377
684.942	210.404
687.835	179.685
690.727	140.866
693.62	112.88
696.513	82.1697
699.405	60.3745
702.298	35.7842
705.191	15.6384
708.084	6.80664
710.976	5.94897
713.869	2.71924
716.762	17.8149
719.654	26.3015
722.547	27.4773
725.44	19.0886
728.332	7.26856
731.225	19.033
734.118	3.93359
737.011	3.09473
739.903	9.00146
742.796	4.69189
745.689	15.4766
748.581	46.5166
751.474	37.8704
754.367	45.646
757.26	53.4665
760.152	76.3931
763.045	83.6545
765.938	106.378
768.83	119.147
771.723	127.578
774.616	149.138
777.508	165.613
780.401	182.966
783.294	177.217
786.187	190.898
789.079	206.841
791.972	241.552
794.865	258.865
797.757	272.684
800.65	291.81
803.543	326.846
806.435	351.947
809.328	366.252
812.221	366.51
815.114	391.272
818.006	377.644
820.899	385.042
823.792	367.271
826.684	344.899
829.577	324.401
832.47	307.904
835.362	290.314
838.255	253.445
841.148	240.512
844.04	218.333
846.933	195.805
849.826	179.657
852.719	150.569
855.611	139.739
858.504	120.622
861.397	117.002
864.289	100.379
867.182	96.2476
870.075	84.6799
872.967	78.9858
875.86	79.739
878.753	83.6606
881.646	72.2681
884.538	76.5618
887.431	63.4468
890.324	77.8826
893.216	69.1985
896.109	60.3735
899.002	53.9907
901.894	51.3103
904.787	44.2808
907.68	36.0837
910.573	38.2688
913.465	14.4575
916.358	22.9758
919.251	17.8145
922.143	9.59766
925.036	10.4846
927.929	2.29346
930.822	3.99744
933.714	8.42602
936.607	18.6623
939.5	4.04163
942.392	11.0847
945.285	4.07849
948.178	5.84705
951.07	0.653564
953.963	8.86291
956.856	10.488
959.749	0.970947
962.641	8.62854
965.534	8.14673
968.427	16.6691
971.319	14.0604
974.212	23.9002
977.105	22.6112
979.997	26.5739
982.89	32.7867
985.783	33.9868
988.676	42.7024
991.568	36.1305
994.461	36.942
997.354	19.8894
1000.25	26.1669
1003.14	20.2321
1006.03	27.8481
1008.92	21.3159
1011.82	27.2111
1014.71	22.6691
1017.6	13.3395
1020.5	9.61646
1023.39	6.58191
1026.28	3.81909
1029.17	10.5059
1032.07	11.5193
1034.96	8.23035
1037.85	5.46741
1040.74	5.00793
1043.64	1.54358
1046.53	5.55286
1049.42	1.92651
1052.32	5.19141
1055.21	2.27393
1058.1	0.550537
1060.99	7.25305
1063.89	3.53955
1066.78	1.90088
1069.67	0.758667
1072.56	7.83411
1075.46	21.558
1078.35	10.0587
1081.24	13.62
1084.13	21.2579
1087.03	16.1178
1089.92	15.7656
1092.81	14.613
1095.7	16.9062
1098.6	17.0911
1101.49	11.861
1104.38	9.71863
1107.28	13.2741
1110.17	17.5886
1113.06	16.9279
1115.95	12.5312
1118.85	10.0181
1121.74	11.3821
1124.63	5.0708
1127.53	14.2513
1130.42	4.33398
1133.31	11.3227
1136.2	16.6785
1139.1	15.0593
1141.99	14.1683
1144.88	12.3752
1147.77	4.72046
1150.67	12.7537
1153.56	16.2715
1156.45	14.9633
1159.35	18.7804
1162.24	11.4376
1165.13	9.40418
1168.02	7.84814
1170.92	7.6228
1173.81	8.91736
1176.7	4.84302
1179.59	1.67285
1182.49	5.61841
1185.38	2.82666
1188.27	2.96716
1191.16	2.7406
1194.06	1.16907
1196.95	4.20007
1199.84	10.6034
1202.73	0.226196
1205.63	5.64917
1208.52	3.14905
1211.41	0.17395
1214.31	12.9703
1217.2	5.3031
1220.09	2.9469
1222.98	2.85559
1225.88	5.00769
1228.77	5.57727
1231.66	5.7904
1234.56	8.88318
1237.45	0.346191
1240.34	8.14429
1243.23	5.56995
1246.13	0.965576
1249.02	10.4367
1251.91	10.7493
1254.8	10.0185
1257.7	6.03674
1260.59	7.78357
1263.48	10.6453
1266.38	7.72815
1269.27	6.8855
1272.16	8.10596
1275.05	7.93347
1277.95	12.4851
1280.84	1.88098
1283.73	7.63818
1286.62	7.48193
1289.52	1.61108
1292.41	1.4602
1295.3	6.56421
1298.19	11.7328
1301.09	7.19446
