Measurement: Raman, 532 nm, unoriented, Raman Data Processed
Mineral: Pyroaurite
Rruff sample: R100053
Ideal chemistry: Mg_6_Fe^3+^_2_CO_3_(OH)_16_4H_2_O
Locality: Langban, Filipstad, Varmland, Sweden
Source: William W Pinch
Description: Pale bluish-green hexagonal tablets embedded in calcite, associated with magnetite
Raman shift (cm-1)	intensity
156.06	0
158.953	0.848206
161.845	11.4985
164.738	32.8579
167.631	40.667
170.524	46.3714
173.416	45.2362
176.309	37.2903
179.202	34.136
182.094	30.9113
184.987	27.7944
187.88	23.4156
190.773	17.405
193.665	15.4208
196.558	15.0394
199.451	10.9424
202.343	16.6729
205.236	12.0096
208.129	10.0826
211.021	7.32123
213.914	5.07519
216.807	3.42285
219.699	2.92773
222.592	0.817078
225.485	1.33383
228.377	1.04184
231.27	0.577301
234.163	0.425507
237.056	1.55191
239.948	4.26114
242.841	3.36505
245.734	1.2713
248.626	3.5163
251.519	5.94968
254.412	7.47165
257.305	9.44971
260.197	15.2988
263.09	18.5317
265.983	31.9772
268.875	40.1945
271.768	54.4027
274.661	66.2661
277.553	77.916
280.446	93.6988
283.339	109.491
286.232	110.611
289.124	99.7704
292.017	77.6464
294.91	64.0856
297.802	50.7814
300.695	49.8043
303.588	41.6848
306.481	38.7336
309.373	39.2859
312.266	36.9246
315.159	36.0057
318.051	33.9936
320.944	28.4813
323.837	25.0424
326.729	18.5648
329.622	12.7449
332.515	8.56378
335.408	10.1965
338.3	6.45047
341.193	5.64746
344.086	9.19943
346.978	10.8241
349.871	15.8189
352.764	10.0608
355.656	0.493195
358.549	4.05203
361.442	2.86883
364.334	0.689606
367.227	4.33264
370.12	7.25095
373.012	11.6952
375.905	18.311
378.798	19.5606
381.691	24.0969
384.583	21.4313
387.476	21.3899
390.369	16.134
393.261	9.49173
396.154	8.42557
399.047	3.22488
401.94	0.521332
404.832	2.35162
407.725	1.92423
410.618	1.7507
413.51	7.77515
416.403	9.75623
419.296	9.77072
422.188	15.5182
425.081	17.6551
427.974	25.2549
430.866	23.5761
433.759	24.3524
436.652	25.919
439.545	24.623
442.437	20.9333
445.33	20.1631
448.223	15.0715
451.115	11.0721
454.008	5.22296
456.901	8.67441
459.793	5.19659
462.686	3.93643
465.579	0.255249
468.472	1.10855
471.364	0.994202
474.257	0.884308
477.15	2.57202
480.042	4.98007
482.935	13.538
485.828	21.3408
488.721	31.6446
491.613	43.287
494.506	58.4612
497.399	80.7838
500.291	108.668
503.184	141.671
506.077	187.227
508.969	248.27
511.862	339.109
514.755	444.774
517.648	579.511
520.54	740.335
523.433	907.269
526.326	1028.68
529.218	1033.73
532.111	895.525
535.004	689.006
537.896	511.267
540.789	371.412
543.682	269.395
546.575	186.161
549.467	134.92
552.36	94.6103
555.253	68.1285
558.145	54.9963
561.038	39.5093
563.931	28.2697
566.823	19.4097
569.716	19.8452
572.609	10.5839
575.502	5.4071
578.394	4.24976
581.287	0.381104
584.18	2.86279
587.072	2.10065
589.965	1.05136
592.858	0.133331
595.75	1.03821
598.643	1.87753
601.536	2.05341
604.428	0.41272
607.321	0.794006
610.214	2.75333
613.107	2.15091
615.999	0.505646
618.892	2.00049
621.785	2.87094
624.677	1.63623
627.57	1.22742
630.463	2.78397
633.356	5.68945
636.248	3.06168
639.141	3.91992
642.034	3.68582
644.926	4.92429
647.819	3.46231
650.712	7.23071
653.604	7.65933
656.497	7.77988
659.39	8.78696
662.283	8.67929
665.175	7.56174
668.068	6.8183
670.961	6.61212
673.853	7.34717
676.746	8.86411
679.639	8.34347
682.531	9.24658
685.424	7.85446
688.317	4.92154
691.21	7.1705
694.102	6.48749
696.995	7.1182
699.888	6.20825
702.78	5.24945
705.673	4.80045
708.566	3.69455
711.458	4.92624
714.351	2.5221
717.244	5.9754
720.136	0.735413
723.029	3.03751
725.922	0.129211
728.815	4.59241
731.707	2.31934
734.6	2.91376
737.493	4.67535
740.385	5.32956
743.278	5.62598
746.171	7.68021
749.063	8.0155
751.956	11.7013
754.849	9.84045
757.742	7.36386
760.634	7.01858
763.527	4.98264
766.42	5.89758
769.312	3.43796
772.205	4.51749
775.098	4.16367
777.99	2.57562
780.883	2.23566
783.776	1.19928
786.669	0.962769
789.561	4.87796
792.454	2.71374
795.347	2.08554
798.239	3.50699
801.132	4.82773
804.025	0.444031
806.918	3.26257
809.81	1.72537
812.703	2.64008
815.596	1.32452
818.488	2.38678
821.381	1.04022
824.274	1.69049
827.166	3.72693
830.059	2.0506
832.952	1.8428
835.845	2.48944
838.737	2.80981
841.63	3.46478
844.523	3.526
847.415	3.25259
850.308	4.03812
853.201	3.66919
856.093	3.06696
858.986	5.23639
861.879	5.93573
864.771	5.30933
867.664	4.22519
870.557	4.50076
873.45	6.30139
876.342	14.4166
879.235	7.84701
882.128	5.26593
885.02	5.42035
887.913	4.81241
890.806	6.1181
893.698	5.42996
896.591	9.09039
899.484	4.5509
902.377	4.53451
905.269	5.44721
908.162	4.13022
911.055	0.153534
913.947	4.27866
916.84	3.87927
919.733	3.70557
922.625	2.48135
925.518	2.11761
928.411	0.62735
931.304	0.822418
934.196	1.11112
937.089	2.06412
939.982	1.61603
942.875	0.989075
945.767	2.69257
948.66	1.62024
951.553	2.46011
954.445	2.52997
957.338	3.51852
960.231	2.79962
963.123	1.50589
966.016	2.79755
968.909	1.75061
971.802	0.847137
974.694	2.2937
977.587	0.495331
980.48	1.56476
983.372	1.67505
986.265	1.1626
989.158	1.49844
992.05	1.13986
994.943	0.123108
997.836	0.770691
1000.73	0.878082
1003.62	3.07489
1006.51	6.40781
1009.41	4.38843
1012.3	6.62845
1015.19	8.78156
1018.09	9.86014
1020.98	10.0949
1023.87	10.8298
1026.76	8.67184
1029.66	7.96738
1032.55	10.7711
1035.44	12.3519
1038.33	15.7158
1041.23	18.4534
1044.12	24.7044
1047.01	43.8439
1049.9	62.9438
1052.8	97.1937
1055.69	134.605
1058.58	177.789
1061.47	153.161
1064.37	89.2138
1067.26	40.5849
1070.15	21.8182
1073.05	11.1912
1075.94	8.49793
1078.83	9.85742
1081.72	5.66132
1084.62	7.39764
1087.51	7.86398
1090.4	3.33273
1093.3	2.49039
1096.19	1.42368
1099.08	0.504181
1101.97	0.069702
1104.87	0.530701
1107.76	3.38641
1110.65	3.37286
1113.54	1.12253
1116.44	0.99527
1119.33	1.45224
1122.22	3.82034
1125.12	0.590057
1128.01	1.27795
1130.9	3.35852
1133.79	3.36661
1136.68	0.212646
1139.58	1.74377
1142.47	2.46469
1145.36	0.69162
1148.26	5.25217
1151.15	2.01208
1154.04	4.46457
1156.93	4.37497
1159.83	3.24542
1162.72	1.90115
1165.61	3.35132
1168.51	1.2468
1171.4	3.93399
1174.29	2.05603
1177.18	4.09662
1180.08	2.0968
1182.97	4.74625
1185.86	2.3718
1188.75	0.53598
1191.65	4.7764
1194.54	4.30176
1197.43	3.86768
1200.33	2.63922
1203.22	4.80112
1206.11	5.22208
1209	3.38357
1211.9	1.01895
1214.79	1.64264
1217.68	2.7077
1220.57	0.495697
1223.47	0.777435
1226.36	1.64819
1229.25	2.1842
1232.14	3.19333
1235.04	0.346497
1237.93	2.22479
1240.82	0.231781
1243.71	2.14273
1246.61	3.37012
1249.5	3.14465
1252.39	5.71036
1255.29	6.23163
1258.18	4.36493
1261.07	1.32239
1263.96	4.39362
1266.86	5.05591
1269.75	4.38275
1272.64	3.70447
1275.54	5.48721
1278.43	5.14719
1281.32	3.08737
1284.21	0.143982
1287.11	1.70593
1290	0.872131
1292.89	4.24078
1295.78	5.70947
1298.68	4.22436
1301.57	1.9718
