Measurement: Raman, 780 nm, unoriented, Raman Data Processed
Mineral: Pyrobelonite
Rruff sample: R100056
Ideal chemistry: PbMn^2+^VO_4_(OH)
Locality: Langban, Filipstad, Varmland, Sweden
Source: William W Pinch
Description: Isolated red blocky crystals
Raman shift (cm-1)	intensity
91.5332	0
94.908	591.279
98.2828	1600.66
101.658	3561.15
105.032	3327.97
108.407	1353.55
111.782	847.774
115.157	377.543
118.532	16.4949
121.907	79.3805
125.281	9.99927
128.656	188.297
132.031	426.7
135.406	723.029
138.781	1008.36
142.155	1295.11
145.53	1669.57
148.905	1984.13
152.28	2114.49
155.655	2098.67
159.03	1677.96
162.404	1250.65
165.779	1047.63
169.154	1003.52
172.529	1017.97
175.904	1092.48
179.278	1165.15
182.653	834.466
186.028	464.243
189.403	308.77
192.778	216.143
196.153	146.345
199.527	105.205
202.902	80.8583
206.277	74.7684
209.652	75.3123
213.027	69.0966
216.401	51.7004
219.776	34.2761
223.151	19.7604
226.526	5.27814
229.901	7.31427
233.275	12.938
236.65	6.96997
240.025	6.15906
243.4	2.96625
246.775	6.59821
250.15	15.9049
253.524	29.3335
256.899	13.4811
260.274	11.1171
263.649	38.6569
267.024	42.4831
270.399	16.9524
273.773	54.5458
277.148	197.865
280.523	464.97
283.898	876.15
287.273	1327.24
290.647	1800.77
294.022	2389.13
297.397	3197.29
300.772	4119.65
304.147	4471.19
307.522	4102.28
310.896	4078.84
314.271	4740.4
317.646	5722.74
321.021	6400.37
324.396	6929.27
327.77	7701.75
331.145	8429.57
334.52	8180.04
337.895	6309.92
341.27	4122.65
344.644	2642.78
348.019	1791.88
351.394	1306.89
354.769	1023.09
358.144	831.224
361.519	600.921
364.893	545.934
368.268	684.448
371.643	936.165
375.018	1143.85
378.393	959.853
381.767	492.404
385.142	218.007
388.517	140.347
391.892	98.3197
395.267	12.5234
398.642	93.8574
402.016	65.1908
405.391	133.62
408.766	455.236
412.141	820.112
415.516	1237.87
418.89	1703.05
422.265	2175.02
425.64	2347.64
429.015	2072.81
432.39	1604.14
435.765	1103.05
439.139	694.978
442.514	434.033
445.889	268.84
449.264	171.111
452.639	108.958
456.014	59.447
459.388	10.1058
462.763	9.85748
466.138	10.3614
469.513	12.5919
472.887	8.95236
476.262	3.66998
479.637	2.16522
483.012	11.271
486.387	19.3315
489.762	29.3668
493.136	37.8012
496.511	49.0729
499.886	57.3496
503.261	68.1829
506.636	76.4434
510.01	85.7624
513.385	94.5516
516.76	108.299
520.135	110.365
523.51	110.052
526.885	108.649
530.259	103.225
533.634	98.7339
537.009	97.0739
540.384	97.0301
543.759	97.1426
547.134	114.472
550.508	97.6047
553.883	96.8342
557.258	97.1575
560.633	98.1276
564.008	98.0122
567.382	99.5815
570.757	100.192
574.132	101.715
577.507	100.953
580.882	101.032
584.256	104.815
587.631	115.265
591.006	119.559
594.381	130.55
597.756	141.96
601.131	143.116
604.505	139.025
607.88	129.984
611.255	121.632
614.63	110.52
618.005	98.3377
621.38	85.5773
624.754	71.8654
628.129	63.5853
631.504	50.1714
634.879	35.0865
638.254	20.0769
641.628	2.33078
645.003	7.26883
648.378	15.8144
651.753	22.1483
655.128	19.4373
658.503	10.4451
661.877	13.2558
665.252	45.3295
668.627	89.2159
672.002	136.331
675.377	178.951
678.751	202.445
682.126	214.681
685.501	228.224
688.876	266.436
692.251	331.11
695.625	366.85
699	322.258
702.375	200.959
705.75	76.6072
709.125	4.18189
712.5	20.6617
715.874	39.9042
719.249	187.433
722.624	461.555
725.999	945.628
729.374	1736.14
732.749	3109.18
736.123	5411.02
739.498	8628.22
742.873	12120
746.248	15869.2
749.623	19637.5
752.997	21152.8
756.372	17418.6
759.747	11354.6
763.122	7109.96
766.497	4709.73
769.871	3358.95
773.246	2600.34
776.621	2131.85
779.996	1694.67
783.371	1121.32
786.745	626.863
790.12	318.029
793.495	139.081
796.87	29.2168
800.245	26.9298
803.62	35.3531
806.994	5.53125
810.369	39.5077
813.744	116.595
817.119	258.857
820.494	477.216
823.869	783.322
827.243	1136.46
830.618	1580.43
833.993	2110.64
837.368	2580.86
840.743	2850.14
844.117	3436.61
847.492	4468.85
850.867	5462.58
854.242	6741.7
857.617	8124.91
860.991	7247.64
864.366	3621.55
867.741	1524.98
871.116	703.077
874.491	351.097
877.866	177.057
881.24	78.6255
884.615	26.5486
887.99	2.26715
891.365	16.4773
894.74	18.8844
898.115	11.3903
901.489	0.598724
904.864	15.2738
908.239	31.6588
911.614	45.7706
914.989	59.7816
918.363	75.1654
921.738	84.2407
925.113	88.3588
928.488	82.0894
931.863	83.5409
935.237	86.0657
938.612	87.7885
941.987	89.9805
945.362	86.4058
948.737	78.77
952.112	63.525
955.486	47.8261
958.861	37.9907
962.236	27.5334
965.611	21.9843
968.986	20.1749
972.361	18.7357
975.735	19.1854
979.11	19.5946
982.485	19.3478
985.86	20.58
989.235	18.3507
992.609	15.5636
995.984	14.0377
999.359	11.642
1002.73	8.07077
1006.11	4.93572
1009.48	2.48209
1012.86	4.40492
1016.23	2.91742
1019.61	3.97572
1022.98	6.37448
1026.36	6.64902
1029.73	6.26202
1033.11	7.35059
1036.48	4.31552
1039.86	0.903488
1043.23	2.42514
1046.61	2.3821
1049.98	1.22641
1053.36	1.40772
1056.73	2.53012
1060.11	1.66226
1063.48	1.06447
1066.86	0.419998
1070.23	1.11292
1073.61	0.37793
1076.98	0.087799
1080.36	0.87384
1083.73	0.33902
1087.1	2.91109
1090.48	4.77712
1093.85	3.1864
1097.23	0.589905
1100.6	6.04748
1103.98	6.04001
1107.35	7.96808
1110.73	11.6124
1114.1	12.9471
1117.48	12.5112
1120.85	14.849
1124.23	12.5137
1127.6	12.1583
1130.98	7.07678
1134.35	5.65514
1137.73	1.3898
1141.1	1.55545
1144.48	0.565613
1147.85	0.07814
1151.23	0.787598
1154.6	1.93881
1157.97	3.49361
1161.35	7.34154
1164.72	11.1376
1168.1	9.31812
1171.47	12.529
1174.85	13.2399
1178.22	16.7234
1181.6	15.4443
1184.97	15.4109
1188.35	17.6768
1191.72	15.9052
1195.1	15.2941
1198.47	14.865
1201.85	13.9833
1205.22	9.7029
1208.6	9.39259
1211.97	5.88394
1215.35	5.18961
1218.72	3.79309
1222.1	1.07841
1225.47	0.233696
1228.85	0.093567
1232.22	2.7876
1235.6	1.56117
1238.97	4.10934
1242.35	4.68996
1245.72	3.77847
1249.1	6.02895
1252.47	7.25971
1255.85	9.02242
1259.22	5.94433
1262.6	5.86421
1265.97	5.2964
1269.34	3.2704
1272.72	3.35519
1276.09	2.25671
1279.47	1.02741
1282.84	0.445992
