Measurement: Raman, 780 nm, unoriented, Raman Data Processed
Mineral: Pyrope
Rruff sample: R050113
Ideal chemistry: Mg_3_Al_2_(SiO_4_)_3_
Locality: Warsik, Pakistan
Source: Farooq and Nazia Sawal
Description: Reddish-purple fragment
Measured chemistry: (Mg_1.83_Fe^2+^_1.12_Ca_0.03_Mn_0.02_)_Σ=3_(Al_1.82_Fe^3+^_0.18_)_Σ=2_((Si_0.99_Al_0.01_)_Σ=1_O_4_)_3_
Raman shift (cm-1)	intensity
118.505	0
121.88	23.2873
125.255	38.1381
128.63	20.028
132.005	18.7883
135.379	32.4872
138.754	61.0078
142.129	30.0156
145.504	72.6907
148.879	129.558
152.253	179.025
155.628	298.648
159.003	408.714
162.378	539.104
165.753	816.87
169.127	1024.26
172.502	538.709
175.877	217.763
179.252	74.0404
182.627	19.1808
186.002	19.4676
189.376	7.87183
192.751	13.0214
196.126	59.9617
199.501	110.577
202.876	227.592
206.25	280.973
209.625	381.32
213	463.788
216.375	426.259
219.75	309.262
223.125	221.647
226.499	153.957
229.874	146.983
233.249	117.644
236.624	114.257
239.999	57.2006
243.374	59.6522
246.748	47.3676
250.123	5.01752
253.498	12.4673
256.873	22.4394
260.248	0.959656
263.622	0.768005
266.997	9.53424
270.372	12.3763
273.747	18.8364
277.122	9.44659
280.497	28.626
283.871	27.3007
287.246	36.6472
290.621	51.244
293.996	88.9136
297.371	117.416
300.745	128.187
304.12	182.253
307.495	274.115
310.87	380.265
314.245	586.279
317.62	656.221
320.994	755.222
324.369	912.596
327.744	1219.09
331.119	1492.09
334.494	1726.3
337.868	2168.37
341.243	3054.44
344.618	3909.29
347.993	3857.6
351.368	2597.08
354.743	1635.72
358.117	1281.81
361.492	1227.82
364.867	1367.75
368.242	1680.51
371.617	1799.73
374.991	1494
378.366	1014.77
381.741	625.029
385.116	352.847
388.491	218.334
391.865	127.547
395.24	65.0331
398.615	43.6758
401.99	45.884
405.365	37.7825
408.74	2.43445
412.114	1.7915
415.489	2.34222
418.864	17.6348
422.239	0.833679
425.614	3.81683
428.988	10.9146
432.363	3.83795
435.738	5.15186
439.113	3.38647
442.488	3.96973
445.863	0.427917
449.237	22.5853
452.612	17.1044
455.987	17.1778
459.362	41.1248
462.737	48.6827
466.111	73.1423
469.486	93.5245
472.861	139.755
476.236	216.42
479.611	221.885
482.986	128.703
486.36	100.983
489.735	167.254
493.11	327.619
496.485	594.01
499.86	858.551
503.235	559.784
506.609	247.502
509.984	93.0882
513.359	49.6784
516.734	38.267
520.109	15.4642
523.483	14.6388
526.858	4.99158
530.233	28.6564
533.608	46.8897
536.983	77.855
540.357	117.615
543.732	238.523
547.107	395.438
550.482	660.339
553.857	1022.15
557.232	1080.2
560.606	687.773
563.981	335.346
567.356	160.276
570.731	88.7148
574.106	58.9571
577.481	79.0547
580.855	121.929
584.23	100.047
587.605	78.2197
590.98	37.5801
594.355	38.2725
597.729	78.9427
601.104	88.4786
604.479	14.917
607.854	12.6641
611.229	11.503
614.604	3.34766
617.978	3.37421
621.353	27.2787
624.728	70.2353
628.103	132.998
631.478	230.036
634.852	212.231
638.227	112.057
641.602	49.6481
644.977	12.4885
648.352	5.32843
651.726	5.10107
655.101	19.7678
658.476	3.91229
661.851	1.31042
665.226	13.6299
668.601	21.0077
671.975	25.7331
675.35	22.5369
678.725	51.9935
682.1	31.0018
685.475	32.2988
688.85	72.946
692.224	18.3035
695.599	32.0198
698.974	26.0917
702.349	12.772
705.724	22.8317
709.098	13.9734
712.473	43.7371
715.848	17.6168
719.223	21.7172
722.598	9.20813
725.972	7.36761
729.347	15.4377
732.722	16.6112
736.097	14.5466
739.472	6.27185
742.847	31.8119
746.221	9.43677
749.596	25.749
752.971	27.9097
756.346	33.4765
759.721	17.2231
763.096	15.9462
766.47	39.2915
769.845	24.7975
773.22	11.8774
776.595	38.6606
779.97	11.9461
783.344	13.4524
786.719	20.9451
790.094	21.0791
793.469	15.3251
796.844	8.50012
800.218	17.4229
803.593	0.270264
806.968	24.0962
810.343	7.9079
813.718	3.77283
817.093	6.31915
820.467	1.91571
823.842	15.9596
827.217	7.28137
830.592	1.9035
833.967	10.4399
837.341	1.09405
840.716	27.6214
844.091	41.0594
847.466	64.1619
850.841	94.504
854.216	185.987
857.59	280.039
860.965	407.521
864.34	426.323
867.715	320.294
871.09	247.967
874.465	220.052
877.839	228.117
881.214	259.526
884.589	329.963
887.964	471.779
891.339	621.099
894.713	886.498
898.088	1208.63
901.463	1652.96
904.838	2485.02
908.213	3968.78
911.587	6158.83
914.962	8443.42
918.337	8205.69
921.712	5574.73
925.087	3169.45
928.462	1850.7
931.836	1185.51
935.211	759.47
938.586	485.342
941.961	287.334
945.336	205
948.71	126.241
952.085	60.9005
955.46	51.3809
958.835	20.1151
962.21	33.1903
965.585	4.53003
968.959	15.7837
972.334	1.50763
975.709	7.982
979.084	3.55035
982.459	4.35242
985.833	0.047852
989.208	10.4142
992.583	3.53406
995.958	14.4202
999.333	3.15686
1002.71	5.33484
1006.08	10.3011
1009.46	27.4704
1012.83	40.0258
1016.21	66.1938
1019.58	95.778
1022.96	129.267
1026.33	161.819
1029.71	228.681
1033.08	275.928
1036.46	370.289
1039.83	417.193
1043.2	396.565
1046.58	303.661
1049.95	224.711
1053.33	147.875
1056.7	104.486
1060.08	60.592
1063.45	38.8442
1066.83	19.9543
1070.2	20.6823
1073.58	1.3988
1076.95	5.69531
1080.33	23.5633
1083.7	23.9737
1087.08	27.5002
1090.45	7.24213
1093.83	20.254
1097.2	25.3169
1100.58	15.2563
1103.95	14.7401
1107.33	21.7451
1110.7	26.5224
1114.08	3.0354
1117.45	15.6705
1120.83	11.4876
1124.2	10.2901
1127.58	4.59225
1130.95	28.0986
1134.33	14.0573
1137.7	20.738
1141.08	2.50754
1144.45	13.2757
1147.83	12.7974
1151.2	31.8602
1154.57	19.4242
1157.95	7.94208
1161.32	0.559875
1164.7	28.73
1168.07	29.851
1171.45	42.7117
1174.82	28.3726
1178.2	30.3865
1181.57	42.9701
1184.95	35.7586
1188.32	35.6743
1191.7	48.5761
1195.07	12.7994
1198.45	29.1648
1201.82	6.45969
1205.2	14.9637
1208.57	26.8312
1211.95	16.9448
1215.32	4.36066
1218.7	14.506
1222.07	21.1689
1225.45	26.3745
1228.82	17.0077
1232.19	4.51733
1235.57	13.1705
1238.94	16.9825
1242.32	8.46069
1245.69	25.6483
1249.07	21.2521
1252.44	52.4487
1255.82	16.0852
1259.19	20.3525
1262.57	5.77429
1265.94	22.0641
1269.32	7.54785
1272.69	11.2932
1276.07	15.7208
1279.44	13.1484
1282.82	4.58554
