Measurement: Raman, 532 nm, unoriented, Raman Data Processed
Mineral: Pyroxmangite
Rruff sample: R060999
Ideal chemistry: Mn^2+^SiO_3_
Locality: Yokoneyama, Tochigi, Japan
Source: Michael Scott
Description: Pink bladed crystals frozen in matrix associated with protomangano-ferro-anthophyllite R061000
Measured chemistry: (Mn^2+^_0.61_Fe^2+^_0.27_Mg_0.09_Ca_0.03_)_Î£=1_Si_1.00_O_3_
Raman shift (cm-1)	intensity
123.933	0
127.308	202.026
130.682	439.58
134.057	377.794
137.432	243.566
140.807	218.547
144.182	253.657
147.556	295.892
150.931	399.891
154.306	486.581
157.681	592.715
161.056	630.886
164.43	478.931
167.805	235.137
171.18	76.606
174.555	28.8831
177.93	1.33569
181.305	74.8925
184.679	110.62
188.054	31.0269
191.429	50.5781
194.804	55.1294
198.179	16.4138
201.554	16.0193
204.928	18.6005
208.303	51.817
211.678	47.0558
215.053	51.7914
218.428	42.3292
221.802	1.75525
225.177	23.684
228.552	42.5575
231.927	41.4344
235.302	53.5114
238.676	37.5526
242.051	81.1965
245.426	107.567
248.801	133.992
252.176	159.696
255.55	286.013
258.925	493.788
262.3	806.03
265.675	1146.78
269.05	1205.89
272.425	1095.7
275.799	1051.32
279.174	1089.13
282.549	1167.7
285.924	1225.35
289.299	1412.86
292.673	1515.51
296.048	1517.48
299.423	1491.42
302.798	1313.85
306.173	1117.4
309.548	951.287
312.922	887.143
316.297	944.83
319.672	969.775
323.047	1144.23
326.422	1241.76
329.796	1377.5
333.171	1517.69
336.546	1651.45
339.921	1467.71
343.296	1095.13
346.671	782.169
350.045	600.067
353.42	580.491
356.795	749.199
360.17	804.502
363.545	820.993
366.919	642.7
370.294	388.464
373.669	185.689
377.044	1.35718
380.419	72.9338
383.793	73.979
387.168	4.46777
390.543	140.402
393.918	324.763
397.293	410.865
400.668	299.086
404.042	286.917
407.417	312.428
410.792	462.222
414.167	643.064
417.542	1005.35
420.916	1311.15
424.291	1212.34
427.666	825.759
431.041	397.489
434.416	199.815
437.791	47.7311
441.165	4.24304
444.54	58.5818
447.915	181.007
451.29	296.985
454.665	233.938
458.039	115.102
461.414	80.2484
464.789	78.6438
468.164	48.9852
471.539	61.4901
474.913	66.3949
478.288	3.34509
481.663	1.08557
485.038	21.0021
488.413	1.37445
491.788	17.754
495.162	67.9282
498.537	87.3113
501.912	74.355
505.287	122.914
508.662	298.512
512.037	511.618
515.411	742.278
518.786	980.545
522.161	1099.9
525.536	887.152
528.91	704.652
532.285	495.013
535.66	336.385
539.035	287.821
542.41	215.798
545.785	173.913
549.159	191.822
552.534	220.72
555.909	287.037
559.284	311.121
562.659	332.679
566.034	277.463
569.408	183.994
572.783	167.166
576.158	233.889
579.533	245.424
582.908	169.98
586.282	59.1761
589.657	6.55603
593.032	21.6979
596.407	45.3679
599.782	36.7341
603.157	20.9688
606.531	1.24829
609.906	44.5153
613.281	84.9673
616.656	171.194
620.031	258.331
623.405	330.368
626.78	475.403
630.155	680.38
633.53	927.255
636.905	1271.88
640.279	1846.06
643.654	2764.09
647.029	4336.93
650.404	6534.09
653.779	8697.48
657.154	10334.2
660.528	12304
663.903	14804.7
667.278	16975.6
670.653	15172.9
674.028	9826.38
677.402	5830.67
680.777	3617.61
684.152	2467.64
687.527	1851.92
690.902	1711.44
694.277	1811.52
697.651	2095
701.026	2084.76
704.401	1590.93
707.776	1040.89
711.151	582.482
714.525	419.956
717.9	253.37
721.275	171.86
724.65	110.329
728.025	91.2905
731.399	64.8286
734.774	65.3897
738.149	20.967
741.524	16.2457
744.899	36.6316
748.274	39.1309
751.648	60.5964
755.023	1.36645
758.398	28.4954
761.773	22.7385
765.148	10.0234
768.522	0.364868
771.897	14.1293
775.272	20.3749
778.647	43.0318
782.022	33.5747
785.396	42.7202
788.771	71.2161
792.146	78.5436
795.521	107.057
798.896	131.107
802.271	143.311
805.645	135.601
809.02	160.236
812.395	172.383
815.77	145.452
819.145	136.074
822.519	119.386
825.894	92.4399
829.269	60.1352
832.644	36.9168
836.019	49.9851
839.394	26.1257
842.768	25.8546
846.143	18.7311
849.518	20.5621
852.893	18.3833
856.268	30.835
859.643	82.8328
863.017	149.599
866.392	199.615
869.767	254.903
873.142	375.83
876.516	379.004
879.891	312.202
883.266	181.473
886.641	114.095
890.016	73.0513
893.391	19.0409
896.765	54.1801
900.14	63.0264
903.515	17.746
906.89	15.0373
910.265	47.4242
913.639	39.5247
917.014	47.1133
920.389	46.4137
923.764	3.78088
927.139	43.3213
930.514	187.158
933.888	281.691
937.263	370.076
940.638	421.127
944.013	524.17
947.388	668.815
950.763	963.965
954.137	1390.08
957.512	2094.6
960.887	3247.76
964.262	4988.47
967.636	7368.94
971.011	10069
974.386	11360.1
977.761	10367.1
981.136	9168.46
984.511	8914.41
987.885	9515.97
991.26	10332.7
994.635	11444.1
998.01	11845.1
1001.38	10882.6
1004.76	8844.97
1008.13	7107.43
1011.51	5971.24
1014.88	5630.43
1018.26	5203.28
1021.63	4122.29
1025.01	2775.08
1028.38	1954.76
1031.76	1348.68
1035.13	975.336
1038.51	633.836
1041.88	450.053
1045.26	313.084
1048.63	254.51
1052.01	211.485
1055.38	114.583
1058.76	24.4766
1062.13	9.73157
1065.51	17.528
1068.88	10.1558
1072.26	28.3525
1075.63	19.5607
1079.01	37.7989
1082.38	16.3616
1085.76	3.09815
1089.13	26.9763
1092.51	50.5498
1095.88	42.2405
1099.25	56.6565
1102.63	74.855
1106	108.683
1109.38	79.1342
1112.75	100.178
1116.13	108.607
1119.5	82.2468
1122.88	121.698
1126.25	94.9708
1129.63	90.5966
1133	75.4893
1136.38	89.7266
1139.75	52.1036
1143.13	40.7581
1146.5	44.0057
1149.88	56.8218
1153.25	66.6867
1156.63	57.2589
1160	54.1729
1163.38	76.7961
1166.75	21.6683
1170.12	50.1335
1173.5	62.7776
1176.88	58.4641
1180.25	34.2272
1183.62	44.5059
1187	5.69013
1190.37	17.6154
1193.75	39.0651
1197.12	6.5163
1200.5	9.56372
1203.87	25.8361
1207.25	35.0833
1210.62	26.9496
1214	14.0539
1217.37	18.2022
1220.75	25.02
1224.12	20.3761
1227.5	27.2084
1230.87	42.1039
1234.25	34.0818
1237.62	26.1628
1241	23.2171
1244.37	15.7462
1247.75	32.332
1251.12	33.3311
1254.5	8.22406
1257.87	54.2303
1261.24	2.62769
1264.62	10.9941
1267.99	10.7853
1271.37	41.1478
1274.74	63.2414
1278.12	19.9631
1281.49	7.02118
1284.87	43.9323
1288.24	35.0382
1291.62	37.8121
1294.99	44.283
1298.37	30.859
