Measurement: Raman, 532 nm, unoriented, Raman Data Processed
Mineral: Pyrochlore
Rruff sample: R060151
Ideal chemistry: Ca_2_Nb_2_O_7_
Locality: Oka, Quebec, Canada
Source: Marcus Origlieri
Description: Reddish-brown octahedral crystals associated with calcite
Measured chemistry: (Ca_1.41_Na_0.59_)_Σ=2_(Nb_1.49_Ti_0.26_Ce_0.15_Fe^3+^_0.05_La_0.02_Nd_0.02_Mn_0.02_)_Σ=2_(O_5.40_(OH)_1.10_F_0.50_)_Σ=7_
Raman shift (cm-1)	intensity
150.046	0
152.939	10.2344
155.832	14.184
158.724	15.2239
161.617	22.1052
164.51	36.5144
167.403	45.0821
170.295	59.0947
173.188	64.191
176.081	66.8969
178.973	64.9313
181.866	59.5027
184.759	64.5485
187.651	67.2448
190.544	67.459
193.437	57.5711
196.329	53.2537
199.222	43.0516
202.115	32.2894
205.008	21.6281
207.9	12.5955
210.793	2.48792
213.686	4.01019
216.578	1.59051
219.471	7.0704
222.364	6.93759
225.256	3.54242
228.149	0.221832
231.042	6.59253
233.935	13.7145
236.827	27.3239
239.72	38.1187
242.613	52.8281
245.505	66.6137
248.398	76.3481
251.291	89.3761
254.184	103.152
257.076	114.311
259.969	124.71
262.862	137.141
265.754	147.525
268.647	158.673
271.54	159.775
274.433	166.232
277.325	165.345
280.218	161.742
283.111	153.975
286.003	149.713
288.896	144.496
291.789	135.871
294.681	122.583
297.574	114.519
300.467	102.725
303.36	92.5544
306.252	79.3239
309.145	69.5025
312.038	58.8952
314.93	51.3084
317.823	42.4421
320.716	32.2333
323.608	24.7195
326.501	18.0115
329.394	12.8361
332.287	7.46594
335.179	4.25678
338.072	1.67435
340.965	0.434418
343.857	1.81058
346.75	1.16235
349.643	3.70032
352.536	3.33044
355.428	3.7854
358.321	4.48523
361.214	2.39636
364.106	6.7789
366.999	5.2067
369.892	7.55093
372.784	7.67917
375.677	7.26923
378.57	10.0589
381.462	10.6071
384.355	11.2324
387.248	13.3887
390.141	19.2263
393.033	18.1446
395.926	18.918
398.819	23.8087
401.712	25.5124
404.604	29.4528
407.497	32.861
410.39	35.7134
413.282	35.5017
416.175	34.5767
419.068	32.5813
421.96	31.1129
424.853	29.5267
427.746	26.5477
430.639	25.011
433.531	22.2558
436.424	18.1581
439.317	16.4551
442.209	13.3715
445.102	9.6592
447.995	6.6774
450.887	4.04599
453.78	0.715225
456.673	2.14629
459.566	4.02634
462.458	6.03503
465.351	4.94775
468.244	2.06494
471.136	3.41974
474.029	12.7266
476.922	23.3513
479.815	38.7887
482.707	54.8599
485.6	69.3563
488.493	82.7524
491.385	94.5655
494.278	106.318
497.171	114.424
500.063	118.898
502.956	119.477
505.849	121.841
508.741	120.984
511.634	117.809
514.527	116.055
517.42	108.517
520.312	104.697
523.205	96.4208
526.098	90.4214
528.99	84.5272
531.883	78.8871
534.776	71.6373
537.669	64.8237
540.561	56.6661
543.454	44.8803
546.347	37.0239
549.239	28.6025
552.132	18.6466
555.025	11.4329
557.918	5.5928
560.81	0.294312
563.703	0.19281
566.596	2.04215
569.488	6.02121
572.381	12.7058
575.274	21.4103
578.166	31.2445
581.059	45.5499
583.952	54.5311
586.845	67.6781
589.737	76.7347
592.63	84.3326
595.523	91.8859
598.415	95.9099
601.308	96.741
604.201	98.0244
607.093	100.066
609.986	95.8786
612.879	92.99
615.771	87.7677
618.664	85.3625
621.557	82.3772
624.45	76.9394
627.342	75.1811
630.235	69.9275
633.128	65.2941
636.02	61.414
638.913	58.025
641.806	52.5797
644.699	49.1562
647.591	46.0438
650.484	40.4443
653.377	38.2277
656.269	36.3242
659.162	31.073
662.055	28.7498
664.947	27.6457
667.84	23.4454
670.733	21.0576
673.626	18.6477
676.518	14.4125
679.411	12.1386
682.304	9.22403
685.197	6.70413
688.089	3.58415
690.982	2.42311
693.875	1.60065
696.767	0.916336
699.66	0.425735
702.553	2.1405
705.445	2.78663
708.338	0.584785
711.231	1.36658
714.124	1.74485
717.016	2.32967
719.909	2.04608
722.802	1.7505
725.694	0.551605
728.587	0.01297
731.48	0.617447
734.372	2.47638
737.265	3.04036
740.158	4.8051
743.051	6.27972
745.943	9.3558
748.836	11.7133
751.729	12.991
754.621	16.2812
757.514	21.2291
760.407	21.7508
763.299	25.318
766.192	28.5966
769.085	32.6331
771.977	33.4218
774.87	38.7215
777.763	39.8883
780.656	40.9512
783.548	42.9302
786.441	46.1857
789.334	47.7234
792.226	49.418
795.119	49.3007
798.012	50.6413
800.905	51.4146
803.797	52.1964
806.69	51.6897
809.583	52.2346
812.475	51.461
815.368	50.1893
818.261	49.4208
821.154	47.9091
824.046	45.6452
826.939	44.7522
829.832	43.7425
832.724	42.2886
835.617	40.5093
838.51	40.0812
841.403	36.8936
844.295	37.0925
847.188	33.6988
850.081	31.7666
852.973	32.0805
855.866	31.4843
858.759	28.2547
861.651	27.0475
864.544	26.1076
867.437	25.8596
870.33	23.6506
873.222	22.8112
876.115	21.9972
879.008	21.6102
881.9	18.4907
884.793	16.6081
887.686	15.6274
890.578	14.3689
893.471	10.8017
896.364	9.50543
899.256	7.07982
902.149	6.45818
905.042	3.15609
907.935	2.37513
910.827	1.02733
913.72	0.143906
916.613	0.004433
919.505	1.29553
922.398	1.3197
925.291	1.93362
928.184	1.69529
931.076	1.36652
933.969	1.14612
936.862	0.951664
939.754	2.0233
942.647	0.213879
945.54	0.223656
948.433	0.802219
951.325	1.25563
954.218	1.18889
957.111	2.21613
960.003	3.2874
962.896	2.7651
965.789	3.94971
968.682	4.51126
971.574	5.36207
974.467	5.16046
977.36	5.78284
980.252	6.12547
983.145	5.71605
986.038	6.0415
988.93	5.57859
991.823	5.3144
994.716	4.08209
997.609	5.44398
1000.5	3.86103
1003.39	4.47974
1006.29	4.13023
1009.18	3.62968
1012.07	3.95954
1014.97	2.96749
1017.86	2.78434
1020.75	2.57779
1023.64	3.56601
1026.54	3.08029
1029.43	2.98091
1032.32	2.49685
1035.21	3.03877
1038.11	2.47671
1041	1.11376
1043.89	2.05264
1046.78	1.3586
1049.68	1.75272
1052.57	1.91882
1055.46	1.27258
1058.36	1.08464
1061.25	2.08346
1064.14	0.359316
1067.03	1.61887
1069.93	0.805
1072.82	0.553358
1075.71	0.192936
1078.6	0.356962
1081.5	0.255552
1084.39	0.481174
1087.28	0.840141
1090.17	0.800634
1093.07	0.407795
1095.96	0.47514
1098.85	0.23922
1101.75	0.91539
1104.64	0.323944
1107.53	0.020277
1110.42	0.514917
1113.32	0.841688
1116.21	0.339575
1119.1	0.399439
1121.99	0.733303
1124.89	0.638
1127.78	1.2337
1130.67	0.463467
1133.57	0.957701
1136.46	1.19024
1139.35	1.19107
1142.24	1.05788
1145.14	0.966501
1148.03	1.21129
1150.92	1.27481
1153.81	1.29443
1156.71	0.803509
1159.6	1.92751
1162.49	1.72866
1165.38	1.06215
1168.28	1.09357
1171.17	1.46493
1174.06	1.14611
1176.96	0.681589
1179.85	1.58945
1182.74	0.296526
1185.63	0.88517
1188.53	1.14044
1191.42	1.95155
1194.31	0.586651
1197.2	0.852047
1200.1	0.549999
1202.99	0.500614
1205.88	0.43454
1208.78	1.50552
1211.67	0.748997
1214.56	1.06438
1217.45	0.370384
1220.35	0.309374
1223.24	0.914785
1226.13	0.503317
1229.03	0.313908
1231.92	0.720245
1234.81	0.214048
1237.7	0.766703
1240.6	1.49596
1243.49	1.76928
1246.38	0.496391
1249.27	0.660385
1252.17	0.262583
1255.06	0.456633
1257.95	0.051823
1260.84	1.02752
1263.74	0.248587
1266.63	0.800953
1269.52	0.530516
1272.41	0.666336
1275.31	0.223915
1278.2	0.880766
1281.09	1.08792
1283.99	0.405464
1286.88	0.516179
1289.77	0.072875
1292.66	0.564345
1295.56	0.767954
1298.45	0.908248
1301.34	0.001498
