Measurement: Raman, 785 nm, unoriented, Raman Data Processed
Mineral: Pyrosmalite-(Fe)
Rruff sample: R070313
Ideal chemistry: Fe^2+^_8_Si_6_O_15_(OH)_10_
Locality: Broken Hill, New South Wales, Australia
Source: James Shigley
Description: Brownish orange massive associated with galena
Raman shift (cm-1)	intensity
159.107	0
161.999	2.48999
164.892	65.2669
167.785	166.868
170.677	294.035
173.57	423.076
176.463	542.673
179.356	676.144
182.248	825.809
185.141	1017.83
188.034	1139.92
190.926	1091.1
193.819	909.43
196.712	772.337
199.604	682.917
202.497	527.812
205.39	434.734
208.282	368.523
211.175	260.717
214.068	201.976
216.961	157.451
219.853	178.979
222.746	129.115
225.639	68.8738
228.531	46.3612
231.424	43.3879
234.317	6.69812
237.209	9.31677
240.102	3.80054
242.995	0.449219
245.888	2.30872
248.78	5.58472
251.673	26.7665
254.566	25.61
257.458	15.8718
260.351	8.17114
263.244	40.5859
266.137	5.44788
269.029	4.91699
271.922	12.8982
274.815	5.25818
277.707	17.1965
280.6	7.18237
283.493	7.22046
286.385	4.87329
289.278	78.6661
292.171	109.756
295.063	158.145
297.956	260.052
300.849	329.232
303.742	363.21
306.634	406.129
309.527	393.569
312.42	387.253
315.312	426.464
318.205	534.837
321.098	716.57
323.99	779.468
326.883	568.148
329.776	330.689
332.669	176.794
335.561	115.228
338.454	53.7267
341.347	28.8483
344.239	23.0513
347.132	24.9592
350.025	40.4056
352.918	125.936
355.81	146.114
358.703	156.669
361.596	154.646
364.488	167.282
367.381	150.288
370.274	131.759
373.166	131.253
376.059	130.165
378.952	157.105
381.844	123.306
384.737	135.158
387.63	129.897
390.523	146.582
393.415	189.517
396.308	177.194
399.201	180.498
402.093	161.764
404.986	163.932
407.879	120.151
410.772	124.863
413.664	121.158
416.557	131.01
419.45	60.3613
422.342	52.9725
425.235	23.5769
428.128	5.10046
431.02	2.15039
433.913	28.9911
436.806	39.0886
439.699	4.99194
442.591	11.753
445.484	18.5986
448.377	1.74658
451.269	14.9552
454.162	34.502
457.055	30.2719
459.947	71.6455
462.84	137.315
465.733	162.125
468.625	227.521
471.518	189.552
474.411	144.47
477.304	161.633
480.196	181.371
483.089	159.967
485.982	98.5955
488.874	106.952
491.767	61.7222
494.66	9.7218
497.553	13.8331
500.445	15.8512
503.338	12.1754
506.231	4.0177
509.123	2.06726
512.016	23.7329
514.909	12.2568
517.802	22.9912
520.694	3.00171
523.587	23.3234
526.48	24.9927
529.372	26.1853
532.265	14.6923
535.158	22.4215
538.05	21.9136
540.943	2.73987
543.836	28.9182
546.729	12.9122
549.621	1.94702
552.514	5.97485
555.407	11.6126
558.299	13.0559
561.192	23.916
564.085	4.31165
566.977	20.7655
569.87	45.7451
572.763	46.0557
575.655	33.0967
578.548	63.0054
581.441	77.9873
584.333	100.613
587.226	167.882
590.119	200.434
593.012	307.204
595.904	481.14
598.797	726.018
601.69	1096.84
604.582	1749.62
607.475	2563.52
610.368	3666.09
613.26	4536.29
616.153	4190.73
619.046	2799.77
621.939	1610.92
624.831	955.155
627.724	582.23
630.617	419.468
633.509	308.786
636.402	212.989
639.295	161.293
642.188	140.719
645.08	118.945
647.973	121.747
650.866	94.3596
653.758	79.6217
656.651	67.2701
659.544	70.0122
662.436	52.7455
665.329	37.3013
668.222	44.3049
671.115	10.2639
674.007	23.7347
676.9	20.8135
679.793	7.85669
682.685	18.5551
685.578	6.15747
688.471	7.67017
691.363	4.81104
694.256	6.1228
697.149	13.7329
700.042	0.77771
702.934	18.9033
705.827	15.2228
708.72	32.3503
711.612	9.00378
714.505	26.3928
717.398	38.9804
720.29	30.6031
723.183	32.1047
726.076	56.6849
728.968	35.8181
731.861	55.3801
734.754	30.1416
737.647	56.1278
740.539	74.9495
743.432	39.5304
746.325	44.0424
749.217	7.9552
752.11	17.4733
755.003	20.8081
757.895	27.3744
760.788	23.4834
763.681	7.40527
766.574	3.91748
769.466	5.62732
772.359	3.55749
775.252	6.32129
778.144	10.9396
781.037	16.762
783.93	20.1732
786.822	15.1652
789.715	3.00397
792.608	27.8753
795.501	23.1569
798.393	47.4588
801.286	51.2552
804.179	92.7615
807.071	132.305
809.964	144.285
812.857	138.552
815.75	191.175
818.642	161.441
821.535	134.858
824.428	84.3218
827.32	53.0722
830.213	28.3859
833.106	21.5494
835.998	1.24664
838.891	23.9406
841.784	3.14258
844.677	4.30713
847.569	9.60767
850.462	11.1198
853.355	22.814
856.247	15.1047
859.14	15.2813
862.033	3.31146
864.925	24.5146
867.818	33.2454
870.711	18.8923
873.604	16.2178
876.496	12.7993
879.389	28.158
882.282	24.1193
885.174	25.5544
888.067	15.5875
890.96	6.53332
893.852	29.3123
896.745	24.2084
899.638	18.8979
902.53	23.9305
905.423	1.03931
908.316	12.3703
911.209	18.9156
914.101	13.8254
916.994	27.4719
919.887	34.3129
922.779	9.16284
925.672	13.0138
928.565	21.8157
931.457	7.74872
934.35	23.9432
937.243	22.9255
940.136	19.3325
943.028	14.0512
945.921	12.7205
948.814	19.9077
951.706	8.29553
954.599	20.7379
957.492	26.2991
960.385	18.9846
963.277	25.4574
966.17	12.9131
969.063	7.10877
971.955	21.6002
974.848	46.0761
977.741	30.5065
980.633	31.2954
983.526	17.5717
986.419	21.2627
989.312	43.2199
992.204	68.4167
995.097	64.4758
997.99	84.6691
1000.88	100.527
1003.77	124.226
1006.67	143.819
1009.56	177.83
1012.45	213.143
1015.35	291.952
1018.24	413.721
1021.13	566.486
1024.02	767.365
1026.92	987.854
1029.81	996.374
1032.7	813.917
1035.6	553.114
1038.49	328.198
1041.38	218.256
1044.27	141.613
1047.17	113.117
1050.06	76.7563
1052.95	38.3793
1055.84	59.0989
1058.74	31.2839
1061.63	6.54791
1064.52	11.7708
1067.41	8.65088
1070.31	1.97876
1073.2	11.2388
1076.09	6.4801
1078.98	15.4055
1081.88	9.15588
1084.77	17.9915
1087.66	2.45252
1090.56	4.11255
1093.45	0.258301
1096.34	6.54211
1099.23	2.7865
1102.13	22.0619
1105.02	8.66327
1107.91	27.1237
1110.81	30.9035
1113.7	7.76099
1116.59	19.8803
1119.48	18.6973
1122.38	22.5727
1125.27	22.3279
1128.16	8.56433
1131.05	25.9411
1133.95	8.85577
1136.84	9.69818
1139.73	18.858
1142.62	15.6938
1145.52	18.9032
1148.41	24.3678
1151.3	19.0134
1154.19	24.6985
1157.09	26.9258
1159.98	10.9659
1162.87	11.4183
1165.77	36.9981
1168.66	44.4454
1171.55	52.2738
1174.44	21.4
1177.34	12.2427
1180.23	7.89368
1183.12	26.663
1186.02	9.80383
1188.91	2.63483
1191.8	5.66803
1194.69	21.0845
1197.59	2.59509
1200.48	10.3933
1203.37	19.384
1206.26	16.1061
1209.16	14.4039
1212.05	28.86
1214.94	12.02
1217.84	17.7532
1220.73	15.0067
1223.62	7.83313
1226.51	12.3805
1229.41	25.3948
1232.3	5.52203
1235.19	3.79633
