Measurement: Raman, 532 nm, unoriented, Raman Data Processed
Mineral: Pyrope
Rruff sample: R060441
Ideal chemistry: Mg_3_Al_2_(SiO_4_)_3_
Locality: Apache County, Arizona, USA
Source: Gemological Institute of America
Description: Deep red fragment
Measured chemistry: (Mg_1.83_Fe_0.75_Ca_0.39_Mn_0.03_)_Σ=3_(Al_1.95_Cr_0.05_)_Σ=2_(Si_1.00_O_4_)_3_
Raman shift (cm-1)	intensity
111.657	0
115.032	0.028978
118.407	1.97107
121.781	1.62717
125.156	5.12025
128.531	8.68634
131.906	12.0507
135.281	13.0444
138.656	15.3737
142.03	17.7713
145.405	17.6365
148.78	16.5188
152.155	12.7212
155.53	9.28064
158.905	6.27715
162.279	4.09999
165.654	1.6395
169.029	2.01778
172.404	2.66237
175.779	4.59996
179.153	6.30876
182.528	9.42657
185.903	10.0814
189.278	12.543
192.653	12.8364
196.028	14.8087
199.402	17.2321
202.777	17.534
206.152	18.3324
209.527	19.2158
212.902	16.0748
216.276	12.8838
219.651	9.9093
223.026	6.0387
226.401	3.99226
229.776	1.32321
233.15	1.43097
236.525	0.991394
239.9	0.786007
243.275	0.016266
246.65	0.996414
250.025	0.472809
253.399	1.25218
256.774	0.284447
260.149	0.096352
263.524	0.802494
266.899	0.96806
270.273	0.836498
273.648	0.072987
277.023	0.174202
280.398	0.432655
283.773	0.786297
287.147	0.29887
290.522	0.322449
293.897	1.48762
297.272	2.92964
300.647	3.76506
304.022	5.55636
307.396	7.4996
310.771	10.6325
314.146	13.5487
317.521	15.877
320.896	17.7055
324.271	18.9126
327.645	23.5846
331.02	29.4323
334.395	38.5928
337.77	51.8251
341.145	67.1086
344.519	88.1595
347.894	109.216
351.269	135.403
354.644	167.908
358.019	194.367
361.394	188.81
364.768	153.473
368.143	115.533
371.518	88.9404
374.893	70.6387
378.267	55.2951
381.642	42.9304
385.017	31.9059
388.392	24.2272
391.767	18.276
395.142	12.883
398.516	9.10743
401.891	6.30264
405.266	4.52515
408.641	2.38586
412.016	2.53616
415.39	0.973068
418.765	0.550344
422.14	0.30015
425.515	1.26124
428.89	0.396
432.265	0.566042
435.639	0.498549
439.014	0.61552
442.389	0.421543
445.764	0.475712
449.139	0.516256
452.514	0.180147
455.888	1.41851
459.263	3.3479
462.638	3.71324
466.013	4.53121
469.388	5.63496
472.762	7.81047
476.137	8.58228
479.512	10.3654
482.887	13.5145
486.262	15.6222
489.637	12.2413
493.011	10.8491
496.386	11.8301
499.761	16.0244
503.136	23.6455
506.511	28.8008
509.885	26.7807
513.26	16.9406
516.635	12.4394
520.01	11.7446
523.385	9.95539
526.76	11.3637
530.134	11.8985
533.509	13.2139
536.884	18.5688
540.259	26.1807
543.634	37.0416
547.008	53.4009
550.383	73.2597
553.758	98.934
557.133	122.843
560.508	114.302
563.882	73.0533
567.257	36.876
570.632	17.9138
574.007	9.23749
577.382	5.44682
580.756	3.62658
584.131	1.70927
587.506	2.62617
590.881	2.46364
594.256	0.895039
597.631	0.239853
601.005	1.08251
604.38	1.15991
607.755	0.955437
611.13	0.354883
614.505	0.306
617.88	1.22691
621.254	2.21858
624.629	4.56763
628.004	8.85754
631.379	13.2551
634.754	20.4685
638.128	28.3143
641.503	31.9932
644.878	26.2549
648.253	17.9423
651.628	11.2669
655.002	8.82664
658.377	5.96741
661.752	4.09593
665.127	2.41582
668.502	1.45507
671.876	0.672455
675.251	0.337361
678.626	0.562832
682.001	0.458439
685.376	0.096926
688.751	0.143396
692.125	0.424267
695.5	0.012213
698.875	0.324498
702.25	1.34889
705.625	0.880009
709	1.8618
712.374	2.32726
715.749	2.16455
719.124	1.52818
722.499	2.51861
725.874	2.09073
729.248	2.87478
732.623	3.05047
735.998	3.21954
739.373	3.68903
742.748	3.77065
746.122	3.61758
749.497	4.39109
752.872	4.22216
756.247	4.10618
759.622	3.83671
762.997	3.97312
766.371	3.06069
769.746	2.92402
773.121	2.75028
776.496	2.24402
779.871	1.97269
783.245	1.65824
786.62	0.974246
789.995	0.538348
793.37	0.097243
796.745	0.221866
800.12	0.089279
803.494	1.00281
806.869	0.88666
810.244	1.41911
813.619	1.32583
816.994	0.362761
820.368	0.639896
823.743	1.77583
827.118	3.27528
830.493	4.34558
833.868	5.82207
837.242	8.08989
840.617	13.1572
843.992	20.8788
847.367	32.6587
850.742	47.6058
854.117	64.3516
857.491	76.3076
860.866	76.9377
864.241	62.8162
867.616	44.4117
870.991	31.9357
874.365	24.4556
877.74	21.9788
881.115	22.0313
884.49	27.3417
887.865	33.7433
891.24	46.7828
894.614	63.2567
897.989	88.9571
901.364	133.508
904.739	208.294
908.114	312.668
911.489	452.506
914.863	598.209
918.238	653.952
921.613	531.94
924.988	336.037
928.362	200.229
931.737	122.408
935.112	77.0218
938.487	47.7041
941.862	29.3146
945.237	18.1243
948.611	9.63897
951.986	6.29268
955.361	3.3148
958.736	2.21539
962.111	0.726625
965.486	0.068235
968.86	0.318907
972.235	0.128925
975.61	0.327826
978.985	0.181959
982.36	0.375137
985.734	0.467625
989.109	0.2155
992.484	1.24086
995.859	0.950638
999.234	1.73897
1002.61	1.31941
1005.98	0.511496
1009.36	2.72863
1012.73	4.18563
1016.11	7.51304
1019.48	11.5518
1022.86	14.5698
1026.23	16.4181
1029.61	19.6522
1032.98	21.6635
1036.36	24.617
1039.73	29.302
1043.11	33.8879
1046.48	38.7465
1049.86	40.8516
1053.23	38.463
1056.61	30.1153
1059.98	19.2415
1063.36	13.0434
1066.73	7.93166
1070.11	5.07984
1073.48	3.57238
1076.85	2.77812
1080.23	2.01534
1083.6	1.93515
1086.98	1.53863
1090.35	1.15295
1093.73	1.45152
1097.1	1.44093
1100.48	1.22634
1103.85	0.706891
1107.23	0.514221
1110.6	0.271561
1113.98	0.307858
1117.35	0.39029
1120.73	0.377449
1124.1	0.305908
1127.48	0.211565
1130.85	0.277048
1134.23	0.233028
1137.6	0.71595
1140.98	0.089263
1144.35	0.508233
1147.73	0.43248
1151.1	0.703303
1154.47	0.627833
1157.85	1.17825
1161.22	0.519986
1164.6	1.36244
1167.97	1.41875
1171.35	1.4003
1174.72	2.04833
1178.1	1.86098
1181.47	2.08908
1184.85	2.42544
1188.22	1.47664
1191.6	2.32865
1194.97	2.07789
1198.35	2.15767
1201.72	1.96767
1205.1	1.63753
1208.47	1.77734
1211.85	1.02727
1215.22	1.29232
1218.6	0.788378
1221.97	0.810456
1225.35	0.777647
1228.72	0.449149
1232.1	0.509216
1235.47	0.458928
1238.85	0.159291
1242.22	0.074472
1245.6	0.274755
1248.97	0.254189
1252.35	0.387218
1255.72	2.67971
1259.09	0.628288
1262.47	0.672159
1265.84	0.588019
1269.22	0.657698
1272.59	0.752723
1275.97	0.955587
1279.34	1.14781
1282.72	0.695128
1286.09	0.632329
1289.47	0.492155
1292.84	0.899584
1296.22	0.022127
1299.59	0.037608
1302.97	0.072981
