Measurement: Raman, 532 nm, unoriented, Raman Data Processed
Mineral: Pyrope
Rruff sample: R070637
Ideal chemistry: Mg_3_Al_2_(SiO_4_)_3_
Locality: Dora Maira Massif, Piedmont, Italy
Source: Jibamitra Ganguly
Description: Colorless massive, associated with muscovite, quartz and small black rutile
Raman shift (cm-1)	intensity
154.84	0
157.732	109.825
160.625	83.7549
163.518	87.1934
166.411	89.5527
169.303	168.888
172.196	619.21
175.089	1020.67
177.981	872.111
180.874	366.018
183.767	83.4561
186.659	28.6377
189.552	7.70312
192.445	110.371
195.338	153.26
198.23	263.627
201.123	451.833
204.016	833.23
206.908	1553.98
209.801	2048.52
212.694	1456.11
215.586	733.35
218.479	472.098
221.372	333.073
224.264	221.211
227.157	346.899
230.05	365.831
232.943	458.829
235.835	380.478
238.728	147.022
241.621	104.088
244.513	124.572
247.406	112.312
250.299	27.168
253.191	24.6523
256.084	44.8027
258.977	64.9961
261.87	4.44824
264.762	131.465
267.655	344.727
270.548	563.129
273.44	846.442
276.333	1049.51
279.226	1192.79
282.118	802.282
285.011	250.033
287.904	122.85
290.796	90.3018
293.689	42.0986
296.582	61.3066
299.475	98.8106
302.367	44.542
305.26	119.627
308.153	90.9805
311.045	147.136
313.938	284.126
316.831	501.952
319.724	1011.07
322.616	1112.18
325.509	1010.65
328.402	1042.83
331.294	1134.75
334.187	1239.63
337.08	1397.29
339.972	1525.35
342.865	1688.59
345.758	1825.99
348.651	2081.41
351.543	2615.76
354.436	3518.59
357.329	4547.36
360.221	5928.29
363.114	6782.32
366.007	6316.27
368.899	4498.33
371.792	3048.25
374.685	2326.6
377.577	1900.01
380.47	1722.63
383.363	1479.77
386.256	922.413
389.148	632.8
392.041	520.217
394.934	377.785
397.826	316.551
400.719	257.951
403.612	326.422
406.505	189.774
409.397	168.052
412.29	167.727
415.183	81.5234
418.075	86.5186
420.968	178.758
423.861	51.333
426.753	57.123
429.646	50.0303
432.539	176.436
435.432	100.111
438.324	11.8232
441.217	41.2725
444.11	22.3848
447.002	128.333
449.895	1.60352
452.788	6.03027
455.68	59.5312
458.573	129.481
461.466	206.088
464.358	251.435
467.251	233.782
470.144	299.817
473.037	303.499
475.929	329.14
478.822	319.24
481.715	348.543
484.607	261.191
487.5	419.736
490.393	713.03
493.286	760.979
496.178	524.205
499.071	305.776
501.964	218.538
504.856	133.705
507.749	301.281
510.642	485.922
513.534	438.232
516.427	290.653
519.32	5.32519
522.212	106.806
525.105	80.6953
527.998	151.664
530.891	161.708
533.783	203.844
536.676	230.916
539.569	225.009
542.461	293.492
545.354	336.027
548.247	643.009
551.139	959.794
554.032	1577.48
556.925	2527.17
559.818	3942.63
562.71	4817.48
565.603	3733.67
568.496	2248.88
571.388	1259.55
574.281	884.702
577.174	686.09
580.067	432.613
582.959	366.65
585.852	194.898
588.745	105.622
591.637	168.608
594.53	186.81
597.423	180.515
600.315	272.531
603.208	147.944
606.101	27.8135
608.994	25.4229
611.886	32.2598
614.779	114.905
617.672	56.9766
620.564	70.1768
623.457	8.95508
626.35	127.039
629.242	97.2969
632.135	151.574
635.028	187.816
637.92	139.695
640.813	390.474
643.706	566.901
646.599	1052.21
649.491	1141.89
652.384	770.684
655.277	323.415
658.169	164.732
661.062	65.167
663.955	152.327
666.847	24.0791
669.74	65.1074
672.633	30.2617
675.525	71.5586
678.418	78.9785
681.311	56.4268
684.204	17.9697
687.096	17.2393
689.989	81.2754
692.882	130.819
695.774	200.826
698.667	193.51
701.56	225.019
704.452	286.287
707.345	406.106
710.238	232.165
713.131	172.305
716.023	230.746
718.916	267.095
721.809	310.437
724.701	252.468
727.594	249.827
730.487	300.864
733.38	375.379
736.272	244.702
739.165	249.567
742.058	182.6
744.95	178.727
747.843	85.8125
750.736	73.4844
753.628	98.4746
756.521	62.0869
759.414	43.1494
762.307	6.63867
765.199	112.917
768.092	82.6484
770.985	20.4199
773.877	66.4463
776.77	42.0293
779.663	107.188
782.555	106.208
785.448	87.416
788.341	160.011
791.234	142.839
794.126	121.641
797.019	218.907
799.912	376.703
802.804	315.796
805.697	330.345
808.59	583.131
811.482	505.036
814.375	356.848
817.268	189.842
820.16	110.73
823.053	28.1338
825.946	70.6738
828.839	17.7246
831.731	63.5527
834.624	63.8691
837.517	48.3965
840.409	90.5615
843.302	39.6035
846.195	78.1133
849.087	208.504
851.98	247.911
854.873	557.989
857.766	891.837
860.658	1524.3
863.551	2553.42
866.444	3657.3
869.336	4047.39
872.229	3067.88
875.122	1973.39
878.014	1331.01
880.907	946.902
883.8	591.274
886.693	603.704
889.585	573.884
892.478	591.673
895.371	590.182
898.263	770.876
901.156	929.751
904.049	986.887
906.942	1333.9
909.834	1694.13
912.727	2534.79
915.62	3869.59
918.512	6492.2
921.405	10550.8
924.298	16290.1
927.19	19386.9
930.083	15190.7
932.976	9348.58
935.869	5672.14
938.761	3615.69
941.654	2433.36
944.547	1630.34
947.439	1136.31
950.332	919.001
953.225	610.203
956.117	563.93
959.01	486.779
961.903	500.753
964.795	336.263
967.688	223.535
970.581	222.518
973.474	35.0723
976.366	1.27344
979.259	46.7471
982.152	16.2246
985.044	126.301
987.937	31.6562
990.83	45.6758
993.722	9.18359
996.615	11.793
999.508	92.4121
1002.4	39.456
1005.29	2.89062
1008.19	38.0732
1011.08	41.1973
1013.97	3.9834
1016.86	108.14
1019.76	105.112
1022.65	49.2617
1025.54	105.066
1028.43	232.572
1031.33	295.112
1034.22	436.778
1037.11	594.948
1040.01	661.743
1042.9	477.923
1045.79	421.731
1048.68	404.381
1051.58	357.47
1054.47	454.644
1057.36	587.765
1060.26	971.977
1063.15	1140.13
1066.04	1051.25
1068.93	678.593
1071.83	507.574
1074.72	301.366
1077.61	327.995
1080.5	188.746
1083.4	211.164
1086.29	96.3975
1089.18	17.1416
1092.07	1.18848
1094.97	139.797
1097.86	126.289
1100.75	45.0605
1103.64	24.0723
1106.54	88.3144
1109.43	122.204
1112.32	168.083
1115.22	104.809
1118.11	145.359
1121	35.7285
1123.89	1.93164
1126.79	73.3428
1129.68	112.246
1132.57	32.7373
1135.46	101.68
1138.36	31.6797
1141.25	2.01953
1144.14	25.5752
1147.04	84.1787
1149.93	125.769
1152.82	131.099
1155.71	132.99
1158.61	19.1943
1161.5	19.2852
1164.39	20.7793
1167.28	27.4639
1170.18	21.1338
1173.07	146.638
1175.96	175.868
1178.86	81.085
1181.75	65.1777
1184.64	140.143
1187.53	188.113
1190.43	336.938
1193.32	252.938
1196.21	274.733
1199.1	406.225
1202	438.797
1204.89	450.346
1207.78	426.982
1210.67	326.706
1213.57	319.974
1216.46	264.987
1219.35	194.941
1222.25	147.446
1225.14	228.392
1228.03	106.845
1230.92	162.764
1233.82	16.7891
1236.71	70.1631
1239.6	118.456
1242.49	147.665
1245.39	41.0889
1248.28	0.019531
1251.17	66.1143
1254.07	120.404
1256.96	114.438
1259.85	8.8623
1262.74	78.0986
1265.64	18.7646
1268.53	70.7285
1271.42	0.635742
1274.31	163.7
1277.21	12.4355
1280.1	97.7744
1282.99	94.4883
1285.88	79.8408
1288.78	123.708
1291.67	51.8408
1294.56	81.832
1297.46	83.918
