Measurement: Raman, 532 nm, unoriented, Raman Data Processed
Mineral: Pyrope
Rruff sample: R050446
Ideal chemistry: Mg_3_Al_2_(SiO_4_)_3_
Locality: Sunset Crater, Arizona, USA
Source: Marcus Origlieri
Description: Red fragment
Measured chemistry: (Mg_1.93_Fe^2+^_0.65_Ca_0.42_)_Î£=3_Al_2.00_(Si_1.00_O_4_)_3_
Raman shift (cm-1)	intensity
105.471	0
108.846	0.30682
112.221	1.86553
115.596	6.32064
118.971	10.7725
122.345	18.0706
125.72	17.5162
129.095	21.9563
132.47	24.6985
135.845	27.0954
139.22	32.8008
142.594	26.8053
145.969	24.5943
149.344	20.9118
152.719	15.5284
156.094	9.67938
159.468	4.86504
162.843	1.6715
166.218	0.594776
169.593	1.26305
172.968	2.23705
176.343	8.30411
179.717	14.0155
183.092	21.3078
186.467	27.6653
189.842	31.4968
193.217	36.1374
196.591	38.4139
199.966	44.9831
203.341	45.9888
206.716	47.2564
210.091	41.6309
213.465	36.1597
216.84	28.224
220.215	20.9882
223.59	14.5676
226.965	9.36356
230.339	6.06687
233.714	3.27522
237.089	3.53085
240.464	2.93407
243.839	2.73862
247.214	2.27757
250.588	2.26131
253.963	2.06103
257.338	0.821045
260.713	0.63179
264.088	1.20864
267.462	0.679146
270.837	0.579346
274.212	0.444283
277.587	0.004646
280.962	1.16773
284.337	0.502647
287.711	0.189301
291.086	1.52644
294.461	2.33134
297.836	5.5503
301.211	8.38639
304.586	13.7548
307.96	18.3666
311.335	26.0501
314.71	33.5377
318.085	36.7223
321.46	38.3457
324.834	40.2862
328.209	46.5795
331.584	58.1545
334.959	78.2651
338.334	101.598
341.709	132.868
345.083	171.228
348.458	220.475
351.833	278.715
355.208	345.06
358.583	397.775
361.957	389.114
365.332	312.964
368.707	229.782
372.082	172.62
375.457	134.765
378.832	103.247
382.206	78.3389
385.581	59.4494
388.956	44.8407
392.331	33.4196
395.705	25.1739
399.08	17.0733
402.455	11.6771
405.83	8.68933
409.205	6.37215
412.58	4.42168
415.954	1.29217
419.329	0.824417
422.704	0.927116
426.079	1.12078
429.454	0.577461
432.829	1.09727
436.203	0.847267
439.578	0.295593
442.953	0.342068
446.328	0.926857
449.703	0.59087
453.077	0.928593
456.452	2.0842
459.827	3.37719
463.202	5.08728
466.577	8.91396
469.952	12.3946
473.326	16.5649
476.701	21.0773
480.076	27.778
483.451	36.1066
486.826	39.6809
490.2	33.172
493.575	30.377
496.95	34.5886
500.325	48.3105
503.7	68.5309
507.075	83.7033
510.449	70.1138
513.824	41.9076
517.199	28.6383
520.574	23.4937
523.949	23.1881
527.323	23.4874
530.698	25.261
534.073	29.9068
537.448	39.6829
540.823	55.7728
544.197	81.4245
547.572	117.321
550.947	162.286
554.322	215.777
557.697	260.891
561.072	239.038
564.446	148.425
567.821	75.7608
571.196	37.0919
574.571	19.662
577.946	11.5916
581.321	6.96911
584.695	7.28901
588.07	5.70366
591.445	4.91509
594.82	1.46375
598.194	0.391098
601.569	1.82327
604.944	1.94811
608.319	0.975719
611.694	0.792679
615.069	0.507748
618.443	2.70946
621.818	3.95117
625.193	10.1461
628.568	21.0294
631.943	34.5363
635.317	54.1939
638.692	73.0096
642.067	81.7339
645.442	65.6202
648.817	42.1357
652.192	26.7024
655.566	21.3092
658.941	13.6748
662.316	10.31
665.691	6.57665
669.066	3.30289
672.441	2.20355
675.815	1.39575
679.19	1.41261
682.565	0.076159
685.94	0.38789
689.315	1.1226
692.689	1.67292
696.064	0.657097
699.439	1.69151
702.814	2.13775
706.189	2.97836
709.563	3.31331
712.938	3.2116
716.313	4.56554
719.688	4.4768
723.063	5.19811
726.438	5.42689
729.812	6.21516
733.187	6.60256
736.562	7.91118
739.937	7.99897
743.312	9.1861
746.687	8.79855
750.061	10.535
753.436	9.95944
756.811	9.09246
760.186	8.17887
763.561	7.1661
766.935	8.33118
770.31	6.41177
773.685	4.42511
777.06	3.39995
780.435	2.82362
783.809	1.69494
787.184	0.829248
790.559	0.520782
793.934	0.579964
797.309	1.17103
800.683	2.5362
804.058	2.28146
807.433	2.07785
810.808	2.87972
814.183	0.899868
817.558	2.19527
820.932	6.65236
824.307	10.3483
827.682	13.8634
831.057	16.191
834.432	19.3913
837.807	29.3642
841.181	44.366
844.556	67.8968
847.931	101.317
851.306	141.929
854.681	182.608
858.055	204.388
861.43	183.625
864.805	133.787
868.18	91.6984
871.555	63.7139
874.929	49.784
878.304	46.8986
881.679	52.8055
885.054	65.7618
888.429	86.8211
891.804	117.949
895.178	155.25
898.553	219.742
901.928	330.337
905.303	518.293
908.678	787.172
912.053	1120.9
915.427	1421.43
918.802	1453.51
922.177	1095.56
925.552	678.451
928.927	405.224
932.301	248.703
935.676	154.679
939.051	94.9663
942.426	56.6277
945.801	33.4363
949.176	20.6235
952.55	11.635
955.925	6.6598
959.3	3.52708
962.675	0.037895
966.05	0.974121
969.424	1.04758
972.799	2.37817
976.174	0.309856
979.549	0.04549
982.924	1.83666
986.298	1.43055
989.673	0.820377
993.048	0.112373
996.423	1.23639
999.798	2.35273
1003.17	1.78779
1006.55	2.54222
1009.92	5.63863
1013.3	12.4397
1016.67	18.774
1020.05	28.2299
1023.42	34.9501
1026.8	40.9246
1030.17	46.5955
1033.55	54.294
1036.92	63.0246
1040.3	76.2301
1043.67	89.8691
1047.05	104.486
1050.42	109.905
1053.8	102.092
1057.17	78.7069
1060.54	52.6009
1063.92	32.8007
1067.29	21.367
1070.67	12.5572
1074.04	10.4363
1077.42	7.28732
1080.79	5.28547
1084.17	3.39403
1087.54	2.80106
1090.92	2.79826
1094.29	2.52824
1097.67	2.01884
1101.04	2.15018
1104.42	1.32177
1107.79	0.922508
1111.17	0.583904
1114.54	0.689581
1117.92	0.234802
1121.29	0.253891
1124.67	0.451303
1128.04	0.20693
1131.42	0.671185
1134.79	0.12458
1138.16	0.444242
1141.54	0.670462
1144.91	0.647312
1148.29	0.439625
1151.66	1.11854
1155.04	0.988574
1158.41	1.02056
1161.79	1.53911
1165.16	1.60899
1168.54	2.74451
1171.91	3.11473
1175.29	3.12308
1178.66	3.82616
1182.04	4.42041
1185.41	4.04491
1188.79	4.21283
1192.16	3.54289
1195.54	4.47646
1198.91	3.68582
1202.29	3.91313
1205.66	3.71147
1209.04	3.03327
1212.41	3.32631
1215.79	1.70938
1219.16	1.98707
1222.54	1.88296
1225.91	0.998972
1229.29	0.154499
1232.66	1.09507
1236.04	0.556631
1239.41	0.842687
1242.79	0.154735
1246.16	0.690594
1249.53	0.384504
1252.91	0.735876
1256.28	0.617611
1259.66	0.577397
1263.03	0.999884
1266.41	1.29326
1269.78	1.38036
1273.16	2.09971
1276.53	1.67508
1279.91	1.43649
1283.28	0.683805
1286.66	0.912748
