Measurement: Raman, 532 nm, unoriented, Raman Data Processed
Mineral: Pyroxene
Rruff sample: R110130
Locality: Little Deer Creek eclogite, Skagit County, Washington, USA
Source: Bart Cannon
Description: Blocky transparent green crystals coating a surface of a rock. Single crystal X-ray diffraction shows that this sample is composed of exsolution lamellae of diopside and jadeite
Raman shift (cm-1)	intensity
164.738	0
167.631	2.26014
170.524	6.17281
173.416	15.8092
176.309	23.0557
179.202	34.0283
182.094	41.1798
184.987	47.3013
187.88	47.4627
190.773	40.7944
193.665	40.2822
196.558	36.9555
199.451	39.2779
202.343	45.1396
205.236	44.304
208.129	49.9914
211.021	48.549
213.914	45.545
216.807	38.7948
219.699	33.7565
222.592	31.6458
225.485	22.1339
228.377	18.2307
231.27	13.013
234.163	8.15683
237.056	5.35991
239.948	7.14315
242.841	3.65213
245.734	0.123466
248.626	2.98785
251.519	1.42239
254.412	2.7509
257.305	2.66628
260.197	1.05067
263.09	2.66866
265.983	0.037094
268.875	3.64734
271.768	3.58034
274.661	0.408203
277.553	2.47452
280.446	2.17676
283.339	1.88019
286.232	4.09135
289.124	8.61726
292.017	7.18597
294.91	5.6264
297.802	1.83812
300.695	4.12167
303.588	2.21979
306.481	4.09421
309.373	7.57625
312.266	11.4531
315.159	21.7618
318.051	33.5414
320.944	42.5866
323.837	60.9256
326.729	74.3004
329.622	90.747
332.515	100.671
335.408	110.389
338.3	116.063
341.193	111.764
344.086	111.14
346.978	108.451
349.871	101.522
352.764	99.3732
355.656	97.7074
358.549	92.6247
361.442	93.6849
364.334	98.465
367.227	107.07
370.12	113.649
373.012	122.069
375.905	133.006
378.798	139.34
381.691	131.364
384.583	123.584
387.476	117.701
390.369	110.3
393.261	104.814
396.154	98.5632
399.047	101.31
401.94	100.82
404.832	98.4883
407.725	100.161
410.618	93.9675
413.51	83.574
416.403	70.5061
419.296	48.7874
422.188	34.8468
425.081	22.4188
427.974	14.6476
430.866	9.36227
433.759	2.35467
436.652	1.79285
439.545	1.66016
442.437	1.71401
445.33	4.29266
448.223	3.37763
451.115	1.47426
454.008	0.358315
456.901	0.191017
459.793	1.65115
462.686	4.52933
465.579	5.47443
468.472	7.87662
471.364	9.50153
474.257	20.5656
477.15	28.5073
480.042	28.5732
482.935	20.2349
485.828	16.0515
488.721	13.5644
491.613	14.8127
494.506	18.0342
497.399	26.2826
500.291	35.6277
503.184	46.6696
506.077	58.0561
508.969	52.3274
511.862	39.4026
514.755	31.8597
517.648	20.3528
520.54	16.7112
523.433	13.2592
526.326	15.4254
529.218	16.8957
532.111	19.6205
535.004	24.6466
537.896	32.4029
540.789	36.5639
543.682	44.2532
546.575	48.6229
549.467	51.7861
552.36	56.3892
555.253	58.2125
558.145	60.3756
561.038	58.2687
563.931	49.721
566.823	45.3812
569.716	37.4407
572.609	35.3612
575.502	26.6559
578.394	25.7676
581.287	20.8589
584.18	21.3298
587.072	13.9327
589.965	16.3094
592.858	16.3519
595.75	11.3613
598.643	11.3026
601.536	9.42168
604.428	4.437
607.321	2.77045
610.214	0.283401
613.107	1.04116
615.999	0.059204
618.892	0.754074
621.785	3.83414
624.677	2.68575
627.57	0.178688
630.463	0.256744
633.356	0.796791
636.248	6.41651
639.141	7.42839
642.034	11.2137
644.926	17.7249
647.819	22.1244
650.712	29.1201
653.604	37.3743
656.497	48.9454
659.39	67.2549
662.283	98.8116
665.175	141.85
668.068	207.074
670.961	286.497
673.853	370.489
676.746	451.307
679.639	478.808
682.531	418.733
685.424	304.878
688.317	205.661
691.21	138.691
694.102	93.4793
696.995	65.741
699.888	44.9314
702.78	34.7377
705.673	28.2421
708.566	22.5955
711.458	20.3273
714.351	16.4595
717.244	11.6958
720.136	11.2005
723.029	11.6242
725.922	9.26646
728.815	5.43806
731.707	9.41241
734.6	7.47209
737.493	7.49909
740.385	6.02955
743.278	5.74071
746.171	6.897
749.063	5.47731
751.956	5.9099
754.849	6.3234
757.742	2.98127
760.634	2.8568
763.527	5.25908
766.42	0.611473
769.312	1.50007
772.205	0.21479
775.098	1.22024
777.99	0.494652
780.883	1.71771
783.776	1.99754
786.669	1.25867
789.561	2.23778
792.454	1.05023
795.347	3.29198
798.239	2.13212
801.132	1.89789
804.025	1.74019
806.918	1.12313
809.81	1.35593
812.703	1.27676
815.596	1.09115
818.488	2.92942
821.381	2.27299
824.274	1.93005
827.166	4.13688
830.059	1.40227
832.952	0.00827
835.845	0.736603
838.737	1.45302
841.63	0.026138
844.523	2.45219
847.415	2.51656
850.308	1.90321
853.201	5.18429
856.093	5.50201
858.986	5.2222
861.879	6.86845
864.771	11.023
867.664	11.3376
870.557	15.572
873.45	19.8968
876.342	21.3809
879.235	24.8431
882.128	24.8942
885.02	25.227
887.913	26.9732
890.806	29.0269
893.698	30.4477
896.591	29.4038
899.484	32.1626
902.377	32.0466
905.269	34.5436
908.162	37.0382
911.055	36.0141
913.947	35.3274
916.84	33.1569
919.733	31.7163
922.625	25.6776
925.518	19.6959
928.411	16.2286
931.304	12.7388
934.196	7.73394
937.089	6.00526
939.982	4.21713
942.875	3.86138
945.767	2.13655
948.66	2.66046
951.553	0.166756
954.445	0.261749
957.338	2.63714
960.231	1.33242
963.123	6.56825
966.016	3.25229
968.909	8.73734
971.802	10.5812
974.694	14.2592
977.587	16.9218
980.48	18.0311
983.372	23.5366
986.265	26.1994
989.158	28.278
992.05	34.8569
994.943	46.4847
997.836	57.5633
1000.73	70.7763
1003.62	85.3675
1006.51	100.227
1009.41	112.013
1012.3	123.644
1015.19	129.574
1018.09	130.325
1020.98	132.8
1023.87	123.151
1026.76	111.935
1029.66	100.005
1032.55	80.6394
1035.44	68.9505
1038.33	50.8721
1041.23	40.9261
1044.12	29.9776
1047.01	26.7769
1049.9	21.575
1052.8	16.6534
1055.69	15.6824
1058.58	11.7931
1061.47	9.31671
1064.37	7.35679
1067.26	6.32542
1070.15	4.81197
1073.05	3.03842
1075.94	2.44813
1078.83	0.644051
1081.72	0.554138
1084.62	0.01442
1087.51	1.96661
1090.4	1.71598
1093.3	4.63025
1096.19	0.467033
1099.08	1.7171
1101.97	2.74549
1104.87	0.480827
1107.76	1.82034
1110.65	1.01227
1113.54	2.99259
1116.44	0.586014
1119.33	2.69197
1122.22	3.17055
1125.12	2.35754
1128.01	0.17466
1130.9	3.02272
1133.79	4.96931
1136.68	5.65158
1139.58	7.44547
1142.47	4.44449
1145.36	6.53705
1148.26	5.34437
1151.15	4.43271
1154.04	2.853
1156.93	6.60648
1159.83	0.433731
1162.72	2.47794
1165.61	0.048416
1168.51	0.15353
1171.4	0.350376
1174.29	2.10468
1177.18	2.72985
1180.08	5.20839
1182.97	2.97955
1185.86	1.71838
1188.75	2.60521
1191.65	4.03856
1194.54	3.08818
1197.43	4.4338
1200.33	2.80136
1203.22	3.61824
1206.11	4.25498
1209	4.68919
1211.9	2.20754
1214.79	6.79654
1217.68	4.09298
1220.57	3.77099
1223.47	3.23721
1226.36	5.45386
1229.25	3.1809
1232.14	4.2717
1235.04	4.14696
1237.93	3.23952
1240.82	3.06583
1243.71	4.4407
1246.61	0.637054
1249.5	0.447346
1252.39	2.97914
1255.29	1.51427
1258.18	0.439354
1261.07	0.916931
1263.96	1.32222
1266.86	2.78181
1269.75	3.05335
1272.64	2.749
1275.54	3.19559
1278.43	1.63092
1281.32	1.14839
1284.21	2.56046
1287.11	3.44024
1290	2.42584
1292.89	2.58312
1295.78	2.45011
1298.68	1.9177
1301.57	1.59626
