Measurement: Raman, 514 nm, unoriented, Raman Data Processed
Mineral: Pyrosmalite-(Fe)
Rruff sample: R050158
Ideal chemistry: Fe^2+^_8_Si_6_O_15_(OH)_10_
Locality: Burguillos del Cerro, Badajos, Spain
Source: Jim McGlasson
Description: Green subhedral crystal aggregate
Measured chemistry: (Fe^2+^_0.92_Mn^2+^_0.06_Mg_0.02_)_8_Si_6_O_15_(OH_0.83_Cl_0.17_)_10_
Raman shift (cm-1)	intensity
52.866	0
57.065	70.914
61.262	3.771
65.458	30.643
69.651	124.057
73.842	379.681
78.031	743.091
82.218	1781.58
86.404	3276.89
90.587	5376.9
94.768	4122.79
98.947	2770.79
103.124	2287.08
107.3	2346.15
111.473	2407.78
115.644	2923.77
119.813	2628.03
123.981	2179.37
128.146	1721.61
132.309	1552.7
136.47	1713.52
140.63	1946.93
144.787	1997.56
148.942	1590.79
153.096	1110.87
157.247	907.565
161.396	1020.25
165.544	1329.05
169.689	1941.57
173.833	2822.71
177.974	4111.56
182.114	5775.2
186.251	7407.57
190.387	8675.64
194.52	8764.41
198.652	7645.86
202.782	6730.29
206.909	6003.93
211.035	4412.52
215.159	3083.86
219.281	2272.42
223.4	1696.17
227.518	1244.24
231.634	920.319
235.748	553.168
239.86	399.367
243.97	261.745
248.079	207.17
252.185	193.538
256.289	189.764
260.391	76.777
264.492	87.515
268.59	52.93
272.687	40.019
276.781	16.625
280.874	49.832
284.964	83.178
289.053	293.955
293.14	561.213
297.225	979.164
301.308	1434.74
305.389	1586.72
309.468	1491.11
313.545	1552.88
317.62	2153.05
321.693	3421.6
325.765	4041.52
329.834	2693.78
333.902	1483.38
337.967	975.311
342.031	642.18
346.093	417.988
350.153	386.646
354.21	642.185
358.267	1105.07
362.321	1540.75
366.373	1457.48
370.423	1215.86
374.471	936.149
378.518	804.076
382.563	680.609
386.605	625.454
390.646	669.655
394.685	630.203
398.722	650.062
402.757	641.202
406.79	590.606
410.821	583.257
414.851	556.141
418.878	440.244
422.904	329.555
426.927	185.062
430.949	104.755
434.969	96.301
438.987	99.821
443.003	23.017
447.018	74.766
451.03	124.68
455.041	119.896
459.049	13.599
463.056	151.127
467.061	329.813
471.064	385.751
475.065	466.917
479.064	824.262
483.062	1336.77
487.057	979.388
491.051	433.088
495.043	112.857
499.032	12.69
503.02	37.439
507.007	24.675
510.991	85.098
514.973	18.795
518.954	3.325
522.933	3.306
526.91	0.158
530.885	34.926
534.858	32.663
538.829	64.374
542.799	105.116
546.766	148.893
550.732	158.711
554.696	243.571
558.658	311.444
562.618	367.312
566.576	404.172
570.533	557.018
574.488	714.844
578.44	861.643
582.391	1061.41
586.341	1407.15
590.288	1951.85
594.233	2693.51
598.177	4026.14
602.119	6705.89
606.059	12384.3
609.997	23020.4
613.933	35018.4
617.868	33503.2
621.801	19734.6
625.731	10460.8
629.66	5679.28
633.588	3622.23
637.513	2486.41
641.437	1869.46
645.358	1399.86
649.278	1115.88
653.196	1041.84
657.113	866.198
661.027	813.623
664.94	736.655
668.851	568.899
672.76	447.719
676.667	377.818
680.572	266
684.476	210.339
688.378	154.733
692.278	208.829
696.176	71.64
700.072	182.765
703.967	127.722
707.86	133.647
711.751	109.251
715.64	106.801
719.527	150.95
723.413	208.555
727.297	291.477
731.179	347.344
735.059	494.163
738.937	559.922
742.814	621.626
746.689	485.307
750.562	333.903
754.433	236.445
758.303	206.94
762.17	224.46
766.036	172.117
769.901	158.939
773.763	60.879
777.624	5.255
781.482	76.581
785.339	1.293
789.195	32.742
793.048	17.581
796.9	25.259
800.75	142.869
804.598	320.446
808.445	886.99
812.289	1666.5
816.132	2505.01
819.973	1740.59
823.813	1544.27
827.65	878.049
831.486	468.885
835.32	244.773
839.152	130.7
842.983	64.631
846.812	14.55
850.639	9.561
854.464	24.25
858.288	0.005
862.11	19.619
865.93	18.148
869.748	59.621
873.564	17.057
877.379	60.442
881.192	91.943
885.004	87.104
888.813	80.385
892.621	83.632
896.427	43.848
900.232	88.031
904.034	114.184
907.835	115.319
911.634	87.445
915.432	142.551
919.227	158.631
923.021	156.678
926.813	194.663
930.604	215.207
934.393	200.804
938.18	184.714
941.965	231.464
945.749	195.468
949.53	237.692
953.311	280.368
957.089	309.586
960.866	361.605
964.641	409.253
968.414	386.174
972.185	414.203
975.955	501.255
979.723	561.09
983.49	712.011
987.254	805.114
991.017	908.019
994.779	1123.93
998.538	1376.03
1002.3	1745.44
1006.05	2150.29
1009.81	2865.13
1013.56	3864.53
1017.31	5560.03
1021.06	7656.6
1024.81	8991.4
1028.55	8402.04
1032.3	6185.61
1036.04	4078.15
1039.78	2651.66
1043.52	1828.15
1047.26	1224.59
1050.99	838.042
1054.73	658.72
1058.46	463.544
1062.19	354.196
1065.92	289.514
1069.65	205.895
1073.37	150.508
1077.1	127.762
1080.82	51.1
1084.54	79.45
1088.26	28.941
1091.97	13.804
1095.69	17.99
1099.4	1.219
1103.12	35.54
1106.83	19.153
1110.54	3.521
1114.24	2.923
1117.95	4.536
1121.65	127.329
1125.35	63.287
1129.06	38.836
1132.75	10.292
1136.45	38.034
1140.15	22.176
1143.84	4.404
1147.53	47.296
1151.22	23.638
1154.91	9.259
1158.6	13.242
1162.28	40.051
1165.97	19.342
1169.65	67.495
1173.33	86.227
1177.01	90.225
1180.69	130.785
1184.36	141.295
1188.04	123.772
1191.71	98.205
1195.38	48.585
1199.05	31.127
1202.71	48.27
1206.38	43.471
1210.04	3.395
1213.71	27.669
1217.37	30.686
1221.03	28.657
1224.68	48.584
1228.34	49.475
1231.99	66.32
1235.65	30.13
1239.3	4.299
1242.95	52.278
1246.59	9.665
1250.24	4.462
1253.88	1.625
1257.53	13.745
1261.17	11.122
1264.81	34.794
1268.45	23.765
1272.08	10.281
1275.72	2.734
1279.35	29.982
1282.98	12.632
1286.61	16.273
1290.24	29.772
1293.87	0.913
1297.49	12.903
1301.11	10.969
1304.73	33.31
1308.36	55.798
1311.97	44.837
1315.59	65.194
1319.2	4.449
1322.82	18.865
1326.43	27.143
1330.04	22.39
1333.65	15.609
1337.26	17.802
1340.86	34.974
1344.47	50.082
1348.07	45.991
1351.67	64.422
1355.27	56.867
1358.87	92.618
1362.46	35.7
1366.06	61.583
1369.65	62.777
1373.24	42.964
1376.83	34.612
1380.42	96.998
1384	55.413
1387.59	72.393
1391.17	92.484
1394.75	113.193
1398.33	114.468
1401.91	122.105
1405.49	77.416
1409.06	91.954
1412.64	122.243
1416.21	111.404
1419.78	112.898
1423.35	104.924
1426.91	71.513
1430.48	97.112
1434.05	134.614
1437.61	128.154
1441.17	116.765
1444.73	129.284
1448.29	133.923
1451.84	144.407
1455.4	124.807
1458.95	140.236
1462.5	124.848
1466.05	155.69
1469.6	103.66
1473.15	142.868
1476.69	105.257
1480.24	120.775
1483.78	118.456
1487.32	94.335
1490.86	105.5
1494.39	149.053
1497.93	108.047
1501.46	95.553
1505	54.716
1508.53	43.776
1512.06	62.069
1515.59	65.174
1519.11	18.229
1522.64	11.727
