Measurement: Raman, 514 nm, unoriented, Raman Data Processed
Mineral: Pyrope
Rruff sample: R050112
Ideal chemistry: Mg_3_Al_2_(SiO_4_)_3_
Locality: Cruzeiro mine, San Jose, Minas Gerais, Brazil
Source: Carlos and Paulo Vasconcelos
Description: Dark red crystal fragment
Measured chemistry: (Mg_1.49_Fe^2+^_1.18_Ca_0.29_Mn_0.04_)_Σ=3_(Al_1.99_Fe^3+^_0.01_)_Σ=2_(Si_1.00_O_4_)_3_
Raman shift (cm-1)	intensity
52.866	0
57.065	26.011
61.262	7.681
65.458	13.468
69.651	84.625
73.842	213.114
78.031	147.771
82.218	355.681
86.404	210.235
90.587	348.028
94.768	234.743
98.947	271.067
103.124	276.666
107.3	344.357
111.473	332.087
115.644	465.833
119.813	312.519
123.981	297.05
128.146	336.351
132.309	354.362
136.47	444.013
140.63	430.879
144.787	448.812
148.942	424.959
153.096	392.391
157.247	370.447
161.396	332.584
165.544	293.609
169.689	248.295
173.833	312.565
177.974	376.23
182.114	336.159
186.251	360.352
190.387	389.808
194.52	530.524
198.652	697.474
202.782	862.711
206.909	1036.17
211.035	853.865
215.159	657.793
219.281	459.339
223.4	412.671
227.518	320.829
231.634	326.053
235.748	292.822
239.86	288.134
243.97	290.925
248.079	280.148
252.185	264.763
256.289	313.467
260.391	314.441
264.492	324.649
268.59	311.576
272.687	298.131
276.781	313.196
280.874	357.04
284.964	297.368
289.053	354.108
293.14	347.024
297.225	390.506
301.308	412.166
305.389	517.997
309.468	684
313.545	869.171
317.62	931.508
321.693	878.007
325.765	973.658
329.834	1278.45
333.902	1667.38
337.967	2302.44
342.031	3232.62
346.093	4780.91
350.153	7401.31
354.21	9449.82
358.267	8393.45
362.321	5594.21
366.373	3797.1
370.423	2870.13
374.471	2241.35
378.518	1701.7
382.563	1202.22
386.605	808.02
390.646	559.113
394.685	381.48
398.722	212.062
402.757	159.848
406.79	111.798
410.821	79.868
414.851	25.078
418.878	9.592
422.904	13.19
426.927	50.785
430.949	19.418
434.969	40.081
438.987	52.799
443.003	21.617
447.018	19.466
451.03	47.374
455.041	35.604
459.049	61.596
463.056	81.616
467.061	123.662
471.064	181.726
475.065	283.804
479.064	546.894
483.062	701.989
487.057	575.086
491.051	412.182
495.043	563.273
499.032	1015.36
503.02	1790.42
507.007	1647.48
510.991	958.513
514.973	660.592
518.954	581.385
522.933	586.685
526.91	630.051
530.885	627.483
534.858	734.04
538.829	824.435
542.799	1150.2
546.766	1775.61
550.732	2881.31
554.696	4674.61
558.658	5601.19
562.618	3750.9
566.576	1950.34
570.533	1060.39
574.488	725.458
578.44	558.675
582.391	454.706
586.341	479.679
590.288	466.841
594.233	337.901
598.177	268.899
602.119	237.514
606.059	294.2
609.997	277.029
613.933	203.692
617.868	174.363
621.801	191.125
625.731	280.557
629.66	417.875
633.588	801.062
637.513	1208.13
641.437	1124.07
645.358	729.573
649.278	405.571
653.196	321.136
657.113	229.575
661.027	128.888
664.94	123.076
668.851	50.139
672.76	10.075
676.667	12.835
680.572	19.396
684.476	9.23
688.378	31.115
692.278	2.544
696.176	23.58
700.072	43.411
703.967	24.553
707.86	52.07
711.751	31.941
715.64	22.071
719.527	11.515
723.413	16.929
727.297	15.186
731.179	28.248
735.059	17.85
738.937	19.913
742.814	3.621
746.689	23.273
750.562	9.896
754.433	32.495
758.303	34.084
762.17	30.627
766.036	11.173
769.901	49.7
773.763	35.167
777.624	58.568
781.482	33.908
785.339	33.195
789.195	49.43
793.048	65.616
796.9	83.759
800.75	128.859
804.598	196.922
808.445	216.955
812.289	301.958
816.132	348.953
819.973	333.957
823.813	384.905
827.65	419.842
831.486	455.189
835.32	523.173
839.152	658.419
842.983	871.755
846.812	1210.52
850.639	1810.69
854.464	2668.91
858.288	3631.99
862.11	4068.84
865.93	3393.06
869.748	2701.33
873.564	2256.64
877.379	2060.4
881.192	2227.39
885.004	2470.44
888.813	3068.67
892.621	3945.11
896.427	4845.45
900.232	6105.68
904.034	8755.91
907.835	14144.4
911.634	23854.7
915.432	37941.3
919.227	41710
923.021	29392.8
926.813	17175.7
930.604	10332.5
934.393	6577.58
938.18	4492.75
941.965	3123.02
945.749	2246.4
949.53	1728.87
953.311	1418.45
957.089	1196.36
960.866	1004.15
964.641	950.123
968.414	829.373
972.185	713.365
975.955	752.556
979.723	759.32
983.49	691.321
987.254	696.747
991.017	612.511
994.779	555.806
998.538	534.223
1002.3	452.885
1006.05	471.176
1009.81	475.057
1013.56	545.94
1017.31	680.103
1021.06	719.568
1024.81	817.874
1028.55	933.283
1032.3	1016.82
1036.04	1236.47
1039.78	1508.27
1043.52	1809.18
1047.26	2050.19
1050.99	2150.27
1054.73	1792.42
1058.46	1193.64
1062.19	824.92
1065.92	530.297
1069.65	349.75
1073.37	261.264
1077.1	205.845
1080.82	153.499
1084.54	131.241
1088.26	86.027
1091.97	38.863
1095.69	57.734
1099.4	57.631
1103.12	40.588
1106.83	20.584
1110.54	5.947
1114.24	13.471
1117.95	10.569
1121.65	114.286
1125.35	32.132
1129.06	42.033
1132.75	4.329
1136.45	36.762
1140.15	49.301
1143.84	10.126
1147.53	3.902
1151.22	31.152
1154.91	38.424
1158.6	25.113
1162.28	23.163
1165.97	35.027
1169.65	72.611
1173.33	89.044
1177.01	154.614
1180.69	93.859
1184.36	139.535
1188.04	125.64
1191.71	125.557
1195.38	139.951
1199.05	130.874
1202.71	104.416
1206.38	97.79
1210.04	110.052
1213.71	121.908
1217.37	111.78
1221.03	102.579
1224.68	107.255
1228.34	87.606
1231.99	104.348
1235.65	111.058
1239.3	140.277
1242.95	140.89
1246.59	121.859
1250.24	145.773
1253.88	162.1
1257.53	132.866
1261.17	142.734
1264.81	130.722
1268.45	159.395
1272.08	176.367
1275.72	182.341
1279.35	195.619
1282.98	140.242
1286.61	184.562
1290.24	126.696
1293.87	148.035
1297.49	147.098
1301.11	117.186
1304.73	92.076
1308.36	108.044
1311.97	55.769
1315.59	103.162
1319.2	10.281
1322.82	15.09
1326.43	33.285
1330.04	37.294
1333.65	12.891
1337.26	48.717
1340.86	24.145
1344.47	23.408
1348.07	78.523
1351.67	52.498
1355.27	48.315
1358.87	59.974
1362.46	2.479
1366.06	4.032
1369.65	33.645
1373.24	12.698
1376.83	16.337
1380.42	26.079
1384	71.379
1387.59	38.352
1391.17	20.16
1394.75	76.894
1398.33	30.457
1401.91	73.033
1405.49	42.732
1409.06	51.644
1412.64	57.804
1416.21	45.984
1419.78	110.588
1423.35	66.617
1426.91	58.85
1430.48	106.273
1434.05	115.211
1437.61	100.476
1441.17	91.035
1444.73	103.422
1448.29	55.024
1451.84	87.951
1455.4	100.011
1458.95	77.962
1462.5	45.931
1466.05	80.102
1469.6	103.628
1473.15	117.915
1476.69	78.242
1480.24	83.704
1483.78	45.535
1487.32	23.702
1490.86	39.065
1494.39	73.739
1497.93	86.082
1501.46	59.19
1505	41.464
1508.53	48.288
1512.06	51.379
1515.59	43.572
1519.11	0
