Measurement: Raman, 532 nm, unoriented, Raman Data Processed
Mineral: Pyromorphite
Rruff sample: R050015
Ideal chemistry: Pb_5_(PO_4_)_3_Cl
Locality: Bunker Hill mine, Shoshone County, Idaho, USA
Source: Eugene Schlepp
Description: Yellowish green prismatic hexagonal single crystals
Measured chemistry: Pb_5.00_((P_0.88_As_0.12_)O_4_)_3_Cl_1.00_
Raman shift (cm-1)	intensity
107.718	0
111.093	111.743
114.467	20.2527
117.842	36.9366
121.217	78.3646
124.592	521.362
127.967	1235.42
131.341	2028.54
134.716	3024.93
138.091	4034.33
141.466	4797.96
144.841	5435.43
148.215	6281.52
151.59	7186.55
154.965	7775.32
158.34	8025.54
161.715	8197.91
165.09	8647.66
168.464	9327.43
171.839	10234.3
175.214	10978.8
178.589	10910.3
181.964	10167.3
185.339	9171.29
188.713	7831.6
192.088	6505.45
195.463	5203.3
198.838	4270.69
202.213	3564.66
205.587	3012.52
208.962	2576.07
212.337	2224.32
215.712	1866.11
219.087	1608.98
222.462	1339.09
225.836	1141.75
229.211	1018.52
232.586	856.132
235.961	705.971
239.336	573.942
242.71	486.783
246.085	366.598
249.46	323.057
252.835	231.667
256.21	132.924
259.584	70.7876
262.959	20.9558
266.334	8.57422
269.709	26.2495
273.084	52.3157
276.459	91.2277
279.833	102.038
283.208	88.3893
286.583	86.4237
289.958	68.5626
293.333	16.5981
296.707	134.125
300.082	364.863
303.457	747.356
306.832	1218.07
310.207	1861.44
313.582	2413.45
316.956	2890.2
320.331	3122.51
323.706	3083.44
327.081	2989.79
330.456	2716.71
333.83	2569.22
337.205	2385.87
340.58	2222.14
343.955	1930.36
347.33	1557.4
350.705	1106.5
354.079	787.975
357.454	536.604
360.829	450.503
364.204	495.023
367.579	680.769
370.954	1097.89
374.328	1758.86
377.703	2836.54
381.078	4309.54
384.453	6251.44
387.828	8056.75
391.202	8685.48
394.577	6983.67
397.952	5075.43
401.327	4931.6
404.702	5914.06
408.077	6970.24
411.451	6410.15
414.826	4750.48
418.201	3295.53
421.576	1990.12
424.951	1296.91
428.325	899.195
431.7	653.849
435.075	464.421
438.45	285.803
441.825	109.153
445.2	30.7003
448.574	10.2008
451.949	13.9293
455.324	18.9592
458.699	22.6578
462.074	8.70886
465.448	13.1691
468.823	22.2598
472.198	23.2809
475.573	4.09552
478.948	23.9581
482.322	4.58276
485.697	2.20019
489.072	21.3712
492.447	67.0561
495.822	87.9465
499.197	104.282
502.571	131.331
505.946	145.905
509.321	160.953
512.696	157.583
516.071	181.496
519.446	186.839
522.82	187.622
526.195	227.011
529.57	294.498
532.945	399.678
536.32	529.899
539.694	752.438
543.069	1021.34
546.444	1082.85
549.819	1190.09
553.194	1117.99
556.568	714.832
559.943	473.203
563.318	488.133
566.693	628.447
570.068	879.1
573.443	1009.42
576.817	548.028
580.192	235.098
583.567	108.769
586.942	66.7431
590.317	47.7476
593.692	31.5268
597.066	34.7454
600.441	69.2925
603.816	54.0168
607.191	51.7327
610.566	31.357
613.94	43.3834
617.315	32.8856
620.69	26.3201
624.065	13.3696
627.44	13.079
630.814	26.1878
634.189	38.6984
637.564	8.62543
640.939	22.1776
644.314	1.28564
647.689	12.5369
651.063	5.17261
654.438	32.107
657.813	21.1769
661.188	23.0456
664.563	29.9875
667.938	28.583
671.312	44.2145
674.687	48.3392
678.062	43.5828
681.437	54.1011
684.812	18.3164
688.186	19.5028
691.561	37.6722
694.936	17.3119
698.311	10.9795
701.686	21.5096
705.061	29.3403
708.435	6.49854
711.81	6.70081
715.185	10.2682
718.56	5.77228
721.935	8.21967
725.309	32.4094
728.684	10.2377
732.059	17.5598
735.434	0.166748
738.809	2.04956
742.183	35.6694
745.558	86.9299
748.933	64.3707
752.308	134.763
755.683	234.045
759.058	363.32
762.432	513.199
765.807	842.684
769.182	1335.22
772.557	1977.62
775.932	2751.66
779.307	3243.65
782.681	3385.64
786.056	3269.08
789.431	3022.72
792.806	2974.49
796.181	3545.98
799.555	4468.26
802.93	6539.89
806.305	12129.7
809.68	22367.6
813.055	35163.9
816.429	44191.8
819.804	30348.4
823.179	13488.4
826.554	6796.49
829.929	4228.33
833.304	3007.91
836.678	2314.63
840.053	1957.21
843.428	1830.41
846.803	1735.22
850.178	1501.24
853.553	1126.52
856.927	660.839
860.302	410.01
863.677	215.291
867.052	142.456
870.427	20.4651
873.801	70.6528
877.176	99.8789
880.551	116.733
883.926	157.519
887.301	114.168
890.676	11.572
894.05	211.967
897.425	551.438
900.8	1448.47
904.175	3394.36
907.55	8271.51
910.924	17205.6
914.299	28722.8
917.674	36413.6
921.049	26021.3
924.424	14041.9
927.798	9529.64
931.173	10305.9
934.548	14214.1
937.923	19679.7
941.298	23792.8
944.673	22856.9
948.047	17065.6
951.422	10848.9
954.797	6430.51
958.172	3872.95
961.547	2451.5
964.922	1752.29
968.296	1442.69
971.671	1461.65
975.046	1524.58
978.421	1453.46
981.796	1196.51
985.17	882.938
988.545	627.118
991.92	526.763
995.295	658.9
998.67	1021.62
1002.04	1463.08
1005.42	2016.16
1008.79	2370.45
1012.17	2579.56
1015.54	2559.58
1018.92	2317.6
1022.29	1863.59
1025.67	1359.39
1029.04	977.293
1032.42	698.257
1035.79	524.426
1039.17	376.918
1042.54	241.877
1045.92	122.746
1049.29	31.5769
1052.67	71.9001
1056.04	107.361
1059.42	135.614
1062.79	79.4004
1066.17	59.3992
1069.54	39.5742
1072.92	30.1348
1076.29	106.467
1079.66	151.17
1083.04	174.483
1086.41	220.851
1089.79	278.794
1093.16	270.155
1096.54	233.896
1099.91	228.617
1103.29	182.735
1106.66	137.535
1110.04	159.202
1113.41	148.118
1116.79	90.657
1120.16	66.5309
1123.54	58.4717
1126.91	81.5454
1130.29	123.513
1133.66	218.003
1137.04	299.233
1140.41	381.153
1143.79	511.021
1147.16	554.092
1150.54	495.389
1153.91	420.721
1157.29	318.826
1160.66	238.987
1164.04	176.563
1167.41	140.073
1170.79	90.0069
1174.16	60.0365
1177.54	50.6863
1180.91	20.3471
1184.29	27.33
1187.66	30.7658
1191.03	37.7943
1194.41	24.2347
1197.78	41.8569
1201.16	18.5419
1204.53	44.9536
1207.91	34.386
1211.28	41.1394
1214.66	45.7675
1218.03	32.9113
1221.41	41.4467
1224.78	46.2375
1228.16	60.9247
1231.53	63.1075
1234.91	28.8307
1238.28	32.7332
1241.66	24.3561
1245.03	34.8364
1248.41	27.137
1251.78	17.2788
1255.16	17.8472
1258.53	3.55206
1261.91	2.20593
1265.28	0.579895
1268.65	6.66309
1272.03	11.5348
1275.4	1.62433
1278.78	17.8563
1282.15	14.072
1285.53	25.9388
1288.9	22.5629
1292.28	21.4241
1295.65	2.43756
1299.03	1.01056
1302.4	16.7635
1305.78	16.3372
1309.15	3.20721
1312.53	14.4779
