Measurement: Raman, 785 nm, unoriented, Raman Data Processed
Mineral: Pyroxmangite
Rruff sample: R060999
Ideal chemistry: Mn^2+^SiO_3_
Locality: Yokoneyama, Tochigi, Japan
Source: Michael Scott
Description: Pink bladed crystals frozen in matrix associated with protomangano-ferro-anthophyllite R061000
Measured chemistry: (Mn^2+^_0.61_Fe^2+^_0.27_Mg_0.09_Ca_0.03_)_Î£=1_Si_1.00_O_3_
Raman shift (cm-1)	intensity
130.688	0
133.581	539.811
136.474	498.161
139.366	5.3042
142.259	60.4492
145.152	651.506
148.044	1595.43
150.937	2355.05
153.83	2775.47
156.722	2551.52
159.615	1991.75
162.508	1462.75
165.401	1107.9
168.293	821.319
171.186	666.829
174.079	504.057
176.971	557.872
179.864	632.622
182.757	663.391
185.649	523.535
188.542	264.893
191.435	90.207
194.328	115.328
197.22	235.478
200.113	381.907
203.006	450.191
205.898	488.758
208.791	432.897
211.684	320.116
214.577	103.954
217.469	2.77368
220.362	77.5112
223.255	7.86401
226.147	21.5325
229.04	10.0305
231.933	17.606
234.825	71.1885
237.718	137.907
240.611	121.775
243.504	127.626
246.396	77.6047
249.289	27.8355
252.182	25.0371
255.074	20.6516
257.967	167.862
260.86	411.796
263.752	665.535
266.645	780.343
269.538	888.542
272.43	742.792
275.323	751.706
278.216	814.516
281.109	993.145
284.001	1159.99
286.894	1226.03
289.787	1439.2
292.679	1661.35
295.572	1757.08
298.465	1874.83
301.358	1804.66
304.25	1510.77
307.143	1250.08
310.036	1142.83
312.928	1107.73
315.821	1225.3
318.714	1551.83
321.606	1897.07
324.499	2422.35
327.392	2973.85
330.284	3469.15
333.177	3746.12
336.07	3745.19
338.962	3348.65
341.855	2661.85
344.748	2017.65
347.641	1635.85
350.533	1504.04
353.426	1680.69
356.319	1950.76
359.211	1929.09
362.104	1943.49
364.997	1757.28
367.889	1442.45
370.782	1092.5
373.675	667.084
376.568	239.641
379.46	112.451
382.353	153.023
385.246	114.378
388.138	310.237
391.031	877.622
393.924	1360.39
396.817	1473.4
399.709	1257.9
402.602	1167.83
405.495	1412.94
408.387	1795.1
411.28	2539.74
414.173	3712.39
417.065	5438.52
419.958	6825.95
422.851	6942.76
425.743	5573.83
428.636	3745.92
431.529	2054.71
434.422	994.968
437.314	432.632
440.207	71.3223
443.1	23.9121
445.992	106.423
448.885	220.463
451.778	288.949
454.671	187.168
457.563	54.7439
460.456	60.9863
463.349	55.271
466.241	24.2405
469.134	0.771973
472.027	50.9347
474.919	70.8712
477.812	27.4663
480.705	2.6687
483.597	58.3552
486.49	161.08
489.383	245.975
492.276	449.897
495.168	553.183
498.061	687.902
500.954	560.765
503.846	583.353
506.739	748.514
509.632	1129.58
512.524	1588.81
515.417	2122.4
518.31	2535.5
521.202	2679.91
524.095	2257.91
526.988	1714.43
529.881	1177.87
532.773	685.351
535.666	429.28
538.559	358.277
541.451	333.503
544.344	403.999
547.237	531.518
550.13	662.481
553.022	965.094
555.915	1066.61
558.808	1186.64
561.7	1079
564.593	892.721
567.486	555.386
570.378	422.878
573.271	393.862
576.164	429.492
579.057	421.732
581.949	328.318
584.842	204.018
587.735	63.3798
590.627	19.7739
593.52	45.8934
596.413	34.8513
599.305	78.5821
602.198	55.343
605.091	15.5684
607.984	1.09936
610.876	36.0159
613.769	122.919
616.662	145.058
619.554	180.918
622.447	297.706
625.34	473.713
628.232	532.814
631.125	726.882
634.018	933.3
636.91	1403.1
639.803	1877.34
642.696	2796.65
645.589	4088.54
648.481	5874.84
651.374	7961.79
654.267	9660.74
657.159	11288.4
660.052	13775
662.945	16761.1
665.837	19666.7
668.73	19746.8
671.623	15511.6
674.515	10354.5
677.408	6678.47
680.301	4396.83
683.194	3139.86
686.086	2321.44
688.979	1996.39
691.872	1876.27
694.764	1914.43
697.657	2015.42
700.55	1921.04
703.442	1537.39
706.335	1019.67
709.228	678.473
712.121	501.108
715.013	327.739
717.906	196.65
720.799	185.106
723.691	191.285
726.584	95.6892
729.477	93.8993
732.37	95.082
735.262	60.3961
738.155	57.762
741.048	77.4548
743.94	13.5808
746.833	64.678
749.726	12.6648
752.618	15.3868
755.511	66.5494
758.404	10.9506
761.297	15.3033
764.189	0.897644
767.082	33.4857
769.975	19.4919
772.867	0.321716
775.76	39.7925
778.653	15.5789
781.545	89.6283
784.438	76.3125
787.331	101.816
790.223	89.7029
793.116	128.618
796.009	35.6315
798.902	33.1293
801.794	87.7637
804.687	121.577
807.58	159.748
810.472	203.59
813.365	196.953
816.258	120.014
819.15	116.5
822.043	109.053
824.936	61.9437
827.829	93.318
830.721	36.7829
833.614	24.7388
836.507	3.9624
839.399	7.73334
842.292	47.2728
845.185	44.4221
848.077	67.6339
850.97	75.2375
853.863	64.7059
856.755	118.868
859.648	232.692
862.541	318.891
865.434	537.185
868.326	707.842
871.219	934.65
874.112	1004.32
877.004	1008.61
879.897	720.835
882.79	539.014
885.683	368.748
888.575	198.657
891.468	170.706
894.361	168.963
897.253	127.379
900.146	114.957
903.039	98.0723
905.931	56.8398
908.824	29.2375
911.717	35.4138
914.61	110.123
917.502	93.4581
920.395	74.02
923.288	19.8729
926.18	134.786
929.073	279.94
931.966	482.03
934.858	513.792
937.751	473.251
940.644	392.509
943.536	334.194
946.429	343.117
949.322	485.639
952.215	679.489
955.107	1110.22
958	1709.84
960.893	2656.12
963.785	3952.27
966.678	5613.09
969.571	7458.7
972.463	8480.37
975.356	8291.98
978.249	7109.69
981.141	6174.89
984.034	5789.69
986.927	5782.87
989.82	6222.05
992.712	6963.44
995.605	7863.02
998.498	8332.24
1001.39	7821.9
1004.28	6864.49
1007.18	5974.48
1010.07	5509.88
1012.96	5453.25
1015.85	5559.73
1018.75	5185.46
1021.64	4095.48
1024.53	2916.8
1027.42	2118.16
1030.32	1555.46
1033.21	1070.01
1036.1	833.146
1038.99	585.686
1041.89	378.08
1044.78	348.815
1047.67	237.297
1050.57	216.122
1053.46	132.713
1056.35	70.897
1059.24	40.4764
1062.14	44.2273
1065.03	28.5343
1067.92	70.2206
1070.82	59.3398
1073.71	10.1129
1076.6	12.2362
1079.49	9.03381
1082.39	25.3498
1085.28	11.7549
1088.17	26.152
1091.06	51.9528
1093.96	79.816
1096.85	71.6961
1099.74	21.6778
1102.63	115.944
1105.53	78.5128
1108.42	52.6179
1111.31	107.356
1114.21	134.422
1117.1	107.943
1119.99	112.245
1122.88	118.905
1125.78	85.4663
1128.67	63.4338
1131.56	60.6168
1134.45	101.158
1137.35	9.65625
1140.24	75.4689
1143.13	68.4497
1146.03	88.0001
1148.92	50.3158
1151.81	52.0114
1154.7	86.3048
1157.6	65.4285
1160.49	118.351
1163.38	20.8335
1166.27	35.816
1169.17	38.8967
1172.06	135.595
1174.95	48.7203
1177.85	104.714
1180.74	47.2225
1183.63	61.471
1186.52	108.221
1189.42	102.185
1192.31	47.9744
1195.2	100.956
1198.09	116.532
1200.99	85.3392
1203.88	57.0406
1206.77	45.8842
1209.66	137.202
1212.56	63.0394
1215.45	76.2643
1218.34	114.275
1221.23	120.749
1224.13	151.094
1227.02	146.938
1229.91	123.417
1232.81	67.9893
1235.7	24.4795
1238.59	32.615
1241.48	68.6428
1244.38	82.1363
1247.27	120.644
1250.16	112.653
1253.06	168.778
1255.95	96.8906
1258.84	107.941
1261.73	109.619
1264.63	94.3607
1267.52	53.2189
1270.41	36.5152
