Measurement: Raman, 780 nm, unoriented, Raman Data Processed
Mineral: Pyrope
Rruff sample: R060441
Ideal chemistry: Mg_3_Al_2_(SiO_4_)_3_
Locality: Apache County, Arizona, USA
Source: Gemological Institute of America
Description: Deep red fragment
Measured chemistry: (Mg_1.83_Fe_0.75_Ca_0.39_Mn_0.03_)_Σ=3_(Al_1.95_Cr_0.05_)_Σ=2_(Si_1.00_O_4_)_3_
Raman shift (cm-1)	intensity
113.59	0
116.965	0.010532
120.34	1.60869
123.715	2.55152
127.089	2.2548
130.464	2.50211
133.839	3.27063
137.214	4.77072
140.589	6.32104
143.963	7.44766
147.338	6.31286
150.713	7.14885
154.088	3.97675
157.463	3.26436
160.838	2.1442
164.212	0.274635
167.587	0.302908
170.962	0.21911
174.337	1.25378
177.712	3.29969
181.086	4.89428
184.461	7.83127
187.836	7.79681
191.211	10.0924
194.586	12.6351
197.96	14.9351
201.335	17.7923
204.71	19.445
208.085	18.7007
211.46	18.6959
214.835	15.3261
218.209	12.2473
221.584	9.4915
224.959	6.96019
228.334	5.19364
231.709	3.75087
235.083	2.87321
238.458	3.50737
241.833	3.18531
245.208	2.2814
248.583	2.2712
251.958	2.30759
255.332	1.68324
258.707	0.621763
262.082	1.62662
265.457	1.18724
268.832	0.541655
272.207	0.60899
275.581	0.220705
278.956	0.292479
282.331	0.421904
285.706	0.112169
289.08	0.010376
292.455	0.544001
295.83	0.739834
299.205	1.84254
302.58	2.15553
305.955	3.46263
309.329	4.52599
312.704	6.42688
316.079	9.74638
319.454	10.5266
322.829	9.96752
326.204	11.1983
329.578	13.9045
332.953	16.9274
336.328	25.0525
339.703	32.5874
343.078	42.4659
346.452	56.0026
349.827	75.6911
353.202	101.533
356.577	131.84
359.952	144.79
363.327	119.812
366.701	88.0584
370.076	65.0564
373.451	47.7097
376.826	37.4891
380.201	28.5805
383.575	21.5383
386.95	16.1611
390.325	11.2611
393.7	8.90509
397.075	5.83311
400.45	4.83685
403.824	3.44561
407.199	2.39975
410.574	1.33701
413.949	1.17275
417.324	0.700552
420.698	0.009011
424.073	0.2239
427.448	0.551852
430.823	0.278069
434.198	0.728685
437.572	0.105594
440.947	0.25067
444.322	0.347799
447.697	0.539415
451.072	0.465286
454.447	1.0637
457.821	1.72589
461.196	1.6499
464.571	2.65201
467.946	2.47726
471.321	4.12513
474.695	5.01296
478.07	6.36322
481.445	8.19984
484.82	11.4229
488.195	9.50894
491.57	7.29528
494.944	6.61089
498.319	7.75414
501.694	12.9958
505.069	21.2452
508.444	23.2404
511.818	14.4775
515.193	9.28567
518.568	6.55691
521.943	5.49153
525.318	6.53882
528.692	6.3859
532.067	6.66532
535.442	9.03238
538.817	12.233
542.192	18.0889
545.567	25.0206
548.941	35.7177
552.316	50.5282
555.691	74.3957
559.066	86.7259
562.441	60.7835
565.816	31.2143
569.19	15.0154
572.565	7.58647
575.94	4.46014
579.315	3.34996
582.69	1.66947
586.064	2.05768
589.439	2.61631
592.814	1.21795
596.189	0.588226
599.564	0.531084
602.938	0.631026
606.313	0.220195
609.688	0.104446
613.063	0.301593
616.438	0.392317
619.812	1.19647
623.187	1.26239
626.562	2.78951
629.937	5.66433
633.312	10.1397
636.687	17.1897
640.061	22.7162
643.436	22.5984
646.811	13.5325
650.186	8.23993
653.561	5.44258
656.936	3.73218
660.31	2.13583
663.685	1.60875
667.06	1.21167
670.435	0.268354
673.81	0.392811
677.184	0.015265
680.559	0.777009
683.934	0.67683
687.309	0.06063
690.684	0.421464
694.058	0.541501
697.433	0.447053
700.808	0.521224
704.183	0.64167
707.558	0.800013
710.933	0.760204
714.307	1.06025
717.682	1.30927
721.057	1.46399
724.432	1.63111
727.807	1.15337
731.182	1.72865
734.556	2.10532
737.931	1.6637
741.306	2.2389
744.681	1.89293
748.056	1.44145
751.43	1.7012
754.805	1.92047
758.18	1.72462
761.555	1.77985
764.93	1.91765
768.304	0.945336
771.679	1.101
775.054	1.01481
778.429	0.592011
781.804	0.310897
785.178	0.537909
788.553	0.218908
791.928	0.16152
795.303	0.412599
798.678	0.115305
802.053	0.36824
805.427	0.721029
808.802	0.795636
812.177	0.311522
815.552	0.140046
818.927	0.469827
822.302	0.866631
825.676	1.8637
829.051	2.34763
832.426	2.84901
835.801	4.26843
839.176	6.49139
842.55	9.8264
845.925	16.3654
849.3	26.2533
852.675	35.5178
856.05	49.421
859.424	55.2733
862.799	48.9894
866.174	35.7141
869.549	24.2893
872.924	18.2012
876.299	14.571
879.673	12.6732
883.048	14.821
886.423	17.031
889.798	22.336
893.173	30.3945
896.548	38.7439
899.922	52.1708
903.297	77.753
906.672	119.207
910.047	183.167
913.422	269.417
916.796	338.761
920.171	314.166
923.546	209.553
926.921	125.579
930.296	76.2476
933.67	47.3758
937.045	30.7977
940.42	18.6305
943.795	11.6166
947.17	6.85297
950.544	3.86878
953.919	2.53914
957.294	1.40303
960.669	1.44021
964.044	0.242874
967.419	0.263693
970.793	0.372232
974.168	0.57565
977.543	0.52849
980.918	0.417888
984.293	0.701205
987.668	0.349072
991.042	0.021549
994.417	0.532523
997.792	0.399109
1001.17	0.369393
1004.54	0.183043
1007.92	0.748469
1011.29	1.7063
1014.67	2.81681
1018.04	4.46544
1021.42	6.29808
1024.79	7.39886
1028.16	8.95508
1031.54	9.4645
1034.91	12.3625
1038.29	13.8547
1041.66	16.4683
1045.04	20.3801
1048.41	23.3527
1051.79	24.1191
1055.16	20.969
1058.54	16.0161
1061.91	8.91896
1065.29	6.4629
1068.66	4.19632
1072.04	3.21589
1075.41	1.693
1078.79	1.98084
1082.16	1.91782
1085.54	1.62673
1088.91	1.48018
1092.29	0.612179
1095.66	1.18666
1099.04	0.348351
1102.41	0.31844
1105.79	0.652296
1109.16	0.720016
1112.54	0.365858
1115.91	0.515532
1119.29	0.742633
1122.66	0.256133
1126.04	0.53523
1129.41	0.245687
1132.79	0.473846
1136.16	0.566132
1139.53	0.619282
1142.91	0.049144
1146.28	0.550331
1149.66	0.720814
1153.03	0.657048
1156.41	0.214725
1159.78	0.301437
1163.16	0.307761
1166.53	0.823472
1169.91	1.11194
1173.28	1.11834
1176.66	0.693572
1180.03	1.08984
1183.41	1.0069
1186.78	0.931746
1190.16	0.570661
1193.53	1.15059
1196.91	0.695592
1200.28	0.946754
1203.66	0.280461
1207.03	1.04483
1210.4	0.24028
1213.78	0.543349
1217.15	1.00209
1220.53	0.412525
1223.9	0.018112
1227.28	0.301072
1230.65	0.497684
1234.03	0.109592
1237.4	0.090267
1240.78	0.622839
1244.15	0.341721
1247.53	0.52155
1250.9	0.178393
1254.28	0.124929
1257.65	0.653943
1261.03	0.494576
1264.4	0.290848
1267.78	1.01302
1271.15	0.438209
1274.53	0.781656
1277.9	0.369192
1281.28	0.131349
1284.65	0.197487
