Measurement: Raman, 780 nm, unoriented, Raman Data Processed
Mineral: Pyrosmalite-(Mn)
Rruff sample: R110207
Ideal chemistry: Mn^2+^_8_Si_6_O_15_(OH,Cl)_10_
Locality: Kyurasawa mine, Ashio, Tochigi Prefecture, Kanto Region, Japan
Source: Royal Ontario Museum
Description: Pink massive with good cleavage
Raman shift (cm-1)	intensity
112.817	0
116.192	11.5777
119.566	35.3906
122.941	67.5645
126.316	74.2605
129.691	47.9889
133.066	12.8361
136.44	1.06596
139.815	1.2937
143.19	7.15334
146.565	6.00049
149.94	0.198471
153.315	2.43399
156.689	9.25923
160.064	37.59
163.439	82.204
166.814	136.902
170.189	198.934
173.563	270.741
176.938	347.05
180.313	434.079
183.688	524.813
187.063	594.353
190.437	578.308
193.812	483.286
197.187	384.481
200.562	320.805
203.937	269.325
207.311	215.382
210.686	160.755
214.061	121.362
217.436	94.4579
220.811	74.6091
224.186	58.5263
227.56	38.3822
230.935	27.7272
234.31	18.8032
237.685	12.8453
241.06	8.12791
244.435	8.1064
247.809	7.61992
251.184	9.71162
254.559	10.3756
257.934	8.22377
261.309	4.10104
264.683	2.82765
268.058	4.97742
271.433	6.7997
274.808	5.93548
278.183	1.33481
281.558	5.05579
284.932	15.8313
288.307	32.5559
291.682	54.9447
295.057	83.3298
298.432	120.623
301.806	159.6
305.181	188.03
308.556	191.811
311.931	196.232
315.306	219.86
318.68	263.36
322.055	305.096
325.43	238.326
328.805	156.901
332.18	112.36
335.555	86.1586
338.929	75.5668
342.304	76.0858
345.679	87.6455
349.054	108.295
352.429	126.306
355.803	115.665
359.178	94.8185
362.553	73.5667
365.928	65.6798
369.303	58.6362
372.678	54.8496
376.052	51.5035
379.427	50.5966
382.802	53.7
386.177	63.4802
389.552	74.8093
392.926	92.0448
396.301	106.371
399.676	121.144
403.051	128.992
406.426	138.421
409.8	136.592
413.175	114.354
416.55	79.2842
419.925	41.4387
423.3	19.0776
426.675	4.62442
430.049	0.127548
433.424	2.59457
436.799	1.28571
440.174	4.06814
443.549	6.47821
446.923	5.01401
450.298	2.01784
453.673	13.6957
457.048	21.1657
460.423	30.5234
463.798	44.5806
467.172	63.7223
470.547	63.1057
473.922	49.2805
477.297	45.4902
480.672	44.8088
484.046	33.353
487.421	17.3587
490.796	6.67467
494.171	1.3036
497.546	1.26061
500.921	1.47821
504.295	1.81115
507.67	2.69634
511.045	0.785507
514.42	4.11704
517.795	4.99818
521.169	6.40161
524.544	9.33656
527.919	9.56505
531.294	11.4657
534.669	12.2614
538.044	15.0334
541.418	16.3144
544.793	20.1053
548.168	25.1962
551.543	29.1659
554.918	27.5119
558.293	24.0075
561.667	19.1862
565.042	16.2115
568.417	14.3318
571.792	15.7198
575.167	19.0947
578.541	25.0597
581.916	35.0719
585.291	50.583
588.666	76.6891
592.041	118.953
595.415	195.442
598.79	317.492
602.165	483.955
605.54	696.882
608.915	988.894
612.29	1296.45
615.664	1269.28
619.039	851.566
622.414	473.809
625.789	274.083
629.164	172.657
632.538	117.354
635.913	81.8766
639.288	55.3918
642.663	38.9263
646.038	29.8995
649.413	22.2284
652.787	16.5154
656.162	10.8338
659.537	7.29802
662.912	4.10899
666.287	2.60007
669.661	0.158661
673.036	1.13493
676.411	1.17483
679.786	2.60923
683.161	2.49199
686.535	1.5092
689.91	0.966515
693.285	1.10419
696.66	1.38488
700.035	2.91292
703.41	4.56348
706.784	7.70786
710.159	6.68377
713.534	8.05921
716.909	8.64711
720.284	8.34556
723.659	9.16554
727.033	8.48877
730.408	7.13334
733.783	6.36351
737.158	6.17979
740.533	4.90065
743.907	5.24984
747.282	3.76478
750.657	4.012
754.032	3.68716
757.407	2.82131
760.782	0.910793
764.156	1.11183
767.531	0.739601
770.906	0.194725
774.281	0.108608
777.656	0.413666
781.03	0.52877
784.405	2.66836
787.78	3.79107
791.155	8.32476
794.53	12.2825
797.904	19.168
801.279	27.9413
804.654	35.4866
808.029	43.8007
811.404	46.3414
814.779	44.4451
818.153	35.1744
821.528	23.5993
824.903	14.2414
828.278	9.32254
831.653	5.03198
835.028	6.00424
838.402	4.3216
841.777	4.83891
845.152	3.14322
848.527	3.88754
851.902	3.98966
855.276	1.55848
858.651	1.93026
862.026	1.78279
865.401	2.90286
868.776	3.74404
872.15	4.55976
875.525	5.02441
878.9	6.21516
882.275	7.36281
885.65	8.40952
889.024	12.5967
892.399	14.8468
895.774	22.6683
899.149	29.8916
902.524	35.0115
905.899	30.0612
909.273	19.1002
912.648	11.7703
916.023	6.7775
919.398	2.51153
922.773	1.95975
926.148	0.351913
929.522	0.094732
932.897	0.742254
936.272	0.326513
939.647	0.238487
943.022	0.173347
946.396	0.192852
949.771	0.151304
953.146	0.89846
956.521	1.11575
959.896	1.33983
963.27	1.63071
966.645	2.85086
970.02	2.02686
973.395	2.9162
976.77	2.9934
980.145	4.02591
983.519	3.91264
986.894	6.4881
990.269	7.93154
993.644	9.4829
997.019	13.6376
1000.39	16.8096
1003.77	21.0259
1007.14	27.1933
1010.52	34.3733
1013.89	50.2655
1017.27	80.3899
1020.64	127.993
1024.02	196.05
1027.39	295.924
1030.77	350.182
1034.14	236.779
1037.52	114.969
1040.89	57.7338
1044.27	32.396
1047.64	19.766
1051.02	11.9358
1054.39	7.9205
1057.77	4.23557
1061.14	2.42823
1064.52	1.92615
1067.89	0.147879
1071.27	0.759285
1074.64	0.504362
1078.01	0.102882
1081.39	0.257381
1084.76	1.02173
1088.14	2.21981
1091.51	2.29012
1094.89	2.61287
1098.26	3.72609
1101.64	4.3483
1105.01	6.32826
1108.39	6.69323
1111.76	7.41247
1115.14	7.98872
1118.51	7.6974
1121.89	7.81126
1125.26	5.61219
1128.64	1.88649
1132.01	1.24495
1135.39	0.227089
1138.76	1.14882
1142.14	1.3821
1145.51	1.5122
1148.88	1.73603
1152.26	0.362305
1155.63	0.085529
1159.01	2.79446
1162.38	4.11906
1165.76	3.05228
1169.13	5.11125
1172.51	5.28756
1175.88	6.22007
1179.26	7.22098
1182.63	9.66858
1186.01	14.9861
1189.38	21.6206
1192.76	31.9597
1196.13	45.9834
1199.51	65.9612
1202.88	97.9144
1206.26	148.733
1209.63	218.356
1213.01	313.01
1216.38	417.002
1219.76	504.643
1223.13	527.057
1226.51	459.786
1229.88	345.12
1233.26	260.272
1236.63	215.12
1240.01	196.371
1243.38	180.047
1246.76	154.202
1250.13	116.156
1253.51	81.8908
1256.88	51.3083
1260.25	35.011
1263.63	17.5455
1267	8.8881
1270.38	3.43774
1273.75	2.00971
1277.13	0.234512
1280.5	0.722931
1283.88	1.44302
