Measurement: Raman, 532 nm, unoriented, Raman Data Processed
Mineral: Pyrosmalite-(Fe)
Rruff sample: R070313
Ideal chemistry: Fe^2+^_8_Si_6_O_15_(OH)_10_
Locality: Broken Hill, New South Wales, Australia
Source: James Shigley
Description: Brownish orange massive associated with galena
Raman shift (cm-1)	intensity
151.108	0
154.483	25.2969
157.858	2.0769
161.233	56.3735
164.607	177.882
167.982	408.294
171.357	723.292
174.732	1098.07
178.107	1520.24
181.482	2069.51
184.856	2730.5
188.231	3151.86
191.606	3019.33
194.981	2358.49
198.356	1867.71
201.731	1517.55
205.105	1224.2
208.48	947.872
211.855	698.77
215.23	501.757
218.605	433.058
221.979	314.662
225.354	202.718
228.729	113.7
232.104	8.27197
235.479	15.553
238.853	0.396729
242.228	36.1177
245.603	21.0413
248.978	140.783
252.353	163.945
255.727	322.957
259.102	362.571
262.477	319.539
265.852	280.363
269.227	238.606
272.602	91.6406
275.976	14.0552
279.351	52.4058
282.726	18.8496
286.101	15.5645
289.476	149.546
292.851	255.93
296.225	594.519
299.6	954.235
302.975	1250.57
306.35	1325.74
309.725	1345.68
313.099	1352.84
316.474	1586.38
319.849	2316.13
323.224	3267.38
326.599	2735.01
329.974	1284.71
333.348	593.828
336.723	304.231
340.098	158.69
343.473	4.01221
346.848	31.0718
350.223	35.0347
353.597	223.683
356.972	389.112
360.347	427.577
363.722	413.834
367.097	368.865
370.471	302.117
373.846	291.603
377.221	302.609
380.596	314.68
383.971	397.127
387.346	405.136
390.72	541.707
394.095	535.961
397.47	543.063
400.845	570.519
404.219	525.636
407.594	545.254
410.969	619.164
414.344	703.96
417.719	644.271
421.094	329.834
424.469	161.805
427.843	83.2485
431.218	142.886
434.593	209.997
437.968	207.419
441.343	63.978
444.717	66.2178
448.092	29.4839
451.467	53.6953
454.842	180.044
458.217	325.931
461.591	492.997
464.966	735.119
468.341	1083.82
471.716	859.387
475.091	788.066
478.466	865.981
481.84	939.733
485.215	628.013
488.59	375.204
491.965	268.641
495.34	200.338
498.714	65.1577
502.089	13.4067
505.464	12.1924
508.839	5.53564
512.214	14.8975
515.589	83.832
518.963	121.2
522.338	68.2773
525.713	21.0132
529.088	39.4966
532.463	17.7915
535.837	2.36426
539.212	44.334
542.587	27.7974
545.962	3.13135
549.337	2.1919
552.712	64.2686
556.086	6.64062
559.461	41.5791
562.836	97.7163
566.211	21.6963
569.586	105.143
572.96	110.185
576.335	129.222
579.71	303.861
583.085	309.959
586.46	510.722
589.835	702.703
593.209	1041.27
596.584	1671.58
599.959	2803.49
603.334	4928.57
606.709	8518.1
610.083	13629.8
613.458	18956.2
616.833	16940.2
620.208	9708.18
623.583	4979.36
626.958	2911.92
630.332	1932.48
633.707	1369.8
637.082	1055.01
640.457	729.104
643.832	634.04
647.207	551.811
650.581	491.5
653.956	420.664
657.331	401.363
660.706	273.487
664.081	206.518
667.455	150.444
670.83	80.4819
674.205	59.2832
677.58	36.5
680.955	7.16943
684.33	17.4062
687.704	10.5601
691.079	48.8486
694.454	31.418
697.829	20.9053
701.204	35.0259
704.578	47.3257
707.953	26.1802
711.328	39.3394
714.703	105.7
718.078	124.194
721.452	135.465
724.827	182.415
728.202	194.135
731.577	234.071
734.952	247.565
738.327	255.254
741.701	207.709
745.076	132.081
748.451	85.311
751.826	91.3867
755.201	97.2749
758.576	21.9336
761.95	59.4111
765.325	67.4238
768.7	6.69238
772.075	5.54883
775.45	4.59082
778.824	33.7524
782.199	6.94824
785.574	70.0757
788.949	65.1523
792.324	113.775
795.698	130.599
799.073	276.088
802.448	429.481
805.823	616.5
809.198	731.323
812.573	924.8
815.947	949.7
819.322	854.968
822.697	561.579
826.072	357.268
829.447	148.727
832.822	138.48
836.196	149.263
839.571	53.2437
842.946	66.8179
846.321	34.4941
849.696	39.7231
853.07	31.3916
856.445	58.8892
859.82	2.72607
863.195	34.9805
866.57	35.6621
869.944	47.3848
873.319	28.7144
876.694	72.8769
880.069	32.7759
883.444	52.4517
886.819	53.4414
890.193	60.331
893.568	50.7056
896.943	55.8247
900.318	79.2471
903.693	3.33203
907.067	3.04688
910.442	39.6606
913.817	13.7661
917.192	24.3999
920.567	42.2861
923.942	18.2686
927.316	20.3203
930.691	49.2407
934.066	26.7056
937.441	10.7349
940.816	37.645
944.191	36.0361
947.565	10.7285
950.94	10.5723
954.315	2.88086
957.69	10.918
961.065	64.6577
964.439	40.9233
967.814	53.7534
971.189	24.8916
974.564	6.93018
977.939	52.1065
981.313	39.9692
984.688	130.952
988.063	186.309
991.438	251.209
994.813	334.548
998.188	422.95
1001.56	538.106
1004.94	654.88
1008.31	787.774
1011.69	1039.96
1015.06	1452.73
1018.44	2095.17
1021.81	3178.48
1025.19	4654.19
1028.56	5720.29
1031.94	5140.27
1035.31	3466.36
1038.68	2052.26
1042.06	1305.32
1045.43	798.339
1048.81	571.882
1052.18	403.881
1055.56	264.809
1058.93	165.227
1062.31	130.026
1065.68	171.962
1069.06	8.1206
1072.43	53.4536
1075.81	47.5591
1079.18	43.1904
1082.56	82.5068
1085.93	44.9639
1089.31	13.3535
1092.68	9.27734
1096.06	32.2852
1099.43	17.9282
1102.81	24.6504
1106.18	34.8345
1109.56	47.8906
1112.93	28.5806
1116.31	83.4194
1119.68	185.117
1123.06	133.56
1126.43	147.615
1129.81	57.6465
1133.18	44.439
1136.56	79.3765
1139.93	10.5
1143.31	102.936
1146.68	98.0776
1150.05	39.1455
1153.43	70.8638
1156.8	88.3569
1160.18	76.7305
1163.55	127.21
1166.93	219.031
1170.3	244.851
1173.68	298.884
1177.05	203.836
1180.43	146.193
1183.8	74.3403
1187.18	101.289
1190.55	55.7417
1193.93	50.4102
1197.3	36.9526
1200.68	38.772
1204.05	52.0342
1207.43	34.3447
1210.8	39.5347
1214.18	36.189
1217.55	46.585
1220.93	35.9697
1224.3	51.5347
1227.67	4.40723
1231.05	60.71
1234.42	83.6528
1237.8	55.398
1241.17	97.229
1244.55	8.75195
1247.92	132.809
1251.3	85.5073
1254.67	66.6548
1258.05	32.3267
1261.42	92.9805
1264.8	76.9658
1268.17	78.4048
1271.55	71.1128
1274.92	64.7773
1278.3	33.7715
1281.67	29.102
1285.05	19.2476
1288.42	12.9346
1291.8	7.68018
1295.17	15.3672
1298.55	67.186
1301.92	31.3179
1305.3	0.941895
1308.67	56.312
