Measurement: Raman, 532 nm, unoriented, Raman Data Processed
Mineral: Pyrope
Rruff sample: R080060
Ideal chemistry: Mg_3_Al_2_(SiO_4_)_3_
Locality: Synthetic at P = 23.5 kb, T = 1000 deg C for 23 hours
Source: Weiji Cheng
Description: Colorless single crystals
Measured chemistry: Mg_3.00_Al_2.00_(Si_1.00_O_4_)_3_; trace amounts of Fe
Raman shift (cm-1)	intensity
132.557	0
135.932	42.0912
139.307	35.2263
142.681	10.2259
146.056	1.22552
149.431	2.37738
152.806	4.32056
156.181	9.02484
159.555	7.09027
162.93	3.51221
166.305	6.08942
169.68	12.9391
173.055	8.71295
176.43	18.133
179.804	20.7094
183.179	13.5059
186.554	13.7007
189.929	20.2159
193.304	34.5438
196.679	49.1435
200.053	65.5023
203.428	95.2455
206.803	161.549
210.178	270.606
213.553	159.643
216.927	52.375
220.302	23.1395
223.677	3.10962
227.052	1.75244
230.427	0.253601
233.802	3.59387
237.176	2.19507
240.551	2.10767
243.926	1.703
247.301	2.88873
250.676	0.946838
254.05	4.16754
257.425	10.9711
260.8	10.2661
264.175	13.2593
267.55	17.8962
270.924	30.7406
274.299	35.2252
277.674	38.0204
281.049	43.4134
284.424	44.7279
287.798	43.1966
291.173	38.3033
294.548	33.4973
297.923	26.0631
301.298	31.4041
304.673	36.7763
308.047	43.6757
311.422	52.1813
314.797	62.6603
318.172	100.49
321.547	125.099
324.921	91.8953
328.296	95.4236
331.671	116.328
335.046	140.81
338.421	181.127
341.796	213.635
345.17	241.196
348.545	273.586
351.92	345.191
355.295	422.602
358.67	554.875
362.045	726.159
365.419	790.073
368.794	600.694
372.169	378.675
375.544	261.952
378.918	217.175
382.293	203.715
385.668	125.874
389.043	53.0475
392.418	22.6011
395.793	9.86792
399.167	3.24499
402.542	1.68726
405.917	2.22656
409.292	0.656128
412.667	3.82043
416.041	1.02405
419.416	2.38074
422.791	1.6167
426.166	0.036255
429.541	7.05933
432.916	1.78662
436.29	0.571167
439.665	1.91138
443.04	1.18652
446.415	4.07776
449.79	2.3479
453.164	2.7229
456.539	2.31592
459.914	5.71094
463.289	1.79309
466.664	2.39587
470.039	0.731445
473.413	6.94519
476.788	7.5354
480.163	19.5212
483.538	25.3426
486.913	47.2343
490.288	72.3335
493.662	75.6464
497.037	41.5652
500.412	31.2362
503.787	30.9463
507.162	47.8386
510.536	79.1428
513.911	81.5079
517.286	45.9457
520.661	27.4545
524.036	28.621
527.41	27.692
530.785	26.1976
534.16	34.1461
537.535	43.0415
540.91	66.6454
544.284	115.258
547.659	180.293
551.034	276.928
554.409	423.329
557.784	650.104
561.159	881.025
564.533	851.328
567.908	505.985
571.283	254.379
574.658	138.398
578.033	83.9868
581.408	56.5596
584.782	40.0465
588.157	26.9432
591.532	18.8867
594.907	23.3225
598.282	19.1895
601.656	19.1235
605.031	6.67432
608.406	3.151
611.781	2.4137
615.156	0.697754
618.53	5.74243
621.905	2.48828
625.28	2.25049
628.655	4.36914
632.03	23.5338
635.404	35.5638
638.779	64.2161
642.154	99.7198
645.529	163.881
648.904	216.876
652.279	159.751
655.653	66.361
659.028	32.9181
662.403	20.6802
665.778	14.4176
669.153	9.62537
672.528	6.3385
675.902	5.90259
679.277	5.34412
682.652	5.23364
686.027	0.662964
689.402	4.03699
692.776	1.21985
696.151	1.77771
699.526	5.26074
702.901	5.35864
706.276	7.77283
709.65	3.31445
713.025	3.67334
716.4	7.41162
719.775	6.1626
723.15	9.98377
726.525	10.5687
729.899	14.1274
733.274	5.50464
736.649	14.9211
740.024	9.91992
743.399	11.9702
746.774	10.7687
750.148	10.3075
753.523	10.2264
756.898	6.79443
760.273	12.8854
763.648	14.1335
767.022	14.6206
770.397	15.1512
773.772	8.85144
777.147	9.67285
780.522	10.502
783.896	7.53943
787.271	10.7731
790.646	5.73425
794.021	8.99219
797.396	7.60889
800.77	4.51184
804.145	4.14087
807.52	2.54199
810.895	0.491211
814.27	3.75732
817.645	3.35791
821.019	0.152466
824.394	3.16589
827.769	0.226807
831.144	6.12732
834.519	1.73303
837.894	4.77954
841.268	7.84656
844.643	19.2474
848.018	35.4401
851.393	74.4043
854.768	142.274
858.142	224.798
861.517	345.983
864.892	528.433
868.267	693.789
871.642	601.04
875.016	338.113
878.391	179.328
881.766	102.225
885.141	76.8926
888.516	68.8452
891.891	77.8687
895.265	105.541
898.64	146.779
902.015	208.084
905.39	265.291
908.765	373.82
912.139	594.882
915.514	980.56
918.889	1558.63
922.264	2477.8
925.639	3583.91
929.014	3583.22
932.388	2241.87
935.763	1252.21
939.138	740.51
942.513	465.871
945.888	290.366
949.263	191.7
952.637	127.628
956.012	83.0831
959.387	48.8495
962.762	34.0945
966.136	18.2037
969.511	3.28967
972.886	1.08252
976.261	3.4458
979.636	5.15979
983.011	1.29224
986.385	2.64319
989.76	1.12891
993.135	0.584717
996.51	1.78723
999.885	1.97815
1003.26	4.22681
1006.63	1.28406
1010.01	6.38928
1013.38	4.19934
1016.76	7.19421
1020.13	9.86328
1023.51	13.253
1026.88	12.2318
1030.26	21.7803
1033.63	20.9996
1037.01	30.0829
1040.38	33.9948
1043.76	44.3766
1047.13	49.831
1050.51	72.959
1053.88	104.974
1057.26	153.846
1060.63	205.731
1064.01	239.395
1067.38	208.956
1070.76	137.028
1074.13	91.8672
1077.51	75.7867
1080.88	60.1997
1084.26	60.106
1087.63	54.5723
1091.01	52.3141
1094.38	51.1177
1097.75	53.7706
1101.13	50.6377
1104.5	47.0687
1107.88	44.3236
1111.25	37.9176
1114.63	37.2024
1118	34.7311
1121.38	30.0967
1124.75	27.5492
1128.13	17.8599
1131.5	18.0566
1134.88	23.6484
1138.25	9.2533
1141.63	9.52161
1145	10.6046
1148.38	5.45752
1151.75	1.89258
1155.13	0.162842
1158.5	0.317627
1161.88	1.65527
1165.25	6.82361
1168.62	8.01148
1172	0.652954
1175.38	3.68005
1178.75	5.53418
1182.12	5.14648
1185.5	12.6527
1188.87	14.0144
1192.25	22.0228
1195.62	33.6913
1199	39.468
1202.37	47.7929
1205.75	50.3075
1209.12	52.8206
1212.5	37.4258
1215.87	36.5469
1219.25	23.7113
1222.62	14.6194
1226	12.5299
1229.37	13.1118
1232.75	11.536
1236.12	10.9492
1239.5	2.5929
1242.87	3.26099
1246.25	1.8418
1249.62	4.43835
1253	3.46082
1256.37	0.245239
1259.74	1.1875
1263.12	1.18884
1266.49	2.27527
1269.87	0.455688
1273.24	1.51623
1276.62	3.85156
1279.99	9.20654
1283.37	12.3168
1286.74	11.1155
1290.12	13.005
1293.49	12.974
1296.87	3.79224
1300.24	8.93042
1303.62	2.14722
