Measurement: Raman, 785 nm, unoriented, Raman Data Processed
Mineral: Pyromorphite
Rruff sample: R050015
Ideal chemistry: Pb_5_(PO_4_)_3_Cl
Locality: Bunker Hill mine, Shoshone County, Idaho, USA
Source: Eugene Schlepp
Description: Yellowish green prismatic hexagonal single crystals
Measured chemistry: Pb_5.00_((P_0.88_As_0.12_)O_4_)_3_Cl_1.00_
Raman shift (cm-1)	intensity
63.6475	0
66.5402	3.89254
69.4329	16.8125
72.3256	21.9862
75.2183	34.2976
78.111	40.6124
81.0037	54.4486
83.8964	69.8176
86.7891	70.0152
89.6818	79.8925
92.5745	110.284
95.4672	126.014
98.3599	121.374
101.253	105.412
104.145	79.9673
107.038	61.2064
109.931	47.6221
112.823	30.6905
115.716	9.50048
118.609	0.934555
121.501	17.206
124.394	3.33309
127.287	1.31712
130.18	12.5894
133.072	22.3797
135.965	21.37
138.858	20.0076
141.75	51.7874
144.643	106.313
147.536	154.566
150.429	199.796
153.321	191.242
156.214	173.999
159.107	192.952
161.999	232.234
164.892	252.132
167.785	293.542
170.677	315.611
173.57	338.974
176.463	332.341
179.356	333.104
182.248	329.385
185.141	295.773
188.034	258.684
190.926	229.657
193.819	170.728
196.712	132.524
199.604	121.73
202.497	74.1002
205.39	64.5179
208.282	24.4297
211.175	9.80176
214.068	23.7817
216.961	14.5355
219.853	14.7239
222.746	11.245
225.639	0.052795
228.531	29.4111
231.424	17.3319
234.317	56.7947
237.209	103.948
240.102	175.385
242.995	178.91
245.888	239.638
248.78	316.07
251.673	354.93
254.566	436.916
257.458	523.378
260.351	572.47
263.244	632.84
266.137	634.046
269.029	621.25
271.922	598.709
274.815	561.397
277.707	505.14
280.6	471.512
283.493	428.071
286.385	361.143
289.278	317.656
292.171	280.953
295.063	245.84
297.956	224.698
300.849	196.379
303.742	185.908
306.634	183.06
309.527	182.54
312.42	210.367
315.312	199.028
318.205	202.454
321.098	174.79
323.99	176.361
326.883	165.078
329.776	145.788
332.669	138.513
335.561	136.226
338.454	93.3603
341.347	100.827
344.239	68.3106
347.132	38.1649
350.025	48.3922
352.918	28.8806
355.81	16.5731
358.703	14.6966
361.596	9.77814
364.488	15.835
367.381	3.05383
370.274	4.95489
373.166	14.8835
376.059	5.39233
378.952	21.6201
381.844	26.8585
384.737	56.1649
387.63	69.2014
390.523	98.1184
393.415	91.7458
396.308	57.0408
399.201	64.2936
402.093	90.4869
404.986	94.2852
407.879	136.987
410.772	110.656
413.664	117.653
416.557	78.7966
419.45	64.443
422.342	46.4214
425.235	27.9255
428.128	17.649
431.02	25.4919
433.913	13.6835
436.806	20.2101
439.699	13.7258
442.591	25.4718
445.484	34.3018
448.377	28.8187
451.269	27.738
454.162	31.4019
457.055	21.9551
459.947	18.8568
462.84	26.147
465.733	4.30572
468.625	7.19055
471.518	3.50171
474.411	2.56915
477.304	21.3357
480.196	5.83832
483.089	22.3188
485.982	8.67957
488.874	19.9974
491.767	23.4874
494.66	10.9608
497.553	14.8219
500.445	0.572937
503.338	1.18665
506.231	4.28412
509.123	4.01636
512.016	24.8972
514.909	34.5073
517.802	20.9259
520.694	17.8747
523.587	22.8543
526.48	36.544
529.372	14.0287
532.265	14.1622
535.158	37.5676
538.05	33.3397
540.943	42.0787
543.836	34.493
546.729	38.4164
549.621	35.4534
552.514	48.8752
555.407	36.8381
558.299	47.9785
561.192	38.2206
564.085	27.15
566.977	56.8473
569.87	40.1313
572.763	87.2905
575.655	64.6419
578.548	66.3258
581.441	62.2955
584.333	80.4592
587.226	59.3001
590.119	46.5975
593.012	72.0784
595.904	60.5832
598.797	60.2972
601.69	47.1657
604.582	52.3597
607.475	56.6155
610.368	54.7764
613.26	53.7671
616.153	31.7126
619.046	51.8341
621.939	36.6229
624.831	36.2921
627.724	39.6459
630.617	12.9274
633.509	5.89758
636.402	22.0137
639.295	6.59546
642.188	21.1763
645.08	9.37173
647.973	2.96372
650.866	10.0212
653.758	5.23627
656.651	3.87885
659.544	23.8707
662.436	17.0584
665.329	2.46716
668.222	9.88736
671.115	6.01562
674.007	1.97723
676.9	2.64105
679.793	16.8913
682.685	3.35944
685.578	0.572632
688.471	13.4483
691.363	10.3099
694.256	19.5023
697.149	17.6755
700.042	5.82687
702.934	17.1818
705.827	20.0675
708.72	15.2047
711.612	14.4715
714.505	9.34341
717.398	3.67891
720.29	0.044479
723.183	7.96464
726.076	1.72708
728.968	17.9266
731.861	5.42482
734.754	0.151947
737.647	16.2044
740.539	11.4403
743.432	6.53796
746.325	9.01681
749.217	12.8256
752.11	1.85297
755.003	18.5203
757.895	4.50623
760.788	2.32465
763.681	2.31583
766.574	3.50305
769.466	11.0872
772.359	14.2414
775.252	18.5044
778.144	33.1291
781.037	22.0442
783.93	27.9204
786.822	27.7713
789.715	24.556
792.608	6.3343
795.501	5.87784
798.393	7.85916
801.286	29.1818
804.179	47.7189
807.071	102.469
809.964	224.73
812.857	374.9
815.75	516.515
818.642	482.471
821.535	272.149
824.428	123.87
827.32	64.9181
830.213	41.1696
833.106	27.7157
835.998	21.9259
838.891	11.173
841.784	6.6272
844.677	0.304214
847.569	0.300552
850.462	3.12145
853.355	9.22656
856.247	7.53087
859.14	10.9825
862.033	7.83192
864.925	11.4889
867.818	2.9655
870.711	0.945236
873.604	14.1918
876.496	14.6986
879.389	1.02589
882.282	5.47046
885.174	2.88516
888.067	13.0065
890.96	11.9249
893.852	7.44557
896.745	9.06715
899.638	10.3729
902.53	14.2133
905.423	31.7726
908.316	58.717
911.209	121.549
914.101	179.342
916.994	253.318
919.887	274.299
922.779	193.114
925.672	159.937
928.565	151.001
931.457	192.67
934.35	257.067
937.243	348.844
940.136	438.509
943.028	466.219
945.921	420.396
948.814	339.36
951.706	252.484
954.599	190.863
957.492	161.619
960.385	128.615
963.277	114.343
966.17	112.377
969.063	103.472
971.955	109.239
974.848	142.846
977.741	142.726
980.633	156.708
983.526	161.962
986.419	157.608
989.312	180.504
992.204	177.799
995.097	191.447
997.99	171.465
1000.88	156.882
1003.77	165.134
1006.67	157.35
1009.56	132.378
1012.45	141.464
1015.35	115.251
1018.24	106.605
1021.13	67.189
1024.02	51.3688
1026.92	30.3235
1029.81	20.4574
1032.7	1.19897
1035.6	9.61975
1038.49	20.5756
1041.38	37.2687
1044.27	43.7086
1047.17	44.2655
1050.06	35.0118
1052.95	51.8577
1055.84	15.6938
1058.74	47.3157
1061.63	136.169
1064.52	223.418
1067.41	309.546
1070.31	366.988
1073.2	490.229
1076.09	579.056
1078.98	723.617
1081.88	867.469
1084.77	1021.4
1087.66	1119.34
1090.56	1263.1
1093.45	1438.59
1096.34	1516.49
1099.23	1659.86
1102.13	1714.27
1105.02	1735.01
1107.91	1768.74
1110.81	1834.9
1113.7	1819.38
1116.59	1915.09
1119.48	1958.14
1122.38	2052.47
1125.27	1966.68
1128.16	2009.68
1131.05	1960.56
1133.95	1848.57
1136.84	1785.31
1139.73	1697.86
1142.62	1530.32
1145.52	1418.24
1148.41	1210.04
1151.3	1107.97
1154.19	900.351
1157.09	689.88
1159.98	539.422
1162.87	360.433
1165.77	294.682
1168.66	71.7036
1171.55	54.4692
1174.44	26.543
1177.34	24.8174
