Measurement: Raman, 532 nm, unoriented, Raman Data Processed
Mineral: Pyrope
Rruff sample: R040159
Ideal chemistry: Mg_3_Al_2_(SiO_4_)_3_
Locality: Meronitz, Bohemia
Source: University of Arizona Mineral Museum
Description: Deep red crystal fragments
Measured chemistry: (Mg_2.17_Fe^2+^_0.47_Ca_0.34_Mn_0.02_)_Σ=3_(Al_1.86_Cr_0.11_Ti_0.03_)_Σ=2_((Si_0.99_Al_0.01_)_Σ=1_O_4_)_3_; trace amounts of Rb?
Raman shift (cm-1)	intensity
158.34	0
161.233	22.7871
164.125	16.9009
167.018	4.60205
169.911	30.1465
172.803	67.1631
175.696	125.671
178.589	187.075
181.482	153.516
184.374	228.102
187.267	340.367
190.16	367.213
193.052	416.929
195.945	496.242
198.838	480.366
201.731	546.369
204.623	542.075
207.516	508.639
210.409	523.95
213.301	484.18
216.194	406.372
219.087	377.487
221.979	296.811
224.872	263.998
227.765	157.076
230.657	221.154
233.55	186.842
236.443	124.588
239.336	148.237
242.228	139.386
245.121	87.5571
248.014	95.1826
250.906	110.069
253.799	109.297
256.692	66.9731
259.584	56.5879
262.477	10.9731
265.37	59.2153
268.263	69.7822
271.155	49.3906
274.048	80.0952
276.941	33.6567
279.833	57.1773
282.726	4.75195
285.619	31.8257
288.512	29.646
291.404	4.71631
294.297	5.68018
297.19	35.1289
300.082	16.5513
302.975	99.3706
305.868	96.5557
308.76	110.149
311.653	158.482
314.546	238.111
317.438	265.438
320.331	258.479
323.224	242.835
326.117	299.985
329.009	275.567
331.902	355.594
334.795	483.134
337.687	662.852
340.58	838.365
343.473	974.866
346.365	1185.26
349.258	1433.65
352.151	1846.12
355.044	2241.56
357.936	2768.59
360.829	3024.74
363.722	2871.59
366.614	2313.67
369.507	1875.14
372.4	1527.34
375.293	1244.29
378.185	993.398
381.078	729.731
383.971	602.09
386.863	365.801
389.756	403.487
392.649	311.331
395.541	148.731
398.434	179.137
401.327	149.171
404.219	110.899
407.112	57.3926
410.005	133.576
412.898	43.7607
415.79	56.3467
418.683	54.3203
421.576	18.7988
424.469	11.8838
427.361	44.2344
430.254	0.583008
433.147	15.3125
436.039	33.1338
438.932	34.7705
441.825	6.52637
444.717	25.5498
447.61	22.9414
450.503	18.0967
453.396	52.917
456.288	27.29
459.181	112.1
462.074	6.13965
464.966	107.905
467.859	144.307
470.752	142.162
473.644	162.537
476.537	215.174
479.43	305.734
482.322	306.726
485.215	330.275
488.108	429.7
491.001	313.287
493.893	180.053
496.786	256.871
499.679	323.154
502.571	531.158
505.464	598.507
508.357	632.766
511.25	506.252
514.142	482.049
517.035	283.768
519.928	266.685
522.82	212.212
525.713	143.039
528.606	127.99
531.498	181.178
534.391	161.364
537.284	205.086
540.177	313.336
543.069	502.496
545.962	747.239
548.855	996.267
551.747	1480.21
554.64	1851.03
557.533	2081.55
560.425	1998.37
563.318	1292.14
566.211	716.855
569.104	437.47
571.996	134.832
574.889	76.2803
577.782	43.7852
580.674	41.3935
583.567	31.3105
586.46	105.314
589.352	82.5635
592.245	39.7705
595.138	41.1885
598.031	9.78613
600.923	48.4629
603.816	42.0723
606.709	37.0147
609.601	34.6533
612.494	7.88574
615.387	10.9062
618.279	1.89356
621.172	122.736
624.065	136.084
626.958	204.507
629.85	399.185
632.743	473.165
635.636	749.437
638.528	897.466
641.421	1153.96
644.314	1060.62
647.207	749.844
650.099	539.524
652.992	392.765
655.885	310.288
658.777	263.578
661.67	158.576
664.563	139.855
667.455	51.9717
670.348	115.603
673.241	59.6572
676.134	104.796
679.026	5.18652
681.919	10.5283
684.812	15.168
687.704	90.4033
690.597	15.8965
693.49	2.94336
696.382	104.52
699.275	7.41894
702.168	7.87598
705.061	45.4346
707.953	76.2803
710.846	100.888
713.739	61.9746
716.631	92.7519
719.524	117.019
722.417	95.2188
725.309	109.927
728.202	152.906
731.095	168.362
733.987	123.764
736.88	103.092
739.773	175.397
742.666	107.981
745.558	154.916
748.451	112.025
751.344	98.7754
754.236	154.018
757.129	108.499
760.022	133.785
762.915	139.716
765.807	79.6299
768.7	42.1435
771.593	35.3525
774.485	54.1045
777.378	159.892
780.271	64.4199
783.163	19.167
786.056	58.7647
788.949	57.126
791.842	88.0508
794.734	37.7988
797.627	20.2188
800.52	32.1924
803.412	16.0566
806.305	27.7725
809.198	64.0225
812.091	17.2793
814.983	54.6445
817.876	34.3398
820.769	37.7861
823.661	97.5019
826.554	91.9766
829.447	151.039
832.339	168.469
835.232	282.297
838.125	442.977
841.018	599.676
843.91	899.153
846.803	1249.48
849.696	1956.3
852.588	2352.53
855.481	2970.67
858.374	3285.78
861.266	3156.64
864.159	2551.4
867.052	1965.89
869.944	1418.8
872.837	1124.12
875.73	796.083
878.623	731.751
881.515	707.676
884.408	755.705
887.301	830.349
890.193	819.835
893.086	1008.36
895.979	1186.69
898.871	1431.34
901.764	1918.33
904.657	2728.55
907.55	4155.47
910.442	5876.73
913.335	7830.86
916.228	9312.08
919.12	9315.45
922.013	7348.4
924.906	5258.03
927.798	3288.19
930.691	2148.99
933.584	1479.52
936.477	919.351
939.369	759.13
942.262	532.843
945.155	287.252
948.047	177.606
950.94	141.173
953.833	43.1338
956.726	94.6182
959.618	9.94727
962.511	63.3262
965.404	20.1621
968.296	65.7959
971.189	47.7236
974.082	62.7139
976.974	33.8232
979.867	18.8682
982.76	3.92578
985.653	48.7568
988.545	52.9287
991.438	6.72852
994.331	45.3975
997.223	15.2539
1000.12	38
1003.01	14.0391
1005.9	46.8428
1008.79	58.7461
1011.69	154.538
1014.58	185.275
1017.47	174.255
1020.37	267.679
1023.26	329.062
1026.15	294.473
1029.04	314.096
1031.94	404.6
1034.83	444.504
1037.72	660.127
1040.61	635.205
1043.51	908.265
1046.4	1153.58
1049.29	1252.05
1052.18	1353.32
1055.08	1221.13
1057.97	951.357
1060.86	708.513
1063.76	401.483
1066.65	269.329
1069.54	189.873
1072.43	134.95
1075.33	176.052
1078.22	2.87891
1081.11	55.9365
1084	137.152
1086.9	37.1435
1089.79	12.9053
1092.68	36.2969
1095.58	68.0166
1098.47	10.8115
1101.36	47.2754
1104.25	51.4551
1107.15	23.749
1110.04	83.5859
1112.93	2.78223
1115.82	10.4238
1118.72	94.7783
1121.61	96.6768
1124.5	9.83594
1127.39	86.7451
1130.29	76.3848
1133.18	72.6152
1136.07	182.782
1138.97	69.8262
1141.86	78.9561
1144.75	179.174
1147.64	39.6309
1150.54	114.902
1153.43	28.8281
1156.32	80.1172
1159.21	71.1836
1162.11	109.078
1165	75.5391
1167.89	123.781
1170.79	62.3818
1173.68	52.5449
1176.57	78.834
1179.46	40.208
1182.36	91.8574
1185.25	32.3721
1188.14	144.667
1191.03	35.459
1193.93	128.442
1196.82	34.9648
1199.71	55.377
1202.61	82.5078
1205.5	108.393
1208.39	71.6982
1211.28	58.7842
1214.18	68.9736
1217.07	28.5732
1219.96	85.4121
1222.85	94.4746
1225.75	45.0273
1228.64	98.0566
1231.53	88.3057
1234.42	113.38
1237.32	77.8379
1240.21	62.6934
1243.1	44.1211
1246	15.3252
1248.89	123.491
1251.78	35.208
1254.67	8.22168
1257.57	132.426
1260.46	70.6582
1263.35	5.70508
1266.24	71.0303
1269.14	71.0039
1272.03	63.8945
1274.92	76.04
1277.82	59.581
1280.71	65.1055
1283.6	7.38867
1286.49	76.165
1289.39	64.3086
1292.28	26.6201
1295.17	23.1172
