Measurement: Raman, 532 nm, unoriented, Raman Data Processed
Mineral: Pyrrhotite
Rruff sample: R060440
Ideal chemistry: Fe_7_S_8_
Locality: Dal 'Negorsk, Primorskiy Kray, far eastern Russia
Source: Michael Scott
Description: Bronze-yellow metallic tabular hexagonal prisms
Measured chemistry: Fe_7.1_S_8.0_
Raman shift (cm-1)	intensity
180.709	0
183.602	0.594715
186.494	2.30903
189.387	1.0207
192.28	3.9425
195.173	5.62202
198.065	3.592
200.958	2.67617
203.851	6.66757
206.743	2.10445
209.636	4.56942
212.529	0.808418
215.421	4.1563
218.314	4.17966
221.207	0.077877
224.1	5.13395
226.992	0.005873
229.885	2.04683
232.778	3.308
235.67	5.00077
238.563	2.01238
241.456	1.1744
244.348	2.07767
247.241	2.03742
250.134	1.06485
253.026	1.73663
255.919	0.800442
258.812	1.07699
261.705	0.651676
264.597	2.64077
267.49	0.825687
270.383	3.25559
273.276	4.6885
276.168	3.92937
279.061	2.20938
281.954	0.224573
284.846	0.514013
287.739	0.968794
290.632	3.80602
293.524	1.08151
296.417	0.081182
299.31	0.387901
302.202	0.370253
305.095	0.475044
307.988	1.88835
310.881	3.77342
313.773	8.31917
316.666	11.0927
319.559	17.4684
322.451	23.4197
325.344	27.9871
328.237	29.7972
331.13	28.6956
334.022	31.4903
336.915	39.38
339.808	52.9483
342.7	50.98
345.593	31.5678
348.486	19.2871
351.378	15.7162
354.271	15.6402
357.164	18.7168
360.057	21.8571
362.949	30.4534
365.842	41.6926
368.735	51.9244
371.627	73.9089
374.52	95.2484
377.413	101.213
380.305	65.9688
383.198	32.9249
386.091	22.0233
388.984	13.1572
391.876	14.7507
394.769	7.7214
397.662	4.94838
400.554	4.14432
403.447	5.07444
406.34	0.397911
409.233	1.31343
412.125	2.54786
415.018	0.895285
417.911	1.64697
420.803	4.11072
423.696	4.59279
426.589	7.54415
429.481	6.89989
432.374	5.96922
435.267	2.73536
438.159	1.27106
441.052	0.977125
443.945	0.673033
446.838	0.409061
449.73	0.203417
452.623	1.81733
455.516	0.844887
458.409	1.13981
461.301	2.67626
464.194	4.77243
467.087	3.3255
469.979	0.756775
472.872	2.33624
475.765	2.98409
478.657	1.14845
481.55	1.19621
484.443	1.12332
487.336	1.87182
490.228	0.473356
493.121	1.36061
496.014	0.965456
498.906	3.51456
501.799	1.20409
504.692	0.147644
507.584	1.86824
510.477	0.995975
513.37	4.06003
516.263	1.03953
519.155	0.518497
522.048	1.44034
524.941	3.2568
527.833	0.274075
530.726	0.280399
533.619	2.33364
536.511	3.89453
539.404	1.65139
542.297	2.23065
545.19	2.30252
548.082	2.44582
550.975	5.11018
553.868	3.75089
556.76	2.33236
559.653	3.29879
562.546	3.33993
565.438	2.27958
568.331	2.37673
571.224	2.20849
574.117	2.12811
577.009	0.962261
579.902	4.12389
582.795	2.70357
585.687	3.16392
588.58	0.397099
591.473	4.15077
594.365	0.187445
597.258	1.80353
600.151	0.845337
603.044	1.75061
605.936	1.59916
608.829	3.2847
611.722	3.30119
614.614	3.44087
617.507	0.320185
620.4	2.60548
623.293	2.6847
626.185	3.22835
629.078	2.69738
631.971	1.80262
634.863	0.33251
637.756	1.64751
640.649	0.532665
643.542	1.26275
646.434	0.549288
649.327	3.35444
652.22	0.524389
655.112	2.61095
658.005	0.995775
660.898	0.859764
663.79	1.49729
666.683	3.33365
669.576	1.36226
672.468	3.33697
675.361	2.61762
678.254	0.886667
681.147	1.16807
684.039	2.33856
686.932	1.9669
689.825	1.62281
692.717	3.27543
695.61	2.0059
698.503	1.15968
701.396	1.51761
704.288	0.508396
707.181	2.2896
710.074	2.69498
712.966	2.63499
715.859	0.963274
718.752	3.13127
721.644	2.50158
724.537	2.78923
727.43	0.253386
730.323	3.83442
733.215	0.232273
736.108	2.97951
739.001	1.44859
741.893	0.806694
744.786	1.72964
747.679	0.229176
750.572	1.4436
753.464	0.79188
756.357	0.957151
759.25	4.36194
762.142	0.306545
765.035	3.33524
767.928	6.22713
770.82	1.76108
773.713	3.17224
776.606	2.30537
779.499	4.8806
782.391	1.74882
785.284	2.81825
788.177	4.19
791.069	1.81779
793.962	3.81149
796.855	2.78842
799.747	1.9068
802.64	2.11564
805.533	1.25673
808.426	4.08983
811.318	2.41683
814.211	3.04879
817.104	0.549414
819.996	0.145462
822.889	1.54633
825.782	1.36499
828.674	1.87262
831.567	1.61109
834.46	1.33688
837.353	2.0993
840.245	1.12439
843.138	2.49902
846.031	3.06056
848.923	2.27808
851.816	1.00543
854.709	3.29832
857.601	3.22167
860.494	1.43564
863.387	1.94418
866.28	3.72455
869.172	0.669345
872.065	1.50724
874.958	1.11828
877.851	2.17069
880.743	2.26988
883.636	3.50306
886.529	1.93398
889.421	4.43598
892.314	0.459871
895.207	3.76954
898.099	3.94385
900.992	1.09962
903.885	0.424023
906.778	1.24353
909.67	1.97385
912.563	2.33049
915.456	1.15681
918.348	1.69756
921.241	1.18011
924.134	2.31213
927.026	1.61512
929.919	1.29779
932.812	2.21212
935.705	0.354128
938.597	1.89255
941.49	2.99312
944.383	1.33445
947.275	0.656512
950.168	1.92349
953.061	1.74439
955.953	2.5533
958.846	2.48425
961.739	1.87843
964.631	2.99365
967.524	2.90348
970.417	2.97884
973.31	2.13256
976.202	2.76099
979.095	2.25885
981.988	1.02293
984.88	2.85811
987.773	2.05242
990.666	0.076598
993.559	4.02925
996.451	3.51668
999.344	0.973857
1002.24	3.63214
1005.13	2.24153
1008.02	2.14645
1010.91	2.69233
1013.81	2.78229
1016.7	3.78775
1019.59	2.05004
1022.49	3.50958
1025.38	1.54421
1028.27	2.01736
1031.16	4.02783
1034.06	2.98434
1036.95	2.80841
1039.84	1.00326
1042.73	1.05973
1045.63	2.42816
1048.52	0.970751
1051.41	2.99983
1054.31	4.93086
1057.2	3.78465
1060.09	2.02823
1062.98	5.5092
1065.88	3.05805
1068.77	3.76681
1071.66	4.76441
1074.55	1.35189
1077.45	2.48214
1080.34	2.83703
1083.23	1.73183
1086.12	2.48165
1089.02	2.85401
1091.91	3.14227
1094.8	3.22636
1097.7	1.97686
1100.59	1.70762
1103.48	2.76694
1106.37	1.2232
1109.27	1.58125
1112.16	0.676713
1115.05	3.13906
1117.94	0.767732
1120.84	1.83335
1123.73	0.678958
1126.62	0.908897
1129.52	0.739234
1132.41	1.83882
1135.3	0.177839
1138.19	1.37582
1141.09	1.45826
1143.98	4.37441
1146.87	0.066957
1149.77	1.33927
1152.66	2.16835
1155.55	3.46447
1158.44	1.01748
1161.34	0.08719
1164.23	0.652003
1167.12	0.940638
1170.01	2.07884
1172.91	3.74003
1175.8	1.37631
1178.69	0.188933
1181.58	2.18897
1184.48	1.174
1187.37	0.77214
1190.26	1.26689
1193.15	3.37569
1196.05	0.734954
1198.94	2.74456
1201.83	2.69949
1204.73	0.819332
1207.62	2.33902
1210.51	3.47576
1213.4	0.568816
1216.3	3.05225
1219.19	0.819079
1222.08	2.75195
1224.97	3.53489
1227.87	1.03486
1230.76	2.05292
1233.65	4.09899
1236.55	0.503022
1239.44	0.715958
1242.33	0.981055
1245.22	1.40759
1248.12	1.02788
1251.01	1.57126
1253.9	0.841394
1256.8	3.95933
1259.69	2.14473
1262.58	2.15247
1265.47	0.862558
1268.37	3.02374
1271.26	2.50272
1274.15	2.37231
1277.04	3.9112
1279.94	0.977476
1282.83	2.29907
1285.72	1.27644
1288.61	2.94548
1291.51	2.38665
1294.4	3.42718
1297.29	0.762568
1300.18	3.53433
