Measurement: Raman, 532 nm, unoriented, Raman Data Processed
Mineral: Qilianshanite
Rruff sample: R100019
Ideal chemistry: NaH_4_(CO_3_)(BO_3_)2H_2_O
Locality: Lewis Cliff Ice Tongue, Antarctica
Source: Dave Bish
Description: Colorless to white granular massive with excellent bladed cleavage on individual crystalline grains
Raman shift (cm-1)	intensity
150.832	0
153.725	1.03589
156.618	15.5889
159.51	34.1381
162.403	53.97
165.296	65.2341
168.189	64.7841
171.081	62.0981
173.974	67.8872
176.867	77.05
179.759	90.9422
182.652	108.548
185.545	121.221
188.437	123.376
191.33	129.813
194.223	121.097
197.115	120.768
200.008	131.839
202.901	135.757
205.794	127.635
208.686	96.249
211.579	68.5066
214.472	42.0601
217.364	32.0624
220.257	25.153
223.15	18.9477
226.042	13.7485
228.935	11.288
231.828	3.86511
234.721	2.32782
237.613	1.09338
240.506	2.9295
243.399	0.03949
246.291	5.39911
249.184	4.7934
252.077	6.97681
254.97	6.08136
257.862	4.70355
260.755	0.239563
263.648	0.602661
266.54	0.79425
269.433	3.85242
272.326	0.346619
275.218	0.034241
278.111	3.31213
281.004	0.013428
283.897	0.853394
286.789	4.29706
289.682	4.52411
292.575	2.23413
295.467	0.980469
298.36	0.617737
301.253	7.35248
304.145	3.98877
307.038	7.95904
309.931	4.57269
312.824	11.3687
315.716	3.06891
318.609	7.10028
321.502	6.96423
324.394	8.96472
327.287	13.756
330.18	17.6211
333.072	18.4758
335.965	27.655
338.858	26.5902
341.75	40.8147
344.643	44.9974
347.536	53.9316
350.429	67.0389
353.321	71.823
356.214	69.3554
359.107	65.3578
361.999	60.8218
364.892	52.9127
367.785	44.8527
370.678	33.0296
373.57	27.6857
376.463	20.3519
379.356	21.5521
382.248	11.6672
385.141	9.16309
388.034	5.78223
390.926	14.6595
393.819	2.29614
396.712	6.57202
399.604	0.844971
402.497	1.38312
405.39	4.12689
408.283	1.12006
411.175	6.50671
414.068	6.5387
416.961	7.8042
419.853	7.13403
422.746	5.34644
425.639	7.05322
428.531	5.94141
431.424	10.6509
434.317	5.84705
437.21	1.42273
440.102	0.400024
442.995	1.203
445.888	0.086426
448.78	5.19263
451.673	3.39697
454.566	0.289185
457.459	3.56152
460.351	3.58044
463.244	8.1095
466.137	6.43835
469.029	3.61816
471.922	5.15857
474.815	6.59863
477.707	8.29553
480.6	16.7244
483.493	19.4865
486.385	30.8295
489.278	39.4133
492.171	47.4209
495.064	51.7737
497.956	49.0289
500.849	54.1146
503.742	55.3149
506.634	42.2622
509.527	29.5979
512.42	22.9336
515.313	13.6564
518.205	8.89355
521.098	6.18921
523.991	9.41003
526.883	15.8224
529.776	12.0508
532.669	28.3523
535.562	33.853
538.454	26.9224
541.347	27.24
544.24	25.0629
547.132	20.8651
550.025	21.4191
552.918	12.0951
555.81	1.21875
558.703	0.583862
561.596	2.88354
564.489	2.46045
567.381	1.81641
570.274	1.69348
573.167	2.56348
576.059	2.23779
578.952	0.786865
581.845	1.74792
584.737	3.17017
587.63	13.6808
590.523	10.0485
593.415	14.5877
596.308	21.0212
599.201	23.7251
602.093	26.0712
604.986	26.4409
607.879	26.2676
610.772	23.6887
613.664	17.7047
616.557	19.3313
619.45	12.1161
622.342	11.1755
625.235	14.3367
628.128	19.5681
631.02	18.4947
633.913	15.6958
636.806	16.3439
639.699	15.5963
642.591	13.2037
645.484	9.44629
648.377	4.75598
651.269	12.4065
654.162	11.7291
657.055	12.3687
659.947	18.1486
662.84	15.6876
665.733	13.8147
668.626	12.0275
671.518	13.7622
674.411	26.0752
677.304	29.6578
680.196	33.5481
683.089	50.6289
685.982	69.042
688.875	83.1937
691.767	57.5459
694.66	26.6656
697.553	16.0967
700.445	12.0158
703.338	1.25488
706.231	2.23096
709.123	1.27722
712.016	8.62476
714.909	6.89819
717.802	1.85364
720.694	1.505
723.587	1.38232
726.48	1.34253
729.372	8.72839
732.265	8.01562
735.158	6.1449
738.05	9.73975
740.943	5.6781
743.836	7.10242
746.729	11.2864
749.621	7.60583
752.514	4.81702
755.407	5.91956
758.299	7.61182
761.192	7.44617
764.085	6.3042
766.977	6.96375
769.87	7.02222
772.763	7.55823
775.655	2.19934
778.548	0.683716
781.441	4.70201
784.334	1.34729
787.226	0.063354
790.119	8.80383
793.012	12.831
795.904	5.03308
798.797	3.28003
801.69	12.597
804.582	9.36865
807.475	25.4268
810.368	28.1106
813.261	28.8909
816.153	20.7783
819.046	17.1694
821.939	15.904
824.831	10.1492
827.724	3.14795
830.617	4.41577
833.51	1.10693
836.402	12.2998
839.295	10.5405
842.188	21.2029
845.08	34.1665
847.973	52.8108
850.866	68.3394
853.758	92.9788
856.651	102.085
859.544	95.7871
862.437	91.5342
865.329	91.1948
868.222	109.8
871.115	171.874
874.007	264.691
876.9	405.748
879.793	530.147
882.685	536.866
885.578	242.299
888.471	75.9082
891.364	28.8772
894.256	7.98608
897.149	1.13037
900.042	2.52905
902.934	6.95166
905.827	0.283691
908.72	3.06323
911.612	4.52686
914.505	0.577148
917.398	7.02564
920.29	10.7046
923.183	4.93722
926.076	1.08765
928.969	2.37427
931.861	4.74731
934.754	1.86133
937.647	7.06982
940.539	7.35083
943.432	4.88403
946.325	6.40405
949.217	7.4541
952.11	11.8843
955.003	5.89453
957.896	1.58887
960.788	3.60449
963.681	6.18189
966.574	9.97559
969.466	7.54053
972.359	14.0278
975.252	14.2981
978.144	23.1834
981.037	19.0371
983.93	25.7571
986.823	28.9434
989.715	28.5293
992.608	25.7373
995.501	35.4641
998.393	36.1819
1001.29	52.7918
1004.18	61.8906
1007.07	80.2065
1009.96	117.372
1012.86	131.186
1015.75	126.414
1018.64	102.862
1021.53	95.5085
1024.43	121.304
1027.32	183.801
1030.21	183.044
1033.11	189.158
1036	272.875
1038.89	322.216
1041.78	197.19
1044.68	81.615
1047.57	55.1099
1050.46	39.4605
1053.36	18.1252
1056.25	7.31372
1059.14	7.16333
1062.03	2.39478
1064.93	3.25293
1067.82	3.05884
1070.71	2.74097
1073.6	2.85596
1076.5	7.07861
1079.39	6.64673
1082.28	7.56079
1085.17	2.15845
1088.07	8.07959
1090.96	9.31323
1093.85	12.585
1096.74	24.8176
1099.64	28.5002
1102.53	30.4092
1105.42	35.5915
1108.32	40.7122
1111.21	53.2114
1114.1	54.3965
1116.99	45.2441
1119.89	27.0596
1122.78	20.6995
1125.67	6.3147
1128.57	5.83496
1131.46	1.729
1134.35	4.42651
1137.24	8.06396
1140.14	6.62256
1143.03	6.26929
1145.92	16.0972
1148.81	14.0347
1151.71	23.9893
1154.6	25.5312
1157.49	27.3608
1160.38	14.8318
1163.28	21.0325
1166.17	16.7769
1169.06	11.0769
1171.95	18.7707
1174.85	17.2502
1177.74	7.10742
1180.63	13.9194
1183.53	11.0054
1186.42	6.49707
1189.31	0.532616
1192.2	7.2229
1195.1	0.281738
1197.99	11.8762
1200.88	0.0470626
1203.78	17.5952
1206.67	6.17627
1209.56	0.843018
1212.45	0.538574
1215.35	4.41748
1218.24	13.9329
1221.13	7.63965
1224.02	10.2124
1226.92	18.3213
1229.81	11.5908
1232.7	12.9463
1235.6	4.86279
1238.49	15.9905
1241.38	26.7686
1244.27	16.6916
1247.17	16.303
1250.06	10.7158
1252.95	13.1768
1255.84	5.60034
1258.74	6.05908
1261.63	9.41113
1264.52	9.26343
1267.41	12.8179
1270.31	15.9126
1273.2	11.5242
1276.09	8.40991
1278.98	12.2222
1281.88	12.0693
1284.77	3.33325
1287.66	10.2273
1290.56	5.25586
1293.45	8.23633
1296.34	8.03101
1299.23	6.20142
1302.13	0
