Measurement: Raman, 514 nm, unoriented, Raman Data Processed
Mineral: Quartz
Rruff sample: R040031
Ideal chemistry: SiO_2_
Locality: Spruce Claim, King County, Washington, USA
Source: Bob Downs
Description: Colorless hexagonal prism
Measured chemistry: Si_1.00_O_2_
Raman shift (cm-1)	intensity
114.254	0
118.424	372.439
122.592	1853.95
126.758	2505.15
130.922	1884.78
135.083	594.05
139.243	200.989
143.401	110.318
147.557	49.681
151.711	18.574
155.863	58.741
160.013	40.301
164.161	64.972
168.308	176.668
172.452	287.729
176.594	477.309
180.734	751.734
184.872	1193.23
189.008	1882.79
193.143	2857.53
197.275	4028.76
201.405	5291.48
205.534	5654.72
209.66	5150.14
213.784	3994.31
217.907	2848.55
222.027	2010.51
226.146	1422.14
230.263	1051.03
234.377	797.182
238.49	617.376
242.601	479.019
246.709	395.198
250.816	356.777
254.921	272.611
259.024	291.338
263.125	278.958
267.224	165.473
271.321	92.884
275.416	41.192
279.51	32.865
283.601	8.141
287.69	20.096
291.778	8.957
295.863	23.037
299.947	10.496
304.029	12.828
308.108	7.319
312.186	0.048
316.262	7.748
320.336	5.683
324.408	13.141
328.478	20.287
332.546	44.662
336.612	84.813
340.677	65.784
344.739	212.59
348.799	705.279
352.858	1390.83
356.915	1071.24
360.969	285.501
365.022	96.455
369.073	27.96
373.122	60.988
377.169	76.61
381.215	94.904
385.258	224.963
389.299	733.861
393.339	894.674
397.376	495.424
401.412	278.113
405.446	211.73
409.478	182.257
413.508	186.705
417.536	181.096
421.562	232.435
425.586	262.72
429.609	310.95
433.629	360.125
437.648	479.755
441.665	721.227
445.68	1126.13
449.693	1917.42
453.704	3884.02
457.713	10227.6
461.721	20706.9
465.726	21541.1
469.73	11534
473.731	5284.88
477.731	3000.94
481.729	1973.03
485.725	1434.48
489.72	1135.31
493.712	872.539
497.703	742.971
501.691	606.859
505.678	542.485
509.663	500.592
513.646	418.421
517.627	389.123
521.607	298.775
525.584	281.264
529.56	263.639
533.534	231.428
537.506	213.905
541.476	206.765
545.444	158.11
549.41	146.427
553.375	157.716
557.337	136.98
561.298	91.219
565.257	80.459
569.214	80.657
573.17	107.888
577.123	84.392
581.075	84
585.024	74.184
588.972	91.311
592.918	50.412
596.863	62.983
600.805	59.139
604.746	97.209
608.685	87.667
612.621	18.053
616.557	50.662
620.49	1.777
624.421	24.077
628.351	44.763
632.279	30.381
636.205	42.069
640.129	1.802
644.051	37.579
647.972	17.404
651.89	4.743
655.807	0.083
659.722	18.124
663.636	27.391
667.547	13.255
671.457	8.105
675.365	31.514
679.271	10.128
683.175	28.744
687.077	58.37
690.978	189.018
694.877	260.674
698.774	185.347
702.669	91.026
706.562	49.72
710.454	17.422
714.344	24.128
718.232	13.693
722.118	16.567
726.002	12.285
729.885	15.007
733.766	8.275
737.645	1.432
741.522	18.142
745.397	31.856
749.271	1.425
753.143	24.271
757.013	11.941
760.881	14.606
764.748	18.729
768.613	27.885
772.476	33.5
776.337	12.005
780.196	24.624
784.054	32.149
787.91	21.702
791.764	61.261
795.616	108.741
799.467	144.336
803.316	160.902
807.163	239.425
811.008	167.663
814.851	95.889
818.693	65.915
822.533	39.799
826.371	44.939
830.208	11.318
834.042	21.031
837.875	31.834
841.706	1.44
845.536	38.074
849.363	55.017
853.189	29.867
857.013	23.637
860.836	23.439
864.656	5.036
868.475	6.632
872.292	2.235
876.108	28.799
879.922	38.38
883.733	60.342
887.544	66.652
891.352	62.19
895.159	51.735
898.964	214.632
902.767	38.662
906.568	73.879
910.368	34.343
914.166	78.915
917.962	36.977
921.757	58.549
925.55	36.501
929.341	42.182
933.13	46.366
936.918	19.79
940.703	44.581
944.488	26.936
948.27	7.51
952.051	12.093
955.83	3.333
959.607	13.306
963.383	10.904
967.156	14.302
970.928	5.216
974.699	25.445
978.468	23.11
982.234	3.052
986	3.379
989.763	6.296
993.525	10.179
997.285	6.855
1001.04	4.459
1004.8	89.219
1008.55	19.089
1012.31	13.568
1016.06	30.227
1019.81	6.888
1023.56	33.533
1027.31	40.196
1031.05	39.859
1034.79	29.521
1038.53	27.202
1042.27	45.875
1046.01	56.562
1049.75	35.288
1053.48	54.948
1057.22	62.712
1060.95	56.42
1064.68	103.251
1068.4	74.945
1072.13	93.662
1075.86	69.335
1079.58	77.002
1083.3	152.664
1087.02	69.32
1090.74	55.967
1094.45	57.603
1098.17	16.228
1101.88	32.856
1105.59	10.475
1109.3	60.065
1113.01	0.443
1116.71	8.549
1120.42	46.727
1124.12	164.511
1127.82	1.281
1131.52	54.794
1135.22	35.258
1138.91	49.914
1142.61	49.683
1146.3	84.685
1149.99	93.653
1153.68	171.658
1157.37	387.122
1161.06	691.938
1164.74	533.245
1168.42	179.369
1172.1	150.659
1175.78	67.769
1179.46	35.336
1183.14	27.643
1186.81	47.486
1190.48	42.653
1194.15	27.092
1197.83	42.159
1201.49	34.166
1205.16	31.244
1208.82	59.363
1212.49	36.29
1216.15	59.298
1219.81	53.183
1223.46	51.095
1227.12	62.219
1230.78	98.833
1234.43	66.652
1238.08	64.449
1241.73	81.197
1245.38	31.883
1249.03	30.549
1252.67	78.227
1256.31	51.875
1259.95	21.5
1263.6	57.116
1267.23	27.157
1270.87	19.274
1274.51	3.457
1278.14	20.82
1281.77	11.104
1285.4	19.347
1289.03	5.323
1292.66	13.466
1296.28	19.579
1299.91	0.996
1303.53	35.667
1307.15	49.669
1310.77	6.366
1314.38	32.557
1318	8.552
1321.61	24.294
1325.23	28.103
1328.84	50.867
1332.45	44.607
1336.06	1.317
1339.66	21.961
1343.27	57.578
1346.87	40.213
1350.47	15.781
1354.07	77.353
1357.67	9.772
1361.26	40.303
1364.86	19.885
1368.45	75.502
1372.04	23.043
1375.63	88.492
1379.22	20.84
1382.81	25.082
1386.39	59.267
1389.98	38.272
1393.56	19.108
1397.14	58.891
1400.72	50.372
1404.3	73.121
1407.87	49.203
1411.45	44.436
1415.02	35.352
1418.59	24.004
1422.16	56.21
1425.73	20.195
1429.29	42.773
1432.86	88.493
1436.42	18.438
1439.98	28.322
1443.54	26.089
1447.1	57.013
1450.66	73.882
1454.21	61.479
1457.77	23.241
1461.32	26.853
1464.87	49.315
1468.42	96.988
1471.96	51.754
1475.51	65.665
1479.06	53.663
1482.6	73.782
1486.14	27.961
1489.68	65.189
1493.22	52.508
1496.75	41.967
1500.29	42.628
1503.82	19.502
1507.35	15.614
1510.88	76.614
1514.41	35.379
1517.94	9.366
1521.46	29.426
1524.99	10.729
