Measurement: Raman, 532 nm, unoriented, Raman Data Processed
Mineral: Quartz
Rruff sample: X080016
Ideal chemistry: SiO_2_
Locality: Synthetic
Source: Gemological Institute of America
Description: Faceted citrine gemstone, 10.23 ct
Raman shift (cm-1)	intensity
91.4899	0
94.8648	7.5748
98.2396	18.5553
101.614	6.18348
104.989	4.08854
108.364	5.42479
111.739	74.318
115.114	144.153
118.489	219.07
121.863	386.66
125.238	869.208
128.613	1606.38
131.988	630.416
135.363	185.038
138.737	105.858
142.112	86.1252
145.487	69.7198
148.862	47.3686
152.237	27.1576
155.612	13.0414
158.986	1.41893
162.361	9.88092
165.736	23.3285
169.111	44.8091
172.486	75.906
175.86	124.531
179.235	192.744
182.61	284.519
185.985	416.937
189.36	598.092
192.734	822.775
196.109	1076.31
199.484	1350.23
202.859	1558.26
206.234	1611.47
209.608	1459.67
212.983	1195.2
216.358	895.991
219.733	637.658
223.108	461.282
226.483	337.006
229.857	241.241
233.232	176.389
236.607	134.66
239.982	102.177
243.357	82.862
246.732	79.6015
250.106	85.3048
253.481	90.1951
256.856	111.309
260.231	163.896
263.606	256.335
266.98	145.896
270.355	32.4993
273.73	9.72693
277.105	0.067253
280.48	1.65443
283.854	4.82867
287.229	3.82281
290.604	5.96151
293.979	4.02235
297.354	2.40932
300.729	0.30257
304.103	0.96566
307.478	2.83046
310.853	7.7759
314.228	11.0693
317.603	12.302
320.978	12.9903
324.352	17.1177
327.727	17.6262
331.102	19.2876
334.477	22.8637
337.851	27.776
341.226	39.3352
344.601	47.6893
347.976	66.3759
351.351	114.213
354.726	194.246
358.1	108.097
361.475	18.3908
364.85	8.06966
368.225	2.59202
371.6	4.10005
374.974	9.13015
378.349	15.773
381.724	20.4414
385.099	39.1573
388.474	83.133
391.849	163.897
395.223	261.209
398.598	222.073
401.973	141.711
405.348	18.554
408.723	0.128265
412.098	5.28052
415.472	4.02464
418.847	2.9244
422.222	0.037537
425.597	4.14065
428.972	15.7921
432.346	29.1735
435.721	58.7129
439.096	109.262
442.471	198.058
445.846	382.882
449.221	777.153
452.595	1328.23
455.97	2108.25
459.345	3613.78
462.72	5739.6
466.095	6302.74
469.469	3288.1
472.844	1539.46
476.219	864.371
479.594	553.195
482.969	383.383
486.344	278.917
489.718	212.033
493.093	159.478
496.468	123.258
499.843	93.4817
503.218	71.5925
506.592	54.7021
509.967	41.7175
513.342	35.3672
516.717	29.3668
520.092	25.5843
523.466	20.1897
526.841	17.0241
530.216	14.8297
533.591	13.0816
536.966	13.6869
540.341	13.2588
543.715	16.2322
547.09	9.44518
550.465	6.79716
553.84	2.2938
557.215	0.851627
560.59	2.01737
563.964	3.54833
567.339	1.87862
570.714	2.44125
574.089	2.18094
577.464	0.677391
580.838	1.14992
584.213	3.18318
587.588	5.11505
590.963	12.4654
594.338	6.31317
597.712	7.37681
601.087	6.21348
604.462	5.26239
607.837	5.7556
611.212	7.34154
614.587	6.72191
617.961	6.69125
621.336	6.48699
624.711	4.80122
628.086	4.11143
631.461	3.35286
634.835	4.27362
638.21	2.53418
641.585	3.86388
644.96	3.13498
648.335	2.83791
651.71	2.86306
655.084	1.41698
658.459	1.54753
661.834	2.05946
665.209	1.19748
668.584	1.46924
671.958	2.34359
675.333	5.56621
678.708	8.32736
682.083	15.3267
685.458	29.2758
688.832	46.1641
692.207	73.0048
695.582	97.9667
698.957	72.5008
702.332	33.2447
705.707	16.7567
709.081	12.0584
712.456	8.0005
715.831	6.32781
719.206	3.54516
722.581	2.64359
725.955	2.09531
729.33	1.43272
732.705	1.49471
736.08	0.525833
739.455	0.938522
742.83	0.930737
746.204	0.862518
749.579	0.319214
752.954	0.592655
756.329	1.31661
759.704	0.717106
763.078	0.48024
766.453	0.667881
769.828	3.13699
773.203	4.96994
776.578	7.80028
779.952	11.4842
783.327	24.895
786.702	42.6677
790.077	71.1364
793.452	110.426
796.827	133.578
800.201	87.2266
803.576	52.7334
806.951	29.263
810.326	17.2399
813.701	12.3139
817.076	10.2533
820.45	6.67916
823.825	7.10593
827.2	5.67661
830.575	5.04422
833.95	4.54888
837.324	4.10476
840.699	5.49769
844.074	4.97278
847.449	5.59964
850.824	4.96086
854.198	4.56856
857.573	3.29793
860.948	2.48815
864.323	0.611267
867.698	0.876266
871.073	0.032112
874.447	1.20039
877.822	1.09444
881.197	1.70852
884.572	2.9203
887.947	3.87775
891.322	3.9752
894.696	5.85524
898.071	4.74334
901.446	2.65228
904.821	2.90792
908.196	3.38276
911.57	3.6025
914.945	5.0951
918.32	5.97264
921.695	7.56372
925.07	6.35384
928.444	4.69224
931.819	2.40873
935.194	1.68727
938.569	1.80907
941.944	2.54371
945.318	1.79377
948.693	3.86631
952.068	2.43445
955.443	2.44781
958.818	2.30435
962.193	2.51804
965.567	0.693161
968.942	1.38827
972.317	0.091803
975.692	0.105925
979.067	0.749134
982.442	0.021221
985.816	1.76538
989.191	0.286291
992.566	0.600836
995.941	0.65729
999.316	0.249855
1002.69	0.496988
1006.07	0.791458
1009.44	1.02651
1012.82	0.870525
1016.19	0.813824
1019.57	1.82854
1022.94	1.41415
1026.31	2.46376
1029.69	3.12244
1033.06	2.96152
1036.44	3.84893
1039.81	3.31292
1043.19	4.82846
1046.56	6.28354
1049.94	6.05718
1053.31	11.6762
1056.69	22.7685
1060.06	40.4803
1063.44	69.412
1066.81	84.1476
1070.19	45.6197
1073.56	22.5259
1076.94	15.1898
1080.31	16.0892
1083.69	14.2411
1087.06	8.13493
1090.44	4.98957
1093.81	3.72881
1097.18	2.69023
1100.56	2.25225
1103.93	1.68813
1107.31	0.336603
1110.68	0.295898
1114.06	0.658051
1117.43	0.184801
1120.81	0.234552
1124.18	0.260937
1127.56	1.1823
1130.93	0.66242
1134.31	3.30685
1137.68	4.86663
1141.06	9.91015
1144.43	14.1068
1147.81	23.9314
1151.18	45.9645
1154.56	81.8394
1157.93	139.22
1161.31	181.679
1164.68	115.057
1168.06	47.7694
1171.43	22.2288
1174.81	11.3369
1178.18	5.69731
1181.56	5.13097
1184.93	2.62622
1188.31	0.903801
1191.68	1.18828
1195.06	0.88805
1198.43	0.327307
1201.81	0.578293
1205.18	0.210987
1208.55	1.44139
1211.93	1.15919
1215.3	0.909616
1218.68	1.99166
1222.05	1.83472
1225.43	3.54567
1228.8	4.90421
1232.18	7.39703
1235.55	7.09853
1238.93	5.23979
1242.3	4.12762
1245.68	3.64282
1249.05	3.36921
1252.43	2.82514
1255.8	1.9922
1259.18	1.5553
1262.55	0.339819
1265.93	1.73948
1269.3	1.99359
1272.68	0.822409
1276.05	0.257999
1279.42	0.428343
1282.8	0.370808
1286.17	1.06792
1289.55	1.31306
1292.92	0.595818
1296.3	1.2287
1299.67	0.70307
1303.05	0.445396
