Measurement: Raman, 532 nm, unoriented, Raman Data Processed
Mineral: Quartz
Rruff sample: R060604
Ideal chemistry: SiO_2_
Locality: Piedras Parada, Veracruz, Mexico
Source: Michael Scott
Description: Purple hexagonal prisms, variety amethyst
Measured chemistry: Si_1.00_O_2_
Raman shift (cm-1)	intensity
115.996	0
119.371	27.4192
122.746	89.3682
126.121	290.267
129.495	437.734
132.87	100.116
136.245	16.4659
139.62	12.2129
142.995	12.2567
146.369	9.30086
149.744	2.61857
153.119	1.77673
156.494	5.98717
159.869	3.05756
163.244	2.93579
166.618	10.5251
169.993	19.7139
173.368	34.1431
176.743	56.499
180.118	88.6881
183.493	129.501
186.867	183.207
190.242	250.836
193.617	329.489
196.992	407.852
200.367	486.374
203.741	525.64
207.116	512.397
210.491	444.085
213.866	351.188
217.241	257.411
220.615	184.565
223.99	136.955
227.365	102.541
230.74	76.945
234.115	57.8998
237.489	45.8457
240.864	37.5218
244.239	34.6485
247.614	36.1338
250.989	35.4917
254.364	40.0258
257.738	52.0346
261.113	79.4761
264.488	105.206
267.863	37.7355
271.238	8.64364
274.613	2.93787
277.987	0.453983
281.362	0.504772
284.737	0.236576
288.112	0.200693
291.487	0.662262
294.861	0.634108
298.236	0.103371
301.611	0.526999
304.986	0.729836
308.361	0.512308
311.736	0.65844
315.11	1.70511
318.485	2.67306
321.86	2.82718
325.235	2.69332
328.61	0.840277
331.984	2.17631
335.359	3.53958
338.734	4.08285
342.109	5.55055
345.484	6.90554
348.858	10.3544
352.233	22.0068
355.608	36.0447
358.983	11.4758
362.358	1.91362
365.733	0.295923
369.107	0.494602
372.482	1.11575
375.857	1.12334
379.232	1.08465
382.607	3.55722
385.981	10.3508
389.356	18.3157
392.731	36.4644
396.106	41.7852
399.481	63.5857
402.856	65.7648
406.23	11.8893
409.605	2.69265
412.98	0.01799
416.355	0.562572
419.73	1.38437
423.104	0.434788
426.479	0.521774
429.854	2.89003
433.229	11.2875
436.604	25.0613
439.978	49.8986
443.353	99.8585
446.728	211.446
450.103	381.786
453.478	538.061
456.853	815.717
460.227	1335.42
463.602	1917.1
466.977	1500.26
470.352	716.139
473.727	361.136
477.101	210.734
480.476	137.917
483.851	94.2615
487.226	68.8288
490.601	53.1169
493.976	40.5802
497.35	34.4686
500.725	32.3171
504.1	29.9593
507.475	20.833
510.85	17.3714
514.224	13.8096
517.599	11.7032
520.974	9.77449
524.349	10.0791
527.724	11.3684
531.098	13.5058
534.473	12.4281
537.848	5.37666
541.223	4.07795
544.598	2.08963
547.973	2.15263
551.347	0.449617
554.722	1.32503
558.097	1.19052
561.472	1.34204
564.847	1.72059
568.221	0.083023
571.596	0.925079
574.971	2.4154
578.346	4.71581
581.721	7.71618
585.096	10.6442
588.47	9.91637
591.845	10.2598
595.22	10.6276
598.595	10.2592
601.97	9.09864
605.344	8.21712
608.719	6.6637
612.094	6.10019
615.469	4.53436
618.844	3.59346
622.218	2.43758
625.593	1.10812
628.968	1.15258
632.343	0.712486
635.718	0.864138
639.093	0.69215
642.467	0.543659
645.842	0.573454
649.217	0.913404
652.592	1.52348
655.967	0.980183
659.341	1.363
662.716	0.523064
666.091	0.132915
669.466	0.058495
672.841	0.577915
676.216	0.868759
679.59	1.95823
682.965	5.54239
686.34	8.71436
689.715	12.7379
693.09	21.9861
696.465	27.3753
699.839	16.714
703.214	7.92037
706.589	4.6233
709.964	3.41145
713.339	3.62278
716.713	2.47519
720.088	1.58685
723.463	0.740412
726.838	0.775078
730.213	1.05503
733.587	0.944824
736.962	1.0341
740.337	0.437553
743.712	1.15101
747.087	0.610813
750.462	0.256626
753.836	0.122744
757.211	0.643415
760.586	0.518778
763.961	0.053532
767.336	0.40185
770.71	1.30761
774.085	2.63902
777.46	4.55491
780.835	7.43695
784.21	12.2301
787.585	20.3852
790.959	32.8221
794.334	44.7293
797.709	42.066
801.084	30.8084
804.459	30.8494
807.833	24.1955
811.208	13.3583
814.583	8.54293
817.958	5.48363
821.333	3.57227
824.707	2.79858
828.082	2.01148
831.457	1.77981
834.832	1.20317
838.207	1.50164
841.582	2.45146
844.956	0.961388
848.331	1.01969
851.706	0.962204
855.081	1.53097
858.456	0.489313
861.83	0.311302
865.205	0.462091
868.58	0.184694
871.955	0.074764
875.33	0.438755
878.705	0.226654
882.079	1.1831
885.454	0.661062
888.829	2.02055
892.204	1.54276
895.579	2.00127
898.953	1.92066
902.328	2.35512
905.703	2.3917
909.078	2.90461
912.453	4.73153
915.827	4.20436
919.202	2.89925
922.577	1.61377
925.952	1.15287
929.327	0.807932
932.702	0.010073
936.076	0.155546
939.451	0.321606
942.826	0.354605
946.201	1.0033
949.576	0.585352
952.951	1.11416
956.325	0.664028
959.7	0.176275
963.075	1.18339
966.45	0.872601
969.825	0.415541
973.199	1.31333
976.574	1.32439
979.949	0.082758
983.324	0.213041
986.699	0.552103
990.073	0.138212
993.448	0.326408
996.823	0.160877
1000.2	0.342676
1003.57	0.327036
1006.95	0.24037
1010.32	1.33602
1013.7	1.29909
1017.07	1.98797
1020.45	3.06815
1023.82	4.80339
1027.2	8.06283
1030.57	14.2357
1033.95	24.1344
1037.32	39.4731
1040.7	60.7648
1044.07	82.9346
1047.44	71.8763
1050.82	40.7756
1054.19	27.0343
1057.57	25.0428
1060.94	25.3952
1064.32	30.7374
1067.69	25.4125
1071.07	16.1549
1074.44	9.89289
1077.82	11.3888
1081.19	12.9293
1084.57	9.20055
1087.94	3.82115
1091.32	1.56804
1094.69	0.442852
1098.07	0.162136
1101.44	0.469347
1104.82	0.02433
1108.19	0.084259
1111.57	1.15281
1114.94	1.4162
1118.32	3.50977
1121.69	5.90481
1125.07	9.74702
1128.44	11.1648
1131.82	7.4193
1135.19	5.4376
1138.57	4.75434
1141.94	5.24613
1145.32	7.20763
1148.69	11.4321
1152.07	25.6037
1155.44	30.8465
1158.81	44.8117
1162.19	37.3841
1165.56	18.0149
1168.94	7.644
1172.31	2.98174
1175.69	1.56017
1179.06	0.399883
1182.44	1.44615
1185.81	0.893967
1189.19	0.055019
1192.56	1.05258
1195.94	0.414131
1199.31	0.637939
1202.69	0.292534
1206.06	0.226538
1209.44	0.991795
1212.81	0.290915
1216.19	0.541422
1219.56	0.755938
1222.94	0.908852
1226.31	0.787678
1229.68	0.997837
1233.06	1.73532
1236.43	0.837416
1239.81	0.168299
1243.18	0.372837
1246.56	0.098953
1249.93	0.067957
1253.31	0.542089
1256.68	0.218727
1260.06	0.605759
1263.43	0.858528
1266.81	0.204056
1270.18	0.123474
1273.56	0.334026
1276.93	0.089422
1280.31	0.326874
1283.68	1.3218
1287.06	0.593025
1290.43	0.676634
1293.81	0.82021
1297.18	0.435799
1300.56	0.021872
