Measurement: Raman, 532 nm, unoriented, Raman Data Processed
Mineral: Quartz
Rruff sample: R150074
Ideal chemistry: SiO_2_
Locality: Selvino, Bergamo, Italy
Source: UAMM 9180
Description: Colorless doubly terminated crystals
Raman shift (cm-1)	intensity
92.1938	0
95.5686	38.8927
98.9434	39.1711
102.318	7.50568
105.693	5.51086
109.068	86.0836
112.443	158.714
115.817	261.849
119.192	437.471
122.567	832.046
125.942	2013.04
129.317	4474.09
132.692	1683.69
136.066	434.623
139.441	209.513
142.816	174.756
146.191	151.826
149.566	119.086
152.94	67.0286
156.315	17.7745
159.69	18.3022
163.065	10.5554
166.44	36.8575
169.815	90.1154
173.189	168.563
176.564	278.69
179.939	426.187
183.314	637.471
186.689	934.361
190.064	1336.92
193.438	1877.1
196.813	2547.79
200.188	3300.8
203.563	3973.06
206.938	4223.09
210.312	3920.94
213.687	3283.78
217.062	2468
220.437	1766.49
223.812	1266.34
227.186	924.896
230.561	675.644
233.936	494.854
237.311	371.163
240.686	277.735
244.06	224.204
247.435	217.846
250.81	202.834
254.185	199.325
257.56	225.55
260.935	340.726
264.309	652.665
267.684	664.123
271.059	175.062
274.434	52.889
277.809	22.8268
281.183	5.20258
284.558	5.39581
287.933	8.16037
291.308	8.93106
294.683	6.06772
298.058	8.49146
301.432	5.56702
304.807	3.40872
308.182	1.71372
311.557	10.3131
314.932	13.411
318.307	17.558
321.681	25.214
325.056	18.2228
328.431	24.3478
331.806	23.1091
335.181	35.3139
338.555	57.1614
341.93	93.2044
345.305	122.637
348.68	195.713
352.055	419.519
355.43	1177.16
358.804	820.383
362.179	195.537
365.554	78.2425
368.929	39.5895
372.304	20.0223
375.678	5.42007
379.053	9.35175
382.428	7.38641
385.803	16.1264
389.178	44.5519
392.553	156.241
395.927	305.469
399.302	79.2522
402.677	169.174
406.052	134.618
409.427	0.419189
412.801	13.4021
416.176	11.4149
419.551	6.20764
422.926	4.5119
426.301	16.2529
429.675	33.8242
433.05	61.8638
436.425	109.041
439.8	196.35
443.175	355.884
446.55	686.241
449.924	1324.58
453.299	2227.31
456.674	3767.07
460.049	7061.55
463.424	13566.5
466.798	16405
470.173	8394.45
473.548	3885.2
476.923	2146.34
480.298	1368.94
483.673	961.422
487.047	702.092
490.422	530.735
493.797	414.938
497.172	343.405
500.547	293.132
503.921	306.303
507.296	453.461
510.671	700.764
514.046	241.702
517.421	126.567
520.795	88.6636
524.17	65.3842
527.545	46.2841
530.92	39.7053
534.295	33.7595
537.67	26.4151
541.044	20.3297
544.419	14.9468
547.794	17.9039
551.169	10.0828
554.544	0.087402
557.918	3.6394
561.293	1.01379
564.668	5.3681
568.043	6.38519
571.418	5.19647
574.793	0.917603
578.167	0.608459
581.542	5.93475
584.917	5.43964
588.292	18.1166
591.667	22.8987
595.042	22.5702
598.416	19.3455
601.791	20.1342
605.166	17.5922
608.541	17.7562
611.916	20.6611
615.29	17.1484
618.665	21.6182
622.04	13.7774
625.415	13.8677
628.79	8.4906
632.164	8.48077
635.539	11.0834
638.914	9.15759
642.289	12.5652
645.664	8.9292
649.039	7.23322
652.413	7.49426
655.788	3.19531
659.163	0.763977
662.538	0.633728
665.913	2.24878
669.288	3.97467
672.662	4.56
676.037	3.95557
679.412	14.1505
682.787	14.51
686.162	27.1416
689.536	47.8705
692.911	75.4467
696.286	120.38
699.661	104.922
703.036	54.2305
706.41	28.4567
709.785	16.5044
713.16	13.098
716.535	9.4079
719.91	6.40631
723.284	9.28632
726.659	5.06702
730.034	8.73023
733.409	4.29608
736.784	2.27594
740.159	7.02264
743.533	2.52991
746.908	6.49884
750.283	3.25079
753.658	0.09198
757.033	3.1062
760.408	1.94782
763.782	0.075317
767.157	0.525269
770.532	3.42712
773.907	3.68976
777.282	5.79358
780.656	10.9222
784.031	16.6678
787.406	28.5652
790.781	44.259
794.156	80.9672
797.53	119.897
800.905	184.604
804.28	319.214
807.655	604.057
811.03	695.087
814.405	330.938
817.779	152.381
821.154	85.7755
824.529	52.6935
827.904	36.1273
831.279	32.532
834.654	26.3127
838.028	20.3184
841.403	25.6988
844.778	23.7602
848.153	18.7138
851.528	23.0305
854.902	17.1119
858.277	13.9588
861.652	11.5659
865.027	1.39197
868.402	4.74493
871.777	0.987671
875.151	3.32245
878.526	0.174988
881.901	0.091309
885.276	6.09424
888.651	10.4462
892.025	5.15704
895.4	12.2164
898.775	9.86328
902.15	3.73993
905.525	3.79443
908.899	10.4295
912.274	3.41846
915.649	9.86371
919.024	7.4364
922.399	12.1075
925.774	11.1423
929.148	8.82587
932.523	2.55444
935.898	2.50525
939.273	0.869507
942.648	1.57465
946.023	8.69214
949.397	2.94861
952.772	5.81433
956.147	3.38208
959.522	0.364624
962.896	9.30963
966.271	10.7435
969.646	5.74896
973.021	6.17554
976.396	3.2666
979.771	1.03424
983.145	9.74695
986.52	3.87738
989.895	1.82294
993.27	2.4989
996.645	1.64325
1000.02	0.977661
1003.39	1.01117
1006.77	2.58545
1010.14	1.47296
1013.52	5.81061
1016.89	6.59357
1020.27	3.74921
1023.64	1.64136
1027.02	9.82288
1030.39	8.01508
1033.77	6.94025
1037.14	10.3029
1040.52	13.8348
1043.89	11.7114
1047.27	14.1658
1050.64	17.1699
1054.02	13.2166
1057.39	19.4304
1060.77	22.63
1064.14	28.1478
1067.52	44.0724
1070.89	57.3762
1074.27	90.7578
1077.64	155.798
1081.02	323.5
1084.39	391.455
1087.77	168.608
1091.14	67.9978
1094.51	36.2924
1097.89	21.616
1101.26	13.0803
1104.64	10.8844
1108.01	2.54785
1111.39	5.87738
1114.76	6.53284
1118.14	1.61731
1121.51	1.17358
1124.89	4.00775
1128.26	3.75317
1131.64	0.360779
1135.01	0.022095
1138.39	6.39606
1141.76	13.4611
1145.14	17.5328
1148.51	29.7787
1151.89	56.5267
1155.26	111.296
1158.64	189.629
1162.01	221.85
1165.38	128.517
1168.76	56.8373
1172.13	24.9164
1175.51	13.6974
1178.88	6.25201
1182.26	7.31531
1185.63	4.72827
1189.01	5.37549
1192.38	4.54303
1195.76	5.5304
1199.13	0.070679
1202.51	1.87073
1205.88	3.6203
1209.26	6.30511
1212.63	3.82733
1216.01	10.916
1219.38	24.9012
1222.76	28.8572
1226.13	32.3536
1229.51	38.0236
1232.88	44.3652
1236.26	31.9371
1239.63	25.1289
1243.01	19.4717
1246.38	14.4659
1249.76	8.61841
1253.13	13.8922
1256.51	6.60761
1259.88	5.48828
1263.26	7.77246
1266.63	9.71106
1270.01	3.44519
1273.38	2.39398
1276.76	5.51807
1280.13	0.167603
1283.5	3.85162
1286.88	2.29382
1290.25	1.49237
1293.63	0.172241
1297	2.93048
1300.38	1.25476
