Measurement: Raman, 532 nm, unoriented, Raman Data Processed
Mineral: Quartz
Rruff sample: R050125
Ideal chemistry: SiO_2_
Locality: Linopolis, Minas Gerais, Brazil
Source: Carlos and Paulo Vasconcelos
Description: Pale pink group of single crystals, variety rose quartz
Measured chemistry: Si_1.00_O_2_
Raman shift (cm-1)	intensity
117.925	0
121.299	12.9418
124.674	86.6786
128.049	262.982
131.424	127.397
134.799	14.966
138.173	8.32063
141.548	10.4706
144.923	14.1913
148.298	11.5725
151.673	1.975
155.048	4.24037
158.422	5.03538
161.797	1.75865
165.172	10.9577
168.547	25.1374
171.922	40.5898
175.297	62.3499
178.671	96.2375
182.046	138.999
185.421	195.435
188.796	274.423
192.171	364.536
195.545	467.922
198.92	573.872
202.295	658.005
205.67	682.857
209.045	624.376
212.419	520.55
215.794	391.123
219.169	284.688
222.544	209.199
225.919	151.823
229.293	115.512
232.668	87.0931
236.043	69.0918
239.418	53.4175
242.793	45.5122
246.168	46.83
249.542	47.7777
252.917	51.9691
256.292	59.5042
259.667	81.5179
263.042	131.258
266.416	104.658
269.791	29.3734
273.166	10.4433
276.541	4.0138
279.916	1.58564
283.291	0.618689
286.665	0.669168
290.04	1.94321
293.415	1.30853
296.79	0.802505
300.165	0.588625
303.539	0.271778
306.914	0.312027
310.289	0.185602
313.664	1.30301
317.039	2.12305
320.414	2.10814
323.788	2.86027
327.163	3.56943
330.538	4.43077
333.913	6.71511
337.288	13.4252
340.662	22.8417
344.037	31.9455
347.412	45.1833
350.787	78.9356
354.162	150.338
357.536	91.8772
360.911	16.1522
364.286	5.67683
367.661	3.64945
371.036	3.76564
374.411	0.049322
377.785	4.13944
381.16	7.64488
384.535	13.4163
387.91	26.5038
391.285	61.5929
394.659	88.4101
398.034	17.3196
401.409	10.2964
404.784	1.68107
408.159	3.26776
411.534	1.57544
414.908	1.01368
418.283	0.957777
421.658	1.25225
425.033	4.03672
428.408	8.04682
431.783	15.3324
435.157	26.0943
438.532	49.1073
441.907	88.5088
445.282	175.262
448.657	351.468
452.031	554.628
455.406	847.486
458.781	1390.42
462.156	2280.77
465.531	2512.5
468.906	1348.41
472.28	648.872
475.655	362.405
479.03	233.077
482.405	162.223
485.779	117.867
489.154	89.097
492.529	67.5946
495.904	52.5891
499.279	41.4435
502.654	31.4534
506.028	25.3832
509.403	20.0209
512.778	17.3554
516.153	15.68
519.528	14.5709
522.903	12.2962
526.277	12.169
529.652	13.4153
533.027	11.29
536.402	7.0485
539.777	4.34343
543.151	3.26046
546.526	2.91642
549.901	1.48506
553.276	0.1737
556.651	0.938393
560.025	1.40777
563.4	1.1252
566.775	0.789097
570.15	1.16116
573.525	0.014524
576.9	0.669182
580.274	1.40723
583.649	1.19213
587.024	2.13597
590.399	2.15544
593.774	2.92688
597.148	3.06284
600.523	2.44941
603.898	2.82151
607.273	2.70614
610.648	3.04448
614.023	3.40414
617.397	2.86964
620.772	2.33007
624.147	1.86967
627.522	2.03561
630.897	1.22181
634.271	1.48603
637.646	0.692454
641.021	1.6914
644.396	1.6297
647.771	1.46796
651.145	0.951287
654.52	0.651237
657.895	0.062308
661.27	0.256876
664.645	0.05717
668.02	0.502548
671.394	0.777457
674.769	1.35167
678.144	2.71936
681.519	5.69138
684.894	7.72267
688.269	12.0694
691.643	19.4094
695.018	26.4487
698.393	18.4111
701.768	8.56786
705.143	5.0657
708.517	4.07623
711.892	2.78681
715.267	1.8627
718.642	1.59678
722.017	0.877568
725.391	0.535151
728.766	0.57509
732.141	0.579902
735.516	0.504792
738.891	0.405117
742.266	0.271643
745.64	0.085193
749.015	0.052643
752.39	0.271041
755.765	0.002838
759.14	0.075148
762.514	0.01668
765.889	1.19072
769.264	1.42441
772.639	1.79241
776.014	3.71999
779.389	5.39486
782.763	4.89474
786.138	8.28277
789.513	12.5543
792.888	21.1284
796.263	28.9957
799.637	35.3938
803.012	48.9983
806.387	57.7232
809.762	32.3508
813.137	14.6294
816.511	8.79639
819.886	5.97021
823.261	4.3605
826.636	2.87677
830.011	3.17347
833.386	2.65849
836.76	2.60321
840.135	1.9506
843.51	2.32581
846.885	1.47874
850.26	2.23656
853.635	1.39356
857.009	1.02582
860.384	0.724663
863.759	0.11688
867.134	0.207239
870.509	0.469628
873.883	0.194457
877.258	0.227481
880.633	0.444554
884.008	0.93245
887.383	1.27065
890.757	1.49781
894.132	1.66231
897.507	1.7255
900.882	1.27223
904.257	0.648771
907.631	1.26511
911.006	1.19615
914.381	1.75118
917.756	2.24626
921.131	1.97967
924.506	2.35751
927.88	1.84401
931.255	1.1482
934.63	1.12856
938.005	0.914814
941.38	0.908161
944.755	1.56072
948.129	0.9188
951.504	0.732924
954.879	1.12242
958.254	0.736723
961.629	1.10693
965.003	0.494436
968.378	0.346843
971.753	0.082072
975.128	0.30166
978.503	0.094897
981.877	0.020124
985.252	0.019713
988.627	0.16102
992.002	0.22595
995.377	0.428123
998.751	0.053646
1002.13	0.560421
1005.5	0.821173
1008.88	0.320734
1012.25	0.054563
1015.63	0.785725
1019	0.924562
1022.38	1.07073
1025.75	1.08517
1029.12	1.32724
1032.5	1.46476
1035.88	1.57901
1039.25	2.0522
1042.62	1.88082
1046	1.74079
1049.37	2.30138
1052.75	3.66297
1056.12	4.4224
1059.5	7.53211
1062.87	12.8031
1066.25	17.6586
1069.62	18.6046
1073	14.9049
1076.37	11.0247
1079.75	12.7381
1083.12	12.6727
1086.5	6.64197
1089.87	3.28983
1093.25	2.49323
1096.62	1.86984
1100	1.5409
1103.37	0.913116
1106.75	0.819749
1110.12	0.011931
1113.49	0.115344
1116.87	0.046435
1120.24	0.149773
1123.62	0.538302
1126.99	0.127295
1130.37	0.925733
1133.74	0.931032
1137.12	1.71726
1140.49	2.97638
1143.87	3.9848
1147.24	7.78008
1150.62	14.0548
1153.99	23.0396
1157.37	36.7372
1160.74	52.7971
1164.12	37.3277
1167.49	15.308
1170.87	7.0258
1174.24	3.60689
1177.62	1.44455
1180.99	0.81864
1184.37	0.903688
1187.74	0.100457
1191.12	0.046018
1194.49	0.505939
1197.87	0.270992
1201.24	0.54115
1204.62	0.178656
1207.99	0.675453
1211.37	0.796321
1214.74	2.45913
1218.12	3.32776
1221.49	5.02679
1224.86	8.6027
1228.24	12.2726
1231.61	13.7524
1234.99	12.7045
1238.36	9.16761
1241.74	5.41718
1245.11	4.16643
1248.49	2.98932
1251.86	2.07421
1255.24	1.81962
1258.61	0.808558
1261.99	0.992494
1265.36	0.486301
1268.74	0.407439
1272.11	0.521541
1275.49	0.661826
1278.86	0.236009
1282.24	0.188201
1285.61	0.469468
1288.99	0.564865
1292.36	0.321859
1295.73	0.511037
1299.11	0.135066
1302.48	0.476585
