Measurement: Raman, 780 nm, unoriented, Raman Data Processed
Mineral: Quartz
Rruff sample: R110104
Ideal chemistry: SiO_2_
Locality: Synthetic
Source: Gemological Institute of America
Description: A cut, purple (1.31ct) amethyst gemstone, hydrothermally grown.
Raman shift (cm-1)	intensity
170.671	0
173.563	1.36719
176.456	7.54326
179.349	38.6042
182.242	83.0846
185.134	146.355
188.027	233.412
190.92	353.62
193.812	505.966
196.705	677.66
199.598	853.547
202.49	991.324
205.383	1033.64
208.276	963.347
211.168	822.912
214.061	651.815
216.954	481.677
219.847	353.091
222.739	262.412
225.632	198.929
228.525	145.636
231.417	107.559
234.31	78.7679
237.203	58.1829
240.095	42.8208
242.988	33.7713
245.881	28.7856
248.774	25.1773
251.666	21.3926
254.559	24.684
257.452	33.8169
260.344	51.724
263.237	82.4393
266.13	48.5601
269.022	10.1463
271.915	0.628899
274.808	3.54895
277.701	4.93742
280.593	3.83382
283.486	3.50343
286.379	1.29606
289.271	2.05532
292.164	0.114479
295.057	1.16958
297.95	2.26254
300.842	4.34884
303.735	6.10939
306.628	7.81043
309.52	9.12817
312.413	10.152
315.306	12.3287
318.198	13.5018
321.091	20.8296
323.984	14.9942
326.877	16.994
329.769	18.183
332.662	18.7078
335.555	20.0307
338.447	21.8809
341.34	24.8492
344.233	35.3222
347.125	55.0292
350.018	99.6832
352.911	209.799
355.803	238.674
358.696	54.5942
361.589	13.1289
364.482	5.05238
367.374	3.1571
370.267	5.74964
373.16	6.21867
376.052	2.39274
378.945	0.183289
381.838	0.090469
384.731	4.36208
387.623	17.1202
390.516	46.0291
393.409	92.2352
396.301	45.4138
399.194	65.2862
402.087	61.6037
404.979	10.2211
407.872	0.857494
410.765	1.95357
413.658	2.18478
416.55	2.3985
419.443	0.189358
422.336	0.437572
425.228	3.42905
428.121	5.17815
431.014	11.743
433.906	19.8797
436.799	28.8369
439.692	48.7616
442.584	80.1971
445.477	133.389
448.37	227.692
451.263	376.692
454.155	660.919
457.048	1224.67
459.941	2279.92
462.833	3720.53
465.726	3512.9
468.619	1881.91
471.512	970.634
474.404	573.907
477.297	376.753
480.19	270.298
483.082	200.809
485.975	153.4
488.868	118.967
491.76	92.3199
494.653	74.0436
497.546	59.9789
500.438	47.7032
503.331	37.8246
506.224	29.3769
509.117	25.0725
512.009	21.4765
514.902	19.7437
517.795	17.653
520.687	16.6286
523.58	14.093
526.473	10.2555
529.365	11.0524
532.258	9.43609
535.151	8.76567
538.044	6.54207
540.936	3.43494
543.829	4.8549
546.722	3.33713
549.614	2.91642
552.507	0.811413
555.4	0.149124
558.293	1.38478
561.185	1.74553
564.078	1.97937
566.971	1.01506
569.863	0.389977
572.756	1.91761
575.649	0.275753
578.541	0.736759
581.434	7.71959
584.327	2.30469
587.22	2.98205
590.112	4.57524
593.005	4.24044
595.898	4.35782
598.79	4.32478
601.683	3.87597
604.576	3.6779
607.468	4.85239
610.361	4.52967
613.254	5.3387
616.146	4.45472
619.039	4.77438
621.932	3.3694
624.825	3.69626
627.717	3.3119
630.61	2.78734
633.503	2.56544
636.395	3.39519
639.288	1.73098
642.181	1.27072
645.073	1.54654
647.966	2.69551
650.859	2.29331
653.752	1.96306
656.644	1.06068
659.537	0.655901
662.43	0.481583
665.322	0.236412
668.215	0.867649
671.108	0.785309
674	0.46051
676.893	2.06746
679.786	2.99842
682.679	3.98662
685.571	6.98858
688.464	11.1767
691.357	17.8173
694.249	29.4715
697.142	28.374
700.035	15.681
702.928	8.40142
705.82	5.32156
708.713	4.1571
711.606	3.10725
714.498	2.18255
717.391	1.33953
720.284	1.84626
723.176	0.996735
726.069	1.21706
728.962	1.32188
731.855	0.737638
734.747	0.515547
737.64	0.608559
740.533	0.127794
743.425	0.26783
746.318	0.027409
749.211	0.180634
752.103	0.639406
754.996	0.581795
757.889	0.189768
760.782	0.000896
763.674	0.623331
766.567	0.392305
769.46	0.62858
772.352	2.10968
775.245	1.34552
778.138	2.8901
781.03	4.11402
783.923	3.91972
786.816	4.82503
789.708	8.57306
792.601	12.6521
795.494	16.6464
798.387	19.1458
801.279	24.5024
804.172	29.3462
807.065	24.2295
809.957	12.7189
812.85	7.06538
815.743	5.38666
818.635	5.55042
821.528	2.29908
824.421	2.62939
827.314	2.54805
830.206	2.54356
833.099	2.78235
835.992	1.77196
838.884	1.88374
841.777	1.78442
844.67	1.35831
847.562	2.61349
850.455	2.46627
853.348	1.54604
856.241	2.39922
859.133	2.14104
862.026	1.3677
864.919	0.902212
867.811	1.38203
870.704	0.63225
873.597	0.333445
876.49	0.181236
879.382	1.63489
882.275	1.0171
885.168	1.4794
888.06	2.49307
890.953	2.50222
893.846	2.75088
896.738	2.59751
899.631	1.34419
902.524	2.8236
905.417	1.74486
908.309	3.04285
911.202	5.71347
914.095	4.7857
916.987	4.16513
919.88	2.48264
922.773	3.00198
925.665	2.50973
928.558	1.83004
931.451	2.45198
934.343	0.954233
937.236	1.80456
940.129	1.45701
943.022	1.48342
945.914	1.62193
948.807	1.29847
951.7	1.8913
954.592	1.3516
957.485	1.4725
960.378	0.822729
963.27	1.40126
966.163	1.06228
969.056	0.758835
971.949	0.116879
974.841	0.981461
977.734	1.21305
980.627	1.04502
983.519	0.372189
986.412	0.023966
989.305	0.122652
992.197	0.507807
995.09	0.824528
997.983	1.37202
1000.88	0.340982
1003.77	1.42073
1006.66	0.465582
1009.55	1.52504
1012.45	0.746826
1015.34	0.344669
1018.23	0.734541
1021.12	1.7194
1024.02	0.822474
1026.91	0.934742
1029.8	0.641113
1032.69	1.68027
1035.59	2.16507
1038.48	2.38414
1041.37	3.31929
1044.27	4.23814
1047.16	3.67415
1050.05	3.51937
1052.94	2.91216
1055.84	2.81786
1058.73	5.00123
1061.62	8.20151
1064.52	13.1633
1067.41	14.3028
1070.3	13.8517
1073.19	7.73996
1076.09	6.51089
1078.98	7.85718
1081.87	10.0815
1084.76	5.72009
1087.66	2.3931
1090.55	1.64213
1093.44	0.857439
1096.34	1.66799
1099.23	0.683264
1102.12	0.29475
1105.01	0.893227
1107.91	0.270081
1110.8	0.894655
1113.69	0.072344
1116.58	1.62747
1119.48	1.20577
1122.37	0.644697
1125.26	0.433161
1128.15	1.26542
1131.05	1.94158
1133.94	1.31058
1136.83	2.20539
1139.72	2.10636
1142.62	3.07182
1145.51	4.65427
1148.4	7.11866
1151.3	12.2347
1154.19	21.1297
1157.08	36.9177
1159.97	54.8745
1162.87	43.2331
1165.76	21.0684
1168.65	9.98352
1171.55	5.90832
1174.44	3.28036
1177.33	1.88159
1180.22	1.10333
1183.12	0.893553
1186.01	1.02127
1188.9	0.275585
1191.79	0.827032
1194.69	0.111078
1197.58	0.134504
1200.47	0.093327
1203.37	0.138821
1206.26	0.445459
1209.15	0.713045
1212.04	1.71395
1214.93	0.548851
1217.83	2.15366
1220.72	3.09893
1223.61	5.41811
1226.51	6.48398
1229.4	7.8755
1232.29	10.391
1235.18	8.62596
1238.08	7.13923
1240.97	6.26794
1243.86	4.56496
1246.76	2.47367
1249.65	1.13664
1252.54	1.35255
1255.43	1.75101
1258.33	1.89109
1261.22	0.692953
1264.11	1.15117
1267	0.333128
1269.9	1.6893
1272.79	1.78298
1275.68	1.52879
1278.58	1.526
1281.47	0.006763
1284.36	0.632261
