Measurement: Raman, 532 nm, unoriented, Raman Data Processed
Mineral: Quartz
Rruff sample: R100134
Ideal chemistry: SiO_2_
Locality: Sri Lanka
Source: William W. Pinch
Description: Transparent colorless cut gemstone
Raman shift (cm-1)	intensity
154.675	0
157.567	1.1192
160.46	2.28754
163.353	6.3418
166.245	63.0745
169.138	167.708
172.031	249.042
174.924	306.37
177.816	345.666
180.709	402.585
183.602	504.717
186.494	649.713
189.387	833.152
192.28	1053.62
195.173	1269.53
198.065	1504.19
200.958	1718.75
203.851	1837.24
206.743	1802.92
209.636	1636.18
212.529	1389.27
215.421	1098.53
218.314	840.386
221.207	643.016
224.1	506.947
226.992	389.953
229.885	304.998
232.778	241.99
235.67	188.315
238.563	152.281
241.456	126.745
244.348	117.436
247.241	114.988
250.134	111.23
253.026	108.561
255.919	116.511
258.812	139.201
261.705	198.479
264.597	276.166
267.49	177.876
270.383	55.0883
273.276	24.4854
276.168	8.46893
279.061	3.12457
281.954	3.65997
284.846	4.71863
287.739	1.50037
290.632	1.24145
293.524	4.10022
296.417	5.34448
299.31	2.83209
302.202	3.52441
305.095	0.976257
307.988	2.19513
310.881	4.98035
313.773	10.7447
316.666	10.5948
319.559	16.4748
322.451	18.4483
325.344	17.6071
328.237	18.9946
331.13	29.6169
334.022	33.6711
336.915	45.304
339.808	65.5113
342.7	80.3484
345.593	110.821
348.486	159.119
351.378	267.705
354.271	454.685
357.164	375.726
360.057	94.152
362.949	33.4682
365.842	12.7967
368.735	3.35651
371.627	2.73364
374.52	3.50311
377.413	0.96875
380.305	0.075562
383.198	1.72436
386.091	6.59155
388.984	20.13
391.876	35.5908
394.769	55.4669
397.662	95.4152
400.554	180.33
403.447	267.342
406.34	104.436
409.233	16.0821
412.125	0.487244
415.018	4.24756
417.911	0.451111
420.803	3.5072
423.696	3.89203
426.589	6.6676
429.481	14.9781
432.374	28.4684
435.267	48.5047
438.159	84.9102
441.052	140.859
443.945	257.695
446.838	488.808
449.73	860.822
452.623	1320.38
455.516	1976.03
458.409	3091.7
461.301	4866.88
464.194	6419.76
467.087	5117.05
469.979	2709.44
472.872	1455.05
475.765	880.241
478.657	599.803
481.55	433.68
484.443	312.539
487.336	239.64
490.228	191.874
493.121	159.94
496.014	133.736
498.906	118.06
501.799	109.664
504.692	120.626
507.584	174.149
510.477	146.907
513.37	67.499
516.263	44.1237
519.155	33.1383
522.048	25.1536
524.941	18.0836
527.833	19.4952
530.726	11.8543
533.619	7.27087
536.511	9.72681
539.404	4.66626
542.297	5.37231
545.19	5.49731
548.082	4.23828
550.975	4.58228
553.868	1.10834
556.76	1.67127
559.653	1.62939
562.546	4.44074
565.438	1.58221
568.331	0.101135
571.224	3.58289
574.117	2.15515
577.009	0.125183
579.902	0.607544
582.795	4.47119
585.687	7.87958
588.58	9.22552
591.473	9.97907
594.365	6.64972
597.258	9.10089
600.151	13.533
603.044	12.1573
605.936	2.31641
608.829	7.19946
611.722	5.36438
614.614	12.9506
617.507	10.6085
620.4	10.8348
623.293	11.1558
626.185	7.36151
629.078	11.0688
631.971	6.60986
634.863	5.13818
637.756	9.73767
640.649	12.0675
643.542	11.2869
646.434	9.77136
649.327	11.2889
652.22	4.58649
655.112	12.3538
658.005	13.6628
660.898	6.50671
663.79	8.56323
666.683	5.61798
669.576	6.14459
672.468	9.01184
675.361	6.48377
678.254	11.353
681.147	18.3809
684.039	25.6339
686.932	28.7109
689.825	40.6497
692.717	53.4987
695.61	72.9334
698.503	77.796
701.396	44.4924
704.288	28.6882
707.181	23.7515
710.074	15.9575
712.966	12.4526
715.859	4.60583
718.752	5.78296
721.644	1.59363
724.537	3.32263
727.43	2.26709
730.323	2.02173
733.215	1.52344
736.108	1.49817
739.001	1.505
741.893	0.340698
744.786	2.73303
747.679	0.584351
750.572	1.5614
753.464	0.447632
756.357	3.90124
759.25	1.96118
762.142	2.75745
765.035	8.97571
767.928	10.1113
770.82	2.85229
773.713	5.21594
776.606	3.32556
779.499	3.65625
782.391	8.55188
785.284	11.129
788.177	10.7347
791.069	16.342
793.962	23.9185
796.855	38.0931
799.747	54.3816
802.64	82.9949
805.533	124.187
808.426	167.874
811.318	122.974
814.211	60.689
817.104	30.8459
819.996	18.3269
822.889	16.4574
825.782	6.57581
828.674	1.99536
831.567	5.5094
834.46	0.052856
837.353	4.48853
840.245	1.22022
843.138	4.19214
846.031	3.72852
848.923	2.07165
851.816	3.13574
854.709	2.1134
857.601	5.46716
860.494	4.20142
863.387	1.11389
866.28	4.81897
869.172	1.81103
872.065	7.69678
874.958	5.66345
877.851	5.46057
880.743	7.84729
883.636	10.5902
886.529	8.28418
889.421	10.3002
892.314	10.3036
895.207	16.9078
898.099	13.9888
900.992	7.94543
903.885	11.4667
906.778	19.0946
909.67	18.1971
912.563	12.8231
915.456	14.3993
918.348	14.5126
921.241	17.6865
924.134	16.8446
927.026	15.1473
929.919	15.3155
932.812	15.9345
935.705	9.82568
938.597	8.7533
941.49	2.46008
944.383	1.84973
947.275	0.502197
950.168	0.148438
953.061	1.76074
955.953	3.03589
958.846	4.01514
961.739	2.39356
964.631	3.03333
967.524	4.83838
970.417	7.46863
973.31	3.53943
976.202	4.55615
979.095	3.94788
981.988	5.18677
984.88	0.699707
987.773	2.1698
990.666	7.80347
993.559	6.31897
996.451	0.661621
999.344	4.40942
1002.24	2.39148
1005.13	8.07202
1008.02	3.57788
1010.91	4.55371
1013.81	2.43262
1016.7	9.94873
1019.59	4.255
1022.49	3.33972
1025.38	1.97791
1028.27	8.24988
1031.16	2.51648
1034.06	0.192261
1036.95	9.88318
1039.84	3.3064
1042.73	2.03809
1045.63	2.46741
1048.52	4.61255
1051.41	2.42248
1054.31	6.77271
1057.2	2.12097
1060.09	2.21484
1062.98	2.75867
1065.88	2.3894
1068.77	3.21936
1071.66	12.6836
1074.55	14.5386
1077.45	27.1155
1080.34	42.5925
1083.23	40.1932
1086.12	25.658
1089.02	7.39795
1091.91	12.2637
1094.8	0.262817
1097.7	0.320557
1100.59	3.40234
1103.48	7.30286
1106.37	2.85791
1109.27	4.61743
1112.16	5.1134
1115.05	0.647461
1117.94	3.37085
1120.84	5.56006
1123.73	3.54272
1126.62	1.98157
1129.52	1.62781
1132.41	2.88843
1135.3	7.99707
1138.19	14.1434
1141.09	8.8053
1143.98	15.5739
1146.87	25.2944
1149.77	41.1963
1152.66	64.6222
1155.55	93.369
1158.44	109.284
1161.34	82.8929
1164.23	41.8824
1167.12	24.5244
1170.01	8.7323
1172.91	10.0442
1175.8	5.42041
1178.69	0.491211
1181.58	3.44214
1184.48	2.3667
1187.37	1.09802
1190.26	0.167847
1193.15	0.567993
1196.05	3.23938
1198.94	6.06274
1201.83	5.64136
1204.73	2.42383
1207.62	2.14771
1210.51	5.88916
1213.4	12.1727
1216.3	19.5491
1219.19	22.833
1222.08	37.3534
1224.97	51.1932
1227.87	66.0742
1230.76	64.0054
1233.65	50.5153
1236.55	34.2672
1239.44	19.7805
1242.33	13.9281
1245.22	12.829
1248.12	10.1952
1251.01	10.8993
1253.9	6.73059
1256.8	3.88794
1259.69	5.08789
1262.58	4.38318
1265.47	8.64368
1268.37	3.50159
1271.26	8.80469
1274.15	7.41553
1277.04	1.6554
1279.94	3.39441
1282.83	4.27197
1285.72	6.6322
1288.61	3.71021
1291.51	6.73022
1294.4	11.0371
1297.29	3.54932
1300.18	4.84168
