Measurement: Raman, 532 nm, unoriented, Raman Data Processed
Mineral: Quartz
Rruff sample: R040031
Ideal chemistry: SiO_2_
Locality: Spruce Claim, King County, Washington, USA
Source: Bob Downs
Description: Colorless hexagonal prism
Measured chemistry: Si_1.00_O_2_
Raman shift (cm-1)	intensity
113.173	0
116.548	33.8479
119.923	107.57
123.297	308.798
126.672	739.476
130.047	404.607
133.422	57.3404
136.797	18.6797
140.172	13.0653
143.546	13.9356
146.921	10.1803
150.296	1.13988
153.671	9.10541
157.046	9.97841
160.421	1.50406
163.795	19.5897
167.17	48.3675
170.545	83.5348
173.92	128.862
177.294	200.648
180.669	292.763
184.044	411.716
187.419	564.104
190.794	758.637
194.169	967.86
197.543	1183.57
200.918	1375.89
204.293	1450.5
207.668	1345.87
211.043	1129.78
214.417	875.916
217.792	643.842
221.167	475.528
224.542	356.223
227.917	266.157
231.292	204.096
234.666	157.549
238.041	125.338
241.416	106.136
244.791	107.412
248.166	102.432
251.541	106.95
254.915	111.278
258.29	135.741
261.665	205.377
265.04	254.081
268.415	88.5144
271.789	30.8254
275.164	15.1935
278.539	5.95857
281.914	2.84404
285.289	0.060822
288.663	1.43452
292.038	0.899574
295.413	3.22025
298.788	3.95973
302.163	2.57423
305.538	1.55799
308.912	0.444611
312.287	1.18112
315.662	1.35271
319.037	0.987434
322.412	0.661774
325.786	1.13299
329.161	2.27995
332.536	5.06525
335.911	18.6351
339.286	38.8084
342.661	58.7315
346.035	85.953
349.41	146.499
352.785	312.136
356.16	360.502
359.535	94.0825
362.909	34.8101
366.284	18.618
369.659	9.73769
373.034	5.59523
376.409	5.84501
379.784	3.63759
383.158	5.8619
386.533	13.2933
389.908	29.3966
393.283	61.66
396.658	28.5945
400.032	41.1852
403.407	48.5457
406.782	4.1105
410.157	6.21108
413.532	4.22265
416.906	1.76472
420.281	1.898
423.656	6.13894
427.031	14.5992
430.406	24.918
433.781	47.5756
437.155	83.2918
440.53	157.829
443.905	313.826
447.28	641.742
450.655	1029.23
454.029	1549.26
457.404	2464.48
460.779	4047.82
464.154	5103.19
467.529	3167.84
470.904	1456.76
474.278	785.911
477.653	490.347
481.028	335.772
484.403	240.028
487.778	183.413
491.152	143.695
494.527	119.481
497.902	106.512
501.277	101.7
504.652	129.666
508.026	175.597
511.401	85.7405
514.776	40.0393
518.151	26.8701
521.526	18.0647
524.901	15.3372
528.275	9.40567
531.65	8.13253
535.025	8.2662
538.4	5.67782
541.775	3.89819
545.149	4.14772
548.524	2.66672
551.899	1.40253
555.274	0.802971
558.649	2.57969
562.024	2.00369
565.398	2.04156
568.773	0.351463
572.148	0.068321
575.523	0.048119
578.898	2.64177
582.273	4.23247
585.647	7.45418
589.022	6.35924
592.397	8.67351
595.772	8.4917
599.146	10.1238
602.521	6.92767
605.896	7.06596
609.271	4.69563
612.646	8.66708
616.021	5.90127
619.395	3.27001
622.77	4.62507
626.145	5.55022
629.52	3.55097
632.895	3.31232
636.269	2.36986
639.644	4.88609
643.019	6.15777
646.394	4.26971
649.769	1.59833
653.144	1.83624
656.518	2.20412
659.893	1.21648
663.268	2.3478
666.643	2.34306
670.018	0.57515
673.393	2.15807
676.767	3.9127
680.142	6.17915
683.517	10.7396
686.892	13.0126
690.266	17.6247
693.641	27.5261
697.016	27.4135
700.391	17.0838
703.766	10.2225
707.141	3.82637
710.515	3.7782
713.89	3.46007
717.265	0.985725
720.64	1.53633
724.015	1.67984
727.389	0.906212
730.764	0.461205
734.139	0.492439
737.514	0.097816
740.889	1.2841
744.264	0.054832
747.638	0.508224
751.013	0.860756
754.388	0.159134
757.763	1.31795
761.138	0.961868
764.513	1.91067
767.887	0.268509
771.262	2.69719
774.637	1.50629
778.012	5.63628
781.387	5.85421
784.761	8.20043
788.136	12.345
791.511	21.7301
794.886	33.2752
798.261	49.7354
801.635	72.0555
805.01	116.138
808.385	151.401
811.76	94.5172
815.135	43.2361
818.51	22.1563
821.884	15.9791
825.259	9.44073
828.634	6.08006
832.009	5.58364
835.384	6.40995
838.758	8.714
842.133	7.80557
845.508	7.30926
848.883	7.35905
852.258	3.98869
855.633	3.75794
859.007	3.135
862.382	1.56408
865.757	1.63534
869.132	0.516594
872.507	0.27298
875.881	1.94749
879.256	2.02673
882.631	1.9949
886.006	3.57914
889.381	4.0863
892.755	5.03593
896.13	6.12054
899.505	3.07408
902.88	4.09492
906.255	3.73259
909.63	4.58551
913.004	3.26658
916.379	3.01588
919.754	5.39363
923.129	2.75378
926.504	2.95387
929.879	2.43069
933.253	1.87206
936.628	0.668053
940.003	0.019623
943.378	0.25267
946.753	1.93286
950.127	2.26114
953.502	1.91783
956.877	0.340508
960.252	1.92161
963.627	1.75237
967.001	1.08726
970.376	1.54136
973.751	0.270332
977.126	1.34983
980.501	0.515152
983.875	0.822021
987.25	0.560051
990.625	2.06678
994	1.59014
997.375	0.023003
1000.75	0.476242
1004.12	1.04191
1007.5	1.19415
1010.87	2.22787
1014.25	0.601738
1017.62	1.54193
1021	0.00267
1024.37	2.21962
1027.75	1.84399
1031.12	4.43926
1034.5	1.72004
1037.87	3.72525
1041.25	1.6235
1044.62	1.36658
1048	3.66769
1051.37	2.24432
1054.75	6.1526
1058.12	5.81409
1061.5	10.3821
1064.87	11.8691
1068.25	20.0302
1071.62	32.8145
1075	52.8545
1078.37	90.6212
1081.74	126.864
1085.12	72.8943
1088.49	29.9758
1091.87	14.482
1095.24	10.2668
1098.62	7.10849
1101.99	3.80714
1105.37	3.87608
1108.74	3.65674
1112.12	2.94096
1115.49	0.01181
1118.87	1.16023
1122.24	0.126915
1125.62	0.441376
1128.99	0.08078
1132.37	0.923653
1135.74	1.81435
1139.12	2.87901
1142.49	4.47462
1145.87	9.59351
1149.24	13.9613
1152.62	23.3198
1155.99	38.2712
1159.37	49.3237
1162.74	34.9527
1166.12	17.1183
1169.49	9.07337
1172.87	3.70664
1176.24	3.00442
1179.62	0.381538
1182.99	0.008171
1186.37	0.513069
1189.74	2.43626
1193.11	1.10258
1196.49	0.285889
1199.86	1.94016
1203.24	0.723282
1206.61	2.03354
1209.99	1.87881
1213.36	3.34357
1216.74	2.66726
1220.11	5.06102
1223.49	6.57644
1226.86	10.8213
1230.24	9.81683
1233.61	8.23936
1236.99	6.23731
1240.36	5.32135
1243.74	3.84287
1247.11	2.40021
1250.49	4.8728
1253.86	3.46405
1257.24	2.43491
1260.61	4.15646
1263.98	2.08245
1267.36	1.50182
1270.73	3.12493
1274.11	2.40888
1277.48	4.72993
1280.86	4.09994
1284.23	2.09087
1287.61	1.99705
