Measurement: Raman, 780 nm, unoriented, Raman Data Processed
Mineral: Quartz
Rruff sample: X080015
Ideal chemistry: SiO_2_
Locality: Synthetic
Source: Gemological Institute of America
Description: Faceted amethyst gemstone, 4.89 ct
Raman shift (cm-1)	intensity
94.7474	0
98.1222	1.46339
101.497	1.56596
104.872	0.899971
108.247	28.171
111.621	58.3428
114.996	79.8985
118.371	145.046
121.746	275.893
125.121	639.904
128.496	1365.13
131.87	596.813
135.245	147.198
138.62	59.6648
141.995	39.7912
145.37	32.0523
148.744	22.5924
152.119	10.9241
155.494	0.719444
158.869	4.99947
162.244	2.45341
165.619	10.7561
168.994	25.7213
172.368	44.0341
175.743	75.0289
179.118	115.518
182.493	171.078
185.868	245.26
189.242	343.653
192.617	470.79
195.992	626.155
199.367	792.909
202.742	940.844
206.117	1000.04
209.491	921.19
212.866	765.351
216.241	577.85
219.616	412.383
222.991	296.479
226.365	216.69
229.74	161.044
233.115	120.94
236.49	90.8769
239.865	68.8816
243.239	56.9353
246.614	51.1688
249.989	47.1821
253.364	41.5147
256.739	41.8942
260.114	54.6554
263.488	95.2012
266.863	92.5184
270.238	25.0566
273.613	6.07834
276.988	0.639931
280.363	2.13875
283.737	1.0002
287.112	2.32741
290.487	0.683884
293.862	2.77755
297.237	0.317616
300.611	0.711031
303.986	0.648046
307.361	1.21915
310.736	3.06598
314.111	4.62795
317.486	7.75475
320.86	7.19454
324.235	8.47463
327.61	10.1844
330.985	10.3401
334.36	13.2154
337.734	22.7646
341.109	31.9584
344.484	39.1901
347.859	56.3833
351.234	102.193
354.608	234.537
357.983	168.119
361.358	30.4695
364.733	8.40014
368.108	2.91262
371.483	0.974855
374.857	0.010721
378.232	5.00503
381.607	6.76123
384.982	13.3977
388.357	27.9786
391.731	79.5017
395.106	142.331
398.481	37.1183
401.856	49.025
405.231	41.1685
408.606	2.37275
411.98	2.80735
415.355	2.93401
418.73	1.82252
422.105	0.33952
425.48	3.08525
428.854	7.11856
432.229	13.4325
435.604	25.8624
438.979	46.4788
442.354	87.504
445.729	174.441
449.103	347.64
452.478	545.114
455.853	853.223
459.228	1513.57
462.603	2804.89
465.978	3428.61
469.352	1845.79
472.727	847.952
476.102	471.765
479.477	302.247
482.852	218.379
486.226	173.043
489.601	129.874
492.976	90.5251
496.351	67.9655
499.726	51.2779
503.101	43.6684
506.475	35.442
509.85	31.7739
513.225	34.8602
516.6	48.6933
519.975	38.3986
523.349	18.0945
526.724	10.9735
530.099	10.0832
533.474	7.85086
536.849	5.93433
540.223	4.41728
543.598	3.5095
546.973	3.69876
550.348	1.45027
553.723	0.17668
557.098	1.16637
560.472	1.34719
563.847	2.41511
567.222	0.947416
570.597	0.885447
573.972	1.4376
577.346	1.13308
580.721	2.1998
584.096	5.28024
587.471	5.49747
590.846	4.93882
594.221	5.3586
597.596	5.81665
600.97	4.00601
604.345	4.53443
607.72	4.31388
611.095	4.40095
614.47	4.13114
617.844	3.12027
621.219	3.43454
624.594	2.50521
627.969	1.68529
631.344	1.1957
634.718	0.914404
638.093	1.43412
641.468	1.5315
644.843	2.40442
648.218	1.53153
651.592	2.44192
654.967	1.35009
658.342	1.32107
661.717	1.07081
665.092	1.06844
668.467	0.005688
671.841	0.308332
675.216	2.38823
678.591	2.47253
681.966	5.72093
685.341	8.81894
688.716	12.8816
692.09	21.1594
695.465	35.4125
698.84	31.165
702.215	16.0933
705.59	8.21537
708.965	4.65256
712.339	2.85632
715.714	3.14587
719.089	2.69034
722.464	1.46042
725.839	2.13437
729.213	1.5368
732.588	1.2301
735.963	1.5454
739.338	0.267481
742.713	0.604584
746.087	0.850026
749.462	0.183994
752.837	0.767066
756.212	0.473949
759.587	0.420492
762.962	0.954809
766.336	0.904882
769.711	1.05384
773.086	0.170078
776.461	1.99459
779.836	3.15846
783.21	4.49783
786.585	6.34405
789.96	7.40466
793.335	14.6926
796.71	19.5495
800.085	22.5534
803.459	30.7405
806.834	51.8323
810.209	55.8026
813.584	28.1822
816.959	14.5983
820.333	9.3555
823.708	5.95963
827.083	4.19997
830.458	4.26397
833.833	2.18569
837.208	3.71625
840.582	2.70507
843.957	3.47766
847.332	2.82867
850.707	2.65493
854.082	2.58926
857.457	2.35213
860.831	1.2505
864.206	1.54566
867.581	1.17614
870.956	0.708031
874.331	1.5284
877.705	0.491892
881.08	0.241482
884.455	1.34217
887.83	2.50863
891.205	2.02112
894.58	1.60551
897.954	1.84398
901.329	2.58036
904.704	2.25835
908.079	1.24314
911.454	2.79629
914.828	3.38912
918.203	3.74258
921.578	1.80345
924.953	2.73434
928.328	1.45902
931.702	0.631729
935.077	1.70304
938.452	0.365468
941.827	0.825983
945.202	0.221272
948.577	0.839531
951.951	1.23733
955.326	0.735356
958.701	0.445159
962.076	0.400332
965.451	0.447108
968.826	0.290383
972.2	0.955711
975.575	0.089611
978.95	0.655651
982.325	0.177447
985.7	0.338511
989.074	0.275379
992.449	0.195565
995.824	0.224538
999.199	1.04767
1002.57	1.22592
1005.95	0.415677
1009.32	0.830553
1012.7	1.21569
1016.07	0.307817
1019.45	0.656346
1022.82	0.996417
1026.2	1.13076
1029.57	1.77508
1032.95	4.66185
1036.32	2.11888
1039.7	4.59126
1043.07	7.7325
1046.45	10.7614
1049.82	6.49164
1053.2	3.62274
1056.57	4.15788
1059.95	4.0388
1063.32	8.27819
1066.69	10.2817
1070.07	8.13689
1073.44	9.26243
1076.82	12.0173
1080.19	20.3815
1083.57	26.0378
1086.94	10.8661
1090.32	5.11865
1093.69	2.55977
1097.07	1.71836
1100.44	0.667003
1103.82	1.78911
1107.19	0.284676
1110.57	0.123549
1113.94	0.448865
1117.32	1.19776
1120.69	0.509151
1124.07	2.12879
1127.44	2.62784
1130.82	2.72387
1134.19	0.932505
1137.57	2.03883
1140.94	4.39008
1144.32	4.81195
1147.69	9.20178
1151.07	16.3737
1154.44	28.1944
1157.82	49.0838
1161.19	63.4725
1164.57	43.0885
1167.94	17.5175
1171.32	7.1299
1174.69	4.53731
1178.06	2.62554
1181.44	1.48688
1184.81	2.50764
1188.19	1.5766
1191.56	0.194625
1194.94	1.21293
1198.31	1.40589
1201.69	1.35591
1205.06	0.771536
1208.44	0.588344
1211.81	0.754842
1215.19	0.718451
1218.56	1.1817
1221.94	0.677596
1225.31	0.948013
1228.69	1.13923
1232.06	1.5191
1235.44	0.836444
1238.81	2.54894
1242.19	0.684652
1245.56	0.366912
1248.93	0.642011
1252.31	1.80648
1255.68	1.73616
1259.06	1.70748
1262.43	1.05591
1265.81	1.24286
1269.18	0.961792
1272.56	0.896109
1275.93	0.895764
1279.31	1.3596
1282.68	1.78955
1286.06	0.484755
