Measurement: Raman, 780 nm, unoriented, Raman Data Processed
Mineral: Quartz
Rruff sample: R150074
Ideal chemistry: SiO_2_
Locality: Selvino, Bergamo, Italy
Source: UAMM 9180
Description: Colorless doubly terminated crystals
Raman shift (cm-1)	intensity
94.9347	0
98.3096	10.796
101.684	14.4934
105.059	0.976074
108.434	13.2301
111.809	19.2697
115.184	42.4563
118.558	102.993
121.933	223.521
125.308	537.112
128.683	1198
132.058	695.786
135.433	163.452
138.807	63.1068
142.182	42.7285
145.557	32.5396
148.932	22.5264
152.307	9.47826
155.681	0.185074
159.056	9.98956
162.431	2.45558
165.806	9.76628
169.181	31.6676
172.555	59.4382
175.93	93.2224
179.305	142.411
182.68	212.757
186.055	294.478
189.43	417.939
192.804	575.534
196.179	774.986
199.554	997.763
202.929	1194.37
206.304	1292.12
209.678	1222.35
213.053	1041.46
216.428	803.073
219.803	580.865
223.178	419.142
226.553	314.828
229.927	233.664
233.302	177.757
236.677	135.078
240.052	108.258
243.427	86.4332
246.801	80.4408
250.176	73.0524
253.551	65.7729
256.926	69.2114
260.301	86.9611
263.675	141.508
267.05	176.461
270.425	61.4897
273.8	18.2387
277.175	7.76983
280.55	2.51511
283.924	0.348686
287.299	2.05489
290.674	2.07455
294.049	2.36384
297.424	2.12569
300.798	0.903099
304.173	0.57003
307.548	0.247002
310.923	0.470421
314.298	3.10503
317.673	4.81776
321.047	7.51864
324.422	7.54513
327.797	7.22804
331.172	10.4754
334.547	12.6609
337.921	19.9571
341.296	29.2218
344.671	38.3446
348.046	60.6028
351.421	113.228
354.796	272.628
358.17	284.196
361.545	57.2963
364.92	14.0019
368.295	4.62049
371.67	0.685036
375.044	0.67804
378.419	2.04356
381.794	2.67545
385.169	8.84732
388.544	23.3704
391.918	76.8338
395.293	172.75
398.668	47.0022
402.043	29.1195
405.418	33.7516
408.793	2.82272
412.167	2.80994
415.542	4.28571
418.917	0.836128
422.292	1.07934
425.667	3.44911
429.041	7.87929
432.416	15.6146
435.791	27.0536
439.166	49.7003
442.541	91.3813
445.915	177.801
449.29	340.341
452.665	555.463
456.04	911.845
459.415	1654.25
462.789	3144.24
466.164	4384.81
469.539	2741.15
472.914	1251.36
476.289	661.596
479.664	409.483
483.038	280.417
486.413	199.732
489.788	150.774
493.163	116.67
496.538	91.8073
499.913	74.2661
503.287	66.0845
506.662	77.3779
510.037	126.651
513.412	66.4909
516.787	32.6748
520.161	22.4242
523.536	17.6467
526.911	13.4241
530.286	9.84096
533.661	9.39472
537.035	6.79336
540.41	5.71618
543.785	4.48876
547.16	2.91652
550.535	2.57658
553.909	0.47554
557.284	0.900242
560.659	1.84894
564.034	1.94894
567.409	1.22215
570.784	1.10198
574.158	0.840458
577.533	0.207516
580.908	0.982002
584.283	2.13828
587.658	2.35865
591.033	4.24162
594.407	5.32431
597.782	5.48488
601.157	4.94399
604.532	5.71016
607.907	5.52732
611.281	4.76233
614.656	5.18106
618.031	5.56506
621.406	5.54419
624.781	4.63163
628.155	3.526
631.53	3.53621
634.905	2.8576
638.28	3.3029
641.655	2.96524
645.029	3.37785
648.404	2.47438
651.779	1.88985
655.154	2.39876
658.529	2.18255
661.904	0.819462
665.278	0.131775
668.653	0.740955
672.028	0.614784
675.403	2.99373
678.778	2.76357
682.153	5.48011
685.527	7.17316
688.902	11.7034
692.277	20.4613
695.652	32.7847
699.027	31.9364
702.401	16.6303
705.776	8.66148
709.151	5.74702
712.526	4.68363
715.901	3.02139
719.275	2.75319
722.65	1.41915
726.025	1.69718
729.4	0.895123
732.775	0.623768
736.149	0.647907
739.524	0.165462
742.899	0.297146
746.274	0.251404
749.649	0.495438
753.024	0.028763
756.398	0.54652
759.773	0.82172
763.148	0.152332
766.523	0.725437
769.898	0.422951
773.273	1.28319
776.647	1.75728
780.022	2.28121
783.397	3.22156
786.772	6.02464
790.146	9.00194
793.521	12.6999
796.896	18.4338
800.271	23.9357
803.646	35.8587
807.021	67.0275
810.395	93.8496
813.77	54.8132
817.145	25.1107
820.52	14.189
823.895	8.69144
827.269	7.16935
830.644	5.70897
834.019	5.13917
837.394	4.88506
840.769	4.92139
844.144	4.6735
847.518	3.67949
850.893	4.86321
854.268	3.38203
857.643	3.21575
861.018	3.21995
864.393	1.69945
867.767	1.85828
871.142	0.396088
874.517	0.01358
877.892	0.328808
881.266	0.037022
884.641	1.43731
888.016	1.50851
891.391	2.24771
894.766	1.32382
898.141	1.09458
901.515	1.71195
904.89	0.293072
908.265	0.419647
911.64	0.199894
915.015	1.3307
918.389	1.78271
921.764	1.56507
925.139	2.36867
928.514	1.66899
931.889	0.309261
935.264	0.377766
938.638	0.309429
942.013	0.2383
945.388	0.27589
948.763	0.434963
952.138	1.16617
955.512	0.949055
958.887	1.58245
962.262	0.433315
965.637	1.17494
969.012	0.509327
972.386	0.0924
975.761	0.033573
979.136	0.336964
982.511	0.361834
985.886	0.499924
989.261	0.170721
992.635	0.053841
996.01	0.456753
999.385	0.183941
1002.76	0.250223
1006.13	1.55873
1009.51	0.589928
1012.88	1.45598
1016.26	0.809334
1019.63	1.37792
1023.01	1.09566
1026.38	1.20621
1029.76	1.3939
1033.13	2.37336
1036.51	2.59711
1039.88	2.8691
1043.26	3.2751
1046.63	2.51146
1050.01	1.97522
1053.38	2.83148
1056.76	3.08499
1060.13	4.11762
1063.51	5.74164
1066.88	8.64181
1070.26	8.40644
1073.63	9.24012
1077.01	15.1501
1080.38	25.6878
1083.76	38.6354
1087.13	21.0535
1090.51	8.814
1093.88	4.26228
1097.26	3.17731
1100.63	1.18624
1104	0.431278
1107.38	1.18555
1110.75	0.263496
1114.13	0.973137
1117.5	1.14692
1120.88	2.64864
1124.25	0.607788
1127.63	0.255569
1131	0.537493
1134.38	0.09358
1137.75	1.6411
1141.13	2.5051
1144.5	3.83505
1147.88	6.32548
1151.25	12.6638
1154.63	21.1871
1158	37.7143
1161.38	55.7008
1164.75	44.2984
1168.13	20.501
1171.5	8.78485
1174.88	4.57489
1178.25	1.91013
1181.62	1.50186
1185	1.50531
1188.38	0.736015
1191.75	0.699947
1195.12	0.73616
1198.5	0.495567
1201.87	0.610834
1205.25	0.131926
1208.62	0.559748
1212	0.250891
1215.37	0.795019
1218.75	1.45439
1222.12	2.15436
1225.5	4.0345
1228.87	5.77719
1232.25	6.13238
1235.62	4.47801
1239	2.70944
1242.37	2.38744
1245.75	1.51477
1249.12	1.49536
1252.5	0.307756
1255.87	1.28185
1259.25	0.306084
1262.62	0.278692
1265.99	0.74518
1269.37	0.543203
1272.74	0.263779
1276.12	0.463375
1279.49	1.28244
1282.87	0.163509
