Measurement: Raman, 532 nm, unoriented, Raman Data Processed
Mineral: Quartz
Rruff sample: X080015
Ideal chemistry: SiO_2_
Locality: Synthetic
Source: Gemological Institute of America
Description: Faceted amethyst gemstone, 4.89 ct
Raman shift (cm-1)	intensity
91.0078	0
94.3826	5.97185
97.7575	15.2564
101.132	8.34447
104.507	2.57485
107.882	1.87543
111.257	34.9923
114.632	77.1555
118.006	118.659
121.381	206.247
124.756	484.802
128.131	1019.66
131.506	498.359
134.88	134.709
138.255	76.5366
141.63	68.1563
145.005	61.1251
148.38	49.4628
151.755	35.1725
155.129	23.0724
158.504	11.192
161.879	15.5193
165.254	23.7987
168.629	39.5455
172.003	65.5723
175.378	100.464
178.753	157.42
182.128	237.008
185.503	344.886
188.877	493.703
192.252	682.071
195.627	905.338
199.002	1134.96
202.377	1330.5
205.752	1391.37
209.126	1277.82
212.501	1057.66
215.876	802.625
219.251	577.222
222.626	416.992
226	305.269
229.375	219.536
232.75	156.388
236.125	116.812
239.5	88.3104
242.875	68.6966
246.249	63.02
249.624	65.8825
252.999	67.1468
256.374	82.1869
259.749	121.552
263.123	204.732
266.498	198.349
269.873	49.3712
273.248	9.15231
276.623	1.99029
279.998	3.58867
283.372	4.77964
286.747	4.6917
290.122	3.77463
293.497	2.67291
296.872	1.3988
300.247	0.271538
303.621	1.22258
306.996	1.11619
310.371	4.76196
313.746	5.55465
317.12	6.76584
320.495	6.45338
323.87	9.83556
327.245	8.12383
330.62	8.58158
333.995	10.3004
337.369	13.7927
340.744	29.2145
344.119	45.1404
347.494	68.2837
350.869	129.774
354.243	262.939
357.618	254.759
360.993	63.3907
364.368	25.3955
367.743	14.3863
371.118	7.55838
374.492	3.91773
377.867	1.51273
381.242	2.00497
384.617	2.69971
387.992	13.6634
391.366	36.7381
394.741	69.0269
398.116	59.4959
401.491	109.572
404.866	106.85
408.241	12.5508
411.615	0.854294
414.99	1.00539
418.365	2.90871
421.74	3.20681
425.115	1.80316
428.49	5.95433
431.864	12.9924
435.239	31.4589
438.614	65.2217
441.989	130.938
445.364	254.13
448.738	518.716
452.113	959.218
455.488	1554.24
458.863	2678.3
462.238	4395.8
465.613	5298.59
468.987	2986.58
472.362	1381.97
475.737	760.801
479.112	487.972
482.486	350.138
485.861	282.149
489.236	214.904
492.611	145.09
495.986	109.736
499.361	90.8551
502.735	86.4177
506.11	77.3856
509.485	71.1291
512.86	80.1044
516.235	106.514
519.61	80.4018
522.984	37.7691
526.359	25.5643
529.734	22.4686
533.109	15.8294
536.484	12.3114
539.859	9.49877
543.233	6.3441
546.608	5.70126
549.983	2.77299
553.358	0.122986
556.732	2.57333
560.107	2.65192
563.482	3.81337
566.857	2.60199
570.232	0.662827
573.607	1.10531
576.981	4.84331
580.356	11.2273
583.731	17.5192
587.106	20.1783
590.481	20.3856
593.856	21.8833
597.23	22.6128
600.605	21.0757
603.98	18.3445
607.355	15.8597
610.73	14.9075
614.104	13.3502
617.479	9.81494
620.854	7.28331
624.229	4.26299
627.604	2.9317
630.979	2.92835
634.353	3.16096
637.728	2.48144
641.103	3.22201
644.478	2.90162
647.852	2.58783
651.227	3.51515
654.602	2.73536
657.977	3.21987
661.352	3.57083
664.727	2.02274
668.101	0.475506
671.476	0.338806
674.851	0.422642
678.226	1.84805
681.601	5.03605
684.976	9.72114
688.35	16.3703
691.725	28.4371
695.1	45.4638
698.475	47.7957
701.85	25.4969
705.224	13.1139
708.599	10.8698
711.974	7.63019
715.349	7.15703
718.724	5.31897
722.098	3.7035
725.473	3.6515
728.848	2.17794
732.223	2.33903
735.598	1.69708
738.973	1.55933
742.347	2.28803
745.722	2.13881
749.097	1.01839
752.472	0.571953
755.847	0.810013
759.221	0.32547
762.596	0.103825
765.971	0.274239
769.346	0.567215
772.721	2.01054
776.096	2.63101
779.47	6.32096
782.845	9.88981
786.22	16.462
789.595	26.7508
792.97	40.7443
796.345	59.8965
799.719	65.1919
803.094	84.5102
806.469	126.311
809.844	133.519
813.219	65.6948
816.593	34.6321
819.968	19.4826
823.343	13.7257
826.718	9.46967
830.093	7.36089
833.467	6.52617
836.842	5.84195
840.217	5.60608
843.592	5.32353
846.967	3.58541
850.342	4.07557
853.716	3.81218
857.091	1.50058
860.466	1.38298
863.841	0.277893
867.216	0.170364
870.591	0.071995
873.965	0.139168
877.34	1.92117
880.715	1.21131
884.09	2.96732
887.465	3.45491
890.839	3.66195
894.214	4.58653
897.589	4.19904
900.964	2.44207
904.339	3.93
907.713	5.06964
911.088	8.08202
914.463	8.09536
917.838	6.143
921.213	4.65768
924.587	3.33723
927.962	1.81222
931.337	1.11857
934.712	0.419701
938.087	0.134068
941.462	1.11097
944.836	0.735504
948.211	2.1012
951.586	1.97485
954.961	2.43714
958.336	1.08524
961.711	1.83245
965.085	0.510162
968.46	1.39183
971.835	1.34723
975.21	1.53789
978.585	0.034142
981.959	0.037724
985.334	0.027729
988.709	0.378143
992.084	0.522297
995.459	0.655029
998.833	0.200333
1002.21	0.236267
1005.58	0.038334
1008.96	1.14374
1012.33	1.4611
1015.71	2.86484
1019.08	4.48929
1022.46	5.6885
1025.83	9.68359
1029.21	15.7404
1032.58	27.571
1035.96	50.6488
1039.33	85.0458
1042.71	136.367
1046.08	163.939
1049.46	109.14
1052.83	59.0495
1056.2	41.727
1059.58	35.4772
1062.95	33.9284
1066.33	36.5209
1069.7	30.9825
1073.08	37.3511
1076.45	52.2559
1079.83	86.2219
1083.2	109.406
1086.58	49.4241
1089.95	18.0543
1093.33	7.75755
1096.7	3.54788
1100.08	1.61519
1103.45	0.018684
1106.83	0.776512
1110.2	0.236675
1113.58	1.95066
1116.95	2.37959
1120.33	6.25177
1123.7	10.6804
1127.08	17.526
1130.45	16.0566
1133.83	9.53911
1137.2	7.64538
1140.58	7.37148
1143.95	7.99956
1147.33	11.9795
1150.7	23.9353
1154.08	41.64
1157.45	72.8928
1160.83	78.5326
1164.2	45.469
1167.57	18.1309
1170.95	7.87926
1174.32	3.44473
1177.7	0.870075
1181.07	0.17305
1184.45	0.092739
1187.82	1.00405
1191.2	0.727459
1194.57	0.682785
1197.95	2.22066
1201.32	1.51952
1204.7	0.6392
1208.07	1.31006
1211.45	1.20118
1214.82	1.12661
1218.2	0.421131
1221.57	0.019995
1224.95	4.67095
1228.32	0.522476
1231.7	1.64964
1235.07	0.096094
1238.44	0.73819
1241.82	0.427517
1245.19	0.377773
1248.57	0.865211
1251.94	1.53565
1255.32	2.01125
1258.69	1.44072
1262.07	1.25263
1265.44	2.07983
1268.82	2.23159
1272.19	1.53107
1275.57	0.615627
1278.94	1.4719
1282.32	0.715479
1285.69	2.36338
1289.07	2.65107
1292.44	1.03762
1295.82	0.723213
1299.19	2.05744
1302.57	0.187634
