Measurement: Raman, 780 nm, unoriented, Raman Data Processed
Mineral: Quartz
Rruff sample: R040031
Ideal chemistry: SiO_2_
Locality: Spruce Claim, King County, Washington, USA
Source: Bob Downs
Description: Colorless hexagonal prism
Measured chemistry: Si_1.00_O_2_
Raman shift (cm-1)	intensity
108.974	0
112.348	9.58536
115.723	55.6836
119.098	125.761
122.473	252.833
125.848	570.072
129.222	493.651
132.597	106.375
135.972	25.622
139.347	11.934
142.722	5.63903
146.096	5.58821
149.471	0.808197
152.846	2.73667
156.221	4.87594
159.596	2.00386
162.971	8.81438
166.345	22.0058
169.72	39.8132
173.095	61.1951
176.47	96.7316
179.845	142.65
183.22	196.444
186.594	264.41
189.969	343.077
193.344	441.711
196.719	535.869
200.094	623.726
203.468	677.338
206.843	644.259
210.218	559.309
213.593	434.153
216.968	323.04
220.343	232.414
223.717	170.904
227.092	130.912
230.467	99.7313
233.842	79.3684
237.217	58.6364
240.591	53.26
243.966	52.2824
247.341	53.7782
250.716	54.9337
254.091	56.6087
257.466	68.0228
260.84	101.249
264.215	156.146
267.59	73.9776
270.965	21.3803
274.34	9.42925
277.714	4.30135
281.089	0.662693
284.464	0.015388
287.839	0.001383
291.214	0.619864
294.589	1.45666
297.963	1.66982
301.338	1.0426
304.713	0.775482
308.088	0.177658
311.463	0.135038
314.837	1.41765
318.212	0.308237
321.587	2.87463
324.962	2.46953
328.337	4.56292
331.712	4.98585
335.086	13.6829
338.461	20.7678
341.836	24.8288
345.211	35.6881
348.586	56.6429
351.96	109.907
355.335	179.901
358.71	51.2259
362.085	12.9118
365.46	4.73299
368.834	1.12482
372.209	0.674112
375.584	5.15897
378.959	3.99012
382.334	8.07746
385.709	14.3957
389.083	27.0547
392.458	65.9548
395.833	36.3863
399.208	20.4605
402.583	32.3588
405.957	7.61625
409.332	1.87997
412.707	2.5293
416.082	1.87366
419.457	1.75003
422.832	3.45678
426.206	6.51377
429.581	11.7762
432.956	21.1324
436.331	37.1083
439.706	72.8849
443.08	148.626
446.455	286.421
449.83	424.595
453.205	601.044
456.58	922.108
459.954	1500.99
463.329	2226.72
466.704	1738.85
470.079	804.685
473.454	411.397
476.829	249.134
480.203	164.587
483.578	116.529
486.953	84.5947
490.328	70.1702
493.703	57.8931
497.077	49.0837
500.452	46.7211
503.827	56.1084
507.202	88.4656
510.577	61.9055
513.952	24.0987
517.326	14.9603
520.701	11.3056
524.076	7.58548
527.451	6.77426
530.826	5.14815
534.2	4.68211
537.575	3.14581
540.95	1.0883
544.325	2.13894
547.7	1.07227
551.074	1.10969
554.449	0.421253
557.824	1.20128
561.199	0.983835
564.574	0.713875
567.949	0.096485
571.323	1.40801
574.698	1.16831
578.073	1.5306
581.448	1.11718
584.823	1.29195
588.197	3.32063
591.572	2.86247
594.947	3.14253
598.322	5.09721
601.697	3.37949
605.072	3.15165
608.446	2.98965
611.821	4.14538
615.196	2.51877
618.571	2.42609
621.946	2.76253
625.32	2.38765
628.695	2.5472
632.07	2.19692
635.445	0.765572
638.82	2.67057
642.194	2.04198
645.569	1.89383
648.944	2.35437
652.319	2.50853
655.694	0.984328
659.069	0.670143
662.443	1.10828
665.818	0.044487
669.193	0.389407
672.568	0.826775
675.943	2.88352
679.317	3.81625
682.692	6.17887
686.067	7.28544
689.442	11.3124
692.817	15.6522
696.192	18.4287
699.566	12.2147
702.941	4.9263
706.316	3.63794
709.691	3.04719
713.066	2.14565
716.441	0.935011
719.815	0.790065
723.19	1.59209
726.565	0.762633
729.94	0.459558
733.315	1.45905
736.689	1.13852
740.064	0.034723
743.439	1.63301
746.814	0.64617
750.189	0.146003
753.563	0.785019
756.938	0.172641
760.313	0.57187
763.688	1.23608
767.063	0.180696
770.438	1.19538
773.812	1.36865
777.187	2.18211
780.562	2.66199
783.937	3.88448
787.312	5.45111
790.687	9.91195
794.061	15.8761
797.436	21.0289
800.811	29.1156
804.186	45.6921
807.561	68.6152
810.935	53.154
814.31	24.1612
817.685	12.4085
821.06	7.3964
824.435	4.5227
827.809	3.81929
831.184	3.32897
834.559	3.96496
837.934	3.85431
841.309	3.50027
844.683	3.61069
848.058	2.75549
851.433	3.81704
854.808	1.32197
858.183	1.40081
861.558	2.41548
864.932	0.14983
868.307	0.560471
871.682	0.805576
875.057	0.633032
878.432	0.189728
881.807	0.850714
885.181	1.70792
888.556	1.09112
891.931	0.276637
895.306	1.28514
898.681	1.59887
902.055	0.892127
905.43	0.089087
908.805	1.0093
912.18	2.1883
915.555	1.27002
918.929	2.10395
922.304	1.27254
925.679	1.43248
929.054	1.30158
932.429	0.024181
935.803	0.278685
939.178	0.060808
942.553	1.028
945.928	0.269203
949.303	1.45136
952.678	1.67358
956.052	1.55635
959.427	0.335269
962.802	1.02858
966.177	0.711176
969.552	0.435735
972.927	1.18636
976.301	0.06596
979.676	0.049284
983.051	0.90055
986.426	0.722112
989.801	0.641925
993.175	0.647507
996.55	0.458731
999.925	0.33529
1003.3	1.02415
1006.67	0.606575
1010.05	1.31655
1013.42	0.798992
1016.8	1.12398
1020.17	0.092369
1023.55	1.09344
1026.92	1.08491
1030.3	0.389175
1033.67	0.931049
1037.05	0.293899
1040.42	1.94271
1043.8	1.81557
1047.17	1.23022
1050.55	0.619848
1053.92	1.79461
1057.3	2.76441
1060.67	3.26139
1064.05	4.71067
1067.42	7.12217
1070.8	8.55173
1074.17	13.6603
1077.55	21.0625
1080.92	34.7978
1084.3	27.0458
1087.67	9.28799
1091.05	4.02351
1094.42	2.58569
1097.8	2.30319
1101.17	1.65728
1104.54	1.5548
1107.92	0.674425
1111.29	0.321701
1114.67	0.582886
1118.04	0.460411
1121.42	0.221169
1124.79	0.181005
1128.17	0.017885
1131.54	1.28737
1134.92	0.014714
1138.29	2.46543
1141.67	3.3593
1145.04	5.46298
1148.42	8.40781
1151.79	12.1346
1155.17	20.2742
1158.54	26.1749
1161.92	24.9096
1165.29	12.7527
1168.67	5.80677
1172.04	2.07788
1175.42	1.68654
1178.79	0.923368
1182.16	0.219307
1185.54	0.138404
1188.91	0.010715
1192.29	1.05352
1195.66	0.768167
1199.04	0.38924
1202.41	0.532271
1205.79	0.061341
1209.16	0.167359
1212.54	1.69864
1215.91	0.491013
1219.29	1.95432
1222.66	3.13058
1226.04	3.81956
1229.41	2.64005
1232.79	3.03796
1236.16	2.74378
1239.54	1.78913
1242.91	1.34569
1246.29	1.03078
1249.66	0.90738
1253.04	1.16512
1256.41	0.464709
1259.79	0.78313
1263.16	0.674155
1266.54	0.035931
1269.91	0.238894
