Measurement: Raman, 514 nm, unoriented, Raman Data Processed
Mineral: Quartz
Rruff sample: R050125
Ideal chemistry: SiO_2_
Locality: Linopolis, Minas Gerais, Brazil
Source: Carlos and Paulo Vasconcelos
Description: Pale pink group of single crystals, variety rose quartz
Measured chemistry: Si_1.00_O_2_
Raman shift (cm-1)	intensity
87.798	0
91.981	51.261
96.161	14.611
100.34	0.355
104.516	294.917
108.691	262.254
112.864	518.238
117.034	1112.5
121.203	2338.09
125.369	7432.37
129.534	3881.44
133.696	1443.91
137.857	1407.87
142.016	1538.19
146.172	1179.14
150.327	810.857
154.48	756.786
158.63	724.963
162.779	658.041
166.926	851.09
171.07	1050.23
175.213	1335.44
179.354	1784.54
183.493	2298.69
187.63	3484.03
191.765	4948.26
195.898	6977.08
200.029	9646.44
204.158	10759.8
208.285	10015.2
212.41	7964.37
216.533	5806.33
220.654	4028.51
224.773	3036.42
228.891	2289.65
233.006	1781.11
237.119	1313.94
241.231	1116.71
245.34	1081.64
249.448	982.738
253.553	889.191
257.657	1228.01
261.758	2894.1
265.858	1558.18
269.956	547.668
274.052	212.18
278.146	269.479
282.237	177.396
286.327	22.802
290.416	30.596
294.502	152.709
298.586	63.08
302.668	22.366
306.749	65.341
310.827	14.856
314.903	44.01
318.978	6.245
323.051	27.528
327.121	48.105
331.19	123.341
335.257	4.052
339.322	36.618
343.385	9.384
347.446	8.825
351.505	609.156
355.563	929.516
359.618	182.801
363.672	61.871
367.723	126.733
371.773	148.355
375.821	151.604
379.866	52.539
383.91	74.314
387.952	359.245
391.992	900.073
396.031	370.917
400.067	491.766
404.101	310.194
408.134	212.423
412.165	372.361
416.193	344.693
420.22	354.203
424.245	449.919
428.268	456.185
432.289	527.495
436.309	746.774
440.326	1107.02
444.342	2126.31
448.355	4603.59
452.367	5277.57
456.377	11268.4
460.385	31402.5
464.391	44045.1
468.395	19864.4
472.398	9111.92
476.398	5157.81
480.397	3334.08
484.394	2439.23
488.389	1796.09
492.382	1523.68
496.373	1193.06
500.362	958.863
504.349	738.913
508.335	645.622
512.319	771.805
516.3	563.563
520.28	483.881
524.259	528.851
528.235	621.639
532.209	424.208
536.182	425.688
540.152	327.306
544.121	47.333
548.088	230.512
552.053	92.031
556.017	83.385
559.978	27.473
563.938	8.976
567.895	96.504
571.851	40.721
575.805	109.165
579.758	103.045
583.708	199.671
587.657	204.982
591.603	192.153
595.548	203.319
599.491	122.296
603.432	80.794
607.372	112.251
611.309	6.456
615.245	169.793
619.179	132.777
623.111	204.646
627.041	25.594
630.97	54.006
634.896	90.535
638.821	4.05
642.744	117.474
646.665	195.843
650.584	73.194
654.502	135.515
658.418	77.487
662.331	6.956
666.244	98.936
670.154	92.705
674.062	129.533
677.969	209.124
681.874	81.592
685.777	148.772
689.678	148.859
693.577	125.296
697.475	266.171
701.371	77.937
705.265	77.566
709.157	43.046
713.047	120.502
716.936	61.814
720.823	108.844
724.708	11.674
728.591	73.963
732.472	8.488
736.352	160.403
740.23	164.192
744.106	58.854
747.98	51.282
751.853	141.053
755.723	134.696
759.592	29.889
763.459	0.659
767.325	278.113
771.188	590.82
775.05	254.726
778.91	232.286
782.768	160.521
786.625	483.08
790.479	515.66
794.332	911.635
798.183	871.082
802.033	807.811
805.88	798.502
809.726	488.852
813.57	217.477
817.413	179.467
821.253	147.693
825.092	57.811
828.929	93.25
832.764	32.93
836.598	135.873
840.429	242.168
844.259	62.459
848.088	170.754
851.914	341.371
855.739	181.471
859.562	186.744
863.383	60.232
867.203	107.564
871.02	150.557
874.836	119.857
878.65	118.26
882.463	175.668
886.274	198.027
890.083	48.131
893.89	205.652
897.695	46.221
901.499	193.678
905.301	314.426
909.102	283.959
912.9	210.484
916.697	299.82
920.492	190.338
924.285	276.84
928.077	280.525
931.867	266.201
935.655	331.863
939.442	246.502
943.226	334.113
947.009	349.328
950.791	192.096
954.57	265.83
958.348	253.102
962.124	0.049
965.899	147.58
969.671	150.16
973.442	194.352
977.211	164.611
980.979	143.887
984.745	76.564
988.509	141.406
992.271	205.93
996.032	176.25
999.791	122.984
1003.55	307.082
1007.3	390.072
1011.06	344.99
1014.81	295.162
1018.56	434.424
1022.31	428.613
1026.06	166.336
1029.8	127.49
1033.55	194.807
1037.29	373.447
1041.03	332.014
1044.77	369.438
1048.5	250.5
1052.24	508.115
1055.97	329.318
1059.7	591.438
1063.43	803.301
1067.16	838.191
1070.89	776.68
1074.61	674.18
1078.34	618.234
1082.06	1241.87
1085.78	731.156
1089.5	340.973
1093.21	226.727
1096.93	76.289
1100.64	286.713
1104.35	10.287
1108.06	206.529
1111.77	89.645
1115.48	66.805
1119.18	157.973
1122.89	511.537
1126.59	22.15
1130.29	53.732
1133.99	108.449
1137.68	16.953
1141.38	32.863
1145.07	130.957
1148.76	105.811
1152.45	313.148
1156.14	164.014
1159.83	294.289
1163.51	244.115
1167.19	235.801
1170.88	289.375
1174.56	33.549
1178.23	66.416
1181.91	104.457
1185.59	292.51
1189.26	126.717
1192.93	371.084
1196.6	196.289
1200.27	482.354
1203.94	204.314
1207.6	284.492
1211.27	233.014
1214.93	377.621
1218.59	588.334
1222.25	377.941
1225.9	495.52
1229.56	503.723
1233.21	266.277
1236.86	392.57
1240.51	484.682
1244.16	422.191
1247.81	517.6
1251.45	382.453
1255.1	168.25
1258.74	481.502
1262.38	92.242
1266.02	256.885
1269.66	317.818
1273.29	29.711
1276.93	240.25
1280.56	248.342
1284.19	199.938
1287.82	142.396
1291.45	318.49
1295.07	238.756
1298.7	152.523
1302.32	262.834
1305.94	100.184
1309.56	88.59
1313.18	224.781
