Measurement: Raman, 780 nm, unoriented, Raman Data Processed
Mineral: Quartz
Rruff sample: R060604
Ideal chemistry: SiO_2_
Locality: Piedras Parada, Veracruz, Mexico
Source: Michael Scott
Description: Purple hexagonal prisms, variety amethyst
Measured chemistry: Si_1.00_O_2_
Raman shift (cm-1)	intensity
92.3769	0
95.7518	3.0871
99.1266	1.19088
102.501	0.214241
105.876	9.06353
109.251	15.1928
112.626	20.4885
116.001	37.0386
119.376	68.0149
122.75	139.947
126.125	319.84
129.5	220.572
132.875	51.4801
136.25	18.7473
139.624	11.4521
142.999	9.21598
146.374	6.83787
149.749	3.09522
153.124	0.004845
156.499	2.04792
159.873	1.0745
163.248	2.13002
166.623	7.71545
169.998	12.3361
173.373	20.1473
176.747	30.9738
180.122	48.4276
183.497	66.9689
186.872	94.2221
190.247	129.378
193.621	172.051
196.996	224.404
200.371	272.419
203.746	298.671
207.121	281.993
210.495	243.136
213.87	188.896
217.245	137.711
220.62	99.6333
223.995	73.2805
227.37	53.5956
230.744	40.4674
234.119	29.7657
237.494	23.1776
240.869	19.0463
244.244	15.8265
247.619	13.5756
250.993	11.8371
254.368	11.946
257.743	11.9388
261.118	19.3121
264.493	20.7128
267.867	6.45493
271.242	2.13458
274.617	0.738334
277.992	0.169868
281.367	0.448202
284.741	0.746306
288.116	0.558196
291.491	0.711763
294.866	0.190553
298.241	0.115213
301.616	0.28571
304.99	0.328513
308.365	0.650109
311.74	1.1697
315.115	1.62542
318.49	2.62238
321.865	2.37727
325.239	2.33923
328.614	2.8008
331.989	4.49966
335.364	6.26014
338.739	7.51989
342.113	9.1625
345.488	14.461
348.863	22.9296
352.238	51.7379
355.613	67.8735
358.987	12.3332
362.362	3.11834
365.737	0.960143
369.112	0.230823
372.487	0.283249
375.861	0.757897
379.236	0.929102
382.611	3.16556
385.986	7.24106
389.361	18.0977
392.736	47.7373
396.11	21.3681
399.485	22.1673
402.86	17.3065
406.235	1.77041
409.61	0.663955
412.985	0.861043
416.359	0.11663
419.734	0.175029
423.109	0.060027
426.484	1.66185
429.859	3.57644
433.233	7.02763
436.608	12.4603
439.983	24.1877
443.358	48.9941
446.733	94.7346
450.108	145.652
453.482	215.053
456.857	367.874
460.232	688.202
463.607	1045.37
466.982	721.864
470.356	332.449
473.731	171.285
477.106	104.157
480.481	70.2279
483.856	48.3879
487.231	36.5483
490.605	27.7594
493.98	21.3267
497.355	16.7199
500.73	13.2458
504.104	10.1929
507.479	7.834
510.854	7.57675
514.229	5.59153
517.604	5.16566
520.979	3.65274
524.354	3.1954
527.728	4.27587
531.103	4.77605
534.478	3.55804
537.853	1.48786
541.227	0.589749
544.602	1.14721
547.977	0.975375
551.352	0.394752
554.727	0.597129
558.102	0.220783
561.476	0.528041
564.851	0.263904
568.226	0.087814
571.601	0.015093
574.976	0.465057
578.351	0.314878
581.725	0.931664
585.1	1.57728
588.475	1.59072
591.85	1.79862
595.225	1.57756
598.599	1.36066
601.974	1.13385
605.349	1.46502
608.724	1.22236
612.099	1.54964
615.473	1.7322
618.848	1.12125
622.223	0.854928
625.598	0.546794
628.973	0.059315
632.347	0.321165
635.722	0.777724
639.097	0.490991
642.472	0.749612
645.847	0.692061
649.222	0.426522
652.596	0.643271
655.971	0.390555
659.346	0.385404
662.721	0.345629
666.096	0.146288
669.471	0.003497
672.845	0.32022
676.22	1.19963
679.595	2.06131
682.97	2.51145
686.345	3.53727
689.719	6.54084
693.094	10.9208
696.469	12.889
699.844	6.8378
703.219	3.12514
706.593	1.9202
709.968	1.39995
713.343	1.30576
716.718	0.826199
720.093	0.336252
723.468	0.180674
726.842	0.446097
730.217	0.37499
733.592	0.502398
736.967	0.0801
740.342	0.387427
743.716	0.120609
747.091	0.218975
750.466	0.289479
753.841	0.271446
757.216	0.128388
760.591	0.090265
763.965	0.340505
767.34	0.33047
770.715	0.341609
774.09	0.943441
777.465	0.521557
780.84	1.17822
784.214	1.45365
787.589	3.10128
790.964	4.72165
794.339	6.99193
797.714	7.09208
801.088	7.1009
804.463	8.67529
807.838	6.56726
811.213	3.41336
814.588	2.23903
817.962	1.2515
821.337	0.658511
824.712	1.40141
828.087	0.974556
831.462	1.03456
834.837	1.12006
838.211	0.933466
841.586	0.657162
844.961	0.948439
848.336	0.521554
851.711	0.623923
855.085	0.901255
858.46	0.155885
861.835	0.531673
865.21	0.351174
868.585	0.124537
871.96	0.603947
875.334	0.142574
878.709	0.105354
882.084	0.135179
885.459	0.339709
888.834	0.373877
892.208	0.721878
895.583	0.509249
898.958	0.305571
902.333	0.429006
905.708	0.961343
909.082	0.701235
912.457	1.82154
915.832	1.32978
919.207	1.36623
922.582	1.25455
925.957	0.612837
929.331	0.509265
932.706	0.177868
936.081	0.149976
939.456	0.451128
942.831	0.315568
946.205	0.459062
949.58	0.61375
952.955	0.539488
956.33	0.396585
959.705	0.536046
963.08	0.259848
966.454	0.056952
969.829	0.429858
973.204	0.14712
976.579	0.251719
979.954	0.700978
983.328	0.007258
986.703	0.457619
990.078	0.146326
993.453	0.640853
996.828	0.523595
1000.2	0.214615
1003.58	0.117704
1006.95	0.075605
1010.33	0.673074
1013.7	0.040811
1017.08	0.389846
1020.45	0.615413
1023.83	1.05695
1027.2	0.662333
1030.58	1.90365
1033.95	1.3728
1037.33	1.7474
1040.7	2.51685
1044.08	3.74175
1047.45	3.22196
1050.83	2.30617
1054.2	2.33445
1057.57	2.20377
1060.95	3.42773
1064.32	5.14074
1067.7	3.7283
1071.07	3.19348
1074.45	2.42556
1077.82	2.99387
1081.2	3.4692
1084.57	2.45023
1087.95	1.13824
1091.32	0.587982
1094.7	0.513675
1098.07	0.207265
1101.45	0.188153
1104.82	0.276302
1108.2	0.1396
1111.57	0.608459
1114.95	0.099225
1118.32	0.491547
1121.7	0.066578
1125.07	0.814853
1128.45	0.779591
1131.82	0.705211
1135.19	1.26878
1138.57	1.37207
1141.94	1.60156
1145.32	3.1125
1148.69	4.8249
1152.07	7.92872
1155.44	13.304
1158.82	21.7624
1162.19	18.8335
1165.57	8.75011
1168.94	3.9825
1172.32	1.9795
1175.69	0.441169
1179.07	0.601875
1182.44	0.554448
1185.82	0.557005
1189.19	0.218931
1192.57	0.106873
1195.94	0.25886
1199.32	0.019346
1202.69	0.384698
1206.07	0.329861
1209.44	0.11385
1212.82	0.19353
1216.19	0.181613
1219.57	0.244387
1222.94	0.10412
1226.32	0.465151
1229.69	0.425597
1233.07	0.667366
1236.44	0.796938
1239.81	0.371021
1243.19	0.340317
1246.56	0.517582
1249.94	0.094637
1253.31	0.255565
1256.69	0.436953
1260.06	0.208814
1263.44	0.175028
1266.81	0.654408
1270.19	0.203014
1273.56	0.632185
1276.94	0.324764
1280.31	0.026055
1283.69	0.259806
