Measurement: Raman, 780 nm, unoriented, Raman Data Processed
Mineral: Quartz
Rruff sample: R050125
Ideal chemistry: SiO_2_
Locality: Linopolis, Minas Gerais, Brazil
Source: Carlos and Paulo Vasconcelos
Description: Pale pink group of single crystals, variety rose quartz
Measured chemistry: Si_1.00_O_2_
Raman shift (cm-1)	intensity
107.805	0
111.18	0.020794
114.554	7.4767
117.929	25.79
121.304	64.3464
124.679	165.444
128.054	256.717
131.428	66.5693
134.803	17.0681
138.178	9.23809
141.553	9.4951
144.928	6.5987
148.303	4.69978
151.677	1.22141
155.052	1.49316
158.427	2.06282
161.802	0.64592
165.177	5.12433
168.551	11.1738
171.926	19.0759
175.301	29.6793
178.676	44.7858
182.051	63.2647
185.425	89.5966
188.8	123.543
192.175	168.91
195.55	220.639
198.925	277.572
202.299	321.981
205.674	328.277
209.049	300.336
212.424	243.516
215.799	181.447
219.174	130.203
222.548	96.6524
225.923	71.1972
229.298	53.1035
232.673	39.9869
236.048	30.7493
239.423	23.6047
242.797	22.3032
246.172	20.7964
249.547	19.1468
252.922	20.3503
256.297	25.7871
259.671	40.4448
263.046	74.2254
266.421	37.4631
269.796	10.483
273.171	4.24654
276.546	1.83826
279.92	1.38468
283.295	0.47126
286.67	0.632841
290.045	0.560926
293.42	0.941606
296.794	0.745538
300.169	0.262184
303.544	0.265585
306.919	0.063698
310.294	0.600325
313.668	0.634553
317.043	0.582284
320.418	1.17158
323.793	1.56055
327.168	1.46752
330.543	1.3855
333.917	1.54047
337.292	2.41682
340.667	3.13887
344.042	3.85297
347.417	5.55925
350.791	10.876
354.166	24.8053
357.541	11.8537
360.916	3.89274
364.291	1.8035
367.666	2.48088
371.04	2.1587
374.415	0.479746
377.79	0.453436
381.165	0.901841
384.54	1.85958
387.914	4.63182
391.289	16.4823
394.664	15.5381
398.039	2.41298
401.414	1.03504
404.788	0.781903
408.163	0.97811
411.538	0.931657
414.913	0.130035
418.288	0.636732
421.663	1.78895
425.037	1.44104
428.412	4.81383
431.787	8.64084
435.162	14.4223
438.537	24.7011
441.911	44.4408
445.286	89.6217
448.661	164.947
452.036	202.64
455.411	306.224
458.786	552.05
462.16	993.021
465.535	997.118
468.91	487.96
472.285	237.833
475.66	134.536
479.034	86.3744
482.409	60.6283
485.784	43.8404
489.159	33.5063
492.534	25.7408
495.909	19.4061
499.283	15.0854
502.658	11.6896
506.033	8.3177
509.408	6.46974
512.783	6.11412
516.158	6.27888
519.532	4.82637
522.907	3.51168
526.282	3.48936
529.657	4.88583
533.032	3.37269
536.406	1.93789
539.781	1.13989
543.156	1.49399
546.531	0.68712
549.906	0.521237
553.28	0.05366
556.655	0.58839
560.03	0.601383
563.405	0.285106
566.78	0.557023
570.154	0.184912
573.529	0.205199
576.904	0.064274
580.279	0.518663
583.654	0.630511
587.029	0.650949
590.403	1.12966
593.778	1.0059
597.153	1.61437
600.528	1.28121
603.903	1.09664
607.278	1.54449
610.652	1.19207
614.027	1.19276
617.402	1.31088
620.777	1.32804
624.152	0.892495
627.526	0.883259
630.901	0.905377
634.276	0.939887
637.651	0.901636
641.026	0.373181
644.4	0.952477
647.775	0.651483
651.15	0.788848
654.525	0.431154
657.9	0.014191
661.274	0.369708
664.649	0.190874
668.024	0.241912
671.399	0.521452
674.774	0.676281
678.149	1.23432
681.523	1.87566
684.898	2.50732
688.273	3.45359
691.648	6.96351
695.023	8.89336
698.398	5.65025
701.772	2.52653
705.147	1.78818
708.522	1.10709
711.897	0.946415
715.272	0.710939
718.646	0.500835
722.021	0.61698
725.396	0.304542
728.771	0.098979
732.146	0.044872
735.52	0.046819
738.895	0.064961
742.27	0.198781
745.645	0.219369
749.02	0.116658
752.395	0.304335
755.769	0.020554
759.144	0.130722
762.519	0.275053
765.894	0.622615
769.269	0.044327
772.644	0.880322
776.018	1.62857
779.393	2.64717
782.768	3.62909
786.143	5.06124
789.518	7.99108
792.892	13.9032
796.267	15.9482
799.642	14.7174
803.017	18.8648
806.392	19.2441
809.766	9.95053
813.141	4.64617
816.516	3.13622
819.891	2.0813
823.266	1.57631
826.641	1.40711
830.015	1.16036
833.39	1.3696
836.765	1.36628
840.14	1.33381
843.515	1.77607
846.889	0.889318
850.264	1.19151
853.639	1.31218
857.014	1.45897
860.389	0.580275
863.764	0.342507
867.138	0.457366
870.513	0.296659
873.888	0.268887
877.263	0.281005
880.638	0.117083
884.013	0.544512
887.387	0.786355
890.762	0.992394
894.137	0.494465
897.512	0.764812
900.886	0.653225
904.261	0.199861
907.636	0.675968
911.011	0.520127
914.386	0.253996
917.761	0.386343
921.135	0.649428
924.51	0.570782
927.885	0.566431
931.26	0.217144
934.635	0.273463
938.01	0.482286
941.384	0.170638
944.759	0.356398
948.134	0.24041
951.509	0.092358
954.884	0.721144
958.258	0.204803
961.633	0.499331
965.008	0.515114
968.383	0.816398
971.758	0.017483
975.132	0.283533
978.507	0.599588
981.882	0.203431
985.257	0.137589
988.632	0.012754
992.006	0.734041
995.381	0.416166
998.756	0.675412
1002.13	0.48733
1005.51	0.465271
1008.88	0.289249
1012.25	0.133533
1015.63	0.483442
1019	0.790205
1022.38	0.702902
1025.76	0.314486
1029.13	0.712087
1032.5	0.421537
1035.88	0.259683
1039.25	0.694693
1042.63	0.523129
1046	0.850093
1049.38	0.766444
1052.75	1.70685
1056.13	2.10629
1059.5	3.55144
1062.88	6.62395
1066.25	8.0077
1069.63	6.77139
1073	5.07729
1076.38	4.79888
1079.75	6.11639
1083.13	6.07967
1086.5	2.5866
1089.88	1.09522
1093.25	0.88979
1096.63	0.566177
1100	0.655302
1103.38	0.075836
1106.75	0.125038
1110.12	0.153947
1113.5	0.088139
1116.88	0.367522
1120.25	0.606348
1123.62	0.279545
1127	0.170506
1130.37	0.138539
1133.75	0.660681
1137.12	0.72318
1140.5	0.839352
1143.87	1.2958
1147.25	2.04423
1150.62	3.23343
1154	4.93539
1157.37	9.56747
1160.75	13.4121
1164.12	8.33046
1167.5	3.72053
1170.87	1.73861
1174.25	0.625676
1177.62	0.891471
1181	0.915657
1184.37	0.298764
1187.75	0.184565
1191.12	0.353747
1194.49	0.45296
1197.87	0.040163
1201.24	0.241577
1204.62	0.706252
1207.99	0.579386
1211.37	0.477524
1214.74	0.553566
1218.12	1.23783
1221.49	1.52182
1224.87	2.1895
1228.24	3.6193
1231.62	4.29158
1234.99	3.11011
1238.37	2.27879
1241.74	1.4443
1245.12	0.946977
1248.49	1.10718
1251.87	0.699184
1255.24	0.477176
1258.62	0.673727
1261.99	0.485165
1265.37	0.090111
1268.74	0.116558
1272.12	0.304736
1275.49	0.352775
1278.87	0.459807
1282.24	0.00111
1285.62	0.185455
