Measurement: Raman, 780 nm, unoriented, Raman Data Processed
Mineral: Quartz
Rruff sample: R100134
Ideal chemistry: SiO_2_
Locality: Sri Lanka
Source: William W. Pinch
Description: Transparent colorless cut gemstone
Raman shift (cm-1)	intensity
90.6055	0
93.9803	17.1433
97.3551	17.3025
100.73	0.014053
104.105	0.41716
107.48	3.22116
110.854	9.17564
114.229	31.2793
117.604	73.8744
120.979	205.697
124.354	580.018
127.728	1193.41
131.103	451.191
134.478	113.097
137.853	50.6051
141.228	43.5757
144.602	42.0915
147.977	31.569
151.352	19.0929
154.727	2.01456
158.102	6.83516
161.477	4.59076
164.851	8.10158
168.226	20.6272
171.601	34.5488
174.976	66.0862
178.351	103.028
181.726	157.354
185.1	228.106
188.475	330.937
191.85	476.985
195.225	659.933
198.6	871.899
201.974	1062.85
205.349	1138.24
208.724	1066.73
212.099	902.831
215.474	680.824
218.848	489.238
222.223	360.296
225.598	263.574
228.973	195.995
232.348	141.946
235.722	109.135
239.097	84.1495
242.472	67.7693
245.847	63.5344
249.222	57.5428
252.597	59.698
255.971	71.3653
259.346	124.163
262.721	276.043
266.096	294.942
269.471	79.9109
272.846	24.0238
276.22	11.1419
279.595	4.31593
282.97	0.617409
286.345	0.291153
289.719	2.26145
293.094	2.35355
296.469	3.71276
299.844	1.84947
303.219	0.171494
306.594	1.01605
309.968	0.078255
313.343	4.63131
316.718	4.99465
320.093	5.90381
323.468	7.8836
326.842	9.46022
330.217	7.99222
333.592	12.5137
336.967	13.0961
340.342	20.4096
343.717	23.9126
347.091	43.3017
350.466	107.718
353.841	315.49
357.216	250.386
360.591	56.0937
363.965	23.3008
367.34	11.0737
370.715	6.84555
374.09	1.08489
377.465	0.185844
380.839	0.370766
384.214	1.19408
387.589	0.075287
390.964	3.2006
394.339	13.5949
397.714	37.4173
401.088	126.232
404.463	128.392
407.838	16.7362
411.213	1.96174
414.588	0.068687
417.962	1.88489
421.337	1.24712
424.712	0.50927
428.087	5.59142
431.462	10.6204
434.837	21.5028
438.211	36.4638
441.586	64.3437
444.961	121.443
448.336	223.776
451.711	378.793
455.085	724.538
458.46	1548.74
461.835	3220.68
465.21	4110.12
468.585	2236.58
471.959	1024.26
475.334	559.796
478.709	351.407
482.084	241.501
485.459	172.678
488.834	128.398
492.208	100.8
495.583	79.7585
498.958	65.4194
502.333	70.9549
505.708	134.258
509.082	227.102
512.457	76.3865
515.832	35.7709
519.207	23.5564
522.582	18.4496
525.957	10.6763
529.331	9.44841
532.706	6.16603
536.081	6.42974
539.456	6.38253
542.831	2.18877
546.205	5.05615
549.58	1.67629
552.955	0.965805
556.33	1.69896
559.705	3.79075
563.08	1.00034
566.454	2.58268
569.829	1.28875
573.204	0.098122
576.579	0.954109
579.954	4.87324
583.328	4.03688
586.703	3.55159
590.078	5.61117
593.453	3.62889
596.828	7.34095
600.202	9.82588
603.577	6.02879
606.952	6.08437
610.327	5.63678
613.702	5.71954
617.077	4.83697
620.451	6.83904
623.826	3.72927
627.201	1.80818
630.576	2.98558
633.951	3.35875
637.325	4.22983
640.7	1.67223
644.075	1.98985
647.45	0.366013
650.825	3.68992
654.199	1.87697
657.574	1.97786
660.949	1.05134
664.324	1.66098
667.699	0.259285
671.073	0.395828
674.448	2.18729
677.823	2.9299
681.198	5.72047
684.573	6.02148
687.948	10.2247
691.322	18.7817
694.697	31.5135
698.072	42.1189
701.447	21.4102
704.822	10.7211
708.197	6.63612
711.571	4.27424
714.946	3.25388
718.321	3.01955
721.696	0.732582
725.071	1.83119
728.445	1.20657
731.82	1.30453
735.195	0.331207
738.57	1.40548
741.945	0.617569
745.319	0.010597
748.694	1.1645
752.069	0.054764
755.444	2.64044
758.819	0.596367
762.193	1.04385
765.568	0.377121
768.943	0.880127
772.318	0.189323
775.693	2.35245
779.068	2.0086
782.442	4.70036
785.817	4.38546
789.192	4.01675
792.567	10.4897
795.942	17.1634
799.317	28.6724
802.691	55.8155
806.066	117.589
809.441	155.254
812.816	76.469
816.191	32.5868
819.565	17.5512
822.94	9.75624
826.315	7.98265
829.69	5.3105
833.065	4.3906
836.439	5.06226
839.814	4.67882
843.189	4.80335
846.564	3.19368
849.939	4.29182
853.313	5.01771
856.688	3.21512
860.063	4.90428
863.438	3.0036
866.813	2.16546
870.188	1.57994
873.562	1.00791
876.937	2.51596
880.312	3.81604
883.687	2.75235
887.062	1.65698
890.437	3.12828
893.811	0.171116
897.186	2.63861
900.561	0.523354
903.936	1.68106
907.311	0.081234
910.685	1.58965
914.06	2.07527
917.435	2.00217
920.81	4.69442
924.185	4.99762
927.559	5.61338
930.934	3.47071
934.309	2.12016
937.684	2.57642
941.059	3.03664
944.433	1.94769
947.808	2.73207
951.183	0.919216
954.558	2.83101
957.933	1.26068
961.308	4.68069
964.682	1.06
968.057	0.837166
971.432	0.495529
974.807	0.13625
978.182	1.48569
981.557	2.31186
984.931	0.622025
988.306	0.900322
991.681	4.07515
995.056	0.144154
998.431	0.942524
1001.8	1.12285
1005.18	2.35635
1008.55	1.9001
1011.93	1.51731
1015.3	1.71592
1018.68	1.18324
1022.05	0.419292
1025.43	3.13604
1028.8	1.85236
1032.18	4.03274
1035.55	1.94416
1038.93	1.3479
1042.3	6.1977
1045.68	1.9707
1049.05	2.89206
1052.43	2.02107
1055.8	2.59483
1059.18	1.14925
1062.55	3.65532
1065.93	4.43674
1069.3	5.43564
1072.68	9.54442
1076.05	19.4513
1079.43	40.5881
1082.8	52.2387
1086.18	24.1975
1089.55	10.3434
1092.92	5.31643
1096.3	4.27011
1099.67	3.25677
1103.05	2.58725
1106.42	0.25037
1109.8	0.022606
1113.17	1.62495
1116.55	0.654499
1119.92	1.33005
1123.3	2.83783
1126.67	1.45218
1130.05	3.26287
1133.42	2.37116
1136.8	0.506729
1140.17	3.16855
1143.55	5.36625
1146.92	8.12473
1150.3	14.5211
1153.67	27.2116
1157.05	49.5253
1160.42	45.3319
1163.8	21.2132
1167.17	8.83775
1170.55	3.78152
1173.92	2.99895
1177.3	0.3843
1180.67	2.19981
1184.05	0.967884
1187.42	1.06437
1190.8	1.34928
1194.17	0.578781
1197.55	3.64913
1200.92	2.58743
1204.29	0.28484
1207.67	3.10277
1211.04	1.94517
1214.42	5.14504
1217.79	5.95761
1221.17	11.8547
1224.54	15.1071
1227.92	25.3586
1231.29	23.0845
1234.67	21.0413
1238.04	11.7962
1241.42	8.19254
1244.79	2.72636
1248.17	3.91045
1251.54	2.42972
1254.92	2.24203
1258.29	2.13223
1261.67	0.46072
1265.04	1.0662
1268.42	1.91943
1271.79	0.926628
1275.16	3.51308
1278.54	0.721836
1281.91	0.717785
