Measurement: Raman, 780 nm, unoriented, Raman Data Processed
Mineral: Quartz
Rruff sample: R110108
Ideal chemistry: SiO_2_
Locality: Synthetic
Source: Gemological Institute of America
Description: A cut, blue (1.69ct) gemstone, hydrothermally grown.
Raman shift (cm-1)	intensity
91.1214	0
94.4962	109.773
97.871	40.4075
101.246	1.90883
104.621	7.73308
107.996	86.6701
111.37	163.187
114.745	235.468
118.12	418.292
121.495	758.799
124.87	1563.51
128.244	2414.89
131.619	796.184
134.994	212.568
138.369	104.386
141.744	81.0197
145.119	66.2775
148.493	42.0623
151.868	11.6178
155.243	15.4186
158.618	18.024
161.993	0.01535
165.367	41.5562
168.742	90.2365
172.117	157.934
175.492	252.519
178.867	382.546
182.242	554.653
185.616	790.168
188.991	1088.3
192.366	1468.59
195.741	1904.66
199.115	2352.62
202.49	2691.66
205.865	2769.57
209.24	2439.28
212.615	1959.15
215.99	1446.02
219.364	1030.06
222.739	747.748
226.114	552.363
229.489	409.662
232.864	303.98
236.238	231.131
239.613	178.834
242.988	146.599
246.363	133.326
249.738	116.541
253.113	104.349
256.487	104.648
259.862	126.769
263.237	198.356
266.612	155.466
269.987	39.4534
273.361	9.96481
276.736	0.627579
280.111	2.98083
283.486	5.28434
286.861	3.44345
290.236	5.13375
293.61	1.25558
296.985	1.02303
300.36	2.12299
303.735	4.59133
307.11	9.56598
310.485	20.1964
313.859	18.3961
317.234	26.1717
320.609	29.2758
323.984	33.6863
327.359	37.3165
330.733	41.2124
334.108	54.9708
337.483	84.3943
340.858	111.311
344.233	140.175
347.608	211.794
350.982	377.638
354.357	723.973
357.732	331.564
361.107	62.0001
364.482	21.1497
367.856	4.46667
371.231	1.1301
374.606	5.13812
377.981	2.43079
381.356	2.33983
384.731	9.65804
388.105	33.3931
391.48	66.0975
394.855	95.643
398.23	133.988
401.605	308.527
404.979	198.393
408.354	25.7064
411.729	0.008186
415.104	4.44009
418.479	5.71207
421.853	0.757896
425.228	8.87183
428.603	19.4466
431.978	41.0183
435.353	78.0715
438.728	146.849
442.102	287.623
445.477	590.306
448.852	1141.61
452.227	1780.58
455.602	2874.96
458.976	5001
462.351	8360.78
465.726	8525.58
469.101	4208.43
472.476	2010.38
475.851	1140.6
479.225	738.929
482.6	517.856
485.975	373.435
489.35	284.679
492.725	219.138
496.099	174.208
499.474	137.149
502.849	120.668
506.224	144.882
509.599	164.38
512.973	76.857
516.348	50.8098
519.723	36.9652
523.098	27.0188
526.473	20.0066
529.848	16.6323
533.222	15.7331
536.597	10.7533
539.972	7.76944
543.347	5.39453
546.722	6.14149
550.096	1.94756
553.471	0.915573
556.846	3.95108
560.221	4.25256
563.596	4.68265
566.971	2.41649
570.345	0.086685
573.72	0.397331
577.095	2.07888
580.47	5.49154
583.845	8.58734
587.22	9.05429
590.594	12.9651
593.969	11.5102
597.344	12.0823
600.719	11.3427
604.094	12.7136
607.468	14.9893
610.843	13.238
614.218	12.2485
617.593	11.9541
620.968	8.5127
624.342	8.61944
627.717	7.04544
631.092	7.49502
634.467	5.89315
637.842	5.02866
641.217	6.25253
644.591	6.63226
647.966	6.04311
651.341	3.48227
654.716	2.64391
658.091	3.1778
661.466	1.6468
664.84	2.02712
668.215	1.80715
671.59	3.55293
674.965	5.68647
678.34	9.43564
681.714	15.4055
685.089	23.1352
688.464	31.8309
691.839	52.5221
695.214	80.8998
698.588	80.2308
701.963	39.9726
705.338	20.9171
708.713	13.1863
712.088	9.72067
715.462	7.5401
718.837	6.09314
722.212	4.27935
725.587	3.94544
728.962	3.2549
732.337	3.50188
735.711	0.202568
739.086	2.55367
742.461	1.11791
745.836	1.35356
749.211	1.10175
752.586	0.814938
755.96	1.11776
759.335	0.845387
762.71	0.237579
766.085	1.54652
769.46	1.52486
772.834	1.19759
776.209	2.77646
779.584	3.43253
782.959	4.35756
786.334	8.04418
789.708	10.6707
793.083	19.4781
796.458	29.1801
799.833	43.1438
803.208	71.8813
806.583	124.232
809.957	128.516
813.332	61.0155
816.707	28.4818
820.082	18.4861
823.457	10.654
826.832	8.52846
830.206	7.0195
833.581	9.13787
836.956	9.21512
840.331	7.60507
843.706	7.82413
847.08	6.28927
850.455	5.7505
853.83	7.55418
857.205	5.98486
860.58	4.26612
863.955	2.3128
867.329	1.30224
870.704	1.6798
874.079	0.101143
877.454	0.094646
880.829	0.601624
884.203	0.873222
887.578	2.61875
890.953	2.88247
894.328	2.78737
897.703	2.79965
901.077	2.72353
904.452	1.16407
907.827	2.53018
911.202	1.10653
914.577	4.34499
917.952	5.82936
921.326	5.54641
924.701	5.1082
928.076	4.82605
931.451	3.57849
934.826	3.10062
938.2	4.74573
941.575	3.51025
944.95	4.46558
948.325	2.30724
951.7	2.08913
955.074	2.23302
958.449	0.82618
961.824	1.38887
965.199	1.50312
968.574	0.519363
971.949	1.24386
975.323	0.28302
978.698	0.844187
982.073	0.902367
985.448	0.489212
988.823	2.0614
992.197	0.217419
995.572	2.70835
998.947	0.97908
1002.32	1.57971
1005.7	2.51819
1009.07	1.92916
1012.45	2.5106
1015.82	0.662004
1019.2	2.816
1022.57	1.9784
1025.95	3.89905
1029.32	8.60337
1032.69	4.59029
1036.07	4.32039
1039.44	3.82429
1042.82	5.1761
1046.19	2.46988
1049.57	5.81644
1052.94	3.60807
1056.32	5.33555
1059.69	4.68638
1063.07	6.29922
1066.44	8.69144
1069.82	7.32275
1073.19	13.9872
1076.57	19.3798
1079.94	34.9036
1083.32	39.3342
1086.69	17.1669
1090.07	8.90804
1093.44	5.34286
1096.82	4.06764
1100.19	4.10515
1103.57	2.03899
1106.94	1.82531
1110.32	1.82433
1113.69	1.06184
1117.07	0.530964
1120.44	0.274416
1123.82	0.489344
1127.19	0.201891
1130.57	2.56757
1133.94	2.03133
1137.32	4.61774
1140.69	7.44347
1144.06	13.6154
1147.44	22.7753
1150.81	38.7595
1154.19	71.6134
1157.56	113.933
1160.94	94.4559
1164.31	44.5243
1167.69	18.7767
1171.06	9.31874
1174.44	3.94618
1177.81	3.53402
1181.19	0.060944
1184.56	1.15264
1187.94	0.611534
1191.31	0.528683
1194.69	0.336643
1198.06	1.29722
1201.44	1.31937
1204.81	3.61919
1208.19	3.81978
1211.56	5.45027
1214.93	10.2641
1218.31	18.1187
1221.68	24.4492
1225.06	42.0642
1228.43	57.24
1231.81	56.4783
1235.18	39.6349
1238.56	25.3943
1241.93	17.087
1245.31	9.75792
1248.68	7.6823
1252.06	6.29218
1255.43	4.8929
1258.81	4.39339
1262.18	1.50035
1265.56	3.12838
1268.93	1.68964
1272.31	0.956066
1275.68	1.6345
1279.06	0.022995
1282.43	1.96858
