Measurement: Raman, 780 nm, unoriented, Raman Data Processed
Mineral: Quartz
Rruff sample: X080016
Ideal chemistry: SiO_2_
Locality: Synthetic
Source: Gemological Institute of America
Description: Faceted citrine gemstone, 10.23 ct
Raman shift (cm-1)	intensity
95.2296	0
98.6044	0.628716
101.979	0.726227
105.354	21.8559
108.729	101.321
112.104	188.089
115.478	252.044
118.853	400.843
122.228	694.152
125.603	1468.84
128.978	2598.69
132.353	880.294
135.727	240.233
139.102	107.268
142.477	62.5502
145.852	44.9585
149.227	29.496
152.601	12.7207
155.976	1.73691
159.351	9.30256
162.726	3.58211
166.101	7.00763
169.476	22.2214
172.85	41.1278
176.225	70.6468
179.6	111.036
182.975	169.564
186.35	243.369
189.725	349.17
193.099	483.56
196.474	645.2
199.849	818.158
203.224	964.249
206.599	1012.2
209.973	918.958
213.348	756.198
216.723	561.529
220.098	399.764
223.473	285.983
226.847	209.751
230.222	155.846
233.597	115.588
236.972	88.017
240.347	66.9487
243.722	57.8186
247.096	57.5187
250.471	56.4789
253.846	58.7414
257.221	72.4073
260.596	117.908
263.971	205.256
267.345	105.259
270.72	26.9552
274.095	7.78788
277.47	2.8431
280.845	1.1035
284.219	0.622734
287.594	2.57114
290.969	1.06606
294.344	3.94507
297.719	1.44104
301.094	0.419044
304.468	0.107105
307.843	1.25553
311.218	4.83226
314.593	6.61728
317.968	7.42665
321.342	7.75262
324.717	9.86335
328.092	9.09333
331.467	10.0935
334.842	11.495
338.216	16.169
341.591	18.9198
344.966	22.3337
348.341	27.6682
351.716	45.3605
355.091	88.8624
358.465	41.1671
361.84	5.37959
365.215	1.3873
368.59	0.350864
371.965	2.12121
375.339	6.9473
378.714	13.0761
382.089	12.8734
385.464	26.8813
388.839	45.1538
392.214	98.8216
395.588	155.329
398.963	199.765
402.338	109.923
405.713	14.9765
409.088	0.720806
412.462	2.23106
415.837	3.13269
419.212	1.61618
422.587	0.426098
425.962	2.58786
429.337	8.85683
432.711	19.6774
436.086	38.9647
439.461	70.1672
442.836	129.802
446.211	259.835
449.586	510.53
452.96	720.658
456.335	1123.54
459.71	2046.52
463.085	3623.86
466.46	3903.41
469.834	1944.69
473.209	912.963
476.584	513.48
479.959	329.515
483.334	230.078
486.709	164.977
490.083	126.002
493.458	93.5998
496.833	73.3888
500.208	53.6651
503.583	41.5038
506.957	30.4592
510.332	23.2602
513.707	20.2386
517.082	17.587
520.457	13.1495
523.832	11.8645
527.206	8.0736
530.581	9.66343
533.956	9.11975
537.331	6.97712
540.706	6.81017
544.08	8.23078
547.455	3.54109
550.83	0.75893
554.205	0.680477
557.58	1.01839
560.955	0.507458
564.329	3.14018
567.704	0.834042
571.079	2.12957
574.454	0.656916
577.829	0.66695
581.203	0.460703
584.578	2.43355
587.953	4.71778
591.328	4.19259
594.703	4.02663
598.078	5.94028
601.452	3.7759
604.827	5.09905
608.202	4.36105
611.577	4.59112
614.952	4.93691
618.327	5.25411
621.701	4.98537
625.076	3.58868
628.451	2.99111
631.826	2.07005
635.201	2.95372
638.575	2.38911
641.95	2.15484
645.325	4.19162
648.7	2.47454
652.075	2.44632
655.449	2.07378
658.824	1.09541
662.199	0.883415
665.574	0.744133
668.949	0.378902
672.323	1.33654
675.698	2.49697
679.073	5.562
682.448	11.5136
685.823	17.0979
689.198	26.0196
692.572	40.5661
695.947	62.8679
699.322	44.8989
702.697	20.8903
706.072	11.5547
709.447	6.71173
712.821	4.63046
716.196	3.03978
719.571	3.00957
722.946	2.23657
726.321	1.55539
729.696	1.02061
733.07	2.06705
736.445	1.34037
739.82	1.14515
743.195	1.64519
746.57	0.118759
749.944	0.333405
753.319	1.47493
756.694	0.490704
760.069	0.790216
763.444	0.373056
766.818	2.16419
770.193	2.94392
773.568	2.68544
776.943	5.2722
780.318	9.95961
783.693	16.3854
787.067	26.6854
790.442	45.0303
793.817	80.5457
797.192	92.9272
800.567	58.3352
803.942	33.3188
807.316	18.4567
810.691	12.0487
814.066	8.51693
817.441	6.27507
820.816	6.50654
824.19	4.14765
827.565	4.18701
830.94	3.43717
834.315	0.819818
837.69	4.36496
841.064	4.61057
844.439	4.677
847.814	4.26138
851.189	3.93537
854.564	3.9531
857.939	3.23587
861.313	0.989746
864.688	2.25019
868.063	0.990482
871.438	0.951653
874.813	0.514568
878.188	1.12405
881.562	0.780041
884.937	1.63063
888.312	2.09868
891.687	4.03598
895.062	1.72432
898.436	1.52961
901.811	1.99299
905.186	2.63944
908.561	0.59186
911.936	0.284653
915.311	2.29445
918.685	2.80025
922.06	3.29916
925.435	2.94048
928.81	1.49601
932.185	0.891073
935.559	1.76501
938.934	0.407125
942.309	1.61451
945.684	0.605867
949.059	1.0329
952.433	1.7528
955.808	1.60566
959.183	1.29126
962.558	1.85272
965.933	2.34082
969.308	0.71548
972.682	0.700063
976.057	0.920219
979.432	0.802426
982.807	0.600233
986.182	0.62908
989.557	1.19894
992.931	1.34135
996.306	0.048772
999.681	1.67094
1003.06	1.96745
1006.43	0.208343
1009.8	9.2e-05
1013.18	1.0278
1016.55	0.485852
1019.93	1.19039
1023.3	1.10008
1026.68	2.50435
1030.05	0.687449
1033.43	3.29066
1036.8	1.53476
1040.18	1.72724
1043.55	2.87369
1046.93	6.48107
1050.3	5.13823
1053.68	8.71577
1057.05	13.7588
1060.43	26.7562
1063.8	48.9505
1067.18	55.8156
1070.55	28.1481
1073.93	13.3587
1077.3	10.5191
1080.68	8.54192
1084.05	7.35038
1087.43	5.62729
1090.8	3.0034
1094.18	3.23075
1097.55	0.868759
1100.93	0.551962
1104.3	2.87188
1107.67	0.827824
1111.05	1.20628
1114.42	1.90765
1117.8	0.070381
1121.17	1.11289
1124.55	0.37081
1127.92	1.09067
1131.3	2.02182
1134.67	1.6716
1138.05	3.89515
1141.42	7.3597
1144.8	9.3496
1148.17	16.2149
1151.55	28.5833
1154.92	46.9605
1158.3	81.0598
1161.67	110.126
1165.05	64.2921
1168.42	26.9629
1171.8	11.9263
1175.17	7.34788
1178.55	4.02588
1181.92	2.97892
1185.3	2.29317
1188.67	1.56685
1192.05	0.550315
1195.42	2.09909
1198.8	2.93292
1202.17	1.8956
1205.55	2.28468
1208.92	0.165352
1212.3	0.489588
1215.67	1.33169
1219.04	1.6291
1222.42	2.49364
1225.79	2.99863
1229.17	4.79203
1232.54	5.30384
1235.92	5.04145
1239.29	6.6037
1242.67	3.55801
1246.04	1.93008
1249.42	2.33976
1252.79	1.81095
1256.17	2.84024
1259.54	0.435621
1262.92	1.35991
1266.29	0.434301
1269.67	3.28434
1273.04	1.71342
1276.42	0.315671
1279.79	1.21374
1283.17	2.7706
1286.54	0.217806
