Measurement: Raman, 532 nm, unoriented, Raman Data Processed
Mineral: Quartz
Rruff sample: R110108
Ideal chemistry: SiO_2_
Locality: Synthetic
Source: Gemological Institute of America
Description: A cut, blue (1.69ct) gemstone, hydrothermally grown.
Raman shift (cm-1)	intensity
90.4922	0
93.867	0.331219
97.2418	2.91372
100.617	13.07
103.992	17.0537
107.366	24.7075
110.741	32.7227
114.116	38.343
117.491	50.7831
120.865	77.7999
124.24	69.1183
127.615	56.4716
130.99	42.2339
134.365	30.3074
137.74	16.1365
141.114	2.93255
144.489	11.0268
147.864	21.4971
151.239	9.21832
154.614	7.0864
157.988	45.8807
161.363	96.8857
164.738	143.877
168.113	190.002
171.488	256.252
174.863	357.272
178.237	471.112
181.612	560.852
184.987	672.589
188.362	817.859
191.737	1008.14
195.112	1216.71
198.486	1452.67
201.861	1637.02
205.236	1689.7
208.611	1570.38
211.986	1335.19
215.36	1065.52
218.735	820.043
222.11	636.748
225.485	505.306
228.86	406.857
232.234	329.811
235.609	275.124
238.984	233.069
242.359	203.958
245.734	183.396
249.109	194.097
252.483	212.959
255.858	234.236
259.233	284.51
262.608	423.15
265.983	540.695
269.358	218.937
272.732	89.0779
276.107	50.4637
279.482	34.209
282.857	22.9632
286.232	10.5025
289.606	3.56036
292.981	3.38599
296.356	1.88376
299.731	4.06854
303.106	4.55868
306.481	7.46912
309.855	6.92007
313.23	5.24997
316.605	2.48303
319.98	2.56674
323.355	4.02212
326.729	3.52264
330.104	3.49438
333.479	8.00934
336.854	18.6918
340.229	39.4486
343.603	63.9335
346.978	93.1563
350.353	150.756
353.728	287.36
357.103	325.696
360.478	65.4771
363.852	20.2795
367.227	5.79205
370.602	1.47858
373.977	2.03274
377.352	4.17099
380.726	2.06839
384.101	4.81924
387.476	17.0599
390.851	46.7837
394.226	83.1862
397.601	103.503
400.975	184.815
404.35	276.323
407.725	58.5907
411.1	12.6483
414.475	2.00388
417.849	0.646179
421.224	1.3739
424.599	0.03949
427.974	3.99506
431.349	17.1674
434.724	27.2409
438.098	46.7454
441.473	99.8655
444.848	195.704
448.223	419.503
451.598	859.438
454.972	1435.21
458.347	2312.9
461.722	3799.32
465.097	5096.68
468.472	3294.72
471.846	1506.62
475.221	800.153
478.596	495.493
481.971	338.122
485.346	244.039
488.721	181.369
492.095	144.083
495.47	131.036
498.845	129.93
502.22	139.19
505.595	201.011
508.969	336.95
512.344	175.839
515.719	60.4134
519.094	35.2816
522.469	21.1621
525.844	15.3267
529.218	14.0684
532.593	10.547
535.968	5.74176
539.343	3.97138
542.718	5.99793
546.092	1.15216
549.467	0.766296
552.842	0.465942
556.217	1.57574
559.592	1.08228
562.967	0.37439
566.341	1.00934
569.716	1.3811
573.091	0.58313
576.466	0.741577
579.841	5.13446
583.216	4.86121
586.59	4.12714
589.965	6.36151
593.34	8.46362
596.715	10.1263
600.09	9.32617
603.464	6.21265
606.839	8.99676
610.214	12.8707
613.589	6.11725
616.964	8.0285
620.338	5.05499
623.713	6.17383
627.088	3.12598
630.463	2.97632
633.838	2.58508
637.212	3.39117
640.587	4.89642
643.962	3.21429
647.337	3.55206
650.712	3.25995
654.087	2.96503
657.461	2.95758
660.836	1.36737
664.211	2.36408
667.586	0.868958
670.961	1.65417
674.335	4.83588
677.71	6.18072
681.085	11.2946
684.46	18.5348
687.835	30.245
691.21	46.2862
694.584	67.8104
697.959	88.6663
701.334	55.1658
704.709	23.3881
708.084	15.8896
711.458	12.3676
714.833	5.09772
718.208	2.03803
721.583	4.54315
724.958	3.00726
728.332	4.84766
731.707	4.86896
735.082	2.82489
738.457	0.645874
741.832	0.763367
745.207	2.03565
748.581	0.994019
751.956	1.99683
755.331	1.22876
758.706	2.42316
762.081	0.928162
765.456	0.334778
768.83	4.64777
772.205	4.53467
775.58	5.36609
778.955	4.17255
782.33	7.01202
785.704	10.8063
789.079	15.7105
792.454	31.5508
795.829	50.9583
799.204	91.2315
802.578	151.04
805.953	244.945
809.328	339.511
812.703	215.307
816.078	88.923
819.453	47.8675
822.827	29.6299
826.202	19.316
829.577	14.2826
832.952	14.6135
836.327	10.4337
839.702	6.68433
843.076	9.1012
846.451	9.89893
849.826	5.90735
853.201	6.33697
856.576	6.19299
859.95	5.51678
863.325	8.02454
866.7	4.88947
870.075	0.691833
873.45	1.85327
876.824	0.30011
880.199	2.43848
883.574	1.85895
886.949	1.6922
890.324	3.71716
893.698	1.95782
897.073	3.26562
900.448	3.52033
903.823	1.49847
907.198	2.54388
910.573	4.47473
913.947	3.29565
917.322	4.0293
920.697	6.5957
924.072	4.72473
927.447	4.57758
930.822	2.59393
934.196	3.60754
937.571	2.31677
940.946	3.79755
944.321	3.07703
947.696	1.61877
951.07	5.05786
954.445	1.68487
957.82	0.542969
961.195	0.152405
964.57	1.6247
967.944	4.1524
971.319	1.72699
974.694	0.266052
978.069	0.010803
981.444	0.72052
984.819	1.24591
988.193	1.23206
991.568	4.1358
994.943	0.534729
998.318	0.846375
1001.69	1.21808
1005.07	2.93384
1008.44	0.435791
1011.82	1.22003
1015.19	0.914368
1018.57	1.60284
1021.94	2.96307
1025.32	1.27515
1028.69	4.35547
1032.07	4.70477
1035.44	7.16638
1038.82	4.39557
1042.19	4.6878
1045.57	2.44946
1048.94	5.66339
1052.32	5.06604
1055.69	4.82007
1059.07	2.76935
1062.44	7.74957
1065.81	5.03992
1069.19	5.1507
1072.56	9.66846
1075.94	18.0684
1079.31	26.0485
1082.69	40.4921
1086.06	24.0483
1089.44	11.7787
1092.81	7.47247
1096.19	4.70398
1099.56	1.38312
1102.94	0.54126
1106.31	2.18384
1109.69	1.45538
1113.06	3.43524
1116.44	2.88458
1119.81	3.60895
1123.19	1.31549
1126.56	1.88959
1129.94	6.5246
1133.31	1.55945
1136.68	5.74719
1140.06	7.54114
1143.43	16.0121
1146.81	23.4602
1150.18	41.2991
1153.56	74.307
1156.93	117.012
1160.31	133.292
1163.68	78.7571
1167.06	31.5123
1170.43	11.8467
1173.81	7.56006
1177.18	3.9931
1180.56	0.505615
1183.93	0.034973
1187.31	2.15179
1190.68	1.0025
1194.06	0.032715
1197.43	3.06299
1200.81	2.8642
1204.18	4.46216
1207.56	4.20587
1210.93	7.81335
1214.31	9.27881
1217.68	14.0552
1221.06	21.642
1224.43	33.4738
1227.81	47.7698
1231.18	53.6525
1234.56	40.9886
1237.93	29.9373
1241.31	20.2864
1244.68	13.3605
1248.05	6.5213
1251.43	7.78534
1254.8	6.30737
1258.18	4.6803
1261.55	3.48334
1264.93	5.99799
1268.3	0.560913
1271.68	1.31055
1275.05	3.93732
1278.43	6.01819
1281.8	0.303406
1285.18	3.54095
1288.55	0.755859
1291.93	2.98346
1295.3	1.71558
1298.68	2.43249
1302.05	0.949097
