Measurement: Raman, 532 nm, unoriented, Raman Data Processed
Mineral: Quenselite
Rruff sample: R060439
Ideal chemistry: PbMn^3+^O_2_(OH)
Locality: Amerika Stope, Langban, Filipstad, Varmland, Sweden
Source: Michael Scott
Description: Black micaceous flattened massive, associated with white calcite
Raman shift (cm-1)	intensity
188.713	0
191.606	26.2928
194.499	13.4755
197.391	41.0596
200.284	2.48431
203.177	30.489
206.07	22.5041
208.962	13.7361
211.855	123.667
214.748	179.105
217.64	284.397
220.533	455.339
223.426	559.529
226.318	744.466
229.211	923.815
232.104	1194.76
234.996	1245.6
237.889	1129.35
240.782	938.432
243.675	749.69
246.567	517.463
249.46	469.877
252.353	519.929
255.245	682.213
258.138	839.695
261.031	1092.06
263.923	1601.04
266.816	2153.8
269.709	2620.09
272.602	2930.13
275.494	2673.27
278.387	2084.91
281.28	1512.36
284.173	1081.99
287.065	794.243
289.958	638.202
292.851	565.841
295.743	591.77
298.636	629.873
301.529	888.869
304.421	1205.41
307.314	1593.62
310.207	2090.67
313.099	2546.78
315.992	2644.52
318.885	2185.13
321.778	1521.54
324.67	1019.75
327.563	636.409
330.456	397.03
333.348	218.226
336.241	126.319
339.134	59.9786
342.026	28.0853
344.919	41.0245
347.812	28.0205
350.705	52.6936
353.597	46.8146
356.49	7.31995
359.383	20.3817
362.275	150.076
365.168	280.997
368.061	401.21
370.954	467.116
373.846	458.862
376.739	456.998
379.632	351.688
382.524	346.456
385.417	388.941
388.31	534.482
391.202	708.833
394.095	1013.51
396.988	1343
399.88	1678.72
402.773	1779.45
405.666	1645.45
408.559	1220.43
411.451	797.69
414.344	403.61
417.237	250.492
420.129	183.8
423.022	118.358
425.915	136.063
428.808	179.027
431.7	213.702
434.593	318.051
437.486	334.922
440.378	355.521
443.271	302.397
446.164	182.193
449.056	113.957
451.949	74.515
454.842	15.9474
457.735	28.547
460.627	14.1495
463.52	44.2217
466.413	1.53613
469.305	37.88
472.198	39.2574
475.091	36.2894
477.983	64.5746
480.876	149.779
483.769	193.682
486.661	359.813
489.554	548.993
492.447	863.889
495.34	1290.86
498.232	1761.02
501.125	2125.18
504.018	2303.57
506.911	1836.06
509.803	1177.91
512.696	747.313
515.589	634.208
518.481	664.549
521.374	819.086
524.267	1159.1
527.159	1654.03
530.052	2241.66
532.945	2978.04
535.837	3642.93
538.73	3893.77
541.623	3672.42
544.516	2946.33
547.408	2125.94
550.301	1516.57
553.194	1020.85
556.086	718.763
558.979	501.652
561.872	396.63
564.764	283.553
567.657	228.757
570.55	147.952
573.443	87.9376
576.335	55.2017
579.228	59.5282
582.121	89.8778
585.013	79.5129
587.906	72.5725
590.799	33.4845
593.692	32.7804
596.584	4.51282
599.477	5.73071
602.37	36.8804
605.262	32.1644
608.155	15.381
611.048	14.2177
613.94	96.3145
616.833	139.51
619.726	223.371
622.619	329
625.511	487.759
628.404	697.01
631.297	758.774
634.189	728.502
637.082	756.279
639.975	619.223
642.867	460.476
645.76	308.649
648.653	258.636
651.545	241.888
654.438	170.571
657.331	115.028
660.224	76.5928
663.116	61.1065
666.009	30.6049
668.902	9.30206
671.794	20.3593
674.687	15.7512
677.58	2.28308
680.472	43.266
683.365	14.2876
686.258	26.7033
689.151	43.075
692.043	40.6982
694.936	38.6857
697.829	5.2135
700.721	48.4103
703.614	23.5026
706.507	41.5928
709.399	14.735
712.292	26.9354
715.185	23.4601
718.078	37.7842
720.97	38.0396
723.863	83.2881
726.756	72.2741
729.648	44.3145
732.541	31.6513
735.434	35.1299
738.327	48.9103
741.219	62.7234
744.112	20.9548
747.005	62.9076
749.897	55.2805
752.79	50.6069
755.683	22.3422
758.576	58.7133
761.468	71.6399
764.361	67.6086
767.254	22.1132
770.146	74.7336
773.039	59.4348
775.932	43.459
778.824	73.634
781.717	34.639
784.61	25.6282
787.503	101.759
790.395	43.3222
793.288	35.4309
796.181	17.0347
799.073	41.4699
801.966	37.1084
804.859	16.5957
807.751	36.6381
810.644	2.40253
813.537	25.2987
816.429	43.4583
819.322	31.801
822.215	80.862
825.108	62.0844
828	78.6031
830.893	98.9099
833.786	82.978
836.678	64.5215
839.571	60.2535
842.464	52.0181
845.356	16.9709
848.249	47.2583
851.142	50.6049
854.035	25.972
856.927	47.9665
859.82	36.9512
862.713	27.0029
865.605	36.6215
868.498	34.193
871.391	13.9462
874.284	31.441
877.176	37.5874
880.069	3.88184
882.962	27.9671
885.854	14.9219
888.747	21.5885
891.64	60.5669
894.533	57.9278
897.425	28.4728
900.318	52.4012
903.211	66.5841
906.103	36.2994
908.996	35.2106
911.889	61.187
914.781	29.2817
917.674	11.653
920.567	54.2601
923.46	21.2897
926.352	6.4751
929.245	16.0554
932.138	5.73438
935.03	12.3057
937.923	33.5975
940.816	39.8885
943.708	22.375
946.601	39.6144
949.494	24.2766
952.386	15.2673
955.279	1.94128
958.172	15.4373
961.065	0.279358
963.957	6.44989
966.85	15.527
969.743	8.6294
972.635	22.6731
975.528	76.4536
978.421	51.5117
981.313	59.7871
984.206	18.6752
987.099	41.7902
989.992	6.94946
992.884	43.3308
995.777	14.8493
998.67	86.9014
1001.56	19.4591
1004.46	14.0521
1007.35	55.3748
1010.24	38.8561
1013.13	17.6498
1016.03	20.9932
1018.92	77.3341
1021.81	98.9686
1024.7	37.6924
1027.6	72.86
1030.49	91.9289
1033.38	135.286
1036.28	96.7321
1039.17	148.652
1042.06	143.587
1044.95	127.928
1047.85	163.81
1050.74	114.777
1053.63	83.2301
1056.52	80.3094
1059.42	34.5666
1062.31	49.7522
1065.2	40.2849
1068.09	50.2619
1070.99	54.0545
1073.88	8.73505
1076.77	7.45294
1079.66	30.7358
1082.56	8.38727
1085.45	44.4579
1088.34	8.39606
1091.24	40.9033
1094.13	50.9117
1097.02	34.5175
1099.91	30.7342
1102.81	24.7752
1105.7	35.8085
1108.59	6.37262
1111.48	17.278
1114.38	7.33234
1117.27	10.0154
1120.16	23.1301
1123.06	34.1576
1125.95	38.2867
1128.84	53.8886
1131.73	67.0085
1134.63	86.1976
1137.52	69.6586
1140.41	52.8621
1143.31	73.7241
1146.2	59.2104
1149.09	35.2722
1151.98	101.343
1154.88	108.281
1157.77	71.8784
1160.66	101.959
1163.55	92.3585
1166.45	140.172
1169.34	50.568
1172.23	70.7156
1175.12	111.388
1178.02	79.8223
1180.91	85.0094
1183.8	43.7952
1186.69	75.7277
1189.59	56.128
1192.48	26.8597
1195.37	12.4872
1198.27	29.705
1201.16	58.8822
1204.05	68.9887
1206.94	62.5185
1209.84	47.6959
1212.73	50.7718
1215.62	56.5393
1218.52	91.0825
1221.41	18.7063
1224.3	7.63861
1227.19	33.0478
1230.09	3.10321
1232.98	34.2529
1235.87	32.7183
1238.76	30.8796
1241.66	42.6869
1244.55	47.0372
1247.44	47.0722
1250.34	11.8189
1253.23	90.7344
1256.12	64.8056
1259.01	62.1955
1261.91	70.3548
1264.8	88.2112
1267.69	56.9511
1270.58	53.7026
1273.48	49.6484
1276.37	41.876
1279.26	56.9821
1282.15	45.8988
1285.05	15.3649
1287.94	33.663
1290.83	69.3523
1293.72	27.7104
1296.62	5.96991
1299.51	53.9213
1302.4	59.5563
1305.3	21.4708
1308.19	0.019226
1311.08	39.3401
1313.97	10.0564
