Measurement: Raman, 532 nm, unoriented, Raman Data Processed
Mineral: Quenselite
Rruff sample: R100036
Ideal chemistry: PbMn^3+^O_2_(OH)
Locality: Langban, Filipstad, Varmland, Sweden
Source: William W Pinch
Description: Tabular to rectangular blocky, black with a hint of red highlights
Raman shift (cm-1)	intensity
90.0101	0
93.3849	13.4335
96.7597	8.49678
100.135	9.92248
103.509	3.45147
106.884	6.7778
110.259	6.68964
113.634	9.79958
117.009	9.50047
120.383	3.61426
123.758	3.02551
127.133	1.00411
130.508	1.66032
133.883	2.8888
137.257	2.94594
140.632	2.33744
144.007	2.79922
147.382	16.6861
150.757	32.2813
154.132	26.0832
157.506	20.2712
160.881	21.7978
164.256	26.634
167.631	22.2274
171.006	25.8083
174.381	19.3054
177.755	16.8402
181.13	11.4965
184.505	7.35405
187.88	5.71271
191.255	0.196926
194.629	0.498482
198.004	2.9224
201.379	0.185509
204.754	0.272438
208.129	0.225426
211.504	7.86349
214.878	18.2404
218.253	32.5379
221.628	52.8973
225.003	68.1836
228.377	94.7254
231.752	123.884
235.127	151.399
238.502	154.331
241.877	130.242
245.252	89.416
248.626	60.3042
252.001	48.5272
255.376	51.9086
258.751	64.5261
262.126	81.6462
265.5	113.059
268.875	160.393
272.25	213.712
275.625	234.667
279	191.484
282.375	125.394
285.75	73.5399
289.124	48.4747
292.499	37.5082
295.874	32.8996
299.249	42.8465
302.623	48.9738
305.998	67.4583
309.373	93.055
312.748	134.385
316.123	174.299
319.498	167.475
322.872	114.391
326.247	66.3746
329.622	31.521
332.997	13.8341
336.372	11.6749
339.747	3.33919
343.121	0.616562
346.496	0.216881
349.871	5.10571
353.246	0.308884
356.621	0.867569
359.995	1.05185
363.37	6.17329
366.745	7.83347
370.12	17.0422
373.495	17.4578
376.87	14.0317
380.244	14.8357
383.619	12.5717
386.994	14.5711
390.369	22.1721
393.744	28.3703
397.118	39.237
400.493	53.0666
403.868	68.4862
407.243	66.6864
410.618	42.205
413.993	23.0813
417.367	10.2124
420.742	2.97654
424.117	4.97004
427.492	4.41227
430.866	3.77467
434.241	6.41955
437.616	7.35744
440.991	9.30605
444.366	7.38133
447.741	0.824402
451.115	2.23765
454.49	0.28701
457.865	2.36878
461.24	1.00371
464.615	0.820374
467.99	0.085415
471.364	1.3532
474.739	0.713955
478.114	0.75037
481.489	4.73002
484.864	8.16874
488.238	8.09809
491.613	17.0181
494.988	25.8801
498.363	41.4687
501.738	60.6044
505.113	81.9267
508.487	81.2839
511.862	45.1365
515.237	26.9375
518.612	23.9766
521.987	30.0694
525.361	44.1071
528.736	73.5976
532.111	105.504
535.486	147.876
538.861	187.065
542.236	196.848
545.61	153.982
548.985	101.96
552.36	64.7684
555.735	42.3097
559.11	26.5957
562.484	18.5441
565.859	8.70383
569.234	9.0769
572.609	8.08789
575.984	6.69581
579.359	5.91525
582.733	3.7419
586.108	4.39696
589.483	2.94106
592.858	1.28893
596.232	0.522995
599.607	1.05561
602.982	0.020874
606.357	0.062008
609.732	0.693542
613.107	2.89956
616.481	6.60449
619.856	7.88916
623.231	19.1104
626.606	25.4387
629.981	33.2625
633.356	40.3661
636.73	44.2424
640.105	38.81
643.48	32.4036
646.855	17.8213
650.23	14.2425
653.604	10.6976
656.979	10.5641
660.354	3.61395
663.729	3.69949
667.104	5.44911
670.479	0.92437
673.853	2.93079
677.228	3.75253
680.603	2.77355
683.978	2.9683
687.353	3.1416
690.727	0.521126
694.102	1.24876
697.477	2.01017
700.852	3.23324
704.227	1.49218
707.601	3.31431
710.976	1.46729
714.351	0.781075
717.726	2.60876
721.101	0.815628
724.476	3.59034
727.85	4.35625
731.225	1.98105
734.6	2.03892
737.975	3.48455
741.35	2.8532
744.725	4.83186
748.099	2.35966
751.474	5.85296
754.849	4.79728
758.224	3.08905
761.599	6.24141
764.973	3.20322
768.348	1.59182
771.723	5.09735
775.098	1.67599
778.473	4.87698
781.847	2.9224
785.222	2.8084
788.597	2.28036
791.972	3.29133
795.347	2.30127
798.722	2.89455
802.096	2.45625
805.471	1.94596
808.846	2.99669
812.221	0.623425
815.596	2.15566
818.971	0.646961
822.345	4.01719
825.72	3.7395
829.095	3.92293
832.47	7.99991
835.845	8.72221
839.219	9.34551
842.594	6.8728
845.969	5.74252
849.344	5.06237
852.719	2.40998
856.093	3.56105
859.468	2.10459
862.843	0.705997
866.218	4.34283
869.593	2.76231
872.967	4.4196
876.342	2.08367
879.717	4.45947
883.092	2.35158
886.467	0.037434
889.842	0.786503
893.216	2.83637
896.591	2.14512
899.966	1.38718
903.341	0.390461
906.716	2.36803
910.091	1.67576
913.465	2.99507
916.84	1.08022
920.215	3.43554
923.59	3.02381
926.965	0.246157
930.339	3.16792
933.714	0.896259
937.089	1.74216
940.464	1.49485
943.839	0.157257
947.213	3.63939
950.588	3.46582
953.963	2.51536
957.338	4.50913
960.713	1.71511
964.088	2.932
967.462	2.54147
970.837	0.871101
974.212	2.26626
977.587	3.94014
980.962	2.49657
984.337	2.84619
987.711	1.18192
991.086	4.37923
994.461	3.33442
997.836	1.24137
1001.21	5.73096
1004.59	2.58476
1007.96	3.37927
1011.34	5.04166
1014.71	4.06564
1018.09	6.27348
1021.46	2.34643
1024.83	6.2427
1028.21	5.04829
1031.58	6.62872
1034.96	9.49591
1038.33	9.58208
1041.71	10.7781
1045.08	12.1715
1048.46	10.2441
1051.83	8.42217
1055.21	5.61761
1058.58	5.54774
1061.96	4.38459
1065.33	2.31544
1068.71	0.405073
1072.08	1.85092
1075.46	1.11444
1078.83	0.180178
1082.21	1.47994
1085.58	0.63016
1088.96	2.50963
1092.33	2.5641
1095.7	2.87489
1099.08	1.21066
1102.45	1.16338
1105.83	0.216846
1109.2	1.92524
1112.58	1.3663
1115.95	0.564941
1119.33	2.13473
1122.7	2.46446
1126.08	2.41423
1129.45	1.18207
1132.83	4.76051
1136.2	3.80426
1139.58	0.983278
1142.95	4.98714
1146.33	4.38977
1149.7	4.46769
1153.08	5.20838
1156.45	6.72547
1159.83	2.93003
1163.2	5.4307
1166.58	4.30795
1169.95	4.1904
1173.33	3.6169
1176.7	6.60507
1180.08	2.05198
1183.45	5.16213
1186.83	0.967951
1190.2	2.50938
1193.58	3.29118
1196.95	4.19605
1200.33	3.20976
1203.7	2.99867
1207.07	5.13363
1210.45	3.08901
1213.82	2.41841
1217.2	0.571819
1220.57	1.81858
1223.95	4.76047
1227.32	2.81566
1230.7	3.92709
1234.07	0.553535
1237.45	1.70452
1240.82	4.60385
1244.2	1.4574
1247.57	1.9731
1250.95	0.060207
1254.32	3.90396
1257.7	4.68314
1261.07	5.38337
1264.45	6.01453
1267.82	4.08939
1271.2	2.30755
1274.57	1.8986
1277.95	4.79179
1281.32	2.6162
1284.69	3.94728
1288.07	1.71371
1291.44	3.62422
1294.82	4.22705
1298.19	0.265011
1301.57	1.06717
