Measurement: Raman, 785 nm, unoriented, Raman Data Processed
Mineral: Quenselite
Rruff sample: R060439
Ideal chemistry: PbMn^3+^O_2_(OH)
Locality: Amerika Stope, Langban, Filipstad, Varmland, Sweden
Source: Michael Scott
Description: Black micaceous flattened massive, associated with white calcite
Raman shift (cm-1)	intensity
183.695	0
186.587	41.9096
189.48	66.5134
192.373	60.9592
195.265	15.8007
198.158	14.7905
201.051	40.6258
203.944	39.3256
206.836	76.9623
209.729	215.83
212.622	365.07
215.514	659.592
218.407	1011.75
221.3	1141.12
224.192	1339.6
227.085	1687.78
229.978	2088.86
232.87	2621.47
235.763	3021.13
238.656	3165.66
241.549	2750.19
244.441	2033.79
247.334	1473.86
250.227	1175.84
253.119	1205.82
256.012	1486.91
258.905	2126.7
261.798	3143.16
264.69	4397.28
267.583	6006.39
270.476	7888.94
273.368	9980.32
276.261	10378.6
279.154	8698.07
282.046	6076.05
284.939	4139.3
287.832	2896.8
290.724	2155.43
293.617	1686.98
296.51	1363.67
299.403	1263.16
302.295	1367.52
305.188	1655.13
308.081	2087.5
310.973	2692.25
313.866	3455.37
316.759	4076.46
319.651	3769.03
322.544	2745.41
325.437	1682.46
328.33	990.9
331.222	557.447
334.115	308.609
337.008	155.478
339.9	13.9008
342.793	71.5387
345.686	85.1495
348.579	119.172
351.471	96.2526
354.364	29.2124
357.257	98.4009
360.149	262.318
363.042	504.977
365.935	897.259
368.827	1316.03
371.72	1559.93
374.613	1442.89
377.505	1232.13
380.398	1111.44
383.291	981.676
386.184	925.487
389.076	1006.95
391.969	1297.71
394.862	1698.06
397.754	2253
400.647	2945.48
403.54	3532.58
406.433	3539.9
409.325	2805.22
412.218	1738.98
415.111	1076.54
418.003	702.349
420.896	462.352
423.789	353.565
426.681	310.442
429.574	399.876
432.467	443.439
435.36	614.692
438.252	783.019
441.145	906.212
444.038	889.817
446.93	673.088
449.823	326.409
452.716	155.533
455.608	29.854
458.501	6.16235
461.394	41.2866
464.286	31.5471
467.179	51.9654
470.072	35.089
472.965	25.2859
475.857	17.4308
478.75	26.1075
481.643	110.109
484.535	249.64
487.428	349.086
490.321	644.54
493.214	1152.29
496.106	1730.53
498.999	2445.04
501.892	3307.48
504.784	4200.36
507.677	4206.74
510.57	2950.21
513.462	1903.67
516.355	1566.82
519.248	1632.38
522.14	2132.32
525.033	2835.16
527.926	3963.33
530.819	5522.96
533.711	7429.8
536.604	9517.99
539.497	11077.3
542.389	10797.1
545.282	8679.26
548.175	6087.04
551.067	4091.7
553.96	2743.37
556.853	1853.36
559.745	1285.21
562.638	917.575
565.531	705.504
568.424	498.579
571.316	391.592
574.209	371.893
577.102	347.266
579.994	422.874
582.887	423.961
585.78	362.805
588.673	266.772
591.565	122.374
594.458	99.3682
597.351	35.2001
600.243	19.7141
603.136	57.9824
606.029	43.8087
608.921	43.0413
611.814	1.87488
614.707	21.3313
617.6	107.391
620.492	247.88
623.385	335.505
626.278	496.807
629.17	636.082
632.063	811.05
634.956	958.02
637.848	917.725
640.741	822.2
643.634	603.786
646.527	461.522
649.419	293.995
652.312	225.662
655.205	167.316
658.097	177.509
660.99	114.605
663.883	59.5394
666.775	58.0696
669.668	79.2203
672.561	41.757
675.454	45.6143
678.346	2.43048
681.239	20.0316
684.132	10.6964
687.024	5.01355
689.917	23.204
692.81	6.87561
695.702	27.2946
698.595	25.0755
701.488	10.9896
704.381	26.0964
707.273	17.0004
710.166	1.58746
713.059	10.4447
715.951	22.3324
718.844	15.39
721.737	25.494
724.63	25.3074
727.522	24.197
730.415	71.238
733.308	50.7138
736.2	30.0909
739.093	29.4656
741.986	111.15
744.878	118.956
747.771	32.5766
750.664	69.9985
753.557	51.9023
756.449	61.5209
759.342	44.6818
762.235	51.3408
765.127	45.589
768.02	59.2885
770.913	76.7094
773.805	50.6367
776.698	26.0081
779.591	54.9227
782.484	41.1105
785.376	41.4268
788.269	20.8881
791.162	49.9484
794.054	48.5064
796.947	0.25116
799.84	6.39539
802.732	6.61554
805.625	1.03155
808.518	5.78186
811.41	5.00244
814.303	17.5068
817.196	14.2111
820.089	10.6183
822.981	61.4608
825.874	92.1756
828.767	155.931
831.659	183.833
834.552	198.668
837.445	203.75
840.337	155.878
843.23	129.315
846.123	81.9078
849.016	71.3797
851.908	74.7323
854.801	46.7062
857.694	44.4982
860.586	73.8782
863.479	46.3869
866.372	17.1785
869.264	22.033
872.157	22.1353
875.05	6.35217
877.943	59.0018
880.835	28.0631
883.728	2.52271
886.621	25.3235
889.513	48.2523
892.406	16.3124
895.299	20.1333
898.192	36.7988
901.084	48.1564
903.977	64.087
906.87	77.0063
909.762	87.7932
912.655	122.455
915.548	70.6799
918.44	65.5987
921.333	78.8105
924.226	62.4557
927.119	42.8491
930.011	49.9837
932.904	19.186
935.797	43.581
938.689	26.3344
941.582	17.2416
944.475	33.4127
947.367	11.0885
950.26	18.3521
953.153	12.3912
956.045	19.3484
958.938	26.1498
961.831	22.9661
964.724	9.84912
967.616	10.2603
970.509	24.6525
973.402	3.77521
976.294	5.69141
979.187	21.7303
982.08	12.1499
984.972	33.7863
987.865	62.3945
990.758	38.305
993.651	80.6505
996.543	28.5933
999.436	69.393
1002.33	41.0383
1005.22	40.2405
1008.11	45.5796
1011.01	77.6923
1013.9	40.895
1016.79	42.5925
1019.68	24.4845
1022.58	65.2237
1025.47	69.9198
1028.36	86.7892
1031.26	119.75
1034.15	160.414
1037.04	197.177
1039.93	312.45
1042.83	355.489
1045.72	398.727
1048.61	274.099
1051.51	206.27
1054.4	150.838
1057.29	130.17
1060.18	68.5314
1063.08	80.2071
1065.97	81.8484
1068.86	60.0858
1071.75	40.3084
1074.65	12.3421
1077.54	63.3723
1080.43	4.37964
1083.32	12.651
1086.22	33.337
1089.11	35.4067
1092	7.58856
1094.89	25.9138
1097.79	5.17258
1100.68	23.148
1103.57	20.1619
1106.47	33.6327
1109.36	23.5186
1112.25	13.6863
1115.14	5.63971
1118.04	3.82163
1120.93	18.9109
1123.82	11.9638
1126.71	0.704254
1129.61	26.6129
1132.5	45.3044
1135.39	65.1187
1138.29	81.6772
1141.18	74.6341
1144.07	82.1284
1146.96	79.9301
1149.86	105.682
1152.75	44.2749
1155.64	54.7319
1158.53	73.0537
1161.43	110.149
1164.32	80.657
1167.21	68.6495
1170.11	81.7317
1173	64.6278
1175.89	61.5531
1178.78	97.421
1181.68	62.5729
1184.57	56.0814
1187.46	85.8487
1190.35	67.4611
1193.25	85.5201
1196.14	51.6037
1199.03	46.491
1201.92	40.8264
1204.82	44.755
1207.71	48.3487
1210.6	37.7531
1213.5	11.1442
1216.39	15.532
1219.28	47.385
1222.17	24.6693
1225.07	5.04965
1227.96	58.6343
1230.85	40.6465
1233.74	7.77014
1236.64	27.0964
1239.53	14.5749
1242.42	9.03744
