Measurement: Raman, 780 nm, unoriented, Raman Data Processed
Mineral: Quenselite
Rruff sample: R100036
Ideal chemistry: PbMn^3+^O_2_(OH)
Locality: Langban, Filipstad, Varmland, Sweden
Source: William W Pinch
Description: Tabular to rectangular blocky, black with a hint of red highlights
Raman shift (cm-1)	intensity
109.854	0
113.228	0.474899
116.603	4.97919
119.978	0.101372
123.353	6.92671
126.728	15.5432
130.102	52.5457
133.477	57.5762
136.852	64.5919
140.227	76.4732
143.602	78.9115
146.977	67.0707
150.351	51.1058
153.726	16.398
157.101	7.15034
160.476	2.66811
163.851	2.24022
167.226	0.038578
170.6	1.23288
173.975	0.982971
177.35	0.930489
180.725	1.05371
184.1	0.413929
187.474	0.377148
190.849	0.598824
194.224	3.45396
197.599	5.68397
200.974	10.7115
204.349	15.8346
207.723	20.5175
211.098	25.9374
214.473	32.1035
217.848	41.5453
221.223	43.4943
224.597	44.6918
227.972	41.2687
231.347	37.0168
234.722	33.8389
238.097	24.9688
241.471	18.4285
244.846	18.7516
248.221	25.3579
251.596	44.0022
254.971	71.5746
258.346	100.895
261.72	121.086
265.095	138
268.47	141.369
271.845	130.38
275.22	105.67
278.594	79.4073
281.969	53.4348
285.344	40.5187
288.719	31.2742
292.094	26.8604
295.469	29.8033
298.843	34.6797
302.218	39.0617
305.593	45.7226
308.968	45.6859
312.343	42.194
315.717	36.163
319.092	25.0066
322.467	15.5536
325.842	7.45932
329.217	3.0527
332.592	0.610561
335.966	0.700062
339.341	0.706985
342.716	2.56908
346.091	0.701054
349.466	0.937511
352.841	7.41825
356.215	12.7745
359.59	18.9599
362.965	22.0428
366.34	25.8139
369.715	23.5239
373.089	19.9288
376.464	16.8146
379.839	14.7029
383.214	16.4971
386.589	22.7643
389.964	28.336
393.338	34.0326
396.713	37.4442
400.088	37.3393
403.463	33.4489
406.838	24.4154
410.212	15.4129
413.587	9.07617
416.962	4.84159
420.337	3.56381
423.712	5.11921
427.087	8.54837
430.461	8.53709
433.836	9.75227
437.211	6.78418
440.586	7.18767
443.961	2.6441
447.335	0.012394
450.71	0.521706
454.085	1.1909
457.46	2.274
460.835	1.50525
464.209	0.24712
467.584	1.25741
470.959	4.31474
474.334	8.01467
477.709	14.5993
481.084	26.0827
484.458	48.873
487.833	81.101
491.208	117.269
494.583	137.742
497.958	148.82
501.332	140.123
504.707	117.635
508.082	85.2759
511.457	61.6916
514.832	61.6476
518.207	81.7813
521.581	122.418
524.956	170.684
528.331	218.725
531.706	243.643
535.081	247.668
538.455	221.958
541.83	178.87
545.205	122.976
548.58	80.2937
551.955	51.7458
555.33	33.7495
558.704	21.3301
562.079	15.4215
565.454	9.47759
568.829	8.2244
572.204	6.33746
575.578	5.74415
578.953	3.79622
582.328	3.09054
585.703	1.25007
589.078	0.112804
592.452	0.903561
595.827	0.005924
599.202	1.87841
602.577	0.100101
605.952	2.15334
609.327	5.67749
612.701	8.86084
616.076	14.6136
619.451	21.7571
622.826	29.0162
626.201	33.0217
629.576	35.1768
632.95	32.9266
636.325	28.9805
639.7	22.804
643.075	16.6009
646.45	11.7884
649.824	8.02604
653.199	5.97439
656.574	4.36259
659.949	3.15307
663.324	2.70765
666.698	2.0431
670.073	1.52613
673.448	1.43739
676.823	2.56412
680.198	0.506256
683.573	2.43081
686.947	0.709038
690.322	0.769249
693.697	1.03597
697.072	0.618605
700.447	0.88088
703.822	1.06022
707.196	0.792961
710.571	0.761662
713.946	1.76654
717.321	0.153126
720.696	1.84445
724.07	1.45162
727.445	0.665016
730.82	2.22466
734.195	1.54861
737.57	2.04796
740.944	2.29805
744.319	1.36219
747.694	2.83614
751.069	2.35601
754.444	0.601145
757.818	2.15584
761.193	2.06916
764.568	0.951157
767.943	2.47072
771.318	0.645718
774.693	2.16606
778.067	1.35145
781.442	1.64705
784.817	1.69601
788.192	2.38255
791.567	0.686773
794.942	0.180395
798.316	0.291451
801.691	2.02533
805.066	1.32059
808.441	0.033512
811.816	1.77988
815.19	0.28697
818.565	1.26551
821.94	2.13736
825.315	2.15525
828.69	3.07749
832.064	2.85464
835.439	2.24707
838.814	1.23962
842.189	2.39733
845.564	2.72623
848.939	3.17629
852.313	2.36806
855.688	2.77231
859.063	3.1082
862.438	0.854923
865.813	2.46973
869.188	2.60784
872.562	2.89401
875.937	2.03424
879.312	2.47919
882.687	1.72278
886.062	2.61187
889.436	2.50729
892.811	2.33876
896.186	0.054602
899.561	2.17386
902.936	1.33514
906.311	1.80175
909.685	0.249424
913.06	2.77034
916.435	1.40511
919.81	0.433836
923.185	2.50875
926.559	0.513308
929.934	1.15241
933.309	0.490128
936.684	1.33269
940.059	1.53222
943.433	0.719187
946.808	0.305735
950.183	2.08027
953.558	1.31729
956.933	2.06505
960.308	1.33972
963.682	1.35094
967.057	1.00265
970.432	2.37848
973.807	1.90399
977.182	0.947518
980.557	0.175596
983.931	2.12594
987.306	0.593682
990.681	0.401748
994.056	2.64613
997.431	2.92705
1000.8	2.72899
1004.18	2.04306
1007.55	2.75856
1010.93	1.43682
1014.3	1.30475
1017.68	2.32384
1021.05	2.40187
1024.43	1.4924
1027.8	1.24166
1031.18	3.58742
1034.55	2.98531
1037.93	4.1863
1041.3	5.3463
1044.68	3.71539
1048.05	3.20156
1051.43	2.07655
1054.8	1.42311
1058.18	0.45272
1061.55	1.09339
1064.93	0.199902
1068.3	0.166095
1071.68	0.790996
1075.05	0.600705
1078.43	1.67184
1081.8	0.803917
1085.18	0.916197
1088.55	0.090211
1091.92	1.52464
1095.3	0.467683
1098.67	0.401773
1102.05	1.66091
1105.42	0.95674
1108.8	1.75532
1112.17	1.82656
1115.55	0.44565
1118.92	1.53968
1122.3	1.19202
1125.67	2.87115
1129.05	1.53974
1132.42	1.71664
1135.8	1.87878
1139.17	1.89373
1142.55	2.43408
1145.92	1.01548
1149.3	3.07743
1152.67	2.44751
1156.05	3.28082
1159.42	2.0254
1162.8	4.10545
1166.17	2.98345
1169.55	3.47033
1172.92	1.80127
1176.3	2.61255
1179.67	2.6602
1183.05	2.45339
1186.42	2.14918
1189.8	2.46093
1193.17	3.17083
1196.55	2.27479
1199.92	2.08856
1203.29	1.83535
1206.67	1.70677
1210.04	1.40667
1213.42	0.9862
1216.79	1.75966
1220.17	0.780936
1223.54	0.880515
1226.92	2.34822
1230.29	1.39332
1233.67	0.283812
1237.04	0.95924
1240.42	0.18
1243.79	0.787906
1247.17	2.43661
1250.54	2.957
1253.92	1.25015
1257.29	1.5268
1260.67	1.83861
1264.04	1.60952
1267.42	1.4759
1270.79	0.14146
1274.17	1.40363
1277.54	2.24118
1280.91	1.55941
1284.29	1.50777
