Measurement: Raman, 780 nm, unoriented, Raman Data Processed
Mineral: Quintinite
Rruff sample: R070715
Ideal chemistry: Mg_4_Al_2_(OH)_12_CO_3_3H_2_O
Locality: Jacupiranga mine, Cajati, SÃ£o Paulo, Southeast Region, Brazil
Source: Michael Scott
Description: Colorless, hexagonal plate, polytype 3T, associated with calcite, magnetite and quintinite-2H, R070709
Raman shift (cm-1)	intensity
154.236	0
157.129	64.1602
160.021	119.281
162.914	79.0725
165.807	55.3267
168.699	49.8218
171.592	48.46
174.485	136.872
177.377	151.47
180.27	201.035
183.163	216.558
186.055	178.503
188.948	127.386
191.841	53.8606
194.734	82.7019
197.626	10.0022
200.519	38.4645
203.412	30.0781
206.304	23.8498
209.197	53.3844
212.09	51.0281
214.982	112.463
217.875	130.076
220.768	154.796
223.661	185.035
226.553	202.907
229.446	172.291
232.339	219.604
235.231	187.491
238.124	162.971
241.017	159.898
243.91	131.653
246.802	128.737
249.695	122.739
252.588	83.9934
255.48	68.9075
258.373	44.4093
261.266	13.79
264.158	12.4016
267.051	15.4758
269.944	10.384
272.837	31.9056
275.729	20.1665
278.622	52.6313
281.515	13.3315
284.407	61.4653
287.3	22.7589
290.193	80.1953
293.085	64.4375
295.978	121.816
298.871	137.271
301.764	154.192
304.656	129.755
307.549	175.303
310.442	136.859
313.334	120.805
316.227	132.28
319.12	94.8344
322.012	98.2649
324.905	116.82
327.798	88.5794
330.69	109.707
333.583	114.93
336.476	107.401
339.369	122.718
342.261	102.805
345.154	95.9573
348.047	60.2052
350.939	80.5502
353.832	85.4049
356.725	99.2008
359.618	107.559
362.51	169.074
365.403	156.818
368.296	146.3
371.188	94.775
374.081	61.7688
376.974	83.6421
379.866	82.6167
382.759	71.812
385.652	141.795
388.545	164.026
391.437	181.025
394.33	208.96
397.223	280.101
400.115	279.853
403.008	218.217
405.901	97.9481
408.793	55.8756
411.686	62.485
414.579	7.7334
417.471	11.9979
420.364	11.5702
423.257	0.193726
426.15	8.15955
429.042	37.911
431.935	23.0621
434.828	6.26111
437.72	3.4895
440.613	44.1453
443.506	18.7845
446.399	45.3588
449.291	20.8824
452.184	26.6532
455.077	0.052979
457.969	46.0023
460.862	82.1299
463.755	53.6766
466.647	99.8047
469.54	138.542
472.433	132.283
475.325	112.117
478.218	133.175
481.111	169.444
484.004	157.7
486.896	95.2472
489.789	100.906
492.682	134.1
495.574	96.9358
498.467	81.299
501.36	56.2844
504.252	33.9889
507.145	9.54663
510.038	53.3861
512.931	51.6676
515.823	42.4952
518.716	57.6288
521.609	121.427
524.501	122.505
527.394	160.315
530.287	255.701
533.179	322.992
536.072	490.962
538.965	654.084
541.858	970.753
544.75	1310.32
547.643	1863.36
550.536	2474.76
553.428	3235.26
556.321	3738.27
559.214	3428.34
562.106	2496.13
564.999	1552.46
567.892	889.099
570.785	525.458
573.677	337.335
576.57	232.233
579.463	165.641
582.355	132.24
585.248	84.3264
588.141	63.2856
591.034	56.0382
593.926	70.8494
596.819	65.5083
599.712	53.0792
602.604	21.3783
605.497	22.0411
608.39	24.5034
611.282	30.2752
614.175	8.04883
617.068	15.3644
619.961	22.3711
622.853	30.6832
625.746	28.1704
628.639	8.8136
631.531	0.082275
634.424	15.5776
637.317	18.7492
640.209	2.90588
643.102	43.6044
645.995	9.27246
648.888	31.4714
651.78	27.0855
654.673	21.4235
657.566	44.9445
660.458	36.9165
663.351	42.3827
666.244	73.17
669.136	68.6785
672.029	91.9044
674.922	122.165
677.814	154.232
680.707	188.336
683.6	261.342
686.493	320.321
689.385	391.976
692.278	447.041
695.171	512.655
698.063	491.348
700.956	419.87
703.849	277.126
706.741	252.025
709.634	168.228
712.527	116.973
715.42	54.7338
718.312	83.7024
721.205	57.6514
724.098	45.8561
726.99	37.5154
729.883	29.3483
732.776	18.9504
735.668	30.156
738.561	4.10895
741.454	10.8962
744.347	33.5752
747.239	24.148
750.132	10.7545
753.025	4.2583
755.917	22.1071
758.81	3.43878
761.703	18.8729
764.596	10.514
767.488	19.024
770.381	7.71277
773.274	35.6549
776.166	15.0512
779.059	4.83209
781.952	36.239
784.844	2.17084
787.737	4.54175
790.63	22.148
793.523	44.4659
796.415	54.6318
799.308	57.1612
802.201	34.2131
805.093	43.2382
807.986	59.3539
810.879	57.2728
813.771	61.3386
816.664	62.4468
819.557	70.1641
822.449	55.1025
825.342	73.9399
828.235	63.4947
831.128	51.7411
834.02	67.6209
836.913	97.9391
839.806	72.74
842.698	88.3643
845.591	96.91
848.484	65.3096
851.376	77.7907
854.269	69.5574
857.162	32.5815
860.055	11.6426
862.947	57.406
865.84	34.9391
868.733	18.5836
871.625	32.1575
874.518	2.76575
877.411	18.272
880.303	13.2411
883.196	19.3476
886.089	11.5453
888.982	18.7489
891.874	8.93738
894.767	7.77124
897.66	15.9351
900.552	0.907837
903.445	6.3584
906.338	14.9172
909.231	20.7208
912.123	6.37903
915.016	29.7681
917.909	29.6233
920.801	29.3731
923.694	41.7558
926.587	58.7554
929.479	64.7125
932.372	86.1179
935.265	76.1298
938.158	87.2911
941.05	96.9197
943.943	84.0115
946.836	105.29
949.728	104.973
952.621	87.9241
955.514	86.0643
958.406	111.092
961.299	71.1383
964.192	99.7759
967.085	103.181
969.977	56.7063
972.87	66.3463
975.763	52.1418
978.655	23.3546
981.548	29.3633
984.441	4.44983
987.333	27.8936
990.226	19.1204
993.119	24.5591
996.011	18.6185
998.904	20.0814
1001.8	25.1497
1004.69	26.7849
1007.58	67.2367
1010.48	87.9663
1013.37	118.481
1016.26	154.806
1019.15	184.225
1022.05	263.973
1024.94	276.112
1027.83	292.913
1030.72	341.301
1033.62	360.906
1036.51	421.503
1039.4	487.612
1042.3	536.4
1045.19	573.123
1048.08	709.28
1050.97	952.183
1053.87	1438.77
1056.76	2128.52
1059.65	3084.82
1062.54	3693.82
1065.44	3175
1068.33	1751.65
1071.22	821.726
1074.11	361.052
1077.01	226.059
1079.9	131.572
1082.79	102.275
1085.68	53.0005
1088.58	0.672302
1091.47	26.8448
1094.36	1.56366
1097.26	29.8562
1100.15	2.18201
1103.04	6.27197
1105.93	7.2876
1108.83	14.2764
1111.72	26.8721
1114.61	7.27417
1117.51	33.7475
1120.4	29.4094
1123.29	46.5286
1126.18	45.114
1129.08	74.0958
1131.97	76.2007
1134.86	84.1626
1137.75	54.4673
1140.65	56.2824
1143.54	58.0577
1146.43	47.9553
1149.33	1.90247
1152.22	18.7596
1155.11	1.65039
1158	25.9381
1160.89	0
