Measurement: Raman, 532 nm, unoriented, Raman Data Processed
Mineral: Quintinite
Rruff sample: R070709
Ideal chemistry: Mg_4_Al_2_(OH)_12_CO_3_3H_2_O
Locality: Jacupiranga mine, Cajati, SÃ£o Paulo, Southeast Region, Brazil
Source: Michael Scott
Description: Deep orange to light orange, prismatic cluster of crystals, polytype 2H, associated with calcite, magnetite, pyrite and quintinite-3T, R070715
Raman shift (cm-1)	intensity
161.589	0
164.482	520.07
167.375	506.945
170.267	63.3711
173.16	98.0098
176.053	477.853
178.946	1001.79
181.838	1070.14
184.731	782.273
187.624	338.558
190.516	28.8213
193.409	70.1055
196.302	31.2649
199.194	3.73315
202.087	160.35
204.98	282.682
207.873	433.683
210.765	526.585
213.658	407.266
216.551	378.34
219.443	297.407
222.336	564.302
225.229	717.713
228.121	754.307
231.014	827.792
233.907	822.59
236.799	795.192
239.692	831.619
242.585	874.253
245.478	806.227
248.37	738.189
251.263	651.999
254.156	542.114
257.048	535.419
259.941	503.499
262.834	485.753
265.726	422.593
268.619	424.588
271.512	418.882
274.405	443.259
277.297	354.912
280.19	358.416
283.083	328.859
285.975	320.281
288.868	340.098
291.761	392.944
294.654	388.328
297.546	454.509
300.439	600.787
303.332	669.061
306.224	611.688
309.117	525.719
312.01	342.878
314.902	237.639
317.795	97.9893
320.688	28.9148
323.58	53.9714
326.473	30.3733
329.366	34.8044
332.259	18.9661
335.151	50.0991
338.044	18.115
340.937	44.4373
343.829	39.9207
346.722	3.85815
349.615	11.9334
352.507	27.4624
355.4	64.4622
358.293	117.539
361.186	240.38
364.078	495.453
366.971	250.705
369.864	150.375
372.756	38.332
375.649	80.7522
378.542	74.9356
381.434	173.389
384.327	214.025
387.22	299.085
390.113	306.685
393.005	415.703
395.898	567.99
398.791	699.255
401.683	582.45
404.576	361.972
407.469	174.812
410.361	87.7251
413.254	27.6611
416.147	22.6689
419.04	5.98755
421.932	8.16602
424.825	27.2798
427.718	11.8828
430.61	10.0166
433.503	6.92651
436.396	23.6069
439.288	53.512
442.181	29.3735
445.074	27.8406
447.967	89.7471
450.859	115.613
453.752	188.234
456.645	178.453
459.537	182.287
462.43	306.094
465.323	403.526
468.215	533.122
471.108	692.073
474.001	851.519
476.894	961.505
479.786	1015.34
482.679	930.368
485.572	783.488
488.464	682.474
491.357	587.62
494.25	401.384
497.142	276.898
500.035	182.155
502.928	115.823
505.82	78.5361
508.713	55.9539
511.606	64.7798
514.499	85.8616
517.391	90.9883
520.284	186.746
523.177	215.314
526.069	384.845
528.962	574.253
531.855	808.45
534.747	1176.15
537.64	1640.78
540.533	2294.02
543.426	3196.23
546.318	4364.06
549.211	6055.78
552.104	8452.61
554.996	11134.3
557.889	11978
560.782	9100.83
563.674	5259.56
566.567	2880.06
569.46	1709.17
572.353	1017.46
575.245	640.782
578.138	427.772
581.031	289.744
583.923	230.159
586.816	125.641
589.709	92.3838
592.601	80.9485
595.494	54.5767
598.387	57.967
601.28	16.2044
604.172	15.6387
607.065	0.056641
609.958	18.5222
612.85	12.8889
615.743	24.739
618.636	9.9331
621.529	0.958496
624.421	12.3957
627.314	8.78833
630.207	53.2596
633.099	17.47
635.992	33.2174
638.885	1.84058
641.777	10.8953
644.67	47.1917
647.563	13.5198
650.456	39.5786
653.348	19.6592
656.241	7.29297
659.134	42.7689
662.026	8.15332
664.919	43.0422
667.812	32.256
670.704	80.6636
673.597	69.7633
676.49	106.718
679.382	105.867
682.275	123.035
685.168	161.127
688.061	196.603
690.953	216.346
693.846	253.431
696.739	283.776
699.631	245.211
702.524	185.823
705.417	156.054
708.309	95.7056
711.202	40.9983
714.095	28.5901
716.987	49.5535
719.88	19.8933
722.773	12.3425
725.666	31.103
728.558	0.970703
731.451	13.0115
734.344	3.50171
737.236	10.4416
740.129	16.6238
743.022	27.366
745.915	50.4268
748.807	60.8296
751.7	72.8462
754.593	63.5159
757.485	94.9734
760.378	101.013
763.271	133.237
766.163	144.816
769.056	189.438
771.949	189.63
774.842	156.611
777.734	171.871
780.627	218.086
783.52	172.793
786.412	212.782
789.305	212.942
792.198	231.998
795.091	232.21
797.983	212.355
800.876	217.058
803.769	192.912
806.661	156.04
809.554	194.66
812.447	172.475
815.339	144.167
818.232	151.131
821.125	169.022
824.017	184.39
826.91	165.8
829.803	183.584
832.696	181.491
835.588	151.805
838.481	187.09
841.374	196.526
844.266	207.317
847.159	177.674
850.052	188.676
852.944	158.466
855.837	138.068
858.73	143.82
861.622	131.696
864.515	116.084
867.408	86.7
870.301	64.4685
873.193	56.4207
876.086	27.0908
878.979	42.9187
881.871	18.3467
884.764	3.34131
887.657	14.1562
890.549	7.40942
893.442	12.4204
896.335	16.5027
899.228	4.98682
902.12	26.6506
905.013	5.74609
907.906	13.9663
910.798	13.2993
913.691	52.5776
916.584	18.6252
919.476	32.3345
922.369	45.9641
925.262	46.6921
928.155	66.2956
931.047	92.6223
933.94	100.43
936.833	83.2368
939.725	124.396
942.618	194.917
945.511	197.043
948.404	226.791
951.296	165.19
954.189	208.106
957.082	180.798
959.974	184.848
962.867	151.448
965.76	142.445
968.652	174.102
971.545	129.973
974.438	128.969
977.331	95.9319
980.223	85.0698
983.116	59.7219
986.009	48.6902
988.901	42.9099
991.794	21.5759
994.687	11.4683
997.579	8.78296
1000.47	49.447
1003.37	50.8462
1006.26	85.0615
1009.15	110.749
1012.04	121.026
1014.94	186.346
1017.83	204.871
1020.72	307.491
1023.61	329.606
1026.51	410.963
1029.4	523.909
1032.29	582.892
1035.18	679.979
1038.08	785.882
1040.97	842.057
1043.86	971.609
1046.76	1261.85
1049.65	1633.6
1052.54	2358.11
1055.43	3597.34
1058.33	5206.55
1061.22	6721.68
1064.11	6375.8
1067	3660.05
1069.9	1676.98
1072.79	835.775
1075.68	416.451
1078.58	245.455
1081.47	160.423
1084.36	70.7246
1087.25	31.7734
1090.15	7.57275
1093.04	4.50122
1095.93	19.7676
1098.82	31.1548
1101.72	6.375
1104.61	23.5794
1107.5	3.99243
1110.39	38.0964
1113.29	6.39575
1116.18	42.5474
1119.07	6.12085
1121.96	6.29175
1124.86	15.4168
1127.75	7.03247
1130.64	49.7407
1133.54	28.6357
1136.43	44.9917
1139.32	52.5398
1142.21	73.1877
1145.11	45.4861
1148	64.041
1150.89	120.735
1153.79	128.971
1156.68	109.752
1159.57	91.0606
1162.46	82.821
1165.36	49.0457
1168.25	67.8379
1171.14	54.3518
1174.03	56.6074
1176.93	40.0459
1179.82	24.9023
1182.71	10.0335
1185.61	40.7878
1188.5	61.1611
1191.39	60.134
1194.28	65.3982
1197.18	43.3879
1200.07	63.6553
1202.96	44.0249
1205.85	34.5664
1208.75	73.1792
1211.64	32.7986
1214.53	81.5085
1217.42	46.2534
1220.32	90.1997
1223.21	34.2324
1226.1	67.561
1228.99	39.196
1231.89	23.8408
1234.78	6.26489
1237.67	25.5139
1240.57	5.55518
1243.46	34.648
1246.35	28.3225
1249.24	23.699
1252.14	53.1191
1255.03	14.3594
1257.92	12.9431
1260.82	41.3027
1263.71	39.8105
1266.6	15.1296
1269.49	8.73657
1272.39	46.2549
1275.28	25.8569
1278.17	41.844
1281.06	63.0046
1283.96	5.16284
1286.85	22.8557
1289.74	28.0022
1292.63	14.8877
1295.53	0.573242
