Measurement: Raman, 780 nm, unoriented, Raman Data Processed
Mineral: Quintinite
Rruff sample: R070709
Ideal chemistry: Mg_4_Al_2_(OH)_12_CO_3_3H_2_O
Locality: Jacupiranga mine, Cajati, SÃ£o Paulo, Southeast Region, Brazil
Source: Michael Scott
Description: Deep orange to light orange, prismatic cluster of crystals, polytype 2H, associated with calcite, magnetite, pyrite and quintinite-3T, R070715
Raman shift (cm-1)	intensity
162.914	0
165.807	191.514
168.699	293.37
171.592	85.2632
174.485	7.771
177.377	178.166
180.27	458.936
183.163	611.498
186.055	425.806
188.948	244.928
191.841	79.4651
194.734	13.8097
197.626	37.3821
200.519	15.348
203.412	29.1554
206.304	164.583
209.197	215.531
212.09	271.432
214.982	224.883
217.875	204.529
220.768	159.378
223.661	281.24
226.553	360.795
229.446	381.516
232.339	412.505
235.231	405.642
238.124	412.779
241.017	416.317
243.91	400.405
246.802	373.589
249.695	359.883
252.588	332.158
255.48	268.044
258.373	270.734
261.266	221.747
264.158	210.893
267.051	220.516
269.944	235.746
272.837	204.738
275.729	190.709
278.622	199.306
281.515	158.178
284.407	154.815
287.3	163.181
290.193	136.022
293.085	188.079
295.978	228.435
298.871	241.57
301.764	301.698
304.656	344.3
307.549	319.758
310.442	277.056
313.334	197.339
316.227	148.329
319.12	38.6024
322.012	7.23181
324.905	15.8905
327.798	10.9999
330.69	8.15442
333.583	1.97351
336.476	12.2897
339.369	15.7129
342.261	7.9776
345.154	17.9634
348.047	32.2105
350.939	0.11499
353.832	24.0945
356.725	25.3289
359.618	54.4977
362.51	137.435
365.403	157.43
368.296	124.948
371.188	43.7038
374.081	13.8612
376.974	16.477
379.866	13.1419
382.759	34.5612
385.652	62.7942
388.545	116.092
391.437	145.853
394.33	197.181
397.223	304.094
400.115	340.723
403.008	313.851
405.901	161.823
408.793	82.5817
411.686	49.0017
414.579	2.15894
417.471	8.43109
420.364	18.9567
423.257	15.1195
426.15	6.15546
429.042	3.81323
431.935	12.8564
434.828	13.755
437.72	29.2969
440.613	19.4479
443.506	8.37878
446.399	19.5092
449.291	34.0133
452.184	50.2242
455.077	48.1967
457.969	56.7325
460.862	79.0139
463.755	87.4055
466.647	108.356
469.54	168.952
472.433	184.969
475.325	224.006
478.218	228.824
481.111	224.931
484.004	208.186
486.896	203.959
489.789	207.439
492.682	201.073
495.574	162.647
498.467	114.088
501.36	79.2206
504.252	71.4206
507.145	27.5747
510.038	16.7702
512.931	24.6869
515.823	25.121
518.716	29.1589
521.609	54.7158
524.501	70.6109
527.394	115.919
530.287	180.449
533.179	260.822
536.072	381.951
538.965	554.145
541.858	797.72
544.75	1118.5
547.643	1594.25
550.536	2207.99
553.428	3076.29
556.321	3951.42
559.214	4278.04
562.106	3275.79
564.999	1974.3
567.892	1126.45
570.785	659.065
573.677	419.165
576.57	270.064
579.463	168.698
582.355	113.16
585.248	72.4562
588.141	67.1872
591.034	58.6534
593.926	37.9907
596.819	12.538
599.712	8.20486
602.604	22.4335
605.497	12.0369
608.39	0.408936
611.282	14.1944
614.175	13.3559
617.068	16.4068
619.961	11.7504
622.853	4.67355
625.746	9.07294
628.639	10.6606
631.531	8.35333
634.424	7.38858
637.317	6.43131
640.209	0.907837
643.102	3.36166
645.995	3.66724
648.888	21.5536
651.78	1.01947
654.673	13.4113
657.566	4.83432
660.458	13.0135
663.351	12.9762
666.244	3.45346
669.136	26.7315
672.029	31.0547
674.922	45.0407
677.814	82.7822
680.707	108.392
683.6	115.415
686.493	135.846
689.385	184.081
692.278	205.604
695.171	243.375
698.063	235.554
700.956	201.442
703.849	153.141
706.741	126.103
709.634	85.2318
712.527	49.5561
715.42	34.5663
718.312	26.4497
721.205	11.3699
724.098	28.7085
726.99	17.1274
729.883	8.56839
732.776	3.20312
735.668	18.1558
738.561	5.02567
741.454	10.633
744.347	10.8931
747.239	27.3716
750.132	6.7179
753.025	31.7592
755.917	18.1631
758.81	14.5456
761.703	26.2607
764.596	41.1364
767.488	50.8726
770.381	37.2644
773.274	28.6211
776.166	44.2859
779.059	63.2916
781.952	74.1465
784.844	79.9304
787.737	78.1483
790.63	82.5104
793.523	93.779
796.415	85.6628
799.308	82.8563
802.201	89.2701
805.093	81.8713
807.986	79.0194
810.879	84.1899
813.771	78.2293
816.664	41.021
819.557	51.8158
822.449	46.3813
825.342	75.0432
828.235	65.9849
831.128	68.2496
834.02	63.9503
836.913	80.2416
839.806	77.4508
842.698	70.1975
845.591	83.0635
848.484	80.9422
851.376	66.4327
854.269	69.2982
857.162	48.3707
860.055	45.9351
862.947	54.5249
865.84	34.6924
868.733	42.919
871.625	17.4495
874.518	6.56137
877.411	15.2016
880.303	18.5861
883.196	19.4072
886.089	4.72998
888.982	9.21039
891.874	5.95068
894.767	11.2813
897.66	16.3516
900.552	15.7316
903.445	17.3437
906.338	13.0797
909.231	1.3367
912.123	11.428
915.016	0.974579
917.909	3.26312
920.801	6.06476
923.694	5.57068
926.587	30.0345
929.479	52.2831
932.372	61.8226
935.265	50.4791
938.158	48.9872
941.05	97.7217
943.943	73.8729
946.836	97.4762
949.728	92.3852
952.621	112.661
955.514	93.2822
958.406	88.4174
961.299	89.5898
964.192	86.4316
967.085	102.756
969.977	80.5739
972.87	79.2999
975.763	63.6429
978.655	53.1878
981.548	57.9446
984.441	37.0978
987.333	39.0646
990.226	27.6655
993.119	26.226
996.011	37.0102
998.904	16.819
1001.8	49.2256
1004.69	45.795
1007.58	64.2084
1010.48	83.2524
1013.37	93.0169
1016.26	125.458
1019.15	193.2
1022.05	220.369
1024.94	284.497
1027.83	332.956
1030.72	385.507
1033.62	450.212
1036.51	492.922
1039.4	551.637
1042.3	590.642
1045.19	652.457
1048.08	758.208
1050.97	959.36
1053.87	1344.64
1056.76	2056.15
1059.65	2927.29
1062.54	3497.82
1065.44	2981.26
1068.33	1727.23
1071.22	795.421
1074.11	324.927
1077.01	148.381
1079.9	72.2532
1082.79	27.0695
1085.68	15.0023
1088.58	13.2254
1091.47	5.29675
1094.36	10.04
1097.26	6.44583
1100.15	9.29321
1103.04	0.136932
1105.93	2.55698
1108.83	3.6618
1111.72	15.4814
1114.61	8.62985
1117.51	10.754
1120.4	10.8796
1123.29	22.2246
1126.18	0.024597
1129.08	5.86484
1131.97	35.3683
1134.86	34.7856
1137.75	38.6903
1140.65	13.4928
1143.54	42.5386
1146.43	45.0801
1149.33	46.7976
1152.22	30.7793
1155.11	18.0668
1158	40.5012
1160.89	43.7805
1163.79	44.5312
1166.68	24.4597
1169.57	21.6658
1172.47	26.1259
1175.36	16.0676
1178.25	41.1642
1181.14	26.4421
1184.04	30.5385
1186.93	32.5199
1189.82	19.1713
1192.71	14.5268
1195.61	31.4283
1198.5	3.98807
1201.39	11.2779
1204.29	12.618
1207.18	22.7417
1210.07	34.3825
1212.96	44.4101
1215.86	48.6685
1218.75	18.0336
1221.64	55.6826
1224.54	30.6535
1227.43	28.7307
1230.32	24.5995
1233.21	20.0291
1236.11	39.4203
1239	29.9212
1241.89	12.7195
1244.78	29.7811
1247.68	27.0869
1250.57	0.526489
1253.46	18.7554
1256.35	29.9041
1259.25	20.324
1262.14	2.69013
1265.03	20.5302
1267.92	16.7923
1270.82	20.4919
1273.71	4.82754
1276.6	11.0402
1279.5	32.09
1282.39	4.30933
1285.28	1.96195
