Measurement: Raman, 532 nm, unoriented, Raman Data Processed
Mineral: Quintinite
Rruff sample: R070715
Ideal chemistry: Mg_4_Al_2_(OH)_12_CO_3_3H_2_O
Locality: Jacupiranga mine, Cajati, SÃ£o Paulo, Southeast Region, Brazil
Source: Michael Scott
Description: Colorless, hexagonal plate, polytype 3T, associated with calcite, magnetite and quintinite-2H, R070709
Raman shift (cm-1)	intensity
165.928	0
168.821	0.597656
171.714	32.438
174.607	80.562
177.499	96.0884
180.392	25.0356
183.285	112.739
186.177	150.372
189.07	131.322
191.963	49.5786
194.855	83.0156
197.748	58.8315
200.641	14.4956
203.534	20.644
206.426	13.2798
209.319	80.8857
212.212	99.4268
215.104	44.2202
217.997	68.5518
220.89	115.468
223.782	118.305
226.675	72.061
229.568	58.8613
232.46	78.8579
235.353	96.0967
238.246	71.7939
241.138	28.8667
244.031	64.3008
246.924	27.2725
249.817	24.874
252.709	12.1914
255.602	10.6104
258.495	9.65332
261.387	7.20606
264.28	5.375
267.173	34.8062
270.066	94.2422
272.958	68.5859
275.851	94.812
278.744	38.3638
281.636	63.856
284.529	66.1582
287.422	9.64502
290.314	90.4175
293.207	65.8003
296.1	62.4834
298.993	194.525
301.885	156.077
304.778	111.988
307.671	179.698
310.563	99.147
313.456	68.1777
316.349	59.4805
319.241	84.4038
322.134	15.251
325.027	49.3101
327.92	5.40137
330.812	80.0523
333.705	107.979
336.598	79.7661
339.49	72.186
342.383	46.876
345.276	61.9722
348.168	31.4233
351.061	79.7329
353.954	85.0386
356.846	171.386
359.739	170.683
362.632	114.842
365.525	114.04
368.417	109.426
371.31	24.7607
374.203	121.957
377.095	118.228
379.988	114.798
382.881	100.664
385.774	159.079
388.666	89.9443
391.559	134.851
394.452	188.773
397.344	129.829
400.237	68.6094
403.13	131.403
406.022	70.1812
408.915	25.9624
411.808	5.25586
414.7	67.3101
417.593	58.2197
420.486	28.5234
423.379	33.6773
426.271	34.2817
429.164	22.0264
432.057	15.7476
434.949	12.855
437.842	3.11768
440.735	6.27686
443.627	11.1816
446.52	46.1514
449.413	9.58154
452.306	35.1235
455.198	24.6826
458.091	0.825684
460.984	91.9595
463.876	59.9277
466.769	137.467
469.662	111.159
472.555	192.957
475.447	135.745
478.34	154.372
481.233	187.472
484.125	176.716
487.018	129.105
489.911	100.258
492.803	106.736
495.696	108.814
498.589	131.078
501.481	36.7588
504.374	70.0122
507.267	98.4902
510.16	71.3716
513.052	32.3755
515.945	57.2251
518.838	14.2949
521.73	117.698
524.623	113.246
527.516	123.899
530.408	257.323
533.301	398.809
536.194	571.455
539.087	738.828
541.979	1114.71
544.872	1454.3
547.765	2029.95
550.657	2720.81
553.55	3542.14
556.443	4128.91
559.335	3584.79
562.228	2301.8
565.121	1291.98
568.014	746.874
570.906	450.012
573.799	341.546
576.692	166.234
579.584	121.03
582.477	165.124
585.37	32.9443
588.263	53.6352
591.155	40.375
594.048	40.4648
596.941	38.1582
599.833	64.0752
602.726	58.4849
605.619	26.5249
608.511	11.2261
611.404	13.5288
614.297	36.1143
617.189	41.6572
620.082	4.30566
622.975	74.0806
625.868	34.2744
628.76	24.6602
631.653	33.4971
634.546	40.2026
637.438	37.4951
640.331	47.4502
643.224	29.7134
646.116	70.8184
649.009	47.1973
651.902	64.7007
654.795	36.9976
657.687	77.0566
660.58	76.1763
663.473	10.1558
666.365	125.163
669.258	145.453
672.151	83.9678
675.043	134.022
677.936	146.797
680.829	168.888
683.721	310.081
686.614	301.709
689.507	333.115
692.4	384.702
695.292	442.554
698.185	407.686
701.078	311.935
703.97	262.2
706.863	216.223
709.756	125.791
712.649	111.42
715.541	91.7476
718.434	90.8784
721.327	149.162
724.219	61.2632
727.112	139.025
730.005	90.9741
732.897	78.481
735.79	41.0645
738.683	14.8369
741.576	32.8076
744.468	37.5371
747.361	44.9033
750.254	14.5342
753.146	60.3662
756.039	52.9668
758.932	20.9824
761.824	26.727
764.717	14.9507
767.61	57.831
770.503	55.3179
773.395	31.9868
776.288	61.3296
779.181	42.7324
782.073	50.1416
784.966	139.831
787.859	14.6992
790.751	78.7031
793.644	128.992
796.537	42.5767
799.429	79.2661
802.322	121.712
805.215	139.611
808.108	123.603
811	80.4756
813.893	132.689
816.786	89.9819
819.678	73.564
822.571	192.453
825.464	163.429
828.356	136.203
831.249	68.0791
834.142	123.156
837.034	119.301
839.927	69.6494
842.82	120.682
845.713	133.543
848.605	95.2329
851.498	95.7939
854.391	73.9219
857.283	60.4937
860.176	134.574
863.069	87.4243
865.962	133.906
868.854	34.1489
871.747	39.7197
874.64	37.3628
877.532	41.3018
880.425	30.9106
883.318	70.9185
886.21	46.9429
889.103	11.4824
891.996	29.0591
894.889	12.7788
897.781	78.7017
900.674	11.3379
903.567	15.2368
906.459	72.3027
909.352	32.4477
912.245	12.6958
915.138	54.6055
918.03	81.7451
920.923	48.4062
923.816	60.8032
926.708	145.144
929.601	99.0386
932.494	128.856
935.386	119.507
938.279	69.0679
941.172	116.061
944.064	154.963
946.957	148.927
949.85	164.006
952.743	127.905
955.635	110.379
958.528	102.556
961.421	129.384
964.313	70.7471
967.206	67.6328
970.099	140.698
972.991	117.555
975.884	15.979
978.777	70.2368
981.67	52.3457
984.562	79.3364
987.455	37.5239
990.348	41.4072
993.24	25.4775
996.133	31.146
999.026	79.4731
1001.92	122.574
1004.81	112.237
1007.7	139.527
1010.6	137.758
1013.49	93.7505
1016.38	188.718
1019.27	298.361
1022.17	371.364
1025.06	351.429
1027.95	363.579
1030.85	418.502
1033.74	493.603
1036.63	536.618
1039.52	632.523
1042.42	728.469
1045.31	1042.43
1048.2	1502.4
1051.09	1869.24
1053.99	2601.22
1056.88	3422.92
1059.77	4429.64
1062.66	5173.36
1065.56	3787.4
1068.45	1713.87
1071.34	715.165
1074.24	323.56
1077.13	297.945
1080.02	180.252
1082.91	89.0562
1085.81	80.394
1088.7	12.8818
1091.59	10.0752
1094.48	14.2896
1097.38	129.392
1100.27	41.647
1103.16	55.9399
1106.06	12.7969
1108.95	3.38721
1111.84	26.9175
1114.73	31.4731
1117.63	19.5864
1120.52	49.6875
1123.41	56.27
1126.3	35.9106
1129.2	117.871
1132.09	106.562
1134.98	108.931
1137.88	113.309
1140.77	12.5347
1143.66	50.6738
1146.55	86.939
1149.45	85.8731
1152.34	5.36182
1155.23	66.0254
1158.12	50.3355
1161.02	106.661
1163.91	55.6079
1166.8	76.4668
1169.69	31.7554
1172.59	69.7036
1175.48	26.1411
1178.37	51.0562
1181.27	59.523
1184.16	51.0566
1187.05	68.5762
1189.94	84.4849
1192.84	36.165
1195.73	18.3267
1198.62	95.5586
1201.52	86.9683
1204.41	113.015
1207.3	18.5532
1210.19	21.0923
1213.09	103.834
1215.98	69.8701
1218.87	35.0898
1221.76	104.392
1224.66	27.1567
1227.55	13.4702
1230.44	58.4097
1233.33	20.6777
1236.23	44.6934
1239.12	58.7988
1242.01	13.4751
1244.9	42.7407
1247.8	82.9292
1250.69	136.864
1253.58	83.7554
1256.48	104.3
1259.37	104.211
1262.26	35.042
1265.15	29.396
1268.05	85.7759
1270.94	45.793
1273.83	47.0225
1276.72	30.6768
1279.62	62.958
1282.51	61.7192
1285.4	34.8643
1288.3	24.6753
1291.19	107.249
1294.08	46.229
1296.97	22.0332
