Measurement: Raman, 780 nm, unoriented, Raman Data Processed
Mineral: Radhakrishnaite
Rruff sample: R070711
Ideal chemistry: PbTe_3_(Cl,S)_2_
Locality: Oktyabr'skoye Cu-Ni Deposit (Oktyabr'sk Deposit),  Noril'sk,  Putoran Plateau,  Krasnoyarsk Territory (Krasnoyarsk Kray; Krasnoyarskii Krai),  Eastern-Siberian Region,  Russia
Source: Michael Scott
Description: Opaque brown grain in polished section
Raman shift (cm-1)	intensity
150.379	0
153.272	1.65625
156.164	96.957
159.057	162.371
161.95	152.667
164.842	89.4688
167.735	85.8301
170.628	197.544
173.52	269.311
176.413	174.122
179.306	200.953
182.199	103.665
185.091	4.77881
187.984	57.0537
190.877	14.8696
193.769	34.9546
196.662	8.09668
199.555	112.877
202.447	104.953
205.34	229.727
208.233	262.033
211.126	329.565
214.018	442.813
216.911	573.756
219.804	457.085
222.696	542.532
225.589	424.996
228.482	355.659
231.375	312.856
234.267	269.074
237.16	191.69
240.053	115.735
242.945	44.1553
245.838	19.8814
248.731	57.5923
251.623	20.6011
254.516	48.6553
257.409	45.0513
260.301	41.4565
263.194	119.669
266.087	110.568
268.98	191.88
271.872	144.017
274.765	186.724
277.658	193.039
280.55	315.678
283.443	305.973
286.336	409.531
289.228	401.34
292.121	417.26
295.014	389.968
297.907	409.281
300.799	290.887
303.692	345.988
306.585	376.426
309.477	282.682
312.37	267.134
315.263	234.205
318.156	300.503
321.048	239.168
323.941	192.597
326.834	206.712
329.726	271.726
332.619	154.841
335.512	196.54
338.404	183.517
341.297	101.23
344.19	60.3074
347.082	57.115
349.975	22.4795
352.868	97.8152
355.761	21.8713
358.653	29.7651
361.546	28.3442
364.439	15.0137
367.331	23.6533
370.224	14.7356
373.117	45.4504
376.01	77.3135
378.902	95.9504
381.795	71.654
384.688	87.6916
387.58	94.5083
390.473	118.391
393.366	125.983
396.258	138.34
399.151	105.931
402.044	103.357
404.937	100.597
407.829	31.6831
410.722	140.443
413.615	52.3516
416.507	122.834
419.4	89.0613
422.293	25.7398
425.185	59.3735
428.078	59.6553
430.971	8.36768
433.863	56.9475
436.756	60.1614
439.649	27.0088
442.542	42.4346
445.434	15.5659
448.327	39.1191
451.22	9.82568
454.112	14.3582
457.005	13.606
459.898	9.17212
462.791	70.6709
465.683	1.88477
468.576	44.543
471.469	104.78
474.361	53.499
477.254	7.88794
480.147	7.78345
483.039	44.1162
485.932	40.707
488.825	80.2461
491.717	77.4573
494.61	76.9263
497.503	63.4023
500.396	75.7659
503.288	102.99
506.181	83.479
509.074	26.5867
511.966	105.385
514.859	82.2395
517.752	86.9473
520.644	56.3398
523.537	98.0156
526.43	109.353
529.323	70.4846
532.215	123.305
535.108	130.446
538.001	90.7554
540.893	133.663
543.786	100.836
546.679	116.458
549.572	131.126
552.464	119.968
555.357	114.497
558.25	70.572
561.142	42.8127
564.035	51.6946
566.928	50.3633
569.82	12.3347
572.713	14.2085
575.606	32.6611
578.499	23.291
581.391	11.5278
584.284	3.33862
587.177	52.1567
590.069	8.76099
592.962	21.1877
595.855	19.0286
598.747	12.5049
601.64	26.2651
604.533	47.8469
607.426	132.648
610.318	128.155
613.211	196.16
616.104	329.925
618.996	306.456
621.889	496.565
624.782	561.442
627.674	710.488
630.567	812.926
633.46	979.338
636.352	1086.17
639.245	1140.15
642.138	1136.13
645.031	1121.16
647.923	986.022
650.816	845.888
653.709	642.428
656.601	489.899
659.494	331.98
662.387	228.905
665.279	161.875
668.172	139.239
671.065	137.06
673.958	92.0456
676.85	189.766
679.743	171.971
682.636	232.66
685.528	348.093
688.421	442.4
691.314	494.663
694.207	644.23
697.099	833.991
699.992	1005.68
702.885	1236.55
705.777	1362.78
708.67	1586.7
711.563	1832.62
714.455	1824.39
717.348	1888.58
720.241	1948.18
723.134	1941.35
726.026	2074.67
728.919	2249.63
731.812	2448.3
734.704	2640.49
737.597	2798.03
740.49	2694.1
743.382	2601.44
746.275	2296.73
749.168	1955.96
752.061	1604.43
754.953	1230.56
757.846	858.141
760.739	547.05
763.631	428.424
766.524	223.704
769.417	123.965
772.309	55.0322
775.202	23.5151
778.095	39.7041
780.987	15.7026
783.88	54.8935
786.773	28.354
789.666	48.7593
792.558	11.8408
795.451	7.37891
798.344	19.5018
801.236	4.69104
804.129	14.5883
807.022	3.86023
809.914	31.3904
812.807	86.7826
815.7	51.1267
818.593	51.2053
821.485	100.068
824.378	95.6825
827.271	106.149
830.163	146.935
833.056	162.062
835.949	90.251
838.841	174.846
841.734	148.093
844.627	143.006
847.519	141.48
850.412	136.518
853.305	116.446
856.198	190.806
859.09	115.849
861.983	143.442
864.876	105.072
867.768	91.7228
870.661	54.6633
873.554	125.204
876.447	71.2571
879.339	33.2421
882.232	56.6794
885.125	82.137
888.017	38.4313
890.91	115.889
893.803	93.9629
896.695	88.7451
899.588	22.5475
902.481	79.0979
905.374	47.0303
908.266	51.9232
911.159	72.4825
914.052	74.8425
916.944	26.1805
919.837	38.4388
922.73	52.6627
925.622	56.2891
928.515	26.0984
931.408	37.6012
934.301	37.032
937.193	23.3585
940.086	21.5713
942.979	22.0061
945.871	54.4766
948.764	16.6503
951.657	64.8528
954.549	19.3658
957.442	50.6306
960.335	36.7947
963.227	4.03882
966.12	18.7352
969.013	5.91675
971.906	61.3933
974.798	51.5247
977.691	16.3686
980.584	37.1013
983.476	10.2203
986.369	62.4402
989.262	32.6318
992.154	2.89685
995.047	6.78577
997.94	9.47046
1000.83	2.94385
1003.73	59.66
1006.62	15.3562
1009.51	46.8737
1012.4	40.0627
1015.3	54.3763
1018.19	31.898
1021.08	46.2833
1023.97	45.6703
1026.87	24.7156
1029.76	76.0786
1032.65	39.4839
1035.55	21.5787
1038.44	46.5635
1041.33	32.0077
1044.22	57.6473
1047.12	48.083
1050.01	54.8605
1052.9	59.7666
1055.79	56.7078
1058.69	34.0275
1061.58	54.131
1064.47	6.49414
1067.37	34.5926
1070.26	52.1256
1073.15	37.4637
1076.04	57.1268
1078.94	49.7302
1081.83	54.859
1084.72	30.7111
1087.61	38.0189
1090.51	61.3505
1093.4	31.4777
1096.29	28.6505
1099.18	4.03943
1102.08	56.9424
1104.97	53.1063
1107.86	15.4524
1110.76	35.2073
1113.65	53.0529
1116.54	18.9436
1119.43	23.3419
1122.33	55.4329
1125.22	3.33044
1128.11	22.4423
1131	22.0828
1133.9	6.73853
1136.79	1.62353
1139.68	60.7057
1142.58	21.8527
1145.47	40.691
1148.36	54.0824
1151.25	57.6522
1154.15	30.5753
1157.04	17.6279
1159.93	82.8027
1162.82	0.8927
1165.72	53.8893
1168.61	28.0475
1171.5	66.2263
1174.39	52.6901
1177.29	32.4661
1180.18	59.0018
1183.07	51.2761
1185.96	85.2133
1188.86	52.0949
1191.75	49.9363
1194.64	38.7479
1197.54	50.8003
1200.43	27.582
1203.32	48.912
1206.21	40.7717
1209.11	31.3739
1212	37.3768
1214.89	78.4644
1217.79	60.5409
1220.68	8.56116
1223.57	44.1881
1226.46	49.8713
1229.36	39.3169
1232.25	24.4895
1235.14	56.9819
1238.03	33.6212
1240.93	19.0646
1243.82	29.0265
1246.71	35.1982
1249.61	68.5497
1252.5	9.89868
1255.39	6.54981
1258.28	39.0608
1261.18	23.5747
1264.07	27.8066
1266.96	8.05969
1269.85	58.5793
1272.75	31.005
1275.64	41.7402
1278.53	45.4436
1281.42	25.0747
1284.32	0.3302
1287.21	11.722
