Measurement: Raman, 532 nm, unoriented, Raman Data Processed
Mineral: Rajite
Rruff sample: R060729
Ideal chemistry: CuTe^4+^_2_O_5_
Locality: Lone Pine mine, Catron County, New Mexico, USA
Source: Bob Jenkins
Description: Bundles of green to white bladed crystals
Measured chemistry: (Cu_0.930_Fe^2+^_0.055_Cr_0.010_[box]_0.005_)_Î£=1_Te^4+^_2.00_O_5_
Raman shift (cm-1)	intensity
123.933	0
127.308	757.932
130.683	2704.61
134.058	2348.18
137.433	4828.49
140.807	6271.32
144.182	2158.84
147.557	513.298
150.932	227.327
154.307	224.281
157.682	204.998
161.056	84.4121
164.431	265.916
167.806	967.116
171.181	2634.96
174.555	5177.07
177.93	8231.67
181.305	7935
184.68	2998.47
188.055	1477.88
191.43	1460.79
194.804	2059.51
198.179	3930.8
201.554	7230.5
204.929	12160.4
208.304	17416.8
211.678	18601.5
215.053	19682.3
218.428	14248.9
221.803	7377.56
225.178	4942.46
228.553	4564.55
231.927	4843.6
235.302	3435.11
238.677	1362.16
242.052	853.127
245.427	1045.52
248.801	1358.36
252.176	875.361
255.551	14.1328
258.926	128.273
262.301	85.9238
265.676	398.32
269.05	469.508
272.425	346.086
275.8	693.906
279.175	1534.77
282.55	2583.51
285.924	3660.57
289.299	4122.74
292.674	2965.47
296.049	1648.67
299.424	1190.57
302.798	1506.1
306.173	2085.88
309.548	2878.7
312.923	2259.94
316.298	482.697
319.672	334.772
323.047	315.926
326.422	132.777
329.797	993.984
333.172	1606.82
336.547	3083.9
339.921	4493.57
343.296	5516.12
346.671	5177.63
350.046	4126.21
353.421	3798.48
356.796	4282.69
360.17	5899.29
363.545	8212.94
366.92	11023.5
370.295	12837.8
373.67	12444.6
377.044	9602.7
380.419	6037.94
383.794	3248.37
387.169	1708.85
390.544	720.482
393.918	206.248
397.293	64.2637
400.668	192.836
404.043	534.299
407.418	1129.12
410.793	2073.06
414.167	3707.2
417.542	6058.89
420.917	9511.22
424.292	14995.9
427.667	23459.2
431.041	35422.3
434.416	49037
437.791	61000.1
441.166	63618.1
444.541	50694
447.915	32782.9
451.29	19690.2
454.665	12077.7
458.04	7548.88
461.415	4710
464.79	2657.15
468.164	1450.01
471.539	661.457
474.914	158.394
478.289	54.2441
481.664	70.709
485.039	410.014
488.413	511.924
491.788	631.418
495.163	890.574
498.538	1347
501.913	1257.53
505.287	1158.02
508.662	593.102
512.037	138.133
515.412	35.0801
518.787	9.73828
522.161	119.762
525.536	30.8281
528.911	37.0352
532.286	152.772
535.661	5.64062
539.036	47.2051
542.41	153.422
545.785	262.975
549.16	302.893
552.535	313.772
555.909	379.82
559.284	344.789
562.659	732.221
566.034	1147.75
569.409	1582.57
572.784	2107.12
576.158	2948.59
579.533	4028.84
582.908	5547.93
586.283	7347.23
589.658	8935.93
593.032	9415.76
596.407	7820
599.782	5252.07
603.157	3107.01
606.532	1770.56
609.907	1057.96
613.281	339.305
616.656	135.092
620.031	31.5508
623.406	80.8711
626.781	227.914
630.156	80.9941
633.53	134.504
636.905	35.8086
640.28	346.906
643.655	918.191
647.029	1771.77
650.404	2654.08
653.779	4153.83
657.154	5535.19
660.529	7121.4
663.904	8381.9
667.278	9357.71
670.653	10562.5
674.028	13015.3
677.403	16542.2
680.778	17796.2
684.153	11632.4
687.527	5417.31
690.902	2304.44
694.277	1228.34
697.652	538.885
701.027	468.865
704.401	781.945
707.776	1228.71
711.151	2281
714.526	3692.55
717.901	5706.54
721.276	7884.23
724.65	11292
728.025	16166.2
731.4	22224.6
734.775	29470.6
738.149	36360.3
741.524	39151.2
744.899	35750.1
748.274	27750.4
751.649	19640.1
755.024	14480.6
758.398	11458.7
761.773	9408.47
765.148	7992.37
768.523	6435.44
771.898	4467.77
775.273	2759.7
778.647	1684.21
782.022	1076.47
785.397	586.979
788.772	270.225
792.146	298.168
795.521	125.387
798.896	5.39453
802.271	81.9394
805.646	173.385
809.021	139.779
812.395	16.6582
815.77	31.6406
819.145	18.8184
822.52	27.8066
825.895	82.1484
829.269	199.734
832.644	327.072
836.019	184.328
839.394	280.672
842.769	212.185
846.144	436.277
849.518	357.279
852.893	491.215
856.268	534.533
859.643	520.039
863.018	569.662
866.393	631.299
869.767	581.627
873.142	513.662
876.517	568.912
879.892	525.807
883.266	453.185
886.641	582.021
890.016	644.701
893.391	702.719
896.766	602.314
900.141	599.359
903.515	572.152
906.89	464.539
910.265	438.51
913.64	333.723
917.015	315.49
920.39	330.33
923.764	404.301
927.139	385.201
930.514	419.143
933.889	382.74
937.264	171.051
940.638	203.584
944.013	130.256
947.388	16.3242
950.763	106.721
954.138	150.279
957.513	34.3203
960.887	47.3164
964.262	74.5098
967.637	42.0918
971.012	44.8242
974.386	130.369
977.761	241.699
981.136	73.9219
984.511	138.785
987.886	81.4199
991.261	11.4043
994.635	26.6934
998.01	169.869
1001.38	109.301
1004.76	116.865
1008.13	185.295
1011.51	79.957
1014.88	191.272
1018.26	110.377
1021.63	156.334
1025.01	132.967
1028.38	132.471
1031.76	247.123
1035.13	162.221
1038.51	275.279
1041.88	204.705
1045.26	20.1992
1048.63	37.5879
1052.01	175.272
1055.38	225.941
1058.76	98.1348
1062.13	84.8281
1065.51	69.082
1068.88	86.2344
1072.26	114.869
1075.63	17.1758
1079.01	48.9414
1082.38	25.1641
1085.76	89.0488
1089.13	155.014
1092.51	219.682
1095.88	145.807
1099.26	251.002
1102.63	215.852
1106	331.494
1109.38	150.785
1112.75	98.3652
1116.13	247.723
1119.5	161.769
1122.88	18.8672
1126.25	180.727
1129.63	233.935
1133	336.897
1136.38	192.904
1139.75	180.699
1143.13	163.123
1146.5	5.63477
1149.88	98.4961
1153.25	242.08
1156.63	229.785
1160	265.877
1163.38	132.455
1166.75	68.4902
1170.13	8.54688
1173.5	205.641
1176.88	219.842
1180.25	220.273
1183.62	293.889
1187	275.67
1190.38	81.4356
1193.75	156.443
1197.12	73.5977
1200.5	71.4668
1203.87	157.717
1207.25	110.057
1210.62	181.734
1214	219.869
1217.37	163.615
1220.75	148.568
1224.12	172.068
1227.5	205.635
1230.87	193.471
1234.25	255.873
1237.62	236.389
1241	243.867
1244.37	277.59
1247.75	302.07
1251.12	306.406
1254.5	120.555
1257.87	307.156
1261.25	81.8984
1264.62	96.2402
1267.99	70.2344
1271.37	373.057
1274.74	315.619
1278.12	235.897
1281.49	154.465
1284.87	197.856
1288.24	5.33398
1291.62	2.22266
