Measurement: Raman, 785 nm, unoriented, Raman Data Processed
Mineral: Rajite
Rruff sample: R060729
Ideal chemistry: CuTe^4+^_2_O_5_
Locality: Lone Pine mine, Catron County, New Mexico, USA
Source: Bob Jenkins
Description: Bundles of green to white bladed crystals
Measured chemistry: (Cu_0.930_Fe^2+^_0.055_Cr_0.010_[box]_0.005_)_Î£=1_Te^4+^_2.00_O_5_
Raman shift (cm-1)	intensity
165.401	0
168.293	95.6816
171.186	334.271
174.079	582.449
176.971	823.856
179.864	598.007
182.757	144.784
185.65	123.411
188.542	189.363
191.435	360.7
194.328	802.514
197.22	1489.48
200.113	2419
203.006	3779.33
205.898	4950.48
208.791	5547.6
211.684	5898.98
214.577	5421.09
217.469	3850.05
220.362	2547.69
223.255	1945.83
226.147	1749.43
229.04	1870.1
231.933	1784.72
234.825	1083.1
237.718	593.98
240.611	432.994
243.503	463.19
246.396	575.304
249.289	438.218
252.182	228.816
255.074	132.167
257.967	22.6289
260.86	72.8262
263.752	1.3125
266.645	10.373
269.538	0.27832
272.431	49.8076
275.323	1.16113
278.216	157.15
281.109	345.221
284.001	559.864
286.894	577.006
289.787	463.004
292.679	205.901
295.572	5.94434
298.465	35.2022
301.358	6.01172
304.25	106.21
307.143	180.634
310.036	172.719
312.928	41.6211
315.821	91.2773
318.714	64.541
321.606	64.6826
324.499	148.194
327.392	355.148
330.284	752.383
333.177	1081.29
336.07	1415.04
338.963	1693.53
341.855	1783.95
344.748	1719.74
347.641	1592.87
350.533	1504.63
353.426	1629.91
356.319	1803.49
359.211	2058.19
362.104	2417.81
364.997	2843.33
367.89	3100.7
370.782	3029.83
373.675	2549.42
376.568	2090.64
379.46	1456.46
382.353	926.412
385.246	579.639
388.138	379.65
391.031	318.812
393.924	286.372
396.817	254.843
399.709	342.553
402.602	440.244
405.495	605.281
408.387	655.764
411.28	972.25
414.173	1421.22
417.065	2022.88
419.958	2885.17
422.851	3972.89
425.744	5611.27
428.636	7687.78
431.529	10055.1
434.422	12182
437.314	13256
440.207	12359.4
443.1	9986.56
445.992	7212.87
448.885	5026.78
451.778	3369.25
454.671	2257.71
457.563	1494.54
460.456	1066.3
463.349	758.017
466.241	450.223
469.134	498.872
472.027	198.056
474.919	66.1611
477.812	48.3584
480.705	47.2656
483.598	61.6992
486.49	4.47461
489.383	71.6475
492.276	126.382
495.168	32.2275
498.061	49.6553
500.954	55.3506
503.846	1.46289
506.739	128.701
509.632	44.2676
512.525	1.59082
515.417	11.5869
518.31	36.9131
521.203	65.0195
524.096	39.2432
526.988	58.1719
529.881	20.751
532.774	53.6914
535.666	35.9678
538.559	38.7275
541.452	80.4595
544.344	65.0791
547.237	114.072
550.13	112.136
553.023	148.841
555.915	75.5488
558.808	183.388
561.701	292.97
564.593	225.625
567.486	288.431
570.379	311.376
573.271	495.537
576.164	497.53
579.057	756.167
581.95	1004.79
584.842	1250.31
587.735	1472.13
590.628	1537.47
593.52	1366.48
596.413	1026.61
599.306	730.881
602.198	466.577
605.091	290.668
607.984	146.549
610.876	79.0908
613.769	6.14844
616.662	11.8457
619.555	1.31055
622.447	48.3579
625.34	7.89648
628.233	16.6694
631.125	42.4336
634.018	170.174
636.911	209.629
639.803	264.41
642.696	509.59
645.589	709.573
648.482	979.035
651.374	1292.36
654.267	1762.66
657.16	2189.05
660.052	2511.75
662.945	2691.89
665.838	2700.1
668.73	2885.18
671.623	3166.08
674.516	3712.21
677.409	3888.79
680.301	3279.58
683.194	1996.34
686.087	1092.89
688.979	573.871
691.872	280
694.765	132.672
697.657	96.3545
700.55	74.4356
703.443	96.8599
706.336	106.371
709.228	278.915
712.121	518.062
715.014	789.496
717.906	1131.71
720.799	1514.99
723.692	2064.54
726.584	2858.46
729.477	3846.58
732.37	4953.54
735.263	6159.82
738.155	7029.78
741.048	7149.46
743.941	6458.7
746.833	5197.67
749.726	4072.29
752.619	3090.97
755.511	2409.63
758.404	1869.46
761.297	1503.63
764.19	1227.82
767.082	960.178
769.975	660.59
772.868	443.219
775.76	277.894
778.653	216.183
781.546	115.993
784.438	90.1992
787.331	47.7671
790.224	67.5327
793.117	10.6807
796.009	25.6567
798.902	65.6255
801.795	3.48486
804.687	47.4844
807.58	21.6958
810.473	16.083
813.365	8.27588
816.258	41.7031
819.151	18.4219
822.044	7.66797
824.936	14.2651
827.829	12.9951
830.722	134.028
833.614	87.4097
836.507	66.6177
839.4	117.928
842.292	130.57
845.185	99.9766
848.078	119.838
850.971	101.599
853.863	83.7256
856.756	86.4165
859.649	71.4663
862.541	72.7305
865.434	88.3731
868.327	26.897
871.219	82.8794
874.112	94.7173
877.005	38.0195
879.898	30.377
882.79	90.314
885.683	120.248
888.576	61.6133
891.468	61.1255
894.361	48.2935
897.254	76.1699
900.146	108.424
903.039	32.4741
905.932	42.6787
908.825	65.9346
911.717	122.165
914.61	73.9751
917.503	54.5249
920.395	70.1318
923.288	41.2041
926.181	12.4233
929.073	35.7842
931.966	86.7134
934.859	88.8398
937.752	60.1172
940.644	7.6792
943.537	25.5469
946.43	65.4834
949.322	10.4512
952.215	48.1851
955.108	76.9746
958	11.981
960.893	80.9512
963.786	48.1611
966.679	27.1597
969.571	77.5293
972.464	50.7129
975.357	67.9404
978.249	54.4385
981.142	11.5181
984.035	9.45752
986.927	66.5532
989.82	11.7461
992.713	15.2324
995.606	22.2388
998.498	84.8662
1001.39	67.4312
1004.28	119.262
1007.18	34.5493
1010.07	57.1787
1012.96	20.1816
1015.85	54.4829
1018.75	14.0571
1021.64	42.7485
1024.53	77.3643
1027.42	4.50342
1030.32	72.1187
1033.21	76.874
1036.1	78.4014
1039	96.9233
1041.89	65.3018
1044.78	49.8413
1047.67	70.3633
1050.57	4.1665
1053.46	13.2793
1056.35	45.0586
1059.24	95.2207
1062.14	35.8247
1065.03	57.6509
1067.92	23.9629
1070.82	50.3242
1073.71	33.1846
1076.6	14.9004
1079.49	18.8281
1082.39	20.4707
1085.28	29.2769
1088.17	9.04443
1091.07	33.5713
1093.96	3.50586
1096.85	53.335
1099.74	61.522
1102.63	40.6006
1105.53	34.4365
1108.42	4.63525
1111.31	67.9243
1114.21	39.0356
1117.1	68.2935
1119.99	105.915
1122.88	6.11621
1125.78	58.3809
1128.67	81.5181
1131.56	60.023
1134.45	30.0259
1137.35	37.6328
1140.24	29.3706
1143.13	75.6646
1146.03	44.4097
1148.92	63.9355
1151.81	22.7471
1154.7	29.9243
1157.6	53.9839
1160.49	0.298828
1163.38	70.4219
1166.28	56.1494
1169.17	70.2583
1172.06	93.2085
1174.95	16.7598
1177.85	27.9712
1180.74	33.2895
1183.63	16.6919
1186.52	44.4126
1189.42	67.9507
1192.31	64.6465
1195.2	66.1221
1198.09	23.938
1200.99	50.4585
1203.88	8.05664
1206.77	5.57519
1209.66	49.6362
1212.56	66.9517
1215.45	21.0991
1218.34	52.0703
1221.24	27.9502
1224.13	116.122
1227.02	73.9746
1229.91	80.6284
1232.81	66.2441
1235.7	5.16309
1238.59	10.5762
1241.48	44.6777
1244.38	60.833
1247.27	26.5259
1250.16	5.84375
1253.06	26.1426
1255.95	8.39111
