Measurement: Raman, 780 nm, unoriented, Raman Data Processed
Mineral: Ramdohrite
Rruff sample: R110001
Ideal chemistry: CdAg_5.5_Pb_12_Sb_21.5_S_48_
Locality: Chocaya, Potosi, Bolivia
Source: Mark N. Feinglos
Description: Massive, silver metallic associated with quartz and wurtzite
Raman shift (cm-1)	intensity
107.48	0
110.854	0.592796
114.229	0.691696
117.604	1.9894
120.979	2.51228
124.354	7.09618
127.728	8.08176
131.103	9.75339
134.478	11.6932
137.853	12.1504
141.228	12.0713
144.602	9.8353
147.977	9.59447
151.352	5.62092
154.727	5.42681
158.102	2.11034
161.477	0.00415
164.851	1.73124
168.226	1.05418
171.601	1.86813
174.976	0.699547
178.351	1.40002
181.726	1.9888
185.1	3.01201
188.475	4.60358
191.85	9.97478
195.225	13.7766
198.6	16.7799
201.974	25.2757
205.349	34.5828
208.724	35.5419
212.099	42.2011
215.474	44.8286
218.848	48.5983
222.223	50.1731
225.598	45.2629
228.973	41.9021
232.348	37.3022
235.722	36.7414
239.097	31.7334
242.472	34.1523
245.847	38.9146
249.222	40.3667
252.597	50.9405
255.971	55.9295
259.346	61.9748
262.721	64.1521
266.096	65.5018
269.471	73.0203
272.846	72.8207
276.22	72.6586
279.595	68.1003
282.97	62.8843
286.345	51.3338
289.719	38.9116
293.094	26.0476
296.469	17.0407
299.844	10.0145
303.219	10.6703
306.594	9.94934
309.968	13.5796
313.343	19.3252
316.718	23.1897
320.093	29.4792
323.468	34.9287
326.842	39.1982
330.217	44.2048
333.592	43.9658
336.967	39.0613
340.342	34.3214
343.717	24.8757
347.091	15.2439
350.466	4.43027
353.841	0.063557
357.216	2.07792
360.591	1.90765
363.965	0.896177
367.34	2.23675
370.715	2.37831
374.09	2.47051
377.465	3.19048
380.839	2.58982
384.214	1.85146
387.589	4.21527
390.964	4.03053
394.339	5.54291
397.714	6.60757
401.088	7.2102
404.463	7.30531
407.838	6.98359
411.213	9.15307
414.588	9.31641
417.962	9.72133
421.337	6.98039
424.712	6.28341
428.087	5.11242
431.462	2.24737
434.837	2.82489
438.211	4.53102
441.586	5.4356
444.961	4.7223
448.336	1.89383
451.711	3.7245
455.085	3.82739
458.46	3.76928
461.835	2.05506
465.21	2.62672
468.585	4.09715
471.959	1.06926
475.334	2.24897
478.709	0.661689
482.084	1.09557
485.459	0.291731
488.834	1.12427
492.208	1.36717
495.583	2.77366
498.958	0.560526
502.333	1.12396
505.708	3.33397
509.082	3.26707
512.457	2.12097
515.832	0.466596
519.207	1.44997
522.582	1.27643
525.957	1.82655
529.331	1.65732
532.706	0.518101
536.081	0.388494
539.456	1.64793
542.831	2.05412
546.205	0.882202
549.58	1.8414
552.955	2.35204
556.33	0.157173
559.705	2.16656
563.08	0.537939
566.454	3.80818
569.829	1.91047
573.204	2.6547
576.579	0.970891
579.954	0.756133
583.328	2.35859
586.703	0.510036
590.078	2.43482
593.453	3.38716
596.828	1.38837
600.202	4.41155
603.577	3.29068
606.952	2.25357
610.327	1.1185
613.702	0.78392
617.077	2.02057
620.451	3.2264
623.826	4.59145
627.201	1.99257
630.576	1.3691
633.951	2.85632
637.325	2.58545
640.7	2.80157
644.075	3.3226
647.45	0.557356
650.825	2.71311
654.199	1.81272
657.574	2.5984
660.949	3.14884
664.324	0.812226
667.699	2.70335
671.073	0.90208
674.448	3.49799
677.823	0.905243
681.198	1.60957
684.573	2.79748
687.948	1.38672
691.322	2.21296
694.697	1.61311
698.072	1.14869
701.447	0.768257
704.822	2.40234
708.197	2.76886
711.571	3.90457
714.946	2.00662
718.321	2.74815
721.696	1.0385
725.071	1.15552
728.445	1.08296
731.82	0.065822
735.195	1.08765
738.57	2.01046
741.945	1.08165
745.319	3.0607
748.694	0.619596
752.069	0.487664
755.444	2.62405
758.819	1.34142
762.193	0.807781
765.568	1.9204
768.943	0.164986
772.318	2.61691
775.693	2.35187
779.068	0.996604
782.442	2.0021
785.817	4.33259
789.192	1.63415
792.567	0.576375
795.942	0.019478
799.317	1.41418
802.691	2.74382
806.066	3.59582
809.441	1.04597
812.816	1.87079
816.191	2.68493
819.565	2.52908
822.94	0.917485
826.315	0.568508
829.69	1.58268
833.065	0.364824
836.439	0.930641
839.814	1.40836
843.189	0.942325
846.564	2.94036
849.939	3.16542
853.313	4.37028
856.688	0.294686
860.063	2.71078
863.438	1.11392
866.813	1.015
870.188	1.04147
873.562	1.18415
876.937	1.00856
880.312	2.88382
883.687	3.8464
887.062	0.523756
890.437	0.971518
893.811	1.8629
897.186	1.66057
900.561	2.35305
903.936	1.4263
907.311	1.97376
910.685	2.19278
914.06	2.12207
917.435	0.180762
920.81	4.64195
924.185	3.83646
927.559	1.72302
930.934	3.96613
934.309	2.50766
937.684	2.8146
941.059	3.11583
944.433	1.26647
947.808	2.32612
951.183	2.99678
954.558	1.76232
957.933	3.93944
961.308	1.93919
964.682	2.04717
968.057	3.04415
971.432	2.76915
974.807	1.19685
978.182	3.01271
981.557	1.48176
984.931	0.912948
988.306	1.2989
991.681	3.8652
995.056	1.58514
998.431	2.94054
1001.8	0.498882
1005.18	0.224321
1008.55	2.73725
1011.93	1.47892
1015.3	1.60885
1018.68	1.65859
1022.05	2.46119
1025.43	2.88178
1028.8	0.707297
1032.18	2.02872
1035.55	2.16837
1038.93	0.789894
1042.3	2.6763
1045.68	0.791606
1049.05	2.71976
1052.43	3.28486
1055.8	2.72067
1059.18	4.10308
1062.55	3.1955
1065.93	1.92328
1069.3	4.89199
1072.68	1.66787
1076.05	1.14274
1079.43	3.64528
1082.8	1.50944
1086.18	3.28859
1089.55	0.877238
1092.92	1.12246
1096.3	3.78279
1099.67	2.62473
1103.05	1.49133
1106.42	2.65383
1109.8	0.475478
1113.17	2.33488
1116.55	1.48704
1119.92	2.7025
1123.3	1.30834
1126.67	0.007632
1130.05	0.330844
1133.42	0.729987
1136.8	0.722312
1140.17	1.64728
1143.55	0.560063
1146.92	0.580993
1150.3	0.204375
1153.67	0.419416
1157.05	1.45363
1160.42	1.41202
1163.8	0.330434
1167.17	0.676386
1170.55	0.99499
1173.92	2.66753
1177.3	3.37469
1180.67	2.40322
1184.05	1.46312
1187.42	1.78764
1190.8	1.65628
1194.17	3.08343
1197.55	3.18698
1200.92	3.25565
1204.29	1.02575
1207.67	3.29653
1211.04	4.84558
1214.42	3.03047
1217.79	2.0104
1221.17	4.38561
1224.54	0.29526
1227.92	0.634076
1231.29	0.61142
1234.67	2.89446
1238.04	2.52421
1241.42	3.21646
1244.79	1.76131
1248.17	2.35896
1251.54	5.29876
1254.92	3.3849
1258.29	3.88956
1261.67	2.65946
1265.04	5.77878
1268.42	0.417331
1271.79	4.23961
1275.16	3.97358
1278.54	2.21482
1281.91	2.57682
