Measurement: Raman, 532 nm, unoriented, Raman Data Processed
Mineral: Ramsbeckite
Rruff sample: R050295
Ideal chemistry: Cu_15_(SO_4_)_4_(OH)_22_6H_2_O
Locality: 79 mine, 6th level, 31 stope, Hayden, Gila County, Arizona, USA
Source: George Godas, John Callahan
Description: Greenish-blue tabular
Measured chemistry: rim, gray phase: (Cu_8.33_Zn_6.67_)_Σ=15_(S_1.00_O_4_)_4_(OH)_22_·6H_2_O ; the core, light phase is sphalerite.
Raman shift (cm-1)	intensity
158.886	0
161.778	0.550333
164.671	1.30707
167.564	1.03638
170.456	1.17687
173.349	1.16097
176.242	1.41602
179.135	0.966684
182.027	1.14552
184.92	0.076571
187.813	0.324389
190.705	0.024117
193.598	0.675987
196.491	0.812254
199.383	1.12126
202.276	1.56072
205.169	1.49491
208.061	2.70052
210.954	3.8424
213.847	5.13559
216.74	6.57387
219.632	7.07508
222.525	9.26904
225.418	10.421
228.31	12.8268
231.203	13.6441
234.096	13.1755
236.988	13.7033
239.881	13.6156
242.774	12.5597
245.667	11.8166
248.559	10.98
251.452	9.53535
254.345	8.22761
257.237	7.53455
260.13	7.09767
263.023	6.29438
265.916	4.57146
268.808	3.8795
271.701	3.00926
274.594	2.57897
277.486	2.35298
280.379	1.06247
283.272	1.04267
286.164	0.723735
289.057	0.824455
291.95	0.008374
294.842	0.131661
297.735	0.318365
300.628	0.28969
303.521	0.433953
306.413	0.17116
309.306	0.190696
312.199	0.376404
315.091	1.14078
317.984	0.984514
320.877	0.721198
323.769	1.2074
326.662	0.426569
329.555	0.042358
332.448	0.193504
335.34	0.443596
338.233	0.297146
341.126	0.326952
344.018	0.081125
346.911	0.430618
349.804	0.236122
352.697	0.68442
355.589	0.578617
358.482	0.339964
361.375	0.579737
364.267	0.115337
367.16	0.373112
370.053	0.699753
372.945	1.17011
375.838	2.47763
378.731	2.59615
381.623	4.33841
384.516	6.25227
387.409	7.13224
390.302	7.43477
393.194	7.41819
396.087	7.53368
398.98	6.69271
401.872	7.44833
404.765	6.86406
407.658	6.47842
410.55	6.23585
413.443	5.78015
416.336	5.37994
419.229	5.50687
422.121	5.9775
425.014	6.10498
427.907	6.80151
430.799	8.43453
433.692	9.73892
436.585	11.7261
439.478	15.1038
442.37	16.7701
445.263	18.2135
448.156	20.1121
451.048	20.3114
453.941	20.0583
456.834	17.7067
459.726	16.4868
462.619	15.052
465.512	13.4443
468.404	10.9384
471.297	10.2772
474.19	8.53326
477.083	7.98585
479.975	7.89125
482.868	7.99387
485.761	5.86167
488.653	4.98365
491.546	3.46289
494.439	3.16595
497.332	2.16657
500.224	1.61656
503.117	1.12711
506.01	1.06813
508.902	0.399982
511.795	0.334139
514.688	0.219378
517.58	0.364458
520.473	0.122569
523.366	0.349591
526.259	0.228101
529.151	0.106586
532.044	0.042664
534.937	0.19868
537.829	0.234607
540.722	0.338652
543.615	0.611954
546.507	0.792459
549.4	0.163249
552.293	0.250975
555.186	0.064516
558.078	0.65969
560.971	1.21764
563.864	1.24187
566.756	0.968575
569.649	1.41382
572.542	1.3251
575.434	1.93563
578.327	2.39128
581.22	2.66883
584.112	3.61567
587.005	4.00318
589.898	5.16769
592.791	6.91255
595.683	9.02953
598.576	11.8834
601.469	14.0175
604.361	16.4577
607.254	15.7713
610.147	14.3537
613.039	11.993
615.932	10.2719
618.825	9.43313
621.718	7.28537
624.61	6.15701
627.503	4.57907
630.396	2.37618
633.288	2.41895
636.181	0.335564
639.074	1.30765
641.966	0.345972
644.859	0.465991
647.752	0.513383
650.645	0.242575
653.537	0.22394
656.43	0.038055
659.323	0.315724
662.215	0.397671
665.108	0.632303
668.001	0.434868
670.894	0.441877
673.786	1.00676
676.679	1.40838
679.572	0.744444
682.464	0.898392
685.357	0.789806
688.25	1.23249
691.142	0.966003
694.035	1.2748
696.928	1.28254
699.821	1.21821
702.713	1.19526
705.606	1.4872
708.499	1.37309
711.391	0.355896
714.284	1.17093
717.177	0.900977
720.069	0.672281
722.962	0.719381
725.855	1.14567
728.747	1.00863
731.64	1.33887
734.533	1.23768
737.426	1.05525
740.318	0.884966
743.211	0.986454
746.104	0.892076
748.996	0.411224
751.889	0.268207
754.782	0.149373
757.674	0.845895
760.567	0.343723
763.46	0.566246
766.353	0.055049
769.245	0.133317
772.138	0.276919
775.031	0.239199
777.923	0.075349
780.816	0.085035
783.709	0.010528
786.601	0.116993
789.494	0.133907
792.387	0.531741
795.28	0.23726
798.172	0.690925
801.065	0.136378
803.958	0.266748
806.85	0.661851
809.743	0.717088
812.636	0.120679
815.529	0.137938
818.421	1.09226
821.314	0.658303
824.207	0.605694
827.099	0.555103
829.992	0.577021
832.885	0.352444
835.777	0.67383
838.67	0.424067
841.563	0.008245
844.456	0.454068
847.348	0.824608
850.241	0.194776
853.134	0.262502
856.026	0.344255
858.919	0.185274
861.812	0.672154
864.704	0.121078
867.597	0.65657
870.49	0.32804
873.383	0.32675
876.275	0.491389
879.168	0.16691
882.061	0.586778
884.953	0.110347
887.846	1.0571
890.739	0.93947
893.631	0.22972
896.524	0.617625
899.417	0.180605
902.309	0.178352
905.202	0.167483
908.095	0.207122
910.988	0.625587
913.88	0.123635
916.773	0.008865
919.666	0.071783
922.558	0.441594
925.451	0.085034
928.344	0.617422
931.236	0.387486
934.129	0.353784
937.022	0.436147
939.915	0.369358
942.807	0.548251
945.7	0.334739
948.593	1.08442
951.485	0.812316
954.378	1.39203
957.271	2.05011
960.163	2.65919
963.056	4.53487
965.949	8.0713
968.842	15.5688
971.734	27.7698
974.627	40.1765
977.52	59.7243
980.412	102.138
983.305	121.985
986.198	67.569
989.091	28.6026
991.983	19.046
994.876	16.8848
997.769	15.3487
1000.66	9.7319
1003.55	5.33379
1006.45	2.1529
1009.34	0.568221
1012.23	1.10505
1015.12	0.903746
1018.02	0.500479
1020.91	0.100263
1023.8	0.096169
1026.7	0.310835
1029.59	0.075912
1032.48	0.540393
1035.37	0.129708
1038.27	0.193355
1041.16	0.133622
1044.05	0.097558
1046.94	0.777404
1049.84	0.70051
1052.73	0.982079
1055.62	0.782894
1058.52	0.541045
1061.41	1.50437
1064.3	1.37274
1067.19	1.4133
1070.09	2.41432
1072.98	2.25118
1075.87	1.91301
1078.76	2.90225
1081.66	2.78939
1084.55	3.4498
1087.44	3.52104
1090.34	4.44667
1093.23	4.74764
1096.12	5.51673
1099.01	7.1415
1101.91	9.58565
1104.8	11.9343
1107.69	15.7592
1110.58	21.5014
1113.48	22.8849
1116.37	19.4869
1119.26	13.781
1122.15	11.1636
1125.05	8.82338
1127.94	7.0473
1130.83	5.95083
1133.72	4.26415
1136.62	3.87637
1139.51	2.96493
1142.4	2.47542
1145.3	1.75953
1148.19	1.6335
1151.08	1.42023
1153.97	0.841932
1156.87	0.783298
1159.76	0.280162
1162.65	0.26515
1165.55	0.012974
1168.44	0.283752
1171.33	0.471973
1174.22	0.277065
1177.12	0.456458
1180.01	0.059402
1182.9	0.584031
1185.79	0.195065
1188.69	0.224523
1191.58	0.419244
1194.47	0.199387
1197.37	0.064168
1200.26	0.341783
1203.15	0.425558
1206.04	0.342049
1208.94	0.376717
1211.83	0.249198
1214.72	0.576909
1217.61	0.459183
1220.51	0.448986
1223.4	0.749327
1226.29	0.335154
1229.18	0.179013
1232.08	0.644749
1234.97	1.00847
1237.86	0.803891
1240.76	0.98239
1243.65	0.204429
1246.54	0.596249
1249.43	0.949527
1252.33	0.640593
1255.22	0.629888
1258.11	0.906159
1261	0.86778
1263.9	0.366754
1266.79	0.491055
1269.68	0.392391
1272.58	0.799857
1275.47	0.445572
1278.36	0.498285
1281.25	0.027429
1284.15	0.209453
1287.04	0.443316
1289.93	0.596456
1292.82	0.561127
1295.72	0.44546
1298.61	0.483444
1301.5	0.12881
1304.39	0.040936
