Measurement: Raman, 532 nm, unoriented, Raman Data Processed
Mineral: Ransomite
Rruff sample: R060145
Ideal chemistry: CuFe^3+^_2_(SO_4_)_4_6H_2_O
Locality: United Verde mine, Jerome, Arizona, USA
Source: University of Arizona Mineral Museum
Description: Pale blue sponge-like aggregate RAMAN MATCHES LAUSENITE, NEEDS TO BE REDONE
Raman shift (cm-1)	intensity
200.897	0
203.79	12.9014
206.682	51.8984
209.575	93.1013
212.468	88.0938
215.36	43.6005
218.253	9.12091
221.146	0.855286
224.038	0.463257
226.931	4.15253
229.824	12.3491
232.717	20.6434
235.609	27.674
238.502	32.3842
241.395	44.3152
244.287	51.8033
247.18	61.2731
250.073	73.3379
252.965	84.16
255.858	99.3237
258.751	109.619
261.644	124.487
264.536	135.832
267.429	163.968
270.322	193.515
273.214	237.971
276.107	280.377
279	324.349
281.892	351.001
284.785	329.624
287.678	279.402
290.571	227.425
293.463	184.091
296.356	144.799
299.249	112.01
302.141	90.907
305.034	73.4467
307.927	63.4843
310.82	51.2605
313.712	40.0549
316.605	33.6255
319.498	25.5271
322.39	19.6064
325.283	14.6698
328.176	11.7407
331.068	9.10669
333.961	7.61707
336.854	8.38165
339.747	6.23731
342.639	1.15906
345.532	1.8739
348.425	4.28986
351.317	0.182861
354.21	0.586243
357.103	1.82562
359.995	1.62103
362.888	0.151611
365.781	0.443115
368.673	1.78558
371.566	3.00238
374.459	1.10547
377.352	0.132019
380.244	0.409912
383.137	1.37067
386.03	1.39862
388.922	4.10089
391.815	3.58636
394.708	3.86914
397.601	4.867
400.493	9.15015
403.386	9.72949
406.279	12.3933
409.171	15.3791
412.064	13.7654
414.957	14.1631
417.849	18.2638
420.742	10.4458
423.635	10.2312
426.527	13.6555
429.42	15.1752
432.313	12.522
435.206	16.5399
438.098	16.2244
440.991	18.7267
443.884	21.1867
446.776	33.3662
449.669	37.0016
452.562	38.4578
455.454	35.4458
458.347	40.098
461.24	35.698
464.133	47.4696
467.025	39.6229
469.918	35.8031
472.811	39.9614
475.703	43.5594
478.596	46.1075
481.489	54.7369
484.382	63.4884
487.274	73.3076
490.167	90.1146
493.06	105.168
495.952	124.053
498.845	137.438
501.738	140.46
504.63	133.419
507.523	117.572
510.416	88.8571
513.308	64.6963
516.201	45.28
519.094	28.8052
521.987	18.4641
524.879	18.1457
527.772	14.0344
530.665	13.6175
533.557	6.48718
536.45	5.46338
539.343	1.23328
542.236	0.842163
545.128	1.86475
548.021	0.111328
550.914	2.12012
553.806	1.34106
556.699	2.15649
559.592	0.788086
562.484	0.861084
565.377	2.24097
568.27	5.78748
571.163	1.08801
574.055	4.46643
576.948	11.605
579.841	14.5585
582.733	24.879
585.626	30.8135
588.519	45.2687
591.411	58.0785
594.304	71.083
597.197	76.8227
600.09	76.8731
602.982	69.9282
605.875	61.4828
608.768	52.1406
611.66	45.6937
614.553	35.541
617.446	29.4797
620.338	23.5245
623.231	16.0026
626.124	12.3577
629.016	11.3873
631.909	12.2928
634.802	11.5659
637.695	11.0289
640.587	9.87183
643.48	6.38428
646.373	3.58655
649.265	5.26953
652.158	3.40564
655.051	7.15649
657.943	7.7052
660.836	5.17908
663.729	4.92627
666.622	3.6958
669.514	2.77649
672.407	3.58167
675.3	3.17188
678.192	4.34753
681.085	5.03467
683.978	7.5531
686.87	3.3728
689.763	7.80078
692.656	5.0509
695.549	5.21814
698.441	6.03455
701.334	3.39954
704.227	0.596558
707.119	1.48999
710.012	8.15906
712.905	0.637939
715.798	1.17981
718.69	2.15112
721.583	0.583862
724.476	2.95398
727.368	4.21704
730.261	4.56201
733.154	3.91016
736.046	5.18579
738.939	1.67334
741.832	1.90955
744.725	1.17407
747.617	0.373047
750.51	3.79272
753.403	9.08643
756.295	8.03528
759.188	7.31482
762.081	5.19324
764.973	10.1088
767.866	7.10461
770.759	5.27234
773.652	5.86841
776.544	0.725098
779.437	3.98486
782.33	3.23645
785.222	4.34119
788.115	1.46985
791.008	4.4613
793.9	4.5553
796.793	0.301758
799.686	1.72339
802.578	1.23413
805.471	1.87268
808.364	4.23364
811.257	1.06079
814.149	2.15149
817.042	2.95068
819.935	7.22876
822.827	9.73584
825.72	2.78613
828.613	0.035889
831.505	6.25317
834.398	3.67603
837.291	0.877441
840.184	4.72082
843.076	3.82422
845.969	6.06873
848.862	5.14868
851.754	4.42725
854.647	6.69348
857.54	12.7307
860.433	14.1177
863.325	15.7079
866.218	13.5452
869.111	13.3058
872.003	14.6051
874.896	17.4196
877.789	16.7533
880.681	11.0692
883.574	16.4705
886.467	17.3416
889.36	21.36
892.252	12.2257
895.145	12.8359
898.038	8.60864
900.93	8.42322
903.823	7.03198
906.716	8.18689
909.608	5.55273
912.501	11.668
915.394	6.55261
918.287	10.2516
921.179	3.4668
924.072	5.75269
926.965	1.71704
929.857	1.5365
932.75	0.499146
935.643	2.22913
938.535	1.02502
941.428	2.99951
944.321	1.56274
947.213	5.26648
950.106	0.44519
952.999	1.22363
955.892	0.240601
958.784	1.80847
961.677	1.20459
964.57	2.57996
967.462	1.91663
970.355	11.1002
973.248	13.7356
976.14	20.0188
979.033	37.444
981.926	66.9935
984.819	80.1426
987.711	55.0837
990.604	37.9071
993.497	39.6586
996.389	47.9075
999.282	67.465
1002.17	104.811
1005.07	168.453
1007.96	246.034
1010.85	314.208
1013.75	389.485
1016.64	493.168
1019.53	623.223
1022.42	822.817
1025.32	935.918
1028.21	695.957
1031.1	403.746
1033.99	279.772
1036.89	232.457
1039.78	165.471
1042.67	99.2694
1045.57	58.661
1048.46	37.3252
1051.35	29.7385
1054.24	17.7565
1057.14	11.2863
1060.03	5.6427
1062.92	2.88611
1065.81	1.7738
1068.71	2.10608
1071.6	2.79712
1074.49	3.33264
1077.38	1.21753
1080.28	6.41833
1083.17	12.9628
1086.06	28.2943
1088.96	40.4633
1091.85	55.6525
1094.74	60.9333
1097.63	63.0488
1100.53	60.0957
1103.42	50.155
1106.31	42.7925
1109.2	41.375
1112.1	42.3904
1114.99	36.4009
1117.88	24.1632
1120.78	21.1162
1123.67	15.4793
1126.56	9.31006
1129.45	3.53223
1132.35	3.30481
1135.24	1.8479
1138.13	1.48157
1141.02	4.90161
1143.92	5.75842
1146.81	10.0241
1149.7	15.7419
1152.6	20.4624
1155.49	19.6816
1158.38	25.7736
1161.27	26.9143
1164.17	31.4838
1167.06	35.0465
1169.95	30.5625
1172.84	33.4653
1175.74	35.4172
1178.63	29.9614
1181.52	38.2969
1184.41	39.2328
1187.31	45.0061
1190.2	53.6705
1193.09	71.8435
1195.99	89.2157
1198.88	117.518
1201.77	127.655
1204.66	107.89
1207.56	78.5669
1210.45	51.646
1213.34	38.3248
1216.23	26.1174
1219.13	16.7115
1222.02	15.097
1224.91	9.73926
1227.81	11.6896
1230.7	8.04224
1233.59	1.56848
1236.48	1.93628
1239.38	7.15979
1242.27	1.54834
1245.16	4.4812
1248.05	4.86646
1250.95	2.19495
1253.84	5.35022
1256.73	4.94287
1259.62	12.9454
1262.52	10.7112
1265.41	10.6362
1268.3	9.47449
1271.2	7.75378
1274.09	7.47754
1276.98	4.97168
1279.87	6.70361
1282.77	2.68689
1285.66	2.44873
1288.55	4.00757
1291.44	5.85107
1294.34	6.39002
1297.23	6.47925
1300.12	9.76282
1303.02	0
