Measurement: Raman, 780 nm, unoriented, Raman Data Processed
Mineral: Ransomite
Rruff sample: R060145
Ideal chemistry: CuFe^3+^_2_(SO_4_)_4_6H_2_O
Locality: United Verde mine, Jerome, Arizona, USA
Source: University of Arizona Mineral Museum
Description: Pale blue sponge-like aggregate RAMAN MATCHES LAUSENITE, NEEDS TO BE REDONE
Raman shift (cm-1)	intensity
120.048	0
123.423	2.20342
126.798	0.322205
130.173	1.0909
133.548	3.27773
136.923	8.02377
140.297	18.1921
143.672	27.6197
147.047	36.8964
150.422	33.7687
153.797	13.566
157.171	0.687958
160.546	1.04376
163.921	1.51659
167.296	1.40181
170.671	3.62711
174.046	2.96118
177.42	5.56606
180.795	10.8193
184.17	12.5369
187.545	15.6288
190.92	20.6224
194.294	31.7327
197.669	43.4178
201.044	48.6241
204.419	56.9123
207.794	64.7652
211.168	51.7696
214.543	26.2732
217.918	11.0501
221.293	2.11542
224.668	1.12743
228.042	0.280426
231.417	6.85715
234.792	12.448
238.167	15.9324
241.542	14.6515
244.917	19.0925
248.291	23.7527
251.666	31.9619
255.041	40.8773
258.416	52.1351
261.791	63.5681
265.166	75.8705
268.54	92.8631
271.915	112.755
275.29	137.482
278.665	158.013
282.04	165.927
285.414	147.958
288.789	117.837
292.164	88.9298
295.539	66.8871
298.914	50.3551
302.288	36.6414
305.663	27.7863
309.038	20.587
312.413	15.4182
315.788	11.4395
319.163	6.53703
322.537	5.21068
325.912	1.07231
329.287	1.9267
332.662	0.728508
336.037	2.136
339.411	0.693001
342.786	1.22971
346.161	1.66322
349.536	0.016594
352.911	0.502541
356.286	0.219276
359.66	0.295113
363.035	0.157631
366.41	0.852127
369.785	2.52321
373.16	2.13333
376.534	2.28848
379.909	2.75777
383.284	3.22705
386.659	3.93001
390.034	4.95998
393.409	5.07896
396.783	5.65779
400.158	5.67899
403.533	5.79079
406.908	6.44244
410.283	5.35455
413.658	4.85134
417.032	5.92561
420.407	5.62729
423.782	3.28339
427.157	4.5164
430.532	4.85059
433.906	5.44454
437.281	6.86861
440.656	9.92198
444.031	12.853
447.406	17.3721
450.781	22.8462
454.155	21.4563
457.53	19.8197
460.905	20.104
464.28	20.427
467.654	21.1958
471.029	22.2289
474.404	24.8996
477.779	29.51
481.154	35.0724
484.529	42.3631
487.903	50.6037
491.278	60.6061
494.653	70.2429
498.028	77.5478
501.403	75.4473
504.777	64.0761
508.152	48.5943
511.527	33.6346
514.902	24.2585
518.277	17.4611
521.652	11.636
525.026	7.25398
528.401	5.95036
531.776	2.42239
535.151	2.10577
538.526	1.36169
541.9	0.470001
545.275	1.88634
548.65	0.610207
552.025	0.757858
555.4	0.359947
558.775	0.133759
562.149	0.107994
565.524	0.475288
568.899	1.05595
572.274	3.13857
575.649	4.91861
579.024	7.09699
582.398	10.496
585.773	14.6108
589.148	19.8121
592.523	25.5513
595.898	31.2727
599.272	32.7805
602.647	30.3407
606.022	26.6451
609.397	21.0471
612.772	15.999
616.146	13.2299
619.521	11.1711
622.896	9.72956
626.271	8.71381
629.646	6.99195
633.021	6.31681
636.395	5.1937
639.77	4.76314
643.145	4.16604
646.52	3.01956
649.895	3.30748
653.269	3.25945
656.644	2.79158
660.019	3.18548
663.394	2.94155
666.769	4.17897
670.144	3.88131
673.518	2.87357
676.893	2.7159
680.268	2.25043
683.643	1.68998
687.018	1.0156
690.393	1.11945
693.767	1.05923
697.142	0.641136
700.517	0.874962
703.892	0.325233
707.266	0.402725
710.641	0.116806
714.016	0.381172
717.391	0.120415
720.766	0.312302
724.141	0.102425
727.515	0.475945
730.89	0.410843
734.265	0.445457
737.64	0.972694
741.015	0.55159
744.389	0.619026
747.764	0.311707
751.139	1.32326
754.514	0.946884
757.889	0.071861
761.264	0.787018
764.638	1.48822
768.013	2.29326
771.388	0.776161
774.763	1.64512
778.138	0.935051
781.513	1.24648
784.887	0.526947
788.262	0.681007
791.637	1.15345
795.012	0.997017
798.387	1.19336
801.761	1.18028
805.136	0.28936
808.511	0.068642
811.886	0.637009
815.261	2.16354
818.635	1.14712
822.01	1.81428
825.385	1.35189
828.76	2.13875
832.135	1.73998
835.51	1.97676
838.884	4.4258
842.259	2.62826
845.634	3.38972
849.009	4.34786
852.384	5.13916
855.759	6.45372
859.133	7.70961
862.508	8.09442
865.883	11.6606
869.258	9.51957
872.633	9.55063
876.007	9.87829
879.382	9.34946
882.757	8.9458
886.132	8.47214
889.507	6.86304
892.881	6.79054
896.256	5.17924
899.631	4.11282
903.006	3.5994
906.381	2.47732
909.756	1.59644
913.13	6.69797
916.505	1.3251
919.88	1.20452
923.255	1.76694
926.63	1.08106
930.005	0.13044
933.379	0.988953
936.754	0.387207
940.129	0.281837
943.504	0.274635
946.879	0.232796
950.253	0.101402
953.628	0.596718
957.003	0.750786
960.378	0.191536
963.753	0.232071
967.127	0.385071
970.502	2.28991
973.877	2.43493
977.252	1.84702
980.627	4.76319
984.001	7.6608
987.376	9.68383
990.751	12.9477
994.126	17.7631
997.501	27.7147
1000.88	41.5289
1004.25	62.1756
1007.62	91.1967
1011	128.958
1014.38	173.218
1017.75	220.781
1021.12	293.82
1024.5	336.479
1027.87	227.638
1031.25	134.404
1034.62	95.8946
1038	71.1639
1041.37	44.9753
1044.75	31.5569
1048.12	22.0803
1051.5	14.1332
1054.87	9.98929
1058.25	6.34583
1061.62	4.65263
1065	2.15948
1068.37	1.37672
1071.75	0.693893
1075.12	1.51006
1078.5	2.56647
1081.87	4.97146
1085.25	9.17075
1088.62	13.0994
1092	16.0936
1095.37	16.671
1098.74	16.9506
1102.12	15.7486
1105.49	15.2434
1108.87	14.2716
1112.24	11.5604
1115.62	6.55141
1118.99	4.30977
1122.37	1.60986
1125.74	2.21201
1129.12	0.74498
1132.49	0.864655
1135.87	0.669197
1139.24	0.132637
1142.62	0.066299
1145.99	1.24967
1149.37	2.40249
1152.74	5.68268
1156.12	5.69173
1159.49	6.94508
1162.87	9.83232
1166.24	10.7865
1169.62	11.7631
1172.99	12.2853
1176.37	12.4761
1179.74	12.2461
1183.12	12.6481
1186.49	14.2204
1189.87	17.1758
1193.24	22.5829
1196.62	27.0327
1199.99	30.4456
1203.37	27.2391
1206.74	18.2128
1210.11	12.1702
1213.49	6.92657
1216.86	4.57005
1220.24	2.69878
1223.61	2.04372
1226.99	2.29559
1230.36	1.29996
1233.74	0.8055
1237.11	0.482841
1240.49	0.009052
1243.86	0.188152
1247.24	2.47601
1250.61	0.309502
1253.99	0.062424
1257.36	0.760307
1260.74	1.14159
1264.11	0.748138
1267.49	0.782112
1270.86	0.521759
1274.24	1.6262
1277.61	1.31232
1280.98	1.81452
1284.36	0.227478
