Measurement: Raman, 785 nm, unoriented, Raman Data Processed
Mineral: Rapidcreekite
Rruff sample: R070287
Ideal chemistry: Ca_2_(SO_4_)(CO_3_)4H_2_O
Locality: Locality 1 (Crosscut Creek), Rapid Creek, Yukon Territory, Canada
Source: Mark Mauthner
Description: Radiating aggregate of thin bladed to acicular colorless to white crystals on iron oxide stained quartz crystals.
Raman shift (cm-1)	intensity
164.41	0
167.303	0.619141
170.195	46.2424
173.088	62.7682
175.981	88.4016
178.873	124.133
181.766	88.4073
184.659	152.65
187.552	195.188
190.444	237.218
193.337	261.724
196.23	277.87
199.122	271.548
202.015	293.801
204.908	317.026
207.8	342.913
210.693	366.767
213.586	334.007
216.478	292.113
219.371	256.01
222.264	167.308
225.157	145.569
228.049	106.651
230.942	82.2628
233.835	72.3674
236.727	79.9857
239.62	37.1114
242.513	19.9415
245.405	12.3733
248.298	10.5775
251.191	18.6382
254.084	3.71716
256.976	2.99573
259.869	27.7024
262.762	24.4868
265.654	26.0825
268.547	20.6272
271.44	10.1736
274.332	41.5111
277.225	53.9872
280.118	71.5872
283.011	116.237
285.903	63.8344
288.796	85.0013
291.689	58.5617
294.581	40.3087
297.474	44.3341
300.367	34.4128
303.26	27.0553
306.152	11.7816
309.045	21.7905
311.938	9.33496
314.83	2.84522
317.723	5.2218
320.616	2.79675
323.508	13.5502
326.401	17.4739
329.294	16.2522
332.187	0.328369
335.079	13.3589
337.972	2.46326
340.865	5.20667
343.757	27.9135
346.65	6.07397
349.543	28.3949
352.435	31.4618
355.328	22.7754
358.221	1.61182
361.113	5.93616
364.006	19.5891
366.899	4.26868
369.792	13.4886
372.684	40.0469
375.577	7.43738
378.47	42.9647
381.362	0.563965
384.255	32.1511
387.148	25.7134
390.041	26.0829
392.933	24.3114
395.826	42.9161
398.719	51.4567
401.611	103.263
404.504	135.945
407.397	179.244
410.289	267.537
413.182	375.801
416.075	350.226
418.967	195.152
421.86	67.2465
424.753	40.5524
427.646	26.6299
430.538	13.6216
433.431	20.1792
436.324	32.4128
439.216	8.58325
442.109	39.5693
445.002	7.25342
447.894	2.26312
450.787	15.1968
453.68	23.7711
456.573	8.05115
459.465	5.91077
462.358	28.2547
465.251	29.2
468.143	19.3271
471.036	38.3818
473.929	31.251
476.822	50.9482
479.714	61.7798
482.607	61.3215
485.5	71.6102
488.392	100.824
491.285	133.527
494.178	118.301
497.07	106.001
499.963	69.6391
502.856	37.9428
505.748	32.3044
508.641	16.1193
511.534	26.9246
514.427	12.8146
517.319	28.7255
520.212	27.9045
523.105	8.45074
525.997	15.6776
528.89	11.4296
531.783	23.3893
534.676	26.9771
537.568	0.360962
540.461	22.1824
543.354	10.4329
546.246	10.6758
549.139	13.98
552.032	1.88983
554.924	23.7192
557.817	9.047
560.71	21.0607
563.602	12.2009
566.495	22.991
569.388	16.7076
572.281	14.6956
575.173	12.0331
578.066	28.607
580.959	59.5847
583.851	31.4169
586.744	41.2581
589.637	40.8298
592.529	52.7826
595.422	81.0902
598.315	104.14
601.208	127.005
604.1	127.519
606.993	157.822
609.886	152.558
612.778	123.956
615.671	93.1773
618.564	89.2075
621.457	81.0896
624.349	73.8914
627.242	56.4579
630.135	30.2902
633.027	43.5172
635.92	11.0162
638.813	21.0331
641.705	1.96735
644.598	28.1069
647.491	24.5472
650.384	28.6893
653.276	57.7684
656.169	48.707
659.062	54.9815
661.954	103.814
664.847	108.18
667.74	146.21
670.632	108.061
673.525	86.7935
676.418	55.3439
679.311	43.3095
682.203	64.3103
685.096	33.2078
687.989	51.7332
690.881	12.8597
693.774	14.9255
696.667	23.6451
699.559	11.7122
702.452	3.22125
705.345	8.80933
708.237	2.40808
711.13	11.8428
714.023	11.9766
716.916	4.58313
719.808	5.94348
722.701	12.0619
725.594	2.95209
728.486	33.1741
731.379	46.0134
734.272	60.3969
737.164	69.9907
740.057	59.0329
742.95	35.5336
745.843	33.5251
748.735	18.0645
751.628	25.1303
754.521	22.7364
757.413	4.77942
760.306	13.5751
763.199	18.6943
766.091	12.3148
768.984	36.9407
771.877	9.77289
774.77	43.9631
777.662	15.935
780.555	26.5696
783.448	23.2302
786.34	7.62183
789.233	11.1733
792.126	25.0123
795.019	15.1262
797.911	28.3576
800.804	22.7731
803.697	3.44629
806.589	14.5648
809.482	37.3998
812.375	29.4673
815.267	25.4156
818.16	19.9369
821.053	13.6941
823.946	27.1934
826.838	12.5292
829.731	28.6679
832.624	32.0761
835.516	22.5275
838.409	24.2591
841.302	24.3063
844.194	3.50085
847.087	7.38886
849.98	18.7283
852.872	5.82617
855.765	32.7715
858.658	9.45557
861.551	20.7645
864.443	23.0403
867.336	23.5602
870.229	20.9634
873.121	24.8934
876.014	26.5046
878.907	31.7995
881.799	27.6992
884.692	35.9966
887.585	11.9113
890.478	22.7161
893.37	25.0495
896.263	29.7338
899.156	5.17175
902.048	7.02667
904.941	14.7456
907.834	9.42584
910.726	8.28412
913.619	12.6112
916.512	2.93689
919.405	22.1147
922.297	30.0324
925.19	20.037
928.083	20.5921
930.975	20.3925
933.868	17.7876
936.761	24.5378
939.654	19.7305
942.546	12.2386
945.439	9.18079
948.332	3.49982
951.224	16.1258
954.117	1.21649
957.01	18.153
959.902	16.2629
962.795	6.7865
965.688	26.0592
968.581	22.5568
971.473	21.5353
974.366	28.9423
977.259	55.1671
980.151	52.6703
983.044	90.2901
985.937	147.527
988.829	200.657
991.722	403.985
994.615	790.761
997.508	1417.42
1000.4	2497.47
1003.29	2379.78
1006.19	1031.52
1009.08	367.971
1011.97	166.463
1014.86	93.2165
1017.76	56.2846
1020.65	47.6279
1023.54	18.3151
1026.43	30.1162
1029.33	22.2783
1032.22	10.7957
1035.11	5.67474
1038.01	35.9338
1040.9	28.4833
1043.79	21.4601
1046.68	14.6397
1049.58	21.0975
1052.47	13.0044
1055.36	9.00342
1058.25	0.774902
1061.15	10.4261
1064.04	7.1936
1066.93	33.166
1069.83	21.1406
1072.72	67.6238
1075.61	192.633
1078.5	430.807
1081.4	895.31
1084.29	1349.52
1087.18	633.066
1090.07	247.44
1092.97	140.312
1095.86	102.238
1098.75	79.233
1101.64	73.7559
1104.54	45.9785
1107.43	66.5674
1110.32	6.11536
1113.21	1.55212
1116.11	5.24713
1119	57.5772
1121.89	47.1694
1124.79	80.8415
1127.68	111.093
1130.57	83.574
1133.46	60.3854
1136.36	54.3618
1139.25	31.7635
1142.14	20.2516
1145.04	10.5325
1147.93	31.6459
1150.82	17.2145
1153.71	7.78229
1156.61	3.92841
1159.5	15.3053
1162.39	34.7132
1165.28	56.5029
1168.18	41.1378
1171.07	46.9742
1173.96	28.4465
1176.86	16.2015
1179.75	8.56738
1182.64	8.35785
1185.53	22.1193
1188.43	6.44348
1191.32	6.74676
1194.21	33.8903
1197.1	35.1352
1200	9.32056
1202.89	4.18878
1205.78	24.2126
1208.67	11.582
1211.57	19.5348
1214.46	40.0884
1217.35	25.1968
1220.24	23.4231
1223.14	18.3045
1226.03	23.2531
1228.92	27.158
1231.82	25.872
1234.71	9.69995
