Measurement: Raman, 532 nm, unoriented, Raman Data Processed
Mineral: Rapidcreekite
Rruff sample: R070287
Ideal chemistry: Ca_2_(SO_4_)(CO_3_)4H_2_O
Locality: Locality 1 (Crosscut Creek), Rapid Creek, Yukon Territory, Canada
Source: Mark Mauthner
Description: Radiating aggregate of thin bladed to acicular colorless to white crystals on iron oxide stained quartz crystals.
Raman shift (cm-1)	intensity
155.929	0
158.822	30.7913
161.715	2.39551
164.607	69.0488
167.5	153.339
170.393	219.413
173.286	277.514
176.178	404.934
179.071	458.914
181.964	481.248
184.856	602.756
187.749	702.202
190.642	796.535
193.535	861.351
196.427	741.461
199.32	747.646
202.213	817.442
205.105	869.503
207.998	914.315
210.891	887.452
213.783	810.783
216.676	798.869
219.569	650.477
222.462	525.589
225.354	489.733
228.247	441.305
231.14	401.866
234.032	368.062
236.925	296.633
239.818	183.976
242.71	90.6133
245.603	2.98047
248.496	15.0928
251.388	34.8306
254.281	12.4038
257.174	14.3027
260.067	14.939
262.959	11.5972
265.852	3.5044
268.745	51.6323
271.637	70.4331
274.53	152.486
277.423	182.03
280.315	192.711
283.208	179.899
286.101	167.848
288.994	170.618
291.886	142.042
294.779	103.117
297.672	73.7632
300.564	101.649
303.457	92.4028
306.35	52.9287
309.243	44.6665
312.135	27.5967
315.028	14.2827
317.921	1.7334
320.813	5.60644
323.706	1.42285
326.599	28.3555
329.491	11.6675
332.384	9.87402
335.277	1.79688
338.17	9.50781
341.062	31.9624
343.955	40.9409
346.848	25.7607
349.74	8.27246
352.633	4.63574
355.526	44.3804
358.418	52.4668
361.311	45.7583
364.204	70.2388
367.097	41.8364
369.989	29.3779
372.882	9.23584
375.775	27.1333
378.667	70.1812
381.56	9.63574
384.453	73.271
387.346	26.6626
390.238	61.9492
393.131	50.7695
396.024	40.9512
398.916	159.998
401.809	248.719
404.702	419.95
407.594	686.535
410.487	934.244
413.38	1241.6
416.272	1047.14
419.165	493.443
422.058	253.667
424.951	153.451
427.843	105.997
430.736	145.309
433.629	59.522
436.521	59.3218
439.414	58.3569
442.307	74.8091
445.2	70.7539
448.092	36.7876
450.985	75.7676
453.878	52.3013
456.77	13.581
459.663	141.042
462.556	14.6035
465.448	24.104
468.341	64.9722
471.234	98.1519
474.127	95.332
477.019	161.342
479.912	242.872
482.805	246.497
485.697	295.129
488.59	347.704
491.483	387.91
494.375	365.734
497.268	282.239
500.161	146.24
503.053	154.971
505.946	160.621
508.839	92.188
511.732	92.978
514.624	118.449
517.517	4.24951
520.41	48.5225
523.302	38.1645
526.195	0.589844
529.088	35.9961
531.981	0.717773
534.873	65.4727
537.766	17.0347
540.659	24.3086
543.551	50.8438
546.444	22.5527
549.337	0.070313
552.229	15.4434
555.122	50.4502
558.015	8.60449
560.908	43.1211
563.8	44.1777
566.693	44.331
569.586	10.1416
572.478	24.3193
575.371	11.9815
578.264	5.04394
581.156	75.4082
584.049	82.042
586.942	59.5791
589.835	87.2705
592.727	82.1289
595.62	165.019
598.513	184.08
601.405	208.239
604.298	254.635
607.191	299.951
610.083	277.469
612.976	298.402
615.869	247.147
618.762	243.928
621.654	151.206
624.547	117.172
627.44	114.167
630.332	109.667
633.225	141.234
636.118	79.7363
639.01	48.835
641.903	103.309
644.796	62.252
647.689	143.513
650.581	100.616
653.474	225.298
656.367	150.731
659.259	333.306
662.152	315.662
665.045	401.473
667.938	401.765
670.83	318.309
673.723	212.362
676.616	337.075
679.508	192.323
682.401	212.327
685.294	142.247
688.186	107.943
691.079	55.7422
693.972	67.5557
696.865	30.5947
699.757	32.248
702.65	27.4346
705.543	33.7422
708.435	8.86328
711.328	7.03027
714.221	38.6309
717.113	30.4883
720.006	12.3935
722.899	90.4639
725.792	65.8691
728.684	104.564
731.577	15.9746
734.47	165.144
737.362	110.304
740.255	95.7871
743.148	61.9941
746.04	18.6016
748.933	75.8975
751.826	55.3652
754.719	156.998
757.611	87.3369
760.504	81.3564
763.397	32.9082
766.289	81.2109
769.182	51.8613
772.075	78.2383
774.967	75.1875
777.86	19.4932
780.753	62.419
783.646	116.181
786.538	26.2197
789.431	60.3848
792.324	140.477
795.216	41.2031
798.109	124.473
801.002	38.3516
803.894	7.43262
806.787	112.348
809.68	52.1455
812.573	45.4287
815.465	49.0762
818.358	23.0762
821.251	80.4014
824.143	13.9307
827.036	73.8906
829.929	64.207
832.822	33.4023
835.714	23.3291
838.607	45.7041
841.5	39.1133
844.392	21.0811
847.285	11.7764
850.178	63.7715
853.07	98.8379
855.963	8.19141
858.856	49.4092
861.749	123.575
864.641	54.1338
867.534	137.971
870.427	55.1543
873.319	129.718
876.212	31.9746
879.105	53.7588
881.997	63.417
884.89	57.5469
887.783	48.873
890.676	88.6162
893.568	28.8203
896.461	2.4375
899.354	45.3672
902.246	52.2324
905.139	21.248
908.032	95.7383
910.924	7.61035
913.817	61.0791
916.71	104.385
919.602	87.1269
922.495	93.0762
925.388	33.1816
928.281	43.9727
931.173	39.8965
934.066	9.02051
936.959	47.8281
939.851	29.5723
942.744	36.6435
945.637	95.1191
948.529	62.9072
951.422	79.8291
954.315	36.1113
957.208	18.708
960.1	87.5303
962.993	33.1162
965.886	67.041
968.778	25.4492
971.671	19.0654
974.564	97.2285
977.457	265.736
980.349	164.661
983.242	189.599
986.135	345.822
989.027	514.716
991.92	1172.48
994.813	2409.1
997.705	3949.76
1000.6	5565.75
1003.49	4598.88
1006.38	1683.8
1009.28	648.697
1012.17	256.368
1015.06	229.865
1017.95	90.9629
1020.85	68.5703
1023.74	96.458
1026.63	31.7549
1029.53	14.3379
1032.42	104.785
1035.31	8.60156
1038.2	102.849
1041.1	9.25
1043.99	15.1016
1046.88	90.3066
1049.77	84.7158
1052.67	30.8008
1055.56	27.0107
1058.45	19.6904
1061.35	41.626
1064.24	80.96
1067.13	104.394
1070.02	99.8057
1072.92	285.121
1075.81	737.042
1078.7	1704.23
1081.59	2902.37
1084.49	3628.69
1087.38	1467.45
1090.27	599.649
1093.16	569.761
1096.06	447.447
1098.95	404.858
1101.84	257.851
1104.73	199.931
1107.63	8.54883
1110.52	108.715
1113.41	61.8193
1116.31	70.4463
1119.2	86.4775
1122.09	173.56
1124.98	351.111
1127.88	404.274
1130.77	354.18
1133.66	223.125
1136.56	217.712
1139.45	185.099
1142.34	152.062
1145.23	64.3672
1148.13	47.5586
1151.02	0.12207
1153.91	89.4805
1156.8	126.942
1159.7	20.8594
1162.59	185.718
1165.48	158.602
1168.38	219.025
1171.27	189.374
1174.16	158.857
1177.05	107.685
1179.95	120.314
1182.84	144.221
1185.73	59.1426
1188.62	20.9395
1191.52	54.2461
1194.41	2.07519
1197.3	34.0703
1200.19	24.0996
1203.09	19.9062
1205.98	23.0459
1208.87	10.6582
1211.77	59.7412
1214.66	71.3477
1217.55	83.2939
1220.44	76.2148
1223.34	37.3145
1226.23	0.666992
1229.12	78.8301
1232.01	73.0615
1234.91	9.04492
1237.8	99.9131
1240.69	89.2207
1243.59	50.9844
1246.48	133.386
1249.37	127.955
1252.26	150.778
1255.16	74.6318
1258.05	60.2969
1260.94	125.51
1263.83	213.394
1266.73	198.546
1269.62	104.079
1272.51	4.79297
1275.4	148.159
1278.3	94.7197
1281.19	51.7627
1284.08	142.64
1286.98	126.995
1289.87	115.492
1292.76	117.184
1295.65	95.3477
1298.55	70.6006
1301.44	34.8789
1304.33	16.1377
