Measurement: Raman, 532 nm, unoriented, Raman Data Processed
Mineral: Raslakite
Rruff sample: R070071
Ideal chemistry: Na_15_Ca_3_Fe_3_(Na,Zr)_3_Zr_3_(Si,Nb)Si_25_O_73_(OH,H_2_O)_3_(Cl,OH)
Locality: Raslak Cirques, near Kedybverpahkh Mountain, Lovozero Massif, Kola Peninsula, Russia
Source: Michael Scott
Description: Massive, orange anhedral grains exhibiting conchoidal fracture, co-type material
Raman shift (cm-1)	intensity
135.719	0
139.094	6.40503
142.468	71.5383
145.843	176.481
149.218	182.388
152.593	133.752
155.968	71.0419
159.342	41.3511
162.717	55.471
166.092	48.8389
169.467	66.9613
172.842	69.3166
176.216	69.0768
179.591	52.6945
182.966	109.029
186.341	142.4
189.716	218.303
193.091	300.869
196.465	357.045
199.84	407.746
203.215	504.116
206.59	601.406
209.965	622.393
213.339	620.861
216.714	577.442
220.089	490.902
223.464	389.258
226.839	280.236
230.214	219.697
233.588	117.717
236.963	51.7471
240.338	12.0472
243.713	14.191
247.088	10.0807
250.462	20.6777
253.837	4.23792
257.212	20.8329
260.587	85.9724
263.962	101.544
267.337	145.949
270.711	182.591
274.086	183.217
277.461	229.659
280.836	226.69
284.211	234.186
287.585	250.73
290.96	215.55
294.335	226.473
297.71	187.374
301.085	134.842
304.459	121.849
307.834	77.1804
311.209	39.8296
314.584	47.8403
317.959	58.6567
321.334	123.751
324.708	155.017
328.083	204.161
331.458	313.197
334.833	323.103
338.208	384.086
341.582	361.773
344.957	317.575
348.332	339.415
351.707	367.74
355.082	275.986
358.456	245.281
361.831	175.946
365.206	109.945
368.581	42.1128
371.956	14.1709
375.33	8.61914
378.705	59.4858
382.08	142.416
385.455	241.364
388.83	305.715
392.205	310.158
395.579	322.074
398.954	321.328
402.329	244.817
405.704	180.979
409.079	166.364
412.454	130.855
415.828	80.7371
419.203	12.624
422.578	16.6658
425.953	18.1909
429.327	33.9358
432.702	8.99805
436.077	54.6538
439.452	138.721
442.827	195.211
446.202	254.572
449.576	264.078
452.951	315.935
456.326	278.154
459.701	249.184
463.076	241.703
466.45	200.915
469.825	134.316
473.2	80.0049
476.575	7.16821
479.95	28.5415
483.325	3.16406
486.699	10.7786
490.074	1.427
493.449	33.1362
496.824	1.35474
500.199	36.729
503.573	25.3701
506.948	44.2786
510.323	91.3511
513.698	244.015
517.073	425.798
520.447	619.074
523.822	869.072
527.197	1111.6
530.572	1270.32
533.947	1357.16
537.322	1393.1
540.696	1326.17
544.071	1322.77
547.446	1342.51
550.821	1527.57
554.196	1964.64
557.57	2421.88
560.945	2771.12
564.32	2905.24
567.695	2822.5
571.07	2535.63
574.444	1906.13
577.819	1077.97
581.194	530.686
584.569	207.636
587.944	169.796
591.319	193.809
594.693	361.799
598.068	559.896
601.443	747.865
604.818	843.715
608.193	752.432
611.567	540.264
614.942	363.828
618.317	215.978
621.692	223.034
625.067	250.831
628.442	356.015
631.816	388.579
635.191	338.51
638.566	228.846
641.941	87.4799
645.316	11.9658
648.69	24.7583
652.065	57.3894
655.44	28.8763
658.815	26.498
662.19	108.226
665.564	217.715
668.939	322.787
672.314	454.91
675.689	602.638
679.064	753.843
682.438	881.709
685.813	1071.94
689.188	1234.49
692.563	1405.78
695.938	1562.35
699.313	1692.18
702.687	1604.56
706.062	1298.63
709.437	820.81
712.812	335.429
716.187	124.138
719.562	2.91699
722.936	32.9055
726.311	0.479248
729.686	149.103
733.061	296.293
736.436	494.794
739.81	673.966
743.185	833.107
746.56	872.636
749.935	925.569
753.31	929.88
756.684	902.246
760.059	904.859
763.434	908.654
766.809	891.654
770.184	893.51
773.558	888.249
776.933	872.647
780.308	911.296
783.683	979.542
787.058	1060.12
790.433	1100.49
793.807	1100.36
797.182	1032.87
800.557	1098.28
803.932	1045.29
807.307	972.773
810.682	863.49
814.056	726.944
817.431	475.675
820.806	325.425
824.181	162.882
827.556	33.2615
830.93	36.5654
834.305	49.3774
837.68	24.196
841.055	47.7927
844.43	35.5017
847.804	9.1543
851.179	8.6626
854.554	44.5508
857.929	86.415
861.304	111.876
864.678	152.074
868.053	128.768
871.428	128.181
874.803	159.246
878.178	172.001
881.553	147.635
884.927	241.423
888.302	284.932
891.677	358.895
895.052	303.269
898.427	370.244
901.802	365.679
905.176	347.359
908.551	347.648
911.926	322.518
915.301	342.964
918.676	364.813
922.05	431.503
925.425	504.495
928.8	595.007
932.175	744.696
935.55	1011.07
938.924	1171.6
942.299	1398.41
945.674	1423.46
949.049	1401.81
952.424	1340.06
955.798	1213.06
959.173	1025.61
962.548	952.733
965.923	871.875
969.298	779.562
972.673	824.004
976.047	896.203
979.422	1038.07
982.797	1220.8
986.172	1382.04
989.547	1561.1
992.921	1556.84
996.296	1435.95
999.671	1265.62
1003.05	956.111
1006.42	781.866
1009.79	568.002
1013.17	413.95
1016.54	244.117
1019.92	182.904
1023.29	95.1289
1026.67	56.9875
1030.04	67.2295
1033.42	12.5046
1036.79	3.53833
1040.17	64.3384
1043.54	87.1357
1046.92	47.3938
1050.29	42.3484
1053.67	87.6733
1057.04	257.936
1060.42	468.241
1063.79	775.333
1067.17	1035
1070.54	1078.5
1073.92	1041.78
1077.29	1001.21
1080.67	891.46
1084.04	907.932
1087.42	911.422
1090.79	944.419
1094.17	814.18
1097.54	602.734
1100.91	389.896
1104.29	222.652
1107.66	51.8
1111.04	42.5808
1114.41	9.83618
1117.79	20.7538
1121.16	17.5652
1124.54	4.34021
1127.91	48.3223
1131.29	9.91065
1134.66	18.4416
1138.04	32.4119
1141.41	39.0045
1144.79	23.0474
1148.16	18.5458
1151.54	16.5001
1154.91	25.3375
1158.29	9.32141
1161.66	30.6541
1165.04	49.8032
1168.41	72.7398
1171.79	49.3347
1175.16	67.0024
1178.54	76.156
1181.91	70.3455
1185.29	89.0866
1188.66	84.3408
1192.04	111.424
1195.41	116.034
1198.79	110.064
1202.16	107.28
1205.54	84.2908
1208.91	107.382
1212.28	87.7213
1215.66	66.8099
1219.03	47.6022
1222.41	83.2838
1225.78	96.9042
1229.16	70.7787
1232.53	73.4061
1235.91	60.2412
1239.28	35.3961
1242.66	28.1594
1246.03	41.3774
1249.41	38.694
1252.78	31.7336
1256.16	52.4076
1259.53	42.4659
1262.91	44.0403
1266.28	24.804
1269.66	49.9308
1273.03	60.3082
1276.41	9.69409
1279.78	53.9609
1283.15	30.8096
1286.53	39.2723
1289.9	17.725
1293.28	9.61462
1296.65	66.9094
1300.03	31.5869
1303.4	8.45386
1306.78	18.6869
1310.15	30.6003
1313.53	46.6824
1316.9	7.94238
