Measurement: Raman, 532 nm, unoriented, Raman Data Processed
Mineral: Raspite
Rruff sample: R050567
Ideal chemistry: PbWO_4_
Locality: Broken Hill, New South Wales, Australia
Source: University of Arizona Mineral Museum
Description: Brown tabular crystal
Measured chemistry: Pb_1.00_W_1.00_O_4_
Raman shift (cm-1)	intensity
91.1152	0
94.4901	5.94811
97.8649	18.157
101.24	36.7201
104.615	20.9205
107.989	2.96228
111.364	5.35219
114.739	7.14855
118.114	41.2277
121.489	175.236
124.863	350.283
128.238	439.848
131.613	582.051
134.988	910.997
138.363	1460.66
141.738	2090.87
145.112	1402.74
148.487	808.574
151.862	627.222
155.237	581.207
158.612	711.146
161.987	1281.78
165.361	2142.14
168.736	2666.56
172.111	3536.85
175.486	5093.78
178.861	8973.68
182.235	11802.8
185.61	4904.89
188.985	2903.86
192.36	2505.94
195.735	1693.88
199.109	862.979
202.484	466.372
205.859	254.968
209.234	140.021
212.609	70.0392
215.984	23.6001
219.358	2.86224
222.733	9.03577
226.108	12.927
229.483	10.7188
232.858	3.3128
236.232	13.2847
239.607	43.666
242.982	112.433
246.357	199.398
249.732	287.977
253.107	440.284
256.481	655.853
259.856	890.974
263.231	1035.2
266.606	1160.72
269.981	1369.86
273.356	1867.96
276.73	3005.26
280.105	4620.45
283.48	3123.9
286.855	1335.26
290.23	1058.24
293.604	1319.86
296.979	1956.91
300.354	1907.82
303.729	930.356
307.104	540.989
310.479	454.042
313.853	256.224
317.228	93.5164
320.603	28.1008
323.978	2.69098
327.353	5.6568
330.728	4.51691
334.102	12.7706
337.477	2.49658
340.852	8.23657
344.227	28.5472
347.602	47.1461
350.976	74.3937
354.351	117.086
357.726	156.949
361.101	193.982
364.476	215.887
367.851	219.684
371.225	203.387
374.6	193.394
377.975	228.064
381.35	275.445
384.725	331.278
388.099	458.095
391.474	617.794
394.849	619.663
398.224	358.905
401.599	181.524
404.974	112.732
408.348	75.6674
411.723	57.706
415.098	43.0915
418.473	63.2122
421.848	59.8221
425.223	12.7593
428.597	10.0437
431.972	18.5838
435.347	14.3029
438.722	1.10834
442.097	18.4571
445.471	40.483
448.846	81.8115
452.221	129.923
455.596	179.567
458.971	240.51
462.346	294.727
465.72	378.867
469.095	484.395
472.47	651.717
475.845	855.053
479.22	1105.53
482.594	1417.12
485.969	1740.9
489.344	2068.41
492.719	2087.84
496.094	1697.3
499.469	1173.74
502.843	822.152
506.218	665.25
509.593	660.023
512.968	748.448
516.343	932.188
519.717	1159.06
523.092	1307.61
526.467	1192.68
529.842	879.038
533.217	585.778
536.592	427.11
539.966	320.303
543.341	250.17
546.716	189.016
550.091	133.895
553.466	86.7501
556.841	49.942
560.215	28.2888
563.59	12.0992
566.965	6.09381
570.34	11.981
573.715	20.0606
577.09	21.8517
580.464	9.89612
583.839	6.98651
587.214	10.9642
590.589	14.3338
593.964	34.7208
597.338	35.995
600.713	59.1913
604.088	90.8885
607.463	110.438
610.838	139.824
614.212	184.956
617.587	266.369
620.962	392.844
624.337	624.852
627.712	957.34
631.087	1393.26
634.461	1930.26
637.836	2521.7
641.211	2582.99
644.586	1837.82
647.961	1097.76
651.336	730.548
654.71	580.734
658.085	573.235
661.46	656.369
664.835	799.406
668.21	911.186
671.585	1012.44
674.959	985.937
678.334	838.738
681.709	688.123
685.084	569.003
688.459	449.379
691.833	339.725
695.208	264.439
698.583	199.781
701.958	159.799
705.333	120.073
708.707	83.8889
712.082	60.6271
715.457	41.6646
718.832	23.7144
722.207	0.148621
725.582	6.02258
728.956	2.06439
732.331	13.2512
735.706	33.3669
739.081	65.759
742.456	116.05
745.831	132.786
749.205	87.5408
752.58	15.7842
755.955	27.833
759.33	34.1085
762.705	31.3642
766.08	18.1417
769.454	3.0304
772.829	6.37988
776.204	12.4368
779.579	26.2045
782.954	33.1586
786.328	32.1218
789.703	36.9911
793.078	49.1436
796.453	64.3671
799.828	87.7656
803.202	125.008
806.577	159.715
809.952	198.231
813.327	238.243
816.702	262.879
820.077	286.26
823.451	319.892
826.826	351.545
830.201	431.206
833.576	476.375
836.951	589.476
840.326	774.427
843.7	1054.84
847.075	1491.91
850.45	2336.46
853.825	4158.43
857.2	8305.16
860.574	14139.3
863.949	23477.8
867.324	39070.8
870.699	45464.7
874.074	25532.1
877.448	10811.3
880.823	4450.86
884.198	2274.9
887.573	1301.38
890.948	773.548
894.323	475.476
897.697	311.991
901.072	211.834
904.447	150.187
907.822	122.109
911.197	87.4056
914.572	50.7431
917.946	32.007
921.321	9.69888
924.696	4.3075
928.071	4.27258
931.446	12.5451
934.821	10.1932
938.195	12.6305
941.57	8.0098
944.945	6.254
948.32	7.45898
951.695	4.46228
955.069	3.56758
958.444	5.08595
961.819	20.8911
965.194	23.4766
968.569	34.9518
971.943	42.3747
975.318	44.4119
978.693	49.2348
982.068	54.5649
985.443	59.6074
988.818	67.4944
992.192	71.3819
995.567	72.4509
998.942	76.2879
1002.32	76.36
1005.69	70.1743
1009.07	64.8225
1012.44	64.3662
1015.82	61.7594
1019.19	59.7717
1022.57	54.9589
1025.94	63.0248
1029.32	58.9382
1032.69	60.5866
1036.07	57.4179
1039.44	51.7976
1042.82	49.3387
1046.19	47.7407
1049.56	47.4631
1052.94	37.8437
1056.31	36.7591
1059.69	33.0686
1063.06	25.309
1066.44	17.6377
1069.81	16.4687
1073.19	14.3217
1076.56	13.5376
1079.94	5.32642
1083.31	6.50516
1086.69	5.79096
1090.06	3.1929
1093.44	1.50652
1096.81	0.699265
1100.19	1.73019
1103.56	3.57439
1106.94	0.001343
1110.31	1.92218
1113.69	4.54039
1117.06	5.55064
1120.44	4.05039
1123.81	4.25809
1127.18	8.17738
1130.56	9.70103
1133.93	4.11638
1137.31	6.89178
1140.68	3.16391
1144.06	5.05637
1147.43	6.5564
1150.81	3.13718
1154.18	4.34465
1157.56	0.079544
1160.93	5.14414
1164.31	4.52219
1167.68	6.46011
1171.06	8.13785
1174.43	8.96776
1177.81	6.21512
1181.18	14.0467
1184.56	10.3169
1187.93	15.2114
1191.31	13.2144
1194.68	14.8164
1198.06	6.79431
1201.43	11.2134
1204.81	12.2967
1208.18	10.9914
1211.56	10.0119
1214.93	6.20995
1218.31	5.60971
1221.68	2.09856
1225.06	1.49822
1228.43	1.42409
1231.81	0.380981
1235.18	2.6812
1238.55	1.19807
1241.93	0.869904
1245.3	2.78276
1248.68	3.60777
1252.05	6.75678
1255.43	10.3045
1258.8	6.10419
1262.18	4.87337
1265.55	9.37494
1268.93	12.3318
1272.3	3.04329
1275.68	9.06906
1279.05	7.76268
1282.43	2.98468
1285.8	4.61958
1289.18	4.09412
1292.55	1.23743
1295.93	2.55757
1299.3	1.78311
1302.68	0
