Measurement: Raman, 780 nm, unoriented, Raman Data Processed
Mineral: Raspite
Rruff sample: R050567
Ideal chemistry: PbWO_4_
Locality: Broken Hill, New South Wales, Australia
Source: University of Arizona Mineral Museum
Description: Brown tabular crystal
Measured chemistry: Pb_1.00_W_1.00_O_4_
Raman shift (cm-1)	intensity
92.0654	0
94.9581	3781.98
97.8508	6755.1
100.743	1991.41
103.636	0.376953
106.529	16.6968
109.422	688.114
112.314	2435.4
115.207	5849.59
118.1	5688.41
120.992	2536.27
123.885	1585.7
126.778	1351.93
129.671	1707.68
132.563	2602.42
135.456	4226.46
138.349	7210.83
141.241	9984.94
144.134	5645.78
147.027	1542.13
149.919	189.994
152.812	60.2256
155.705	160.321
158.597	1243.45
161.49	3551.51
164.383	4754.05
167.276	6047.36
170.168	8585.26
173.061	12257.1
175.954	18883.6
178.846	34411
181.739	42688.2
184.632	18640.8
187.524	9938.79
190.417	8510.23
193.31	7394.15
196.203	4472.38
199.095	2491.29
201.988	1345.61
204.881	719.514
207.773	375.342
210.666	150.045
213.559	34.4629
216.451	41.1992
219.344	67.3149
222.237	68.3257
225.13	57.5483
228.022	20.2324
230.915	32.7798
233.808	101.924
236.7	271.693
239.593	433.611
242.486	665.514
245.378	916.211
248.271	1195.97
251.164	1578.74
254.056	2168.48
256.949	2952.76
259.842	3614.69
262.735	3696.88
265.627	3424.34
268.52	3740.19
271.413	4726.98
274.305	6694.86
277.198	10742.5
280.091	15614.3
282.983	10216.1
285.876	4598.19
288.769	3274.29
291.662	3467.7
294.554	4642.94
297.447	6704.78
300.34	5630.25
303.232	2619.57
306.125	1357.39
309.018	1034.22
311.911	716.071
314.803	195.401
317.696	28.7349
320.589	35.9009
323.481	59.064
326.374	204.943
329.267	437.976
332.159	600.784
335.052	744.34
337.945	763.539
340.837	658.167
343.73	524.014
346.623	303.828
349.516	120.327
352.408	3.73633
355.301	57.7817
358.194	8.70068
361.086	95.9771
363.979	332.85
366.872	735.885
369.764	1245.62
372.657	1983.52
375.55	2905.44
378.442	3896.62
381.335	4933.78
384.228	5969.75
387.121	7054.5
390.013	8150.31
392.906	8538.24
395.799	6991.71
398.691	4805.36
401.584	3378.82
404.477	2549.56
407.37	1928.07
410.262	1447.3
413.155	1164.37
416.048	1009.01
418.94	985.807
421.833	850.821
424.726	483.443
427.618	229.713
430.511	109.884
433.404	13.0049
436.296	52.3623
439.189	120.46
442.082	93.3857
444.975	23.9751
447.867	33.8101
450.76	94.1558
453.653	220.909
456.545	375.208
459.438	547.805
462.331	732.593
465.224	975.014
468.116	1327.09
471.009	1737.63
473.902	2272.13
476.794	2901.12
479.687	3670.17
482.58	4561.81
485.472	5519.1
488.365	6556.37
491.258	7140.66
494.151	6735.82
497.043	5436.9
499.936	4030.22
502.829	3177.17
505.721	2849.18
508.614	2807.32
511.507	2919.7
514.399	3268.79
517.292	3833.1
520.185	4560.07
523.077	4960.55
525.97	4593
528.863	3556.03
531.756	2577.39
534.648	1885.55
537.541	1420.45
540.434	1169.69
543.326	1000.82
546.219	821.682
549.112	646.76
552.004	485.138
554.897	391.965
557.79	329.238
560.683	266.734
563.575	208.075
566.468	176.633
569.361	181.358
572.253	165.064
575.146	136.997
578.039	103.199
580.931	64.8325
583.824	47.9619
586.717	3.12793
589.61	52.6416
592.502	66.4297
595.395	56.1501
598.288	71.021
601.18	38.0576
604.073	19.1802
606.966	114.411
609.858	226.842
612.751	355.331
615.644	583.95
618.537	949.475
621.429	1453.77
624.322	2213.3
627.215	3085.82
630.107	4096.81
633	5392.87
635.893	6992.55
638.785	8283.02
641.678	7818.75
644.571	5628.36
647.463	3630.54
650.356	2391.41
653.249	1797
656.141	1616.37
659.034	1683.05
661.927	1850.51
664.82	2015.78
667.712	2204.15
670.605	2400.09
673.498	2361.48
676.39	2101.11
679.283	1762.55
682.176	1474.33
685.068	1282.85
687.961	1069.83
690.854	849.472
693.747	704.005
696.639	561.306
699.532	444.121
702.425	338.013
705.317	231.756
708.21	156.8
711.103	71.1301
713.995	15.3626
716.888	8.2207
719.781	2.61401
722.674	12.5872
725.566	9.12524
728.459	42.0532
731.352	143.898
734.244	210.363
737.137	257.842
740.03	340.792
742.923	424.535
745.815	430.55
748.708	304.325
751.601	105.707
754.493	22.2424
757.386	55.4971
760.279	62.0144
763.171	32.9543
766.064	2.80518
768.957	38.0056
771.85	57.3635
774.742	44.1995
777.635	25.9485
780.528	9.19141
783.42	14.3826
786.313	27.2327
789.206	19.8992
792.098	8.23608
794.991	56.1331
797.884	123.43
800.776	236.344
803.669	354.762
806.562	513.135
809.455	707.362
812.347	880.388
815.24	1020.72
818.133	1160.35
821.025	1221.62
823.918	1302.35
826.811	1331.96
829.703	1360.76
832.596	1427.41
835.489	1553.95
838.381	1777.85
841.274	2205.51
844.167	2834.53
847.06	3882.48
849.952	5727.87
852.845	9522.29
855.738	17102.9
858.63	26021.7
861.523	37382.2
864.416	56288.8
867.308	87313
870.201	106268
873.094	69678.4
875.987	36183.4
878.879	15952.3
881.772	8137.19
884.665	4814.66
887.557	3026.53
890.45	1978.67
893.343	1337.71
896.236	939.588
899.128	653.066
902.021	487.296
904.914	372.048
907.806	312.746
910.699	260.092
913.592	176.509
916.484	100.546
919.377	58.1085
922.27	28.6112
925.163	20.9912
928.055	6.96655
930.948	24.0024
933.841	39.2274
936.733	27.1769
939.626	45.8285
942.519	30.3594
945.411	12.146
948.304	30.5637
951.197	21.4821
954.09	0.101318
956.982	58.9714
959.875	21.1832
962.768	28.6262
965.66	33.3638
968.553	66.0436
971.446	67.1698
974.338	89.6741
977.231	86.5198
980.124	104.575
983.016	105.198
985.909	140.581
988.802	133.124
991.694	134.478
994.587	143.989
997.48	141.406
1000.37	124.769
1003.26	126.601
1006.16	128.383
1009.05	106.877
1011.94	88.6589
1014.84	89.4674
1017.73	84.7036
1020.62	89.4669
1023.51	73.8982
1026.41	72.0753
1029.3	63.9758
1032.19	57.504
1035.09	59.7651
1037.98	43.9498
1040.87	32.8529
1043.76	34.7383
1046.66	18.8632
1049.55	34.5045
1052.44	21.7651
1055.33	20.8625
1058.23	40.3075
1061.12	35.2159
1064.01	18.9526
1066.9	38.9805
1069.8	28.7599
1072.69	48.6523
1075.58	38.6912
1078.47	29.517
1081.37	41.4817
1084.26	44.852
1087.15	41.942
1090.05	60.4166
1092.94	69.849
1095.83	64.6172
1098.72	75.0594
1101.62	67.2134
1104.51	72.186
1107.4	77.0836
1110.3	83.2454
1113.19	96.2703
1116.08	78.7673
1118.97	85.8123
1121.87	109.596
1124.76	124.855
1127.65	124.623
1130.54	133.55
1133.44	152.647
1136.33	121.287
1139.22	133.058
1142.12	97.2629
1145.01	101.896
1147.9	98.2544
1150.79	90.2144
1153.69	84.7908
1156.58	60.6987
1159.47	72.7859
1162.36	77.5254
1165.26	36.3325
1168.15	43.4033
1171.04	22.8852
1173.93	30.3896
1176.83	12.2878
1179.72	17.6206
1182.61	18.7869
1185.51	32.5493
1188.4	6.57153
1191.29	10.0513
1194.18	32.1011
1197.08	81.9924
1199.97	97.6453
1202.86	103.668
1205.75	122.234
1208.65	129.736
1211.54	122.367
1214.43	93.4902
1217.33	34.7095
1220.22	16.3579
1223.11	53.8442
1226	44.7734
1228.9	23.6792
1231.79	49.1904
1234.68	25.3608
1237.57	55.186
1240.47	26.8852
