Measurement: Raman, 780 nm, unoriented, Raman Data Processed
Mineral: Rasvumite
Rruff sample: R060491
Ideal chemistry: KFe_2_S_3_
Locality: Coyote Peak, Humboldt County, California, USA
Source: Michael Scott
Description: Parallel aggregates of brownish-red fibers, associated with phlogopite, andradite, augite, pyrrhotite, magnetite, and apatite.
Raman shift (cm-1)	intensity
93.4884	0
96.8632	2.09158
100.238	1.24683
103.613	3.96219
106.988	12.3629
110.362	19.7295
113.737	9.99533
117.112	3.50943
120.487	1.69049
123.862	1.80466
127.237	6.06895
130.611	48.1317
133.986	123.161
137.361	217.05
140.736	304.024
144.111	452.485
147.485	762.232
150.86	1242.47
154.235	1558.4
157.61	1051.11
160.985	312.908
164.359	87.9811
167.734	33.1612
171.109	10.1761
174.484	0.317581
177.859	0.171387
181.234	6.04948
184.608	24.0764
187.983	45.0498
191.358	14.9819
194.733	13.7419
198.108	50.3689
201.482	130.702
204.857	193.564
208.232	262.852
211.607	440.499
214.982	845.123
218.357	1276.97
221.731	1537.67
225.106	230.945
228.481	84.1755
231.856	81.0795
235.231	96.5013
238.605	114.883
241.98	141.234
245.355	204.304
248.73	249.753
252.105	180.702
255.48	76.7335
258.854	28.5573
262.229	10.3019
265.604	2.02986
268.979	0.45932
272.354	4.41736
275.728	2.72611
279.103	0.000916
282.478	0.41362
285.853	1.7285
289.228	4.62839
292.602	10.0691
295.977	16.5231
299.352	21.7881
302.727	21.2538
306.102	17.666
309.476	13.2958
312.851	8.94426
316.226	4.92748
319.601	1.36055
322.976	0.320969
326.351	1.79774
329.725	0.435959
333.1	1.50913
336.475	1.80992
339.85	0.272903
343.225	1.93308
346.599	4.52032
349.974	6.8521
353.349	10.308
356.724	10.6908
360.099	15.8209
363.474	23.6526
366.848	34.7921
370.223	51.4565
373.598	68.5005
376.973	85.1663
380.348	87.858
383.722	81.9446
387.097	69.7737
390.472	57.5358
393.847	47.0758
397.222	38.5159
400.596	30.5212
403.971	22.7838
407.346	18.3495
410.721	15.6242
414.096	13.5192
417.471	18.2553
420.845	27.9835
424.22	38.7261
427.595	50.455
430.97	64.1458
434.345	71.9323
437.719	81.1489
441.094	71.5541
444.469	24.6648
447.844	0.630844
451.219	6.19731
454.594	32.0781
457.968	89.8602
461.343	158.924
464.718	256.409
468.093	425.394
471.468	663.185
474.842	788.209
478.217	330.924
481.592	100.447
484.967	39.3655
488.342	17.5742
491.716	9.73982
495.091	2.00829
498.466	0.612518
501.841	2.30148
505.216	2.50258
508.591	0.536461
511.965	1.03312
515.34	1.98863
518.715	3.88839
522.09	7.07123
525.465	9.00742
528.84	12.6104
532.214	11.0692
535.589	9.93384
538.964	8.29433
542.339	8.80238
545.713	7.98982
549.088	8.51376
552.463	8.26043
555.838	8.14514
559.213	7.77208
562.588	5.38833
565.962	2.49753
569.337	1.85777
572.712	1.8344
576.087	0.613838
579.462	0.225021
582.837	0.094475
586.211	0.493713
589.586	0.261139
592.961	0.269363
596.336	0.177628
599.711	0.746513
603.085	0.273865
606.46	0.734184
609.835	1.097
613.21	1.9465
616.585	1.92848
619.96	3.03658
623.334	3.08215
626.709	3.64448
630.084	3.91281
633.459	4.45335
636.833	4.42959
640.208	6.22006
643.583	5.11012
646.958	5.42141
650.333	5.58644
653.708	5.81258
657.082	5.55932
660.457	5.15059
663.832	4.50943
667.207	3.48005
670.582	2.98788
673.957	2.49677
677.331	2.1421
680.706	1.56182
684.081	1.90919
687.456	2.24842
690.831	1.94351
694.205	1.23688
697.58	0.738686
700.955	0.622581
704.33	1.93213
707.705	1.86166
711.079	1.77049
714.454	1.8719
717.829	2.19818
721.204	1.68071
724.579	1.85702
727.953	1.98984
731.328	0.804527
734.703	0.367897
738.078	1.11543
741.453	1.18842
744.828	0.247002
748.202	0.878716
751.577	0.474594
754.952	0.316017
758.327	0.376068
761.702	0.443695
765.077	0.18277
768.451	0.461456
771.826	0.185577
775.201	1.38009
778.576	0.250366
781.951	0.427208
785.325	0.652542
788.7	0.423607
792.075	0.627892
795.45	1.17184
798.825	1.04011
802.199	0.617104
805.574	1.9946
808.949	1.58619
812.324	2.05521
815.699	3.22831
819.073	3.35816
822.448	4.10424
825.823	2.52094
829.198	2.33202
832.573	2.11288
835.948	1.90546
839.322	3.11851
842.697	3.12856
846.072	3.64596
849.447	3.82964
852.822	4.38366
856.197	4.38015
859.571	4.48742
862.946	5.15301
866.321	5.595
869.696	5.43256
873.071	5.45076
876.445	4.25735
879.82	4.39989
883.195	2.80917
886.57	2.27475
889.945	0.563881
893.319	1.42762
896.694	0.969254
900.069	0.736862
903.444	0.415092
906.819	0.882614
910.193	0.554901
913.568	0.305893
916.943	0.648842
920.318	0.34243
923.693	1.20136
927.068	0.981239
930.442	0.627964
933.817	0.941483
937.192	0.308884
940.567	0.102665
943.942	0.384457
947.317	0.360214
950.691	0.203438
954.066	0.963432
957.441	0.346146
960.816	0.420334
964.191	1.98088
967.565	1.25868
970.94	2.14097
974.315	3.96203
977.69	5.3956
981.065	6.48947
984.439	6.43121
987.814	5.35909
991.189	4.01888
994.564	3.98932
997.939	2.07061
1001.31	2.03843
1004.69	3.30271
1008.06	2.15615
1011.44	0.291
1014.81	1.00886
1018.19	0.583206
1021.56	0.536488
1024.94	0.81274
1028.31	0.092857
1031.69	0.605324
1035.06	0.479588
1038.44	1.14972
1041.81	1.11148
1045.19	2.27243
1048.56	1.14577
1051.94	1.15588
1055.31	0.986954
1058.68	0.511143
1062.06	0.83202
1065.43	2.04723
1068.81	1.17438
1072.18	0.027298
1075.56	0.051842
1078.93	1.23615
1082.31	0.986179
1085.68	0.535172
1089.06	0.102253
1092.43	1.43972
1095.81	0.562984
1099.18	0.534973
1102.56	0.734715
1105.93	0.067287
1109.31	0.765976
1112.68	0.011162
1116.06	1.01461
1119.43	0.524754
1122.81	0.272888
1126.18	1.06472
1129.56	0.630569
1132.93	1.16218
1136.31	0.516399
1139.68	0.47176
1143.06	1.10206
1146.43	0.831966
1149.81	0.388992
1153.18	0.304531
1156.56	1.27943
1159.93	0.659966
1163.31	0.279514
1166.68	1.1274
1170.05	0.536716
1173.43	0.777134
1176.8	0.320724
1180.18	0.885685
1183.55	0.828865
1186.93	1.00147
1190.3	0.034958
1193.68	0.279209
1197.05	0.602772
1200.43	1.07222
1203.8	0.359039
1207.18	0.837795
1210.55	1.02034
1213.93	0.082657
1217.3	0.483669
1220.68	0.506432
1224.05	0.481308
1227.43	0.650627
1230.8	0.29269
1234.18	1.21038
1237.55	0.463505
1240.92	0.594635
1244.3	0.596233
1247.67	0.127949
1251.05	0.410793
1254.42	0.465164
1257.8	1.1187
1261.17	1.22231
1264.55	0.403751
1267.92	0.714104
1271.3	1.04159
1274.67	0.195652
1278.05	0.636314
1281.42	0.903294
1284.8	0
