Measurement: Raman, 785 nm, unoriented, Raman Data Processed
Mineral: Rasvumite
Rruff sample: R060491
Ideal chemistry: KFe_2_S_3_
Locality: Coyote Peak, Humboldt County, California, USA
Source: Michael Scott
Description: Parallel aggregates of brownish-red fibers, associated with phlogopite, andradite, augite, pyrrhotite, magnetite, and apatite.
Raman shift (cm-1)	intensity
124.42	0
127.313	8.762
130.205	55.184
133.098	149.197
135.991	251.314
138.884	530.626
141.776	2111.19
144.669	5604.51
147.562	11949.4
150.454	18506.1
153.347	18836.2
156.24	10818.2
159.133	3701.68
162.025	1594.09
164.918	923.45
167.811	638.127
170.703	491.198
173.596	411.183
176.489	371.314
179.381	492.141
182.274	656.712
185.167	883.305
188.059	646.804
190.952	364.758
193.845	267.311
196.738	187.349
199.63	196.644
202.523	543.79
205.416	1681.87
208.308	4199.87
211.201	9590.01
214.094	18277.1
216.986	23183.9
219.879	25225.8
222.772	4958.25
225.665	1868.7
228.557	1399.71
231.45	1474.49
234.343	1777.74
237.235	2353.93
240.128	3375.59
243.021	4790.88
245.913	5903.79
248.806	5375.79
251.699	3528.11
254.592	1778.54
257.484	841.217
260.377	393.899
263.27	177.625
266.162	49.675
269.055	29.743
271.948	50.282
274.841	53.773
277.733	94.646
280.626	73.263
283.519	59.4
286.411	18.103
289.304	49.821
292.197	42.77
295.089	137.78
297.982	175.092
300.875	218.109
303.767	255.092
306.66	275.157
309.553	234.737
312.446	176.664
315.338	94.787
318.231	76.187
321.124	79.171
324.016	13.34
326.909	33.025
329.802	116.991
332.694	135.532
335.587	124.439
338.48	200.772
341.373	207.669
344.265	266.546
347.158	285.475
350.051	308.002
352.943	334.94
355.836	343.638
358.729	386.703
361.621	565.918
364.514	821.379
367.407	1086.67
370.3	1543.02
373.192	1846.2
376.085	1987.51
378.978	1876.75
381.87	1529.3
384.763	1061.42
387.656	710.787
390.548	466.524
393.441	347.293
396.334	233.041
399.227	90.324
402.119	29.268
405.012	17.311
407.905	22.868
410.797	7.441
413.69	22.706
416.583	177.308
419.475	373.819
422.368	601.199
425.261	852.638
428.154	1056.67
431.046	1287.27
433.939	1425.52
436.832	1393.19
439.724	1067.86
442.617	359.167
445.51	12.474
448.402	10.811
451.295	141.618
454.188	437.645
457.081	1067.41
459.973	2415.84
462.866	4948.82
465.759	8856.89
468.651	12779.2
471.544	15527.6
474.437	10275.2
477.329	3849.73
480.222	1614.3
483.115	796.548
486.008	408.99
488.9	212.358
491.793	109.115
494.686	33.09
497.578	0.698
500.471	6.428
503.364	53.442
506.257	13.76
509.149	43.573
512.042	87.014
514.935	190.912
517.827	335.428
520.72	427.228
523.613	498.291
526.505	464.412
529.398	452.65
532.291	389.788
535.183	295.643
538.076	241.304
540.969	227.132
543.862	140.076
546.754	110.043
549.647	115.047
552.54	79.043
555.432	78.493
558.325	58.856
561.218	38.007
564.11	33.074
567.003	30.97
569.896	1.184
572.789	7.768
575.681	1.841
578.574	3.714
581.467	26.905
584.359	37.531
587.252	22.314
590.145	6.828
593.038	11.381
595.93	20.85
598.823	59.069
601.716	70.805
604.608	77.37
607.501	95.242
610.394	136.014
613.286	169.268
616.179	179.397
619.072	228.371
621.965	250.408
624.857	200.666
627.75	229.432
630.643	217.717
633.535	213.741
636.428	221.638
639.321	232.922
642.214	254.604
645.106	290.41
647.999	266.389
650.892	262.28
653.784	258.436
656.677	242.083
659.57	206.265
662.462	146.07
665.355	134.899
668.248	136.257
671.141	85.787
674.033	42.257
676.926	53.369
679.819	4.473
682.711	47.282
685.604	17.527
688.497	21.341
691.389	34.572
694.282	2.33
697.175	22.012
700.068	8.28
702.96	18.422
705.853	31.839
708.746	14.628
711.638	41.276
714.531	60.664
717.424	43.315
720.316	49.426
723.209	27.596
726.102	22.154
728.995	45.312
731.887	29.059
734.78	50.771
737.673	15.635
740.565	47.238
743.458	17.93
746.351	12.6
749.243	31.575
752.136	15.985
755.029	17.08
757.922	9.624
760.814	3.456
763.707	3.468
766.6	13.859
769.492	4.33
772.385	23.539
775.278	0.666
778.17	6.615
781.063	8.163
783.956	16.068
786.849	6.487
789.741	19.698
792.634	27.803
795.527	24.121
798.419	19.103
801.312	24.632
804.205	19.38
807.097	39
809.99	57.982
812.883	36.123
815.776	51.731
818.668	57.633
821.561	53.512
824.454	63.351
827.346	58.063
830.239	49.832
833.132	42.999
836.024	34.961
838.917	64.973
841.81	43.826
844.703	69.816
847.595	51.459
850.488	64.433
853.381	106.446
856.273	61.869
859.166	94.689
862.059	126.97
864.951	114.81
867.844	121.672
870.737	173.619
873.63	130.463
876.522	83.755
879.415	53.776
882.308	92.654
885.2	33.512
888.093	37.811
890.986	41.657
893.878	36.437
896.771	10.602
899.664	30.486
902.557	25.318
905.449	16.429
908.342	4.849
911.235	8.377
914.127	18.935
917.02	11.006
919.913	18.454
922.805	26.327
925.698	4.625
928.591	17.747
931.484	37.224
934.376	45.287
937.269	32.505
940.162	40.34
943.054	9.051
945.947	16.071
948.84	30.266
951.732	4.799
954.625	19.522
957.518	37.294
960.411	39.358
963.303	76.154
966.196	68.875
969.089	91.495
971.981	133.87
974.874	196.009
977.767	263.914
980.659	431.146
983.552	562.156
986.445	616.117
989.338	576.605
992.23	448.119
995.123	228.424
998.016	120.708
1000.91	130.125
1003.8	153.774
1006.69	88.469
1009.59	68.715
1012.48	46.691
1015.37	14.874
1018.26	21.781
1021.16	18.127
1024.05	2.461
1026.94	12.239
1029.84	10.534
1032.73	8.823
1035.62	34.762
1038.51	27.8
1041.41	67.761
1044.3	25.68
1047.19	36.133
1050.08	47.607
1052.98	31.239
1055.87	26.492
1058.76	35.738
1061.65	18.037
1064.55	3.804
1067.44	23.1
1070.33	19.442
1073.23	2.97
1076.12	38.911
1079.01	35.605
1081.9	16.717
1084.8	39.75
1087.69	32.215
1090.58	39.688
1093.47	13.032
1096.37	36.864
1099.26	23.811
1102.15	14.083
1105.05	28.844
1107.94	0.205
1110.83	30.475
1113.72	27.685
1116.62	19.716
1119.51	20.663
1122.4	24.364
1125.3	22.961
1128.19	11.214
1131.08	32.09
1133.97	21.508
1136.87	17.508
1139.76	8.396
1142.65	11.334
1145.54	25.443
1148.44	39.56
1151.33	15.979
1154.22	26.253
1157.11	5.786
1160.01	19.675
1162.9	18.391
1165.79	22.002
1168.68	11.474
1171.58	5.63
1174.47	15.123
1177.36	29.748
1180.26	12.067
1183.15	5.521
1186.04	18.193
1188.93	26.182
1191.83	15.994
1194.72	3.618
1197.61	21.918
1200.51	44.871
1203.4	80.135
1206.29	10.987
1209.18	11.931
1212.08	8.987
1214.97	23.339
1217.86	14.277
1220.75	8.991
1223.65	30.422
1226.54	17.525
1229.43	26.128
1232.32	24.2
1235.22	49.77
1238.11	13.861
1241	0.046
1243.89	9.865
1246.79	36.579
1249.68	0.9
1252.57	39.732
1255.47	13.968
1258.36	13.257
1261.25	23.171
1264.14	27.802
1267.04	39.123
1269.93	15.243
