Measurement: Raman, 532 nm, unoriented, Raman Data Processed
Mineral: Raygrantite
Rruff sample: R120151
Ideal chemistry: Pb_10_Zn(SO_4_)_6_(SiO_4_)_2_(OH)_2_
Locality: Evening Star mine, Tiger Wash, Belmont Mountain, Tonopah, Osborn District, Big Horn Mts, Maricopa Co., Arizona, USA
Source: Ron Gibbs and Bob Jenkins
Description: Colorless bladed crystals associated with anglesite and galena, type sample
Measured chemistry: Pb_9.81_Zn_0.93_(S_1.00_O_4_)_6_(Si_1.05_O_4_)_2_(OH)_2_
Raman shift (cm-1)	intensity
166.5	0
169.393	0.643555
172.286	6.47107
175.178	20.2331
178.071	27.4444
180.964	34.2784
183.857	42.5106
186.749	68.5978
189.642	98.4222
192.535	133.694
195.427	155.048
198.32	144.144
201.213	125.091
204.105	106.677
206.998	94.102
209.891	81.0096
212.784	75.3698
215.676	69.1912
218.569	74.3844
221.462	84.6865
224.354	104.223
227.247	129.502
230.14	143.728
233.032	140.97
235.925	139.137
238.818	147.807
241.71	167.828
244.603	194.997
247.496	220.506
250.389	234.056
253.281	220.048
256.174	182.866
259.067	139.615
261.959	99.4767
264.852	70.3293
267.745	44.4801
270.637	30.2961
273.53	17.0645
276.423	13.1249
279.316	8.19032
282.208	8.87734
285.101	12.2966
287.994	20.1123
290.886	24.3765
293.779	22.1669
296.672	9.41083
299.565	2.41331
302.457	7.26182
305.35	6.59184
308.243	0.151283
311.135	13.6883
314.028	28.4327
316.921	52.8978
319.813	83.2246
322.706	106.362
325.599	85.8687
328.491	48.433
331.384	22.7094
334.277	8.63314
337.17	3.49371
340.062	2.45914
342.955	3.66293
345.848	4.15793
348.74	6.54315
351.633	13.0811
354.526	13.2181
357.418	13.807
360.311	8.33039
363.204	2.14404
366.097	1.92644
368.989	3.54761
371.882	3.53662
374.775	0.718918
377.667	5.01875
380.56	8.32963
383.453	14.6883
386.346	22.634
389.238	29.9836
392.131	28.5776
395.024	25.1308
397.916	21.305
400.809	23.8677
403.702	29.8455
406.594	37.873
409.487	40.6939
412.38	40.6149
415.272	42.8175
418.165	55.5087
421.058	82.3885
423.951	128.27
426.843	186.037
429.736	227.385
432.629	263.627
435.521	309.216
438.414	307.311
441.307	255.707
444.2	175.591
447.092	189.436
449.985	236.526
452.878	242.908
455.77	228.551
458.663	203.152
461.556	206.93
464.448	172.117
467.341	97.5277
470.234	49.067
473.127	27.2669
476.019	17.2877
478.912	13.1942
481.805	10.3418
484.697	11.4418
487.59	13.4803
490.483	20.099
493.375	23.2397
496.268	21.6717
499.161	20.0242
502.053	13.8148
504.946	4.80566
507.839	0.138248
510.732	2.68646
513.624	3.27874
516.517	2.66123
519.41	0.241081
522.302	4.79519
525.195	9.01276
528.088	18.6199
530.981	27.1474
533.873	31.0726
536.766	20.451
539.659	8.66387
542.551	2.52755
545.444	0.642494
548.337	0.083092
551.229	0.457401
554.122	0.396374
557.015	1.41046
559.908	1.41017
562.8	2.12405
565.693	3.79978
568.586	5.23536
571.478	6.39077
574.371	6.87077
577.264	10.8497
580.156	16.0424
583.049	26.2961
585.942	37.9896
588.835	56.7653
591.727	85.8018
594.62	117.666
597.513	140.511
600.405	116.958
603.298	92.4533
606.191	90.7788
609.083	96.8377
611.976	104.498
614.869	99.5573
617.761	67.5267
620.654	46.7616
623.547	34.0236
626.44	35.675
629.332	42.1253
632.225	29.8155
635.118	11.8096
638.01	8.55203
640.903	7.13887
643.796	4.79525
646.688	2.76105
649.581	0.1875
652.474	0.509285
655.367	0.242245
658.259	0.416649
661.152	0.499777
664.045	0.210848
666.937	0.177631
669.83	0.13196
672.723	0.054873
675.615	0.411354
678.508	0.741644
681.401	0.799866
684.294	1.0504
687.186	1.0912
690.079	0.304955
692.972	0.721714
695.864	1.02294
698.757	1.21746
701.65	0.976749
704.543	4.86843
707.435	2.48332
710.328	0.654446
713.221	0.932888
716.113	0.095699
719.006	1.30376
721.899	1.38459
724.791	0.928154
727.684	1.79974
730.577	2.56717
733.47	2.51919
736.362	1.55299
739.255	1.60275
742.148	2.17296
745.04	2.48391
747.933	2.9184
750.826	2.89923
753.718	3.7021
756.611	4.54839
759.504	6.00555
762.396	7.90306
765.289	8.1154
768.182	6.84647
771.075	7.02305
773.967	2.83286
776.86	1.04796
779.753	0.347893
782.645	0.023109
785.538	1.29252
788.431	0.715778
791.323	0.038666
794.216	0.668388
797.109	1.38862
800.002	2.78135
802.894	4.70446
805.787	4.70852
808.68	6.93564
811.572	6.66098
814.465	8.96358
817.358	15.9209
820.25	27.1978
823.143	43.2252
826.036	69.8717
828.929	95.4665
831.821	104.383
834.714	96.6239
837.607	100.713
840.5	95.2741
843.392	56.5452
846.285	23.3098
849.178	8.32694
852.07	1.01118
854.963	0.61573
857.856	0.777397
860.748	2.07854
863.641	6.32777
866.534	13.0353
869.427	26.6595
872.319	41.5036
875.212	53.9639
878.105	48.4255
880.997	31.3722
883.89	16.8202
886.783	11.4258
889.675	10.695
892.568	15.3151
895.461	26.055
898.354	44.4883
901.246	67.2811
904.139	93.1445
907.032	105.94
909.924	90.7058
912.817	51.6822
915.71	24.1791
918.602	8.74918
921.495	1.29981
924.388	2.5566
927.28	3.89867
930.173	4.10567
933.066	1.95954
935.959	3.14624
938.851	13.8283
941.744	33.9869
944.637	69.2035
947.529	126.301
950.422	227.024
953.315	374.109
956.207	543.93
959.1	789.668
961.993	1136.21
964.886	1294.03
967.778	1226.59
970.671	1304.79
973.564	1192.82
976.456	840.666
979.349	595.297
982.242	354.391
985.135	198.821
988.027	125.105
990.92	93.8251
993.813	84.423
996.705	91.1561
999.598	104.463
1002.49	130.662
1005.38	158.74
1008.28	181.861
1011.17	192.196
1014.06	182.772
1016.95	156.912
1019.85	122.321
1022.74	90.7756
1025.63	65.8627
1028.53	40.2627
1031.42	26.4407
1034.31	13.0342
1037.2	9.38158
1040.1	6.80783
1042.99	3.82178
1045.88	0.897224
1048.77	4.44945
1051.67	3.21331
1054.56	0.784904
1057.45	11.8038
1060.35	23.9426
1063.24	43.0081
1066.13	64.1653
1069.02	81.5682
1071.92	92.2794
1074.81	94.4031
1077.7	93.3276
1080.59	90.7574
1083.49	77.4442
1086.38	55.6093
1089.27	35.5032
1092.16	20.2994
1095.06	11.0272
1097.95	6.08942
1100.84	3.1266
1103.73	4.11242
1106.63	4.02985
1109.52	3.08868
1112.41	0.80928
1115.31	2.55177
1118.2	1.53189
1121.09	0.054504
1123.98	1.66299
1126.88	7.04349
1129.77	13.6028
1132.66	22.9539
1135.56	35.2251
1138.45	36.7655
1141.34	29.0842
1144.23	21.5224
1147.13	16.4639
1150.02	15.8406
1152.91	15.6464
1155.8	16.7586
1158.7	18.0201
1161.59	17.7486
1164.48	18.0465
1167.38	20.0214
1170.27	22.5133
1173.16	22.9465
1176.05	16.1435
1178.94	7.65268
1181.84	3.77994
1184.73	1.27951
1187.62	0.511654
1190.52	0.127499
1193.41	0.331024
1196.3	0.550194
1199.19	1.37677
1202.09	0.098488
1204.98	1.99534
1207.87	0.57093
1210.77	1.21712
1213.66	3.27844
1216.55	3.26304
1219.44	3.02035
1222.34	2.80228
1225.23	3.48366
1228.12	3.77625
1231.01	3.27212
1233.91	3.61769
1236.8	2.40608
1239.69	2.5815
1242.59	1.8276
1245.48	2.55803
1248.37	1.96811
1251.26	2.72023
1254.16	3.16109
1257.05	2.3551
1259.94	2.17687
1262.83	1.96401
1265.73	0.365828
1268.62	0.394011
1271.51	0.95969
1274.4	0.217501
1277.3	0.117573
1280.19	0.903494
1283.08	0.967314
1285.97	1.13559
1288.87	1.07717
1291.76	1.42683
1294.65	0.591463
1297.55	0.405922
1300.44	0.017807
