Measurement: Raman, 780 nm, unoriented, Raman Data Processed
Mineral: Raygrantite
Rruff sample: R120151
Ideal chemistry: Pb_10_Zn(SO_4_)_6_(SiO_4_)_2_(OH)_2_
Locality: Evening Star mine, Tiger Wash, Belmont Mountain, Tonopah, Osborn District, Big Horn Mts, Maricopa Co., Arizona, USA
Source: Ron Gibbs and Bob Jenkins
Description: Colorless bladed crystals associated with anglesite and galena, type sample
Measured chemistry: Pb_9.81_Zn_0.93_(S_1.00_O_4_)_6_(Si_1.05_O_4_)_2_(OH)_2_
Raman shift (cm-1)	intensity
160.624	0
163.517	1.40913
166.41	2.90849
169.302	4.60817
172.195	6.0654
175.088	3.99791
177.981	2.1953
180.873	0.773743
183.766	4.25636
186.659	9.83202
189.551	16.1879
192.444	22.8296
195.337	26.4162
198.229	26.3041
201.122	22.4555
204.015	17.8351
206.907	11.3057
209.8	5.50897
212.693	1.35618
215.586	0.884918
218.478	1.57505
221.371	5.94598
224.264	13.2173
227.156	19.1821
230.049	23.5499
232.942	26.3225
235.834	28.7972
238.727	37.2061
241.62	42.9052
244.513	53.1051
247.405	58.6781
250.298	58.7236
253.191	52.7555
256.083	40.9348
258.976	29.9169
261.869	20.3172
264.762	11.8875
267.654	6.58105
270.547	3.60279
273.44	1.63196
276.332	0.339142
279.225	0.585785
282.118	1.7522
285.01	2.25905
287.903	5.54433
290.796	5.96443
293.688	3.8473
296.581	0.047142
299.474	1.81471
302.366	0.156563
305.259	2.31765
308.152	8.50355
311.045	14.457
313.937	21.9444
316.83	31.591
319.723	40.3282
322.615	42.2747
325.508	30.6025
328.401	16.2444
331.293	8.08672
334.186	3.45468
337.079	1.09322
339.972	0.522636
342.864	1.0163
345.757	0.318802
348.65	0.678951
351.542	1.69352
354.435	2.16504
357.328	1.81218
360.221	0.521698
363.113	1.03059
366.006	0.942741
368.899	1.10337
371.791	0.670464
374.684	2.20044
377.577	5.60144
380.469	7.66476
383.362	11.0966
386.255	14.1433
389.147	15.9844
392.04	13.7616
394.933	11.6797
397.826	9.38847
400.718	10.2795
403.611	12.694
406.504	14.8537
409.396	15.5567
412.289	17.4181
415.182	21.457
418.075	33.1384
420.967	48.532
423.86	68.515
426.753	93.8038
429.645	116.453
432.538	145.098
435.431	166.537
438.323	169.999
441.216	125.604
444.109	96.6426
447.001	106.745
449.894	120.008
452.787	106.454
455.68	82.9572
458.572	67.8248
461.465	59.9247
464.358	44.7369
467.25	24.5456
470.143	12.7733
473.036	7.64032
475.928	4.44768
478.821	3.16371
481.714	3.45788
484.606	3.62281
487.499	4.70589
490.392	6.77613
493.285	6.9197
496.177	5.88359
499.07	5.56376
501.963	3.91204
504.855	0.866785
507.748	0.358381
510.641	0.966381
513.534	0.794016
516.426	0.366932
519.319	0.271538
522.212	1.56023
525.104	2.59171
527.997	4.23344
530.89	6.1176
533.782	6.22352
536.675	3.28987
539.568	1.46992
542.46	0.21813
545.353	0.456161
548.246	0.114498
551.139	0.198105
554.031	0.482138
556.924	0.862404
559.817	1.27844
562.709	1.34156
565.602	2.31183
568.495	1.64262
571.388	2.42891
574.28	3.28145
577.173	4.37486
580.066	5.73656
582.958	10.3448
585.851	13.8328
588.744	19.1942
591.636	27.0123
594.529	37.3386
597.422	42.6392
600.314	38.9792
603.207	37.4021
606.1	37.3677
608.993	37.2428
611.885	37.5433
614.778	31.8107
617.671	22.7008
620.563	15.2087
623.456	11.9981
626.349	12.2043
629.241	13.4563
632.134	7.38172
635.027	5.11693
637.919	4.97922
640.812	5.29865
643.705	3.64826
646.598	1.54839
649.49	0.058033
652.383	0.69043
655.276	0.122602
658.168	0.359974
661.061	0.386396
663.954	0.015171
666.846	0.196667
669.739	0.070631
672.632	0.198559
675.525	0.323931
678.417	0.092102
681.31	0.072769
684.203	0.034159
687.095	0.328669
689.988	0.041307
692.881	0.511045
695.774	0.332184
698.666	0.666588
701.559	0.231714
704.452	0.695303
707.344	0.1971
710.237	0.078709
713.13	0.48138
716.022	0.855019
718.915	0.268618
721.808	0.348431
724.7	0.419304
727.593	1.43512
730.486	0.431944
733.379	0.977383
736.271	1.08254
739.164	0.353811
742.057	0.62933
744.949	0.583702
747.842	0.370771
750.735	1.1136
753.627	1.23978
756.52	1.84466
759.413	2.19967
762.306	1.64736
765.198	1.95494
768.091	1.10612
770.984	1.20882
773.876	0.870823
776.769	0.037281
779.662	0.150091
782.554	0.498016
785.447	0.047949
788.34	0.581856
791.232	0.22699
794.125	0.022526
797.018	0.586479
799.911	0.425896
802.803	1.01233
805.696	0.883465
808.589	1.13669
811.481	2.77103
814.374	4.18001
817.267	6.29312
820.159	10.8817
823.052	16.761
825.945	23.1952
828.838	29.9157
831.73	28.1482
834.623	22.2897
837.516	19.2398
840.408	16.1505
843.301	8.39237
846.194	3.3333
849.087	1.42586
851.979	0.966919
854.872	0.390869
857.765	1.71659
860.657	2.73357
863.55	4.93508
866.443	7.55168
869.335	10.5232
872.228	14.3454
875.121	15.6376
878.013	11.8343
880.906	8.02594
883.799	5.45958
886.692	3.90083
889.584	3.40361
892.477	4.53084
895.37	6.75891
898.262	9.08993
901.155	13.2971
904.048	15.9381
906.94	16.8463
909.833	12.2593
912.726	6.88957
915.619	1.91916
918.511	0.199989
921.404	0.555084
924.297	1.01502
927.189	1.4287
930.082	0.302574
932.975	0.279488
935.867	2.6818
938.76	6.89527
941.653	15.6456
944.545	28.7545
947.438	47.9061
950.331	82.652
953.224	125.436
956.116	177.203
959.009	253.179
961.902	339.277
964.794	373.221
967.687	387.525
970.58	427.806
973.472	396.56
976.365	342.505
979.258	257.914
982.151	149.761
985.043	85.2319
987.936	51.3156
990.829	36.4521
993.721	31.2649
996.614	28.8718
999.507	26.6667
1002.4	29.0118
1005.29	31.4934
1008.18	33.1972
1011.08	32.5042
1013.97	27.5777
1016.86	21.7661
1019.76	16.5818
1022.65	10.7921
1025.54	7.83423
1028.43	2.56619
1031.33	1.58099
1034.22	0.373886
1037.11	0.112034
1040.01	0.199146
1042.9	0.121632
1045.79	0.067753
1048.68	0.847061
1051.58	1.92946
1054.47	4.63701
1057.36	6.61824
1060.25	10.1168
1063.15	14.3942
1066.04	17.9083
1068.93	19.6194
1071.82	20.9179
1074.72	21.1544
1077.61	20.3384
1080.5	18.1331
1083.39	14.2613
1086.29	9.12847
1089.18	4.96065
1092.07	3.26129
1094.97	1.60282
1097.86	0.385853
1100.75	0.642593
1103.64	0.501446
1106.54	0.228413
1109.43	0.271034
1112.32	0.27351
1115.21	0.586998
1118.11	0.036072
1121	0.751392
1123.89	2.84414
1126.79	4.06177
1129.68	6.61521
1132.57	8.38624
1135.46	10.332
1138.36	10.5868
1141.25	8.71772
1144.14	8.14304
1147.03	7.4904
1149.93	8.98139
1152.82	9.22393
1155.71	8.90342
1158.61	8.63538
1161.5	8.37227
1164.39	7.44524
1167.28	7.85607
1170.18	7.01098
1173.07	5.31919
1175.96	3.6946
1178.85	2.67621
1181.75	1.2392
1184.64	1.46564
1187.53	0.052372
1190.42	0.95826
1193.32	0.02702
1196.21	0.249382
1199.1	0.677704
1202	0.911926
1204.89	0.233017
1207.78	0.97287
1210.67	0.351578
1213.57	0.966866
1216.46	0.823647
1219.35	1.25732
1222.24	2.04417
1225.14	1.50489
1228.03	1.50928
1230.92	1.28268
1233.82	1.57885
1236.71	1.45959
1239.6	1.92636
1242.49	1.08392
1245.39	1.4146
1248.28	0.697842
1251.17	0.705776
1254.06	1.61007
1256.96	1.11481
1259.85	0.474159
1262.74	0.449795
1265.63	0.438164
1268.53	0.36932
1271.42	0.64053
1274.31	0.90881
1277.21	0.427258
1280.1	0.493877
1282.99	0.459763
