Measurement: Raman, 780 nm, unoriented, Raman Data Processed
Mineral: Realgar
Rruff sample: R060106
Ideal chemistry: AsS
Locality: Humboldt County, Nevada, USA
Source: University of Arizona Mineral Museum
Description: Red incrustation with some prismatic crystals
Measured chemistry: As_1.06_S_0.94_
Raman shift (cm-1)	intensity
140.237	0
143.13	6652.81
146.022	562.899
148.915	182.063
151.808	784.51
154.701	2132.79
157.593	3765.71
160.486	8171.96
163.379	19859.3
166.271	22242.6
169.164	18514
172.057	26630.3
174.949	28501.6
177.842	33780.8
180.735	63114.1
183.627	61926.5
186.52	32590.9
189.413	52035.1
192.306	78478.6
195.198	23827.2
198.091	6228.69
200.984	9322.1
203.876	10139.9
206.769	11509
209.662	16459.7
212.554	19946.1
215.447	25589.4
218.34	49413.2
221.233	46274.1
224.125	10662.7
227.018	2606.49
229.911	1179.64
232.803	619.615
235.696	413.966
238.589	296.291
241.482	180.124
244.374	98.7063
247.267	22.4944
250.16	115.586
253.052	185.301
255.945	187.981
258.838	156.115
261.73	124.144
264.623	67.0767
267.516	1.48535
270.408	91.1101
273.301	194.78
276.194	300.186
279.087	406.515
281.979	470.195
284.872	607.946
287.765	786.236
290.657	761.274
293.55	705.439
296.443	644.398
299.335	556.74
302.228	629.129
305.121	868.458
308.014	1279.01
310.906	1791.37
313.799	2154.32
316.692	2908.49
319.584	4697.25
322.477	8197.4
325.37	12906.1
328.262	15124
331.155	16522
334.048	27049.8
336.94	46933.4
339.833	59639.3
342.726	66145.9
345.619	57133.8
348.511	68080
351.404	114542
354.297	122806
357.189	37927.5
360.082	12357.8
362.975	8911.32
365.868	10943
368.76	11927.4
371.653	8232.56
374.546	7585.2
377.438	5075.58
380.331	2742.05
383.224	1463.69
386.116	681.045
389.009	244.93
391.902	75.4966
394.795	50.5485
397.687	7.70386
400.58	0.057495
403.473	24.5272
406.365	37.173
409.258	82.6395
412.151	94.5854
415.043	116.102
417.936	123.233
420.829	109.566
423.721	33.7924
426.614	32.1362
429.507	105.404
432.399	113.628
435.292	78.8887
438.185	44.7551
441.078	42.8715
443.97	75.6347
446.863	96.3695
449.756	91.4075
452.648	100.029
455.541	121.993
458.434	132.283
461.327	119.994
464.219	84.6577
467.112	83.9566
470.005	79.741
472.897	103.125
475.79	111.722
478.683	118.867
481.575	140.172
484.468	143.318
487.361	135.931
490.253	109.581
493.146	97.3722
496.039	76.4927
498.932	82.7518
501.824	102.377
504.717	123.97
507.61	167.083
510.502	176.964
513.395	176.621
516.288	202.636
519.181	211.953
522.073	234.245
524.966	213.284
527.859	221.378
530.751	204.921
533.644	189.256
536.537	163.71
539.429	160.861
542.322	159.49
545.215	174.782
548.107	196.549
551	185.172
553.893	177.554
556.785	157.838
559.678	154.468
562.571	163.652
565.464	133.481
568.356	117.623
571.249	98.1266
574.142	98.1742
577.034	75.8569
579.927	99.3888
582.82	93.6148
585.712	75.3044
588.605	71.2955
591.498	60.7792
594.391	122.194
597.283	180.969
600.176	34.4749
603.069	23.3404
605.961	4.29138
608.854	4.76581
611.747	4.11231
614.639	5.68213
617.532	5.19421
620.425	12.0525
623.318	6.28534
626.21	3.4375
629.103	1.29352
631.996	5.65552
634.888	4.11554
637.781	4.26312
640.674	13.6231
643.567	3.63507
646.459	16.3941
649.352	10.5252
652.245	23.2543
655.137	16.373
658.03	14.145
660.923	35.9221
663.815	39.4267
666.708	58.8053
669.601	67.9819
672.494	83.274
675.386	89.2903
678.279	94.2087
681.172	103.415
684.064	110.854
686.957	117.2
689.85	137.998
692.742	139.063
695.635	146.282
698.528	139.755
701.42	144.486
704.313	142.341
707.206	151.68
710.098	167.986
712.991	161.691
715.884	136.647
718.777	131.149
721.669	118.393
724.562	116.035
727.455	138.782
730.347	154.331
733.24	170.953
736.133	150.994
739.025	117.239
741.918	98.4905
744.811	75.382
747.704	61.6226
750.596	48.8365
753.489	39.986
756.382	13.8077
759.274	8.31921
762.167	0.387665
765.06	1.6478
767.952	3.47208
770.845	1.98752
773.738	0.127747
776.631	3.69144
779.523	4.60989
782.416	1.1275
785.309	4.71082
788.201	3.99728
791.094	2.66202
793.987	4.10288
796.88	1.92322
799.772	11.8882
802.665	3.15027
805.558	10.9158
808.45	3.25568
811.343	14.7069
814.236	3.20676
817.128	0.880676
820.021	10.095
822.914	15.1568
825.807	8.35312
828.699	10.422
831.592	3.43286
834.485	14.8237
837.377	18.4489
840.27	9.72595
843.163	10.6593
846.055	3.50989
848.948	9.55441
851.841	14.3878
854.734	10.7151
857.626	8.99298
860.519	7.94373
863.412	8.33704
866.304	6.14285
869.197	16.5293
872.09	4.97232
874.982	0.643524
877.875	9.1059
880.768	6.95114
883.66	0.444794
886.553	7.24042
889.446	8.84335
892.338	9.77829
895.231	11.1057
898.124	3.29575
901.017	7.06454
903.909	15.986
906.802	1.29352
909.695	5.92758
912.587	8.4751
915.48	15.7579
918.373	7.46832
921.265	9.53412
924.158	6.37503
927.051	11.6614
929.944	8.39276
932.836	11.1888
935.729	15.4043
938.622	12.8819
941.514	8.16666
944.407	11.82
947.3	7.10223
950.192	5.47742
953.085	6.59875
955.978	9.06113
958.87	11.1501
961.763	5.65918
964.656	11.1175
967.549	6.4039
970.441	2.01706
973.334	4.2258
976.227	10.5424
979.119	10.4541
982.012	9.62985
984.905	10.9569
987.798	16.5903
990.69	17.4608
993.583	3.35184
996.476	0.581512
999.368	7.88852
1002.26	6.20633
1005.15	10.1263
1008.05	14.246
1010.94	9.81906
1013.83	14.5118
1016.73	13.0272
1019.62	14.9322
1022.51	8.58127
1025.4	4.26688
1028.3	4.38971
1031.19	6.53751
1034.08	6.18628
1036.97	13.3948
1039.87	4.52118
1042.76	11.3075
1045.65	4.90503
1048.54	0.538849
1051.44	8.05911
1054.33	6.59244
1057.22	3.46933
1060.12	11.3406
1063.01	1.98624
1065.9	4.90186
1068.79	16.0704
1071.69	0.48645
1074.58	4.85672
1077.47	13.3275
1080.36	6.60687
1083.26	2.54092
1086.15	13.8918
1089.04	14.1482
1091.93	8.62903
1094.83	5.54523
1097.72	5.49615
1100.61	16.2239
1103.51	1.83296
1106.4	3.569
1109.29	2.77043
1112.18	9.93646
1115.08	5.06627
1117.97	16.1993
1120.86	1.25731
1123.75	3.74774
1126.65	14.6003
1129.54	8.91933
1132.43	6.74936
1135.33	10.1463
1138.22	13.8156
1141.11	5.88954
1144	3.67627
1146.9	6.95497
1149.79	16.7227
1152.68	14.607
1155.57	18.327
1158.47	12.5627
1161.36	14.4355
1164.25	5.1924
1167.14	18.182
1170.04	13.7228
1172.93	12.189
1175.82	8.27997
1178.72	12.9982
1181.61	12.987
1184.5	10.4979
1187.39	11.6819
1190.29	12.11
1193.18	14.8893
1196.07	14.1807
1198.96	11.0895
1201.86	11.9254
1204.75	1.18384
1207.64	16.2644
1210.54	1.87857
1213.43	8.42271
1216.32	7.78201
1219.21	18.0064
1222.11	6.84784
1225	21.3254
1227.89	13.2053
1230.78	10.9901
1233.68	8.55281
1236.57	14.1289
1239.46	10.9957
1242.36	10.9158
1245.25	16.8388
1248.14	7.27527
1251.03	22.8961
1253.93	10.0083
1256.82	11.0222
1259.71	10.7944
1262.6	0.05896
1265.5	11.5249
1268.39	22.626
1271.28	13.0881
1274.17	3.39972
1277.07	6.80156
1279.96	8.86688
1282.85	7.25346
1285.74	0.888351
