Measurement: Raman, 780 nm, unoriented, Raman Data Processed
Mineral: Realgar
Rruff sample: R100026
Ideal chemistry: AsS
Locality: Palomo mine, Castrovirreyna Province, Huancavelica Department, Peru
Source: Rob Woodside
Description: Red prismatic crystals
Raman shift (cm-1)	intensity
91.5332	0
94.908	523.844
98.2828	349.292
101.658	152.738
105.032	203.31
108.407	1.78223
111.782	28.6553
115.157	9.72656
118.532	91.5791
121.907	335.589
125.281	360.228
128.656	300.337
132.031	540.372
135.406	927.739
138.781	951.977
142.155	1648.68
145.53	751.145
148.905	643.242
152.28	1124.58
155.655	1350.15
159.03	1116.96
162.404	2370.85
165.779	3244.24
169.154	3173.76
172.529	4696.08
175.904	4768.07
179.278	6577.14
182.653	10391.1
186.028	4657.9
189.403	6016.24
192.778	8831.36
196.153	2153.19
199.527	1579.15
202.902	2202.69
206.277	1800.9
209.652	2276.31
213.027	2776.04
216.401	3546.2
219.776	6988.15
223.151	2681.66
226.526	738.236
229.901	511.069
233.275	382.904
236.65	310.685
240.025	114.41
243.4	7.08106
246.775	37.7334
250.15	33.5498
253.524	73.9902
256.899	62.7002
260.274	38.8867
263.649	1.4043
267.024	13.6748
270.399	78.6699
273.773	215.298
277.148	283.044
280.523	362.926
283.898	495.082
287.273	744.57
290.647	1262.82
294.022	1489.62
297.397	839.159
300.772	843.143
304.147	1161
307.522	1760.56
310.896	2100.32
314.271	1050.66
317.646	642.881
321.021	899.731
324.396	1546.48
327.77	1972.21
331.145	2294.69
334.52	4142.46
337.895	6580.68
341.27	8042.9
344.644	8317.76
348.019	8379.94
351.394	13030.1
354.769	14581.8
358.144	5562.51
361.519	2983.31
364.893	1870.75
368.268	1889.96
371.643	1380.38
375.018	1226.93
378.393	886.686
381.767	712.34
385.142	450.933
388.517	131.492
391.892	14.3794
395.267	6.64356
398.642	8.91357
402.016	11.1821
405.391	7.06445
408.766	10.1362
412.141	0.759766
415.516	15.75
418.89	8.94678
422.265	17.3037
425.64	11.9717
429.015	21.3877
432.39	29.7129
435.765	38.0122
439.139	19.2017
442.514	40.7393
445.889	48.7217
449.264	54.2036
452.639	62.814
456.014	68.4209
459.388	67.6323
462.763	102.474
466.138	78.4971
469.513	83.0615
472.887	73.5352
476.262	75.79
479.637	67.4189
483.012	53.1768
486.387	40.1645
489.762	51.2524
493.136	49.8603
496.511	56.5269
499.886	35.793
503.261	35.8833
506.636	38.0801
510.01	31.2979
513.385	21.9287
516.76	34.1577
520.135	16.9292
523.51	19.981
526.885	16.6113
530.259	29.2056
533.634	22.5723
537.009	26.436
540.384	17.7207
543.759	2.09424
547.134	19.9854
550.508	20.2329
553.883	37.5361
557.258	38.896
560.633	35.5493
564.008	18.2808
567.382	32.3315
570.757	23.4229
574.132	25.7564
577.507	26.4961
580.882	21.9873
584.256	34.4653
587.631	36.8359
591.006	15.9829
594.381	6.23584
597.756	5.34229
601.131	2.65918
604.505	2.59131
607.88	2.625
611.255	14.7876
614.63	8.78418
618.005	8.646
621.38	7.0415
624.754	2.52246
628.129	0.525391
631.504	27.752
634.879	30.9468
638.254	11.458
641.628	23.8145
645.003	13.8066
648.378	1.23144
651.753	18.9917
655.128	3.06299
658.503	0.137207
661.877	5.57861
665.252	1.38525
668.627	17.9629
672.002	22.2378
675.377	20.4477
678.751	15.5396
682.126	9.48779
685.501	29.8267
688.876	40.1606
692.251	30.7549
695.625	23.874
699	24.8164
702.375	35.1821
705.75	19.3838
709.125	15.5078
712.5	34.9775
715.874	35.7246
719.249	25.5552
722.624	13.3218
725.999	29.4629
729.374	22.4775
732.749	38.0474
736.123	22.8135
739.498	21.624
742.873	31.936
746.248	5.18896
749.623	12.5356
752.997	1.59766
756.372	7.27002
759.747	6.59424
763.122	13.6387
766.497	7.2793
769.871	6.82471
773.246	11.1494
776.621	16.9878
779.996	11.2759
783.371	21.5918
786.745	6.4917
790.12	2.01269
793.495	35.6914
796.87	28.4961
800.245	22.6724
803.62	12.9199
806.994	32.4141
810.369	12.9307
813.744	0.077637
817.119	32.0986
820.494	28.1426
823.869	32.5488
827.243	18.1406
830.618	15.1382
833.993	3.76221
837.368	15.8428
840.743	12.8994
844.117	23.3721
847.492	26.2485
850.867	10.0122
854.242	26.3037
857.617	41.7158
860.991	36.311
864.366	20.6787
867.741	22.9263
871.116	16.3071
874.491	32.9683
877.866	11.2602
881.24	11.6001
884.615	27.0508
887.99	14.6108
891.365	8.31348
894.74	1.28272
898.115	7.48096
901.489	7.08629
904.864	5.55762
908.239	5.36719
911.614	8.16016
914.989	2.36597
918.363	30.5903
921.738	15.2864
925.113	0.588867
928.488	6.58496
931.863	21.9282
935.237	24.4028
938.612	12.6873
941.987	9.00977
945.362	17.8074
948.737	11.5063
952.112	26.2593
955.486	3.19116
958.861	9.06006
962.236	3.64795
965.611	8.15356
968.986	22.6372
972.361	10.2729
975.735	9.52246
979.11	2.35889
982.485	0.730225
985.86	5.86865
989.235	9.4082
992.609	8.39575
995.984	13.5596
999.359	11.1003
1002.73	13.5361
1006.11	4.92969
1009.48	10.3149
1012.86	6.60547
1016.23	6.34863
1019.61	11.9956
1022.98	9.38257
1026.36	14.9543
1029.73	16.4661
1033.11	14.5369
1036.48	23.0039
1039.86	9.17651
1043.23	27.5386
1046.61	25.5732
1049.98	15.2417
1053.36	22.2634
1056.73	10.7156
1060.11	19.9368
1063.48	10.5156
1066.86	16.0117
1070.23	22.8911
1073.61	15.2297
1076.98	13.4871
1080.36	29.333
1083.73	24.4426
1087.1	16.6936
1090.48	12.0054
1093.85	4.43701
1097.23	6.59961
1100.6	1.14699
1103.98	9.87109
1107.35	9.89795
1110.73	31.5029
1114.1	1.30029
1117.48	6.07104
1120.85	16.5271
1124.23	5.34399
1127.6	6.35913
1130.98	8.03223
1134.35	4.521
1137.73	19.6177
1141.1	28.8237
1144.48	21.2427
1147.85	27.2888
1151.23	3.60376
1154.6	27.8435
1157.97	17.7993
1161.35	24.0064
1164.72	16.064
1168.1	22.3611
1171.47	17.7227
1174.85	33.7822
1178.22	29.3201
1181.6	24.2644
1184.97	21.8845
1188.35	18.4375
1191.72	29.0764
1195.1	12.6045
1198.47	18.1257
1201.85	21.9011
1205.22	16.9177
1208.6	5.06592
1211.97	9.32837
1215.35	21.751
1218.72	0.240967
1222.1	12.3909
1225.47	22.6985
1228.85	24.6807
1232.22	7.22705
1235.6	9.61157
1238.97	7.20142
1242.35	7.65308
1245.72	5.25537
1249.1	2.27783
1252.47	12.981
1255.85	16.229
1259.22	13.2459
1262.6	21.6956
1265.97	19.8379
1269.34	17.5642
1272.72	2.7749
1276.09	1.51074
1279.47	5.59936
1282.84	23.6553
