Measurement: Raman, 780 nm, unoriented, Raman Data Processed
Mineral: Realgar
Rruff sample: R060107
Ideal chemistry: AsS
Locality: Shimen, Hunan Province, China
Source: University of Arizona Mineral Museum
Description: Red prismatic crystals
Measured chemistry: As_0.99_S_1.01_
Raman shift (cm-1)	intensity
119.506	0
122.881	482.562
126.256	130.397
129.631	0.318542
133.005	209.294
136.38	536.144
139.755	1355.97
143.13	3231.62
146.505	135.437
149.879	41.2214
153.254	363.527
156.629	731.829
160.004	1858.5
163.379	4844.36
166.753	5968.03
170.128	7131.79
173.503	8674.85
176.878	10951
180.253	19837
183.627	17064.3
187.002	9227.9
190.377	16380.9
193.752	12240.2
197.127	1953.78
200.502	2025.01
203.876	2314.59
207.251	3054.49
210.626	4871.8
214.001	7367.02
217.376	14001.3
220.75	17669.6
224.125	3217.17
227.5	891.331
230.875	440.875
234.25	276.821
237.625	211.909
240.999	102.045
244.374	62.9029
247.749	5.1257
251.124	22.0842
254.499	34.3296
257.873	20.0449
261.248	26.192
264.623	32.382
267.998	16.3199
271.373	14.007
274.748	42.5681
278.122	77.9967
281.497	112.22
284.872	176.959
288.247	227.478
291.622	205.344
294.996	189.794
298.371	143.018
301.746	152.405
305.121	235.118
308.496	365.486
311.87	507.635
315.245	698.494
318.62	1160.28
321.995	2168.13
325.37	3589.1
328.745	4218.23
332.119	5205.37
335.494	9796.01
338.869	14798.1
342.244	17188
345.619	14886.9
348.993	20815.2
352.368	36687.7
355.743	21502
359.118	4466.98
362.493	2218.76
365.868	2480.53
369.242	2527.06
372.617	2031.19
375.992	1726.93
379.367	914.926
382.741	455.839
386.116	189.916
389.491	55.7231
392.866	17.6594
396.241	0.585129
399.616	6.01694
402.99	11.0635
406.365	5.7791
409.74	15.7427
413.115	17.193
416.49	23.5257
419.865	25.1345
423.239	13.1051
426.614	13.3069
429.989	26.8685
433.364	30.2436
436.739	14.387
440.113	11.6315
443.488	31.8266
446.863	35.2004
450.238	31.7522
453.613	42.3997
456.988	47.3953
460.362	45.2843
463.737	32.3913
467.112	25.1557
470.487	22.9877
473.861	29.8937
477.236	31.3219
480.611	35.123
483.986	40.1249
487.361	36.7924
490.736	28.3445
494.11	18.7685
497.485	13.6346
500.86	18.4612
504.235	28.883
507.61	37.7861
510.985	41.5564
514.359	40.8526
517.734	43.3101
521.109	48.9894
524.484	48.2657
527.859	44.313
531.233	43.3781
534.608	38.1951
537.983	34.8518
541.358	34.7113
544.733	40.4875
548.107	39.4841
551.482	38.8711
554.857	37.0231
558.232	32.8019
561.607	28.7213
564.981	26.2862
568.356	22.6207
571.731	18.7281
575.106	17.7231
578.481	22.8603
581.856	23.8629
585.23	18.7125
588.605	12.6873
591.98	11.1154
595.355	11.9001
598.73	7.52452
602.105	2.7056
605.479	2.65617
608.854	18.6047
612.229	1.40544
615.604	0.700646
618.979	1.25556
622.353	0.882148
625.728	0.639235
629.103	1.15135
632.478	1.23866
635.853	1.40136
639.227	0.481714
642.602	3.02154
645.977	3.47211
649.352	2.03493
652.727	6.08371
656.101	6.59505
659.476	7.4183
662.851	11.3941
666.226	16.691
669.601	18.8351
672.976	23.7414
676.35	21.9214
679.725	25.81
683.1	24.2935
686.475	24.233
689.85	25.5061
693.225	28.924
696.599	27.9247
699.974	24.873
703.349	26.3121
706.724	31.8098
710.098	25.5387
713.473	27.0839
716.848	22.1132
720.223	18.5692
723.598	15.8799
726.973	18.0845
730.347	18.9165
733.722	21.1724
737.097	16.5041
740.472	15.4358
743.847	13.4284
747.221	6.67751
750.596	4.9518
753.971	3.97273
757.346	2.14955
760.721	3.73804
764.096	4.04497
767.47	1.95363
770.845	1.48771
774.22	0.662398
777.595	1.0481
780.97	1.16237
784.345	1.73339
787.719	2.42817
791.094	2.52406
794.469	1.18032
797.844	1.8362
801.218	1.16454
804.593	0.669733
807.968	1.04449
811.343	3.03669
814.718	1.63464
818.093	1.06197
821.467	1.89907
824.842	0.083157
828.217	1.55551
831.592	1.9344
834.967	2.81111
838.341	3.64366
841.716	3.46039
845.091	3.1513
848.466	2.90677
851.841	3.08524
855.216	3.1335
858.59	3.78766
861.965	1.30656
865.34	2.75167
868.715	2.16471
872.09	1.69698
875.464	3.36437
878.839	2.06234
882.214	3.39886
885.589	0.746806
888.964	1.49361
892.338	3.43098
895.713	0.594888
899.088	2.75838
902.463	0.800641
905.838	2.75814
909.213	0.008656
912.587	2.83152
915.962	0.237553
919.337	0.875724
922.712	2.69262
926.087	4.1464
929.462	0.997578
932.836	3.33844
936.211	2.50964
939.586	0.634311
942.961	1.32282
946.336	3.14747
949.71	2.37899
953.085	3.71129
956.46	2.34556
959.835	0.432423
963.21	1.54895
966.584	2.36082
969.959	0.420164
973.334	2.64178
976.709	1.6565
980.084	0.356345
983.458	1.24096
986.833	1.24052
990.208	3.34253
993.583	3.79581
996.958	1.83912
1000.33	1.51618
1003.71	0.946621
1007.08	0.673402
1010.46	1.43573
1013.83	1.09539
1017.21	3.44431
1020.58	3.05032
1023.96	1.69133
1027.33	0.561674
1030.71	3.66825
1034.08	1.52261
1037.46	0.692578
1040.83	2.10336
1044.2	2.12165
1047.58	2.25339
1050.95	1.92563
1054.33	0.951877
1057.7	0.218244
1061.08	0.086864
1064.45	1.37482
1067.83	0.566202
1071.2	3.56896
1074.58	0.985367
1077.95	1.29209
1081.33	1.07499
1084.7	1.55077
1088.08	2.88899
1091.45	3.49959
1094.83	0.604339
1098.2	2.89501
1101.58	2.17017
1104.95	3.13997
1108.33	2.61275
1111.7	0.649293
1115.08	1.33459
1118.45	0.164044
1121.83	2.32987
1125.2	0.477237
1128.58	3.55928
1131.95	2.90075
1135.33	4.61857
1138.7	0.338075
1142.08	1.63033
1145.45	3.25993
1148.82	0.995788
1152.2	0.344842
1155.57	1.20012
1158.95	0.193208
1162.32	3.46363
1165.7	2.59454
1169.07	2.44121
1172.45	0.837462
1175.82	0.932892
1179.2	3.39569
1182.57	0.345692
1185.95	6.08683
1189.32	4.33881
1192.7	2.27913
1196.07	0.327515
1199.45	1.93042
1202.82	3.13982
1206.2	3.23873
1209.57	4.53763
1212.95	4.01622
1216.32	2.60389
1219.7	0.472408
1223.07	2.7876
1226.44	2.14094
1229.82	1.47963
1233.19	3.86419
1236.57	3.76895
1239.94	4.19716
1243.32	3.51027
1246.69	2.09972
1250.07	2.17803
1253.44	1.11238
1256.82	0.885795
1260.19	2.27837
1263.57	2.97504
1266.94	2.38741
1270.32	3.42815
1273.69	1.81087
1277.07	0.585179
1280.44	0.065915
1283.82	0.734025
