Measurement: Raman, 780 nm, unoriented, Raman Data Processed
Mineral: Reddingite
Rruff sample: R090058
Ideal chemistry: Mn^2+^_3_(PO_4_)_2_3H_2_O
Locality: Palermo #1, North Groton, New Hampshire, USA
Source: Royal Ontario Museum
Description: Pale brown translucent pseudo-octahedral crystals associated with blue vivianite and colorless triphylite
Measured chemistry: (Mn^+2^_1.46_Fe^+2^_1.32_Mg_0.19_Ca_0.03_)_Σ=3.00_(PO_4_)_2_·3H_2_O
Raman shift (cm-1)	intensity
134.253	0
137.146	5.94717
140.039	7.99312
142.931	3.38809
145.824	1.62888
148.717	0.54985
151.61	0.436584
154.502	0.537922
157.395	1.20824
160.288	3.52059
163.18	6.18224
166.073	7.78732
168.966	8.55091
171.858	6.20251
174.751	3.3799
177.644	1.39834
180.537	1.94147
183.429	1.94366
186.322	3.40801
189.215	3.23954
192.107	1.19237
195	1.48231
197.893	0.424019
200.786	0.128815
203.678	0.559128
206.571	0.721474
209.464	3.75354
212.356	5.23392
215.249	7.78236
218.142	10.7812
221.034	13.421
223.927	16.76
226.82	21.8268
229.713	24.6974
232.605	25.4482
235.498	23.8834
238.391	25.5528
241.283	22.4042
244.176	20.3596
247.069	17.1225
249.961	13.3958
252.854	12.3566
255.747	10.0962
258.639	8.80135
261.532	8.80907
264.425	11.0814
267.318	10.2138
270.21	10.0192
273.103	8.18062
275.996	4.48213
278.888	3.34189
281.781	1.93591
284.674	1.27239
287.567	0.523537
290.459	1.31073
293.352	0.240562
296.245	0.223309
299.137	0.406406
302.03	1.33129
304.923	2.60047
307.815	3.69643
310.708	3.53157
313.601	4.45892
316.493	4.07612
319.386	4.21263
322.279	3.82808
325.172	1.93259
328.064	1.24296
330.957	1.13482
333.85	1.28991
336.742	0.129635
339.635	0.431765
342.528	0.43079
345.421	0.239155
348.313	0.6751
351.206	0.196489
354.099	0.20083
356.991	0.385654
359.884	0.446493
362.777	0.745546
365.669	1.20234
368.562	1.78194
371.455	0.779518
374.348	4.24156
377.24	3.41143
380.133	5.698
383.026	6.52641
385.918	6.82571
388.811	8.37638
391.704	9.34115
394.596	9.80531
397.489	10.2889
400.382	9.42334
403.274	8.30307
406.167	8.02422
409.06	9.61295
411.953	9.22226
414.845	7.65035
417.738	4.4235
420.631	3.725
423.523	2.43112
426.416	1.26965
429.309	0.736437
432.202	1.07974
435.094	1.07321
437.987	2.21299
440.88	2.83488
443.772	4.34566
446.665	6.42422
449.558	8.46073
452.45	9.78087
455.343	10.5184
458.236	10.1052
461.128	10.4923
464.021	8.33129
466.914	7.42324
469.807	6.69439
472.699	5.44891
475.592	4.41021
478.485	4.67604
481.377	3.60545
484.27	1.8492
487.163	1.61546
490.055	2.09746
492.948	0.485952
495.841	0.408579
498.734	0.108408
501.626	0.550844
504.519	0.352013
507.412	0.098343
510.304	1.72095
513.197	2.32628
516.09	2.58143
518.982	3.26426
521.875	4.43818
524.768	4.05562
527.661	4.49786
530.553	6.79166
533.446	8.27722
536.339	9.65584
539.231	10.8534
542.124	14.3883
545.017	16.6161
547.909	19.3563
550.802	21.5446
553.695	23.8067
556.588	24.4737
559.48	25.7994
562.373	25.7519
565.266	25.2977
568.158	22.0771
571.051	19.0095
573.944	15.4228
576.837	14.105
579.729	14.6432
582.622	16.2543
585.514	17.1305
588.407	18.0199
591.3	15.3958
594.193	12.2926
597.085	8.79496
599.978	5.65881
602.871	4.17047
605.763	3.31485
608.656	2.00775
611.549	0.496574
614.442	0.060749
617.334	0.236254
620.227	0.387982
623.12	0.135604
626.012	0.750538
628.905	0.433798
631.798	0.179119
634.69	0.009217
637.583	0.357586
640.476	0.903534
643.369	0.432895
646.261	1.11695
649.154	0.588485
652.047	0.947496
654.939	0.951792
657.832	0.846751
660.725	0.570663
663.617	0.831663
666.51	1.49429
669.403	1.42436
672.295	1.24096
675.188	0.672614
678.081	0.596093
680.974	0.626557
683.866	0.259536
686.759	0.543022
689.652	0.194993
692.544	0.467667
695.437	0.336446
698.33	0.12497
701.222	0.028359
704.115	0.095026
707.008	0.118404
709.901	0.565966
712.793	0.378396
715.686	0.900137
718.579	1.01578
721.471	0.467925
724.364	0.187375
727.257	0.153216
730.149	0.170635
733.042	1.15345
735.935	1.6866
738.828	1.62471
741.72	1.84554
744.613	1.91295
747.506	1.81088
750.398	2.00352
753.291	2.16236
756.184	3.34128
759.077	3.41082
761.969	3.77199
764.862	2.58254
767.755	2.60837
770.647	3.59769
773.54	3.22558
776.433	2.56112
779.325	2.52127
782.218	0.92502
785.111	1.42258
788.004	0.778362
790.896	1.11231
793.789	1.01305
796.682	0.758211
799.574	0.715929
802.467	0.208082
805.36	0.711283
808.252	1.14403
811.145	0.88373
814.038	1.10675
816.931	1.02204
819.823	1.48498
822.716	1.11493
825.609	0.085661
828.501	0.456614
831.394	1.45482
834.287	0.751476
837.179	0.199272
840.072	0.221798
842.965	0.816524
845.857	1.41075
848.75	1.19846
851.643	1.73169
854.536	1.26904
857.428	1.79723
860.321	1.73905
863.214	0.552095
866.106	2.0736
868.999	2.54006
871.892	0.826147
874.784	1.44822
877.677	0.496587
880.57	1.45619
883.463	1.21117
886.355	1.37237
889.248	0.428715
892.141	0.635499
895.033	0.374176
897.926	0.455619
900.819	0.206462
903.712	0.780755
906.604	0.709166
909.497	0.988621
912.39	0.40162
915.282	0.099741
918.175	1.07501
921.068	0.291791
923.96	1.27207
926.853	1.71127
929.746	2.312
932.639	4.90879
935.531	6.87328
938.424	9.14106
941.317	12.6803
944.209	18.428
947.102	27.3028
949.995	40.2946
952.887	56.337
955.78	79.9485
958.673	102.997
961.566	129.394
964.458	142.617
967.351	142.113
970.244	125.209
973.136	96.109
976.029	64.1446
978.922	40.2524
981.814	25.7024
984.707	19.9413
987.6	14.9745
990.492	12.6646
993.385	10.0356
996.278	10.2173
999.171	9.35655
1002.06	8.93484
1004.96	8.31039
1007.85	7.97085
1010.74	6.52007
1013.63	4.45365
1016.53	3.28352
1019.42	2.6768
1022.31	1.39942
1025.2	1.62188
1028.1	1.8745
1030.99	2.04923
1033.88	2.01598
1036.78	3.96758
1039.67	5.57099
1042.56	7.76176
1045.45	10.3997
1048.35	10.465
1051.24	8.30621
1054.13	6.53722
1057.03	3.26037
1059.92	2.51708
1062.81	1.68514
1065.7	0.94423
1068.6	0.370904
1071.49	0.442095
1074.38	0.507084
1077.27	0.650361
1080.17	0.272566
1083.06	0.424276
1085.95	0.820276
1088.84	0.3781
1091.74	0.011596
1094.63	0.243662
1097.52	0.099901
1100.41	0.815204
1103.31	0.623226
1106.2	0.042727
1109.09	0.499512
1111.99	0.233229
1114.88	1.59854
1117.77	0.341335
1120.66	0.627461
1123.56	1.28135
1126.45	0.874346
1129.34	1.25954
1132.23	2.14883
1135.13	1.58252
1138.02	0.612273
1140.91	0.7704
1143.81	0.898075
1146.7	1.14738
1149.59	1.28739
1152.48	1.79177
1155.38	1.00367
1158.27	1.66399
1161.16	2.55574
1164.05	0.932533
1166.95	1.84633
1169.84	0.627402
1172.73	1.3245
1175.62	1.1319
1178.52	1.8476
1181.41	0.857101
1184.3	1.57045
1187.2	1.53017
1190.09	1.15004
1192.98	1.66648
1195.87	1.64768
1198.77	2.05486
1201.66	1.75546
1204.55	2.08377
1207.44	1.88979
1210.34	1.44732
1213.23	1.47729
1216.12	1.28889
1219.02	1.41413
1221.91	1.15028
1224.8	0.69924
1227.69	0.178479
1230.59	1.61351
1233.48	0.400352
1236.37	1.44581
1239.27	1.28422
1242.16	1.04741
1245.05	0.591974
1247.94	1.61773
1250.84	0.395897
1253.73	0.832609
1256.62	0.732037
1259.51	0.014357
1262.41	0.694296
1265.3	0.404661
1268.19	0.419272
1271.08	1.0973
1273.98	0.493362
1276.87	1.50693
1279.76	0.764699
1282.65	0.495492
1285.55	0
