Measurement: Raman, 532 nm, unoriented, Raman Data Processed
Mineral: Reddingite
Rruff sample: R090058
Ideal chemistry: Mn^2+^_3_(PO_4_)_2_3H_2_O
Locality: Palermo #1, North Groton, New Hampshire, USA
Source: Royal Ontario Museum
Description: Pale brown translucent pseudo-octahedral crystals associated with blue vivianite and colorless triphylite
Measured chemistry: (Mn^+2^_1.46_Fe^+2^_1.32_Mg_0.19_Ca_0.03_)_Σ=3.00_(PO_4_)_2_·3H_2_O
Raman shift (cm-1)	intensity
135.469	0
138.843	56.8872
142.218	57.1971
145.593	22.1834
148.968	60.499
152.343	183.865
155.718	333.165
159.092	456.401
162.467	604.216
165.842	788.909
169.217	889.327
172.592	750.88
175.966	507.577
179.341	342.321
182.716	237.275
186.091	174.641
189.466	132.734
192.84	87.7988
196.215	39.1363
199.59	5.46661
202.965	14.9025
206.34	18.5582
209.715	7.99121
213.089	11.1933
216.464	50.754
219.839	93.4621
223.214	142.957
226.589	205.88
229.964	263.281
233.338	288.51
236.713	278.488
240.088	231.929
243.463	188.473
246.838	151.705
250.212	131.28
253.587	129.333
256.962	142.584
260.337	164.812
263.712	193.839
267.086	216.512
270.461	219.327
273.836	187.911
277.211	141.8
280.586	97.2488
283.961	59.6061
287.335	30.9446
290.71	15.1289
294.085	8.01353
297.46	9.13248
300.835	20.4591
304.209	37.1643
307.584	63.469
310.959	83.9508
314.334	101.148
317.709	105.763
321.084	92.3296
324.458	63.7686
327.833	41.247
331.208	21.3479
334.583	13.724
337.958	3.52919
341.332	2.57214
344.707	1.80298
348.082	1.43565
351.457	1.88251
354.832	5.1187
358.207	4.87221
361.581	4.19721
364.956	0.896088
368.331	0.904449
371.706	4.50374
375.08	15.9616
378.455	17.5327
381.83	25.7214
385.205	34.3115
388.58	41.7935
391.955	50.4605
395.329	48.0458
398.704	50.1479
402.079	46.3183
405.454	44.7806
408.829	43.3887
412.204	45.5857
415.578	37.6689
418.953	26.7132
422.328	18.6125
425.703	13.536
429.078	14.2058
432.452	19.6389
435.827	33.31
439.202	54.5916
442.577	73.2169
445.952	102.147
449.327	135.147
452.701	166.847
456.076	189.988
459.451	201.352
462.826	201.172
466.201	189.043
469.575	177.841
472.95	175.826
476.325	176.671
479.7	172.136
483.075	150.808
486.45	114.697
489.824	76.9593
493.199	43.4851
496.574	21.2251
499.949	2.1244
503.324	4.1832
506.698	8.93677
510.073	3.55756
513.448	2.06702
516.823	11.9858
520.198	25.1398
523.572	40.759
526.947	60.0317
530.322	93.313
533.697	120.331
537.072	159.967
540.447	202.606
543.821	259.828
547.196	320.524
550.571	376.866
553.946	421.946
557.321	455.367
560.695	485.674
564.07	490.165
567.445	431.912
570.82	323.85
574.195	220.823
577.569	157.389
580.944	128.563
584.319	120.459
587.694	121.039
591.069	114.784
594.443	96.7298
597.818	75.4601
601.193	57.0382
604.568	42.4809
607.943	28.4965
611.318	16.2963
614.692	9.82346
618.067	3.29808
621.442	1.83888
624.817	1.71768
628.192	1.23193
631.567	0.446884
634.941	1.75169
638.316	0.302002
641.691	1.75189
645.066	1.85658
648.441	5.25449
651.815	7.25508
655.19	6.38675
658.565	6.62637
661.94	7.97818
665.315	8.96356
668.689	9.20637
672.064	8.50769
675.439	8.56322
678.814	8.47929
682.189	6.40115
685.564	2.74522
688.938	7.03597
692.313	1.54234
695.688	2.26616
699.063	1.09892
702.438	0.207062
705.812	0.266785
709.187	0.692337
712.562	0.134659
715.937	0.027359
719.312	3.0383
722.687	2.90755
726.061	4.39868
729.436	4.79224
732.811	6.20972
736.186	6.85312
739.561	7.68666
742.936	11.5483
746.31	15.7438
749.685	17.852
753.06	27.1099
756.435	30.4825
759.81	33.4575
763.184	35.2996
766.559	35.4051
769.934	31.1055
773.309	27.4861
776.684	22.173
780.058	20.9154
783.433	15.6361
786.808	11.8415
790.183	9.34221
793.558	8.14561
796.933	7.71817
800.307	8.18109
803.682	6.04312
807.057	7.91627
810.432	7.29188
813.807	7.89369
817.181	11.8384
820.556	19.6155
823.931	8.62119
827.306	9.68135
830.681	13.2914
834.056	10.6723
837.43	12.4241
840.805	13.9022
844.18	13.3166
847.555	16.6584
850.93	16.3824
854.304	17.3197
857.679	17.4523
861.054	15.6484
864.429	15.8421
867.804	13.0342
871.178	11.1852
874.553	9.50259
877.928	7.30777
881.303	6.31905
884.678	3.53644
888.053	1.10405
891.427	2.98386
894.802	1.7307
898.177	4.7708
901.552	6.15572
904.927	6.54012
908.302	6.96945
911.676	6.36491
915.051	4.55804
918.426	1.13049
921.801	6.05985
925.176	18.8218
928.55	35.3946
931.925	64.4303
935.3	103.903
938.675	165.607
942.05	260.446
945.424	416.489
948.799	666.291
952.174	1071
955.549	1689.33
958.924	2505.59
962.298	3390.27
965.673	3983.37
969.048	3925.86
972.423	3201.59
975.798	2113.43
979.173	1234.63
982.547	757.108
985.922	536.862
989.297	437.689
992.672	398.086
996.047	393.817
999.421	413.289
1002.8	437.168
1006.17	450.779
1009.55	428.251
1012.92	356.652
1016.3	257.309
1019.67	161.059
1023.04	89.8431
1026.42	45.7719
1029.8	36.3755
1033.17	39.7324
1036.54	64.6375
1039.92	110.159
1043.29	168.442
1046.67	233.234
1050.04	259.993
1053.42	199.577
1056.79	123.189
1060.17	72.9276
1063.54	42.4151
1066.92	20.1857
1070.29	3.76733
1073.67	7.0885
1077.04	11.3325
1080.42	11.5335
1083.79	9.35904
1087.17	5.58688
1090.54	0.9552
1093.92	3.32281
1097.29	4.00861
1100.67	7.392
1104.04	6.52158
1107.42	10.141
1110.79	12.74
1114.16	14.5902
1117.54	16.7358
1120.91	17.9749
1124.29	19.6171
1127.66	23.1359
1131.04	24.5312
1134.41	23.5346
1137.79	22.2279
1141.16	20.5571
1144.54	17.4307
1147.91	20.5745
1151.29	14.9009
1154.66	14.5142
1158.04	15.9085
1161.41	15.0801
1164.79	14.0371
1168.16	15.5947
1171.54	15.1733
1174.91	17.1242
1178.29	15.243
1181.66	17.3365
1185.04	15.512
1188.41	15.9568
1191.79	13.9226
1195.16	14.4216
1198.54	13.9046
1201.91	14.3699
1205.29	14.0326
1208.66	13.2826
1212.04	12.2921
1215.41	8.50809
1218.79	9.72794
1222.16	7.6707
1225.53	6.19742
1228.91	4.42414
1232.28	4.2018
1235.66	3.70107
1239.03	1.98
1242.41	1.7701
1245.78	1.88476
1249.16	0.453392
1252.53	0.928391
1255.91	0.258621
1259.28	0.720192
1262.66	1.17589
1266.03	0.838654
1269.41	0.876297
1272.78	1.67621
1276.16	1.61385
1279.53	0.592346
1282.91	1.23576
1286.28	0.965523
1289.66	0.10183
1293.03	7.18057
1296.4	1.98339
1299.78	1.34849
1303.15	0.206795
