Measurement: Raman, 532 nm, unoriented, Raman Data Processed
Mineral: Reedmergnerite
Rruff sample: R060096
Ideal chemistry: NaBSi_3_O_8_
Locality: Dara-i-Pioz, Tadjikistan
Source: University of Arizona Mineral Museum
Description: Colorless fragment
Measured chemistry: Na_1.00_B_1.00_Si_3.00_O_8_
Raman shift (cm-1)	intensity
103.388	0
106.763	1.0723
110.138	1.42793
113.513	12.263
116.888	34.6585
120.263	15.4615
123.637	1.95297
127.012	2.41163
130.387	0.090302
133.762	6.18624
137.137	26.5341
140.511	8.26446
143.886	2.82034
147.261	8.41726
150.636	24.5554
154.011	81.1439
157.386	66.825
160.76	2.76657
164.135	0.871384
167.51	4.93185
170.885	20.0419
174.26	48.964
177.634	112.329
181.009	144.395
184.384	122.146
187.759	177.498
191.134	261.723
194.508	316.465
197.883	269.379
201.258	332.884
204.633	493.098
208.008	379.601
211.382	402.841
214.757	592.927
218.132	911.489
221.507	1131.9
224.882	822.971
228.257	421.72
231.631	226.644
235.006	150.596
238.381	138.855
241.756	188.332
245.131	236.006
248.506	120.631
251.88	44.8289
255.255	16.9465
258.63	5.04993
262.005	0.826515
265.38	3.73857
268.754	3.39049
272.129	0.560703
275.504	5.63844
278.879	13.4764
282.254	26.0573
285.628	46.9027
289.003	84.0793
292.378	107.904
295.753	99.7763
299.128	126.894
302.503	221.684
305.877	401.14
309.252	421.235
312.627	251.468
316.002	214.93
319.377	119.379
322.752	58.1618
326.126	34.0203
329.501	20.0418
332.876	12.256
336.251	7.98868
339.625	4.41449
343	2.98679
346.375	1.63759
349.75	1.14443
353.125	0.66926
356.5	0.11957
359.875	0.029947
363.249	0.025919
366.624	0.767048
369.999	0.462023
373.374	0.616022
376.748	0.37459
380.123	1.02317
383.498	1.6638
386.873	3.41586
390.248	9.54431
393.623	18.5749
396.997	25.6036
400.372	25.8788
403.747	41.8315
407.122	72.5077
410.497	54.2405
413.872	16.5554
417.246	7.70057
420.621	6.20024
423.996	12.9251
427.371	25.6581
430.746	29.4054
434.12	24.1716
437.495	36.1796
440.87	66.5611
444.245	91.0255
447.62	40.2168
450.995	13.6543
454.369	9.90488
457.744	13.1725
461.119	23.8862
464.494	50.9034
467.869	84.1152
471.243	35.0937
474.618	3.85775
477.993	3.46289
481.368	4.49423
484.743	2.39638
488.118	4.05336
491.492	21.185
494.867	39.8928
498.242	80.9503
501.617	172.971
504.991	308.402
508.366	268.817
511.741	193.146
515.116	292.607
518.491	352.018
521.866	186.653
525.24	96.0511
528.615	76.2076
531.99	84.6685
535.365	122.588
538.74	173.455
542.115	159.881
545.489	76.6851
548.864	31.2696
552.239	15.5362
555.614	10.9736
558.989	14.9098
562.363	35.8348
565.738	90.6603
569.113	164.498
572.488	287.955
575.863	548.173
579.237	937.485
582.612	902.783
585.987	361.057
589.362	145.791
592.737	68.4077
596.112	34.7413
599.486	17.7419
602.861	8.83694
606.236	2.92279
609.611	0.102592
612.986	1.51566
616.361	1.87552
619.735	0.718124
623.11	1.65112
626.485	5.11816
629.86	11.916
633.235	22.2035
636.609	32.0037
639.984	25.0107
643.359	9.45795
646.734	2.55386
650.109	0.127485
653.484	0.645157
656.858	1.26857
660.233	0.427582
663.608	0.265417
666.983	0.022381
670.357	0.1497
673.732	0.457668
677.107	0.690432
680.482	1.36904
683.857	1.59372
687.232	2.28004
690.606	2.33689
693.981	2.71385
697.356	3.4609
700.731	4.05925
704.106	5.63171
707.481	6.1309
710.855	6.49993
714.23	5.55841
717.605	5.25808
720.98	5.91953
724.355	7.45115
727.729	10.4659
731.104	18.0142
734.479	32.4498
737.854	56.3025
741.229	93.1976
744.604	162.147
747.978	254.483
751.353	237.34
754.728	105.112
758.103	45.1661
761.477	22.5753
764.852	12.6683
768.227	7.20058
771.602	4.5351
774.977	2.83903
778.352	1.11518
781.726	1.14022
785.101	1.52184
788.476	1.32283
791.851	2.61195
795.226	5.28982
798.601	10.7315
801.975	18.6147
805.35	32.181
808.725	54.9246
812.1	74.0955
815.475	52.1671
818.849	22.561
822.224	10.4063
825.599	5.00548
828.974	2.08499
832.349	1.0924
835.723	0.246113
839.098	0.250942
842.473	0.585415
845.848	0.69364
849.223	0.256378
852.598	0.13571
855.972	0.564075
859.347	1.88519
862.722	3.59646
866.097	7.18625
869.472	12.1777
872.846	18.8424
876.221	27.2505
879.596	28.7297
882.971	23.3618
886.346	26.3819
889.721	33.1368
893.095	33.9329
896.47	34.1825
899.845	30.2084
903.22	19.2083
906.595	9.07969
909.97	3.5142
913.344	0.978817
916.719	0.434158
920.094	0.317364
923.469	0.261246
926.844	0.349909
930.218	0.503691
933.593	0.820278
936.968	0.88986
940.343	2.61201
943.718	4.78231
947.092	9.29887
950.467	14.5643
953.842	16.322
957.217	15.5442
960.592	14.3863
963.966	14.7296
967.341	19.2598
970.716	17.5773
974.091	11.7091
977.466	6.89536
980.841	4.6443
984.215	5.44545
987.59	8.51938
990.965	15.2069
994.34	25.5456
997.715	38.2841
1001.09	40.0392
1004.46	29.5133
1007.84	22.6062
1011.21	26.0842
1014.59	37.4044
1017.96	35.7056
1021.34	21.9507
1024.71	16.3424
1028.09	18.7426
1031.46	19.4734
1034.84	11.5103
1038.21	5.20912
1041.59	2.2507
1044.96	1.09786
1048.34	1.3218
1051.71	0.672138
1055.09	1.21272
1058.46	0.648706
1061.84	0.142847
1065.21	0.261318
1068.59	0.658339
1071.96	0.239824
1075.34	0.110798
1078.71	0.038342
1082.09	0.170769
1085.46	0.361374
1088.84	0.267403
1092.21	0.24275
1095.58	0.950239
1098.96	1.35225
1102.33	1.22502
1105.71	1.84481
1109.08	2.67566
1112.46	4.7328
1115.83	6.71508
1119.21	10.455
1122.58	16.0222
1125.96	21.193
1129.33	22.5822
1132.71	17.9362
1136.08	15.5111
1139.46	16.9141
1142.83	23.4186
1146.21	38.1353
1149.58	64.5337
1152.96	108.01
1156.33	176.289
1159.71	184.94
1163.08	111.097
1166.45	83.0673
1169.83	79.8965
1173.2	58.8746
1176.58	33.1974
1179.95	19.3892
1183.33	12.1208
1186.7	8.47471
1190.08	5.70922
1193.45	3.52552
1196.83	2.6493
1200.2	2.09368
1203.58	1.80007
1206.95	1.17369
1210.33	0.9821
1213.7	0.402014
1217.08	0.652819
1220.45	0.733839
1223.83	0.291895
1227.2	0.449738
1230.58	0.1213
1233.95	0.042717
1237.33	0.030464
1240.7	0.364101
1244.08	0.248158
1247.45	0.06448
1250.83	0.064524
1254.2	0.102326
1257.58	0.295873
1260.95	0.209866
1264.33	0.349994
1267.7	0.510979
1271.08	0.842904
1274.45	0.792421
1277.82	1.19268
1281.2	0.665351
1284.57	0.624687
1287.95	0.514569
1291.32	0.139345
1294.7	0.394627
1298.07	0.018847
1301.45	0.484699
1304.82	0.018054
