Measurement: Raman, 780 nm, unoriented, Raman Data Processed
Mineral: Reedmergnerite
Rruff sample: R060096
Ideal chemistry: NaBSi_3_O_8_
Locality: Dara-i-Pioz, Tadjikistan
Source: University of Arizona Mineral Museum
Description: Colorless fragment
Measured chemistry: Na_1.00_B_1.00_Si_3.00_O_8_
Raman shift (cm-1)	intensity
109.377	0
112.751	11.5603
116.126	27.6685
119.501	11.8717
122.876	1.88674
126.251	0.239714
129.625	0.065762
133	3.84258
136.375	13.361
139.75	1.7395
143.125	0.788122
146.5	1.1928
149.874	5.95737
153.249	23.0062
156.624	17.8898
159.999	3.24103
163.374	2.69646
166.749	8.04358
170.123	17.4257
173.498	33.3398
176.873	63.5419
180.248	75.2673
183.623	65.1819
186.997	82.4435
190.372	114.629
193.747	139.572
197.122	138.526
200.497	187.82
203.871	272.363
207.246	208.692
210.621	213.883
213.996	296.412
217.371	432.305
220.746	521.828
224.12	376.377
227.495	191.66
230.87	98.1708
234.245	57.6821
237.62	41.8538
240.994	37.8168
244.369	38.3719
247.744	20.862
251.119	8.21611
254.494	3.48311
257.869	0.586296
261.243	0.915827
264.618	1.37851
267.993	0.957813
271.368	0.001354
274.743	2.01218
278.118	4.65206
281.492	8.48957
284.867	18.0751
288.242	33.3571
291.617	41.7666
294.991	47.1583
298.366	66.3088
301.741	106.236
305.116	183.598
308.491	183.94
311.866	116.034
315.24	104.942
318.615	57.4208
321.99	27.7273
325.365	15.6314
328.74	8.78941
332.115	5.86426
335.489	3.64473
338.864	2.36102
342.239	1.42628
345.614	1.12505
348.989	0.574086
352.363	0.216653
355.738	0.292269
359.113	0.068165
362.488	0.26336
365.863	0.004964
369.238	0.445883
372.612	0.118418
375.987	0.20507
379.362	0.645043
382.737	1.27825
386.112	1.93948
389.486	5.22044
392.861	9.26294
396.236	11.6908
399.611	10.0972
402.986	13.6128
406.361	23.5127
409.735	15.5285
413.11	3.41549
416.485	0.887979
419.86	0.346005
423.235	2.38727
426.609	5.50876
429.984	6.66769
433.359	7.8324
436.734	13.4816
440.109	25.4676
443.483	34.6991
446.858	15.7519
450.233	6.85506
453.608	4.7032
456.983	6.34391
460.358	10.0838
463.732	21.316
467.107	35.3678
470.482	12.9924
473.857	0.708046
477.232	2.05925
480.606	2.07144
483.981	0.513975
487.356	7.70456
490.731	15.1656
494.106	25.4121
497.481	46.2163
500.855	87.304
504.23	154.358
507.605	122.73
510.98	80.9813
514.355	117.957
517.729	137.557
521.104	72.9733
524.479	37.2177
527.854	27.5985
531.229	29.2069
534.604	39.9588
537.978	56.6986
541.353	49.9352
544.728	23.1366
548.103	8.57634
551.478	4.42789
554.852	5.30635
558.227	10.5415
561.602	27.794
564.977	56.8138
568.352	81.9027
571.726	129.472
575.101	224.043
578.476	393.063
581.851	358.638
585.226	142.533
588.601	57.5754
591.975	26.3274
595.35	13.2589
598.725	6.55941
602.1	2.87053
605.475	0.522499
608.849	0.566971
612.224	1.10864
615.599	0.479431
618.974	0.107372
622.349	1.66965
625.723	2.43193
629.098	5.5534
632.473	10.0583
635.848	14.5052
639.223	10.4773
642.598	3.76476
645.972	1.06473
649.347	0.1876
652.722	0.11851
656.097	0.260885
659.472	0.232498
662.846	0.25649
666.221	0.436528
669.596	0.070962
672.971	0.402688
676.346	0.1936
679.721	0.547736
683.095	0.701887
686.47	0.936112
689.845	1.3197
693.22	1.42021
696.595	1.04717
699.97	1.57357
703.344	2.15433
706.719	2.36202
710.094	2.29728
713.469	2.13053
716.844	1.78362
720.218	2.3864
723.593	2.77712
726.968	4.11457
730.343	6.23853
733.718	11.9092
737.092	17.5851
740.467	27.1499
743.842	44.9831
747.217	70.5428
750.592	62.4146
753.967	26.76
757.341	11.4725
760.716	5.30814
764.091	2.97535
767.466	1.25374
770.841	0.830309
774.216	0.223627
777.59	0.254451
780.965	0.250775
784.34	0.113548
787.715	0.794881
791.09	1.15635
794.464	2.76543
797.839	5.40811
801.214	8.17604
804.589	13.9903
807.964	22.4936
811.338	30.6387
814.713	21.3121
818.088	8.80291
821.463	3.9075
824.838	1.97742
828.212	0.884853
831.587	0.255039
834.962	0.155827
838.337	0.001848
841.712	0.300823
845.087	0.099013
848.461	0.032202
851.836	0.048635
855.211	0.445973
858.586	0.500277
861.961	1.22788
865.336	2.39655
868.71	3.18898
872.085	6.02364
875.46	7.3064
878.835	7.79484
882.21	6.85671
885.584	9.17563
888.959	11.2727
892.334	11.5506
895.709	11.2527
899.084	9.37978
902.458	5.59623
905.833	2.37504
909.208	1.01349
912.583	0.247872
915.958	0.195591
919.332	1.61592
922.707	0.135887
926.082	0.026606
929.457	0.282153
932.832	0.216812
936.207	0.134311
939.581	0.244686
942.956	0.558936
946.331	1.55689
949.706	2.68628
953.081	2.94217
956.456	4.13826
959.83	4.09445
963.205	5.16131
966.58	7.34618
969.955	6.65082
973.33	4.06959
976.704	1.9122
980.079	0.784707
983.454	0.575234
986.829	0.672809
990.204	1.76615
993.578	3.03709
996.953	4.60706
1000.33	5.13044
1003.7	5.00208
1007.08	5.34084
1010.45	8.58476
1013.83	13.526
1017.2	13.3683
1020.58	7.97073
1023.95	5.65112
1027.33	6.03671
1030.7	5.77917
1034.08	3.20578
1037.45	1.56389
1040.83	0.725133
1044.2	0.481149
1047.58	0.603055
1050.95	0.762782
1054.33	0.523565
1057.7	0.583136
1061.08	0.430455
1064.45	0.278517
1067.82	0.03803
1071.2	0.063266
1074.57	0.025052
1077.95	0.011081
1081.32	0.004998
1084.7	0.058394
1088.07	0.069884
1091.45	0.111008
1094.82	0.037716
1098.2	0.136747
1101.57	0.124093
1104.95	0.339673
1108.32	0.320992
1111.7	0.453819
1115.07	0.910992
1118.45	1.40989
1121.82	2.1651
1125.2	3.26929
1128.57	3.27824
1131.95	3.52742
1135.32	4.00124
1138.7	5.80909
1142.07	9.40132
1145.44	15.9431
1148.82	25.4765
1152.19	41.0726
1155.57	62.9479
1158.94	61.2332
1162.32	34.2014
1165.69	24.9176
1169.07	22.5718
1172.44	15.9846
1175.82	9.46487
1179.19	5.21331
1182.57	3.54929
1185.94	2.52752
1189.32	1.71054
1192.69	1.04801
1196.07	0.686574
1199.44	0.81999
1202.82	0.370079
1206.19	0.310577
1209.57	0.202495
1212.94	0.287137
1216.32	0.254781
1219.69	0.170609
1223.07	0.076409
1226.44	0.164333
1229.82	0.037519
1233.19	0.031296
1236.57	0.036749
1239.94	0.023845
1243.32	0.00034
1246.69	0.134328
1250.07	0.279746
1253.44	0.103339
1256.81	0.077633
1260.19	0.196629
1263.56	0.185106
1266.94	0.110957
1270.31	0.371419
1273.69	0.19593
1277.06	0.53361
1280.44	0.122109
1283.81	0.532693
1287.19	0
