Measurement: Raman, 780 nm, unoriented, Raman Data Processed
Mineral: Reinerite
Rruff sample: R080132
Ideal chemistry: Zn^2+^_3_(As^3+^O_3_)_2_
Locality: 4400 ft. level, Tsumeb, Namibia
Source: William W. Pinch
Description: Colorless fragment
Raman shift (cm-1)	intensity
114.514	0
117.889	74.3486
121.264	7.31393
124.639	41.4723
128.013	150.532
131.388	394.123
134.763	994.703
138.138	996.636
141.513	786.316
144.888	290.83
148.262	209.41
151.637	364.007
155.012	318.1
158.387	85.8499
161.762	5.28058
165.137	6.43404
168.511	23.9496
171.886	95.9994
175.261	185.075
178.636	133.938
182.011	56.0214
185.385	111.128
188.76	162.273
192.135	96.7627
195.51	30.594
198.885	4.04092
202.26	6.44576
205.634	5.52446
209.009	13.6751
212.384	51.0909
215.759	105.794
219.134	132.707
222.508	82.2658
225.883	32.9407
229.258	25.0523
232.633	51.7357
236.008	102.096
239.382	143.567
242.757	131.711
246.132	88.9503
249.507	44.7
252.882	15.42
256.257	4.75871
259.631	1.65031
263.006	2.42751
266.381	6.34638
269.756	10.5918
273.131	18.9475
276.505	35.0639
279.88	41.7297
283.255	40.5774
286.63	46.8596
290.005	57.27
293.38	70.6321
296.755	79.5997
300.129	52.6302
303.504	20.407
306.879	7.33997
310.254	1.33035
313.628	0.15863
317.003	4.77191
320.378	15.1668
323.753	19.6157
327.128	6.62193
330.503	1.50884
333.877	0.548676
337.252	3.0723
340.627	6.07338
344.002	6.29839
347.377	3.01794
350.752	0.532692
354.126	1.45765
357.501	1.61569
360.876	1.52424
364.251	0.681742
367.626	0.751862
371	1.14673
374.375	2.51514
377.75	2.96457
381.125	4.8809
384.5	5.59007
387.875	6.80524
391.249	7.20388
394.624	8.78268
397.999	9.29538
401.374	9.91584
404.749	10.5718
408.123	10.1632
411.498	10.0541
414.873	9.52622
418.248	8.19491
421.623	7.24379
424.998	5.4431
428.372	4.83654
431.747	4.73361
435.122	4.0156
438.497	3.31179
441.872	2.93405
445.247	2.92891
448.621	2.24397
451.996	1.82519
455.371	1.76713
458.746	1.63204
462.121	1.96999
465.495	1.87462
468.87	1.57086
472.245	1.61573
475.62	1.32877
478.995	0.910215
482.37	0.910591
485.744	1.06437
489.119	0.508965
492.494	1.20368
495.869	0.698874
499.244	0.744642
502.618	0.16317
505.993	0.255131
509.368	0.324806
512.743	0.096878
516.118	0.564034
519.492	0.579985
522.867	0.873383
526.242	2.05457
529.617	3.31275
532.992	3.35453
536.367	3.02464
539.741	3.64794
543.116	3.95626
546.491	4.01384
549.866	4.03836
553.241	3.45264
556.615	2.28266
559.99	1.26696
563.365	0.374577
566.74	0.336227
570.115	0.166744
573.49	0.366636
576.864	0.401102
580.239	0.031332
583.614	0.111046
586.989	0.414127
590.364	0.746626
593.739	0.850142
597.113	1.25817
600.488	0.828056
603.863	1.12215
607.238	0.923933
610.613	1.06654
613.987	1.24343
617.362	1.34853
620.737	1.56378
624.112	2.46524
627.487	3.52343
630.861	5.80594
634.236	9.99493
637.611	17.3889
640.986	28.9954
644.361	43.6569
647.736	66.481
651.11	100.725
654.485	131.56
657.86	138.069
661.235	125.004
664.61	111.641
667.985	87.9934
671.359	57.0324
674.734	31.6684
678.109	17.16
681.484	9.31014
684.859	4.0737
688.233	0.461239
691.608	2.11751
694.983	2.85167
698.358	2.93987
701.733	1.6691
705.107	1.54366
708.482	8.07709
711.857	18.4888
715.232	36.4503
718.607	62.2936
721.982	79.0759
725.356	60.264
728.731	33.476
732.106	20.9021
735.481	20.4999
738.856	31.8069
742.231	54.3732
745.605	98.5189
748.98	175.65
752.355	258.73
755.73	222.75
759.105	134.474
762.479	104.609
765.854	118.653
769.229	155.091
772.604	168.054
775.979	140.557
779.354	106.513
782.728	78.8383
786.103	65.1247
789.478	70.2333
792.853	89.837
796.228	124.842
799.602	172.954
802.977	209.126
806.352	196.777
809.727	144.721
813.102	92.6943
816.477	57.2063
819.851	36.3161
823.226	22.8965
826.601	14.1828
829.976	9.55944
833.351	6.00457
836.726	3.49551
840.1	2.82877
843.475	1.88779
846.85	1.60566
850.225	2.18436
853.6	1.45701
856.974	0.832073
860.349	1.24941
863.724	1.9553
867.099	1.26059
870.474	1.82195
873.848	1.14597
877.223	0.332935
880.598	0.152699
883.973	0.682108
887.348	0.86821
890.722	1.64173
894.097	1.74482
897.472	2.33331
900.847	3.36725
904.222	3.08159
907.597	3.93277
910.971	3.88424
914.346	4.67733
917.721	4.86135
921.096	4.98371
924.471	4.69946
927.846	4.58237
931.22	4.25974
934.595	4.03277
937.97	3.47862
941.345	3.61353
944.72	3.80069
948.095	3.01209
951.469	3.41539
954.844	3.03948
958.219	2.75362
961.594	2.53905
964.969	2.67118
968.343	2.33137
971.718	2.06004
975.093	1.84411
978.468	1.53968
981.843	1.57546
985.217	1.32493
988.592	1.22425
991.967	0.919585
995.342	1.09079
998.717	0.83789
1002.09	0.331421
1005.47	0.011108
1008.84	0.723205
1012.22	0.349668
1015.59	0.252635
1018.97	0.286822
1022.34	0.6757
1025.71	0.245996
1029.09	0.111812
1032.46	0.80035
1035.84	0.388502
1039.21	0.798676
1042.59	0.158932
1045.96	0.288192
1049.34	0.71991
1052.71	0.376763
1056.09	0.504351
1059.46	0.885045
1062.84	0.290791
1066.21	0.170701
1069.59	0.309946
1072.96	0.303905
1076.34	0.611973
1079.71	0.018863
1083.09	0.164504
1086.46	0.27582
1089.84	0.204628
1093.21	0.002214
1096.59	0.186686
1099.96	0.011196
1103.34	0.499913
1106.71	0.310774
1110.09	0.067698
1113.46	0.356282
1116.84	0.379218
1120.21	0.302727
1123.59	0.183789
1126.96	0.321716
1130.34	0.235921
1133.71	0.41518
1137.08	0.585292
1140.46	0.367519
1143.83	0.656334
1147.21	0.297631
1150.58	0.659743
1153.96	0.509378
1157.33	0.148328
1160.71	0.26215
1164.08	0.333534
1167.46	0.356186
1170.83	0.2565
1174.21	0.005905
1177.58	0.289681
1180.96	0.342574
1184.33	0.155552
1187.71	0.070189
1191.08	0.340106
1194.46	0.1467
1197.83	0.211709
1201.21	0.263859
1204.58	0.211091
1207.96	0.187056
1211.33	0.321622
1214.7	0.635063
1218.08	0.550932
1221.45	0.535696
1224.83	0.51781
1228.2	0.663793
1231.58	0.569224
1234.95	1.25571
1238.33	0.823035
1241.7	0.997557
1245.08	0.6394
1248.45	0.151565
1251.83	0.707709
1255.2	0.28606
1258.58	0.38322
1261.95	0.107877
1265.33	0.053816
1268.7	0.092224
1272.08	0.404952
1275.45	1.06307
1278.83	0.197664
1282.2	0.355685
1285.58	0.229448
