Measurement: Raman, 532 nm, unoriented, Raman Data Processed
Mineral: Reinerite
Rruff sample: R080132
Ideal chemistry: Zn^2+^_3_(As^3+^O_3_)_2_
Locality: 4400 ft. level, Tsumeb, Namibia
Source: William W. Pinch
Description: Colorless fragment
Raman shift (cm-1)	intensity
114.149	0
117.524	103.039
120.899	442.878
124.274	1079.41
127.649	2084.17
131.024	3710.72
134.398	7129.11
137.773	4830.71
141.148	3927.55
144.523	1269.66
147.898	1117.27
151.272	1829.02
154.647	1377.09
158.022	230.214
161.397	80.7808
164.772	103.904
168.147	84.2803
171.521	480.113
174.896	1019.16
178.271	891.325
181.646	750.466
185.021	1230.32
188.395	1381.1
191.77	784.493
195.145	299.899
198.52	86.3284
201.895	3.8147
205.269	24.3383
208.644	41.8713
212.019	184.264
215.394	413.677
218.769	578.788
222.143	337.286
225.518	148.023
228.893	184.614
232.268	377.664
235.643	678.892
239.018	811.812
242.392	663.139
245.767	411.64
249.142	182.145
252.517	48.9912
255.892	16.9298
259.267	30.2225
262.641	64.8452
266.016	106.808
269.391	157.849
272.766	248.651
276.141	380.267
279.515	412.964
282.89	384.202
286.265	424.185
289.64	493.969
293.015	568.084
296.389	570.982
299.764	334.257
303.139	133.136
306.514	46.4153
309.889	14.8082
313.264	8.42996
316.638	35.8692
320.013	86.1476
323.388	74.8987
326.763	4.38339
330.138	15.9265
333.512	13.8528
336.887	4.21442
340.262	20.0112
343.637	27.8697
347.012	11.8653
350.387	2.71523
353.761	6.54578
357.136	6.05321
360.511	2.99438
363.886	3.56928
367.261	12.1298
370.635	20.4039
374.01	28.2978
377.385	37.4739
380.76	45.4678
384.135	53.2218
387.51	58.6223
390.884	58.4692
394.259	62.8317
397.634	67.1451
401.009	71.1683
404.384	72.8444
407.759	72.8946
411.133	67.3613
414.508	62.0902
417.883	54.734
421.258	48.3507
424.632	40.1508
428.007	36.0686
431.382	30.2337
434.757	25.922
438.132	20.616
441.507	18.1775
444.881	13.9074
448.256	11.8335
451.631	11.6206
455.006	10.3791
458.381	10.8316
461.755	9.44464
465.13	9.70754
468.505	7.91455
471.88	7.79027
475.255	7.97386
478.63	6.04988
482.004	6.46286
485.379	6.02988
488.754	4.44884
492.129	4.20145
495.504	2.51971
498.878	0.882767
502.253	0.989746
505.628	0.899918
509.003	0.036911
512.378	0.707153
515.753	5.15756
519.127	7.91931
522.502	12.2731
525.877	15.8151
529.252	20.4374
532.627	21.6257
536.001	22.1446
539.376	26.3318
542.751	28.8044
546.126	29.2648
549.501	30.9776
552.876	26.0195
556.25	15.474
559.625	6.45174
563	1.69832
566.375	0.901001
569.75	0.353012
573.125	2.70667
576.499	2.24477
579.874	1.40942
583.249	0.165756
586.624	5.1087
589.999	7.80626
593.373	11.03
596.748	10.0389
600.123	9.8773
603.498	7.50404
606.873	6.89795
610.247	8.76112
613.622	11.3144
616.997	11.9463
620.372	12.1582
623.747	19.3142
627.121	29.971
630.496	49.5896
633.871	86.4579
637.246	152.453
640.621	249.533
643.996	378.336
647.37	554.775
650.745	791.645
654.12	1022.18
657.495	1081.57
660.87	1004.64
664.245	879.425
667.619	670.33
670.994	421.776
674.369	238.239
677.744	131.096
681.119	68.6632
684.493	28.7597
687.868	0.219757
691.243	15.6589
694.618	24.8237
697.993	25.3203
701.367	15.8024
704.742	8.9993
708.117	59.8149
711.492	136.765
714.867	249.798
718.242	398.131
721.616	487.314
724.991	377.557
728.366	221.638
731.741	176.318
735.116	239.055
738.49	418.434
741.865	708.784
745.24	1123.45
748.615	1733.87
751.99	2191.53
755.365	1768.99
758.739	1135.62
762.114	962.272
765.489	1116.79
768.864	1382.74
772.239	1409.36
775.614	1142.38
778.988	861.713
782.363	665.059
785.738	613.881
789.113	707.111
792.487	926.891
795.862	1245.77
799.237	1602.97
802.612	1805.32
805.987	1600.36
809.362	1129.16
812.736	715.102
816.111	447.713
819.486	280.479
822.861	177.605
826.236	113.323
829.611	72.165
832.985	47.1932
836.36	32.6929
839.735	23.286
843.11	20.7359
846.485	17.4796
849.859	17.0696
853.234	7.73981
856.609	4.026
859.984	9.86777
863.359	11.9663
866.734	11.756
870.108	12.1794
873.483	8.17065
876.858	3.44475
880.233	1.3269
883.608	4.97754
886.982	10.2336
890.357	15.452
893.732	18.8999
897.107	23.6658
900.482	27.7238
903.856	30.8946
907.231	34.7013
910.606	37.0281
913.981	39.4669
917.356	41.3878
920.731	42.7387
924.105	41.6931
927.48	39.6891
930.855	37.7373
934.23	34.5013
937.605	30.6556
940.98	30.8683
944.354	28.7804
947.729	27.2021
951.104	26.5632
954.479	25.4151
957.854	24.3742
961.228	22.8262
964.603	21.3195
967.978	18.8243
971.353	16.2198
974.728	14.7196
978.102	13.0755
981.477	11.6633
984.852	10.3108
988.227	8.43167
991.602	6.19066
994.977	6.20681
998.351	4.97521
1001.73	4.03654
1005.1	3.53495
1008.48	2.07163
1011.85	0.955894
1015.23	0.733467
1018.6	0.007729
1021.98	0.336395
1025.35	0.031555
1028.72	0.275894
1032.1	0.110245
1035.47	0.473663
1038.85	0.711021
1042.22	1.30577
1045.6	0.885117
1048.97	1.68162
1052.35	1.70378
1055.72	3.58436
1059.1	3.32435
1062.47	2.59696
1065.85	2.99104
1069.22	1.86258
1072.6	1.65617
1075.97	1.85205
1079.35	0.737717
1082.72	1.98022
1086.1	1.96218
1089.47	0.276505
1092.85	1.2375
1096.22	1.91418
1099.6	2.78214
1102.97	2.39278
1106.35	2.90745
1109.72	3.63898
1113.1	4.02996
1116.47	3.68916
1119.85	4.1157
1123.22	3.47438
1126.59	2.77583
1129.97	2.93525
1133.34	4.3733
1136.72	4.33562
1140.09	7.70035
1143.47	4.18605
1146.84	4.62981
1150.22	4.33391
1153.59	4.06271
1156.97	2.79819
1160.34	2.36918
1163.72	2.12244
1167.09	1.26069
1170.47	0.669113
1173.84	0.274796
1177.22	1.38547
1180.59	0.142647
1183.97	0.612938
1187.34	1.09451
1190.72	0.886101
1194.09	0.768303
1197.47	1.49351
1200.84	1.36664
1204.21	1.21897
1207.59	1.84236
1210.96	1.44851
1214.34	2.9304
1217.71	3.73667
1221.09	5.37403
1224.46	5.08122
1227.84	5.33978
1231.21	6.06076
1234.59	6.25797
1237.96	7.09913
1241.34	5.79515
1244.71	6.44178
1248.09	5.54818
1251.46	4.69178
1254.84	4.02207
1258.21	3.38432
1261.59	2.94535
1264.96	2.54912
1268.34	2.97035
1271.71	2.50385
1275.09	2.06726
1278.46	2.15284
1281.84	1.84578
1285.21	1.53906
1288.59	0.736565
1291.96	1.06552
1295.34	1.39079
1298.71	0.315147
1302.09	0.393967
