Measurement: Raman, 532 nm, unoriented, Raman Data Processed
Mineral: Reinhardbraunsite
Rruff sample: R061006
Ideal chemistry: Ca_5_(SiO_4_)_2_(OH)_2_
Locality: Bellerberg, Eifel, Germany
Source: Michael Scott
Description: Pink massive
Raman shift (cm-1)	intensity
129.718	0
133.093	2.48999
136.468	135.809
139.843	280.904
143.217	307.078
146.592	299.923
149.967	217.567
153.342	131.456
156.717	168.801
160.091	185.506
163.466	289.56
166.841	328.579
170.216	388.097
173.591	573.856
176.965	602.03
180.34	753.456
183.715	278.517
187.09	155.381
190.465	173.162
193.84	215.994
197.214	114.157
200.589	144.442
203.964	133.478
207.339	171.86
210.714	141.185
214.089	99.469
217.463	49.6782
220.838	15.8157
224.213	9.84082
227.588	5.60913
230.963	8.16162
234.337	82.9175
237.712	113.064
241.087	258.583
244.462	376.126
247.837	569.553
251.212	572.247
254.586	260.951
257.961	315.525
261.336	318.732
264.711	334.132
268.086	331
271.46	113.249
274.835	11.7476
278.21	19.0327
281.585	21.9238
284.96	0.629883
288.334	22.3169
291.709	84.5691
295.084	220.791
298.459	390.194
301.834	591.651
305.209	667.424
308.583	358.223
311.958	287.705
315.333	201.004
318.708	90.001
322.083	153.619
325.457	179.247
328.832	167.172
332.207	119.783
335.582	140.852
338.957	86.5691
342.332	66.8857
345.706	103.924
349.081	107.944
352.456	114.526
355.831	71.4028
359.206	87.5779
362.58	42.5142
365.955	11.3023
369.33	29.9329
372.705	16.4204
376.08	3.78125
379.454	69.5435
382.829	175.268
386.204	346.234
389.579	548.886
392.954	864.188
396.329	1099.05
399.703	1136.29
403.078	952.066
406.453	869.623
409.828	690.132
413.203	482.505
416.577	217.672
419.952	151.499
423.327	183.691
426.702	82.7063
430.077	132.839
433.452	157.866
436.826	161.65
440.201	147.187
443.576	198.71
446.951	200.512
450.326	250.303
453.7	272.567
457.075	279.642
460.45	246.19
463.825	184.091
467.2	221.487
470.575	201.899
473.949	102.371
477.324	101.207
480.699	48.6228
484.074	73.4861
487.449	36.623
490.823	38.77
494.198	17.5234
497.573	9.21582
500.948	29.8105
504.323	4.47144
507.697	50.2319
511.072	75.5444
514.447	201.247
517.822	362.644
521.197	612.414
524.572	796.958
527.946	871.804
531.321	858.385
534.696	619.176
538.071	370.075
541.446	210.608
544.82	138.049
548.195	133.28
551.57	113.463
554.945	114.403
558.32	123.893
561.694	116.871
565.069	144.959
568.444	82.529
571.819	37.3003
575.194	11.7871
578.568	43.8699
581.943	36.209
585.318	2.93164
588.693	3.37573
592.068	39.5823
595.443	33.9912
598.817	39.4968
602.192	119.031
605.567	221.498
608.942	236.213
612.317	368.442
615.692	443.464
619.066	507.949
622.441	601.392
625.816	549.572
629.191	537.373
632.566	542.918
635.94	610.547
639.315	665.943
642.69	773.966
646.065	875.641
649.44	895.179
652.814	931.019
656.189	932.374
659.564	937.979
662.939	921.644
666.314	830.617
669.688	781.43
673.063	589.121
676.438	468.221
679.813	404.58
683.188	341.539
686.563	242.161
689.937	228.7
693.312	140.615
696.687	57.7092
700.062	48.2122
703.437	47.3777
706.812	60.2935
710.186	15.7224
713.561	38.9622
716.936	52.032
720.311	12.3347
723.686	49.7835
727.06	8.61768
730.435	4.65356
733.81	45.6645
737.185	11.8125
740.56	30.4995
743.934	18.2034
747.309	14.6382
750.684	6.80127
754.059	15.1592
757.434	18.1294
760.809	56.6475
764.183	97.5098
767.558	161.268
770.933	81.4631
774.308	130.643
777.683	170.419
781.057	147.871
784.432	207.94
787.807	276.49
791.182	312.248
794.557	492.592
797.932	836.936
801.306	1595.34
804.681	2719.98
808.056	4465.16
811.431	6880.18
814.806	5700.87
818.18	2219.69
821.555	1276.31
824.93	1115.26
828.305	1457.83
831.68	1993.27
835.054	2767.27
838.429	3293.61
841.804	1865.93
845.179	1178.29
848.554	1035.36
851.929	878.625
855.303	981.767
858.678	991.543
862.053	632.58
865.428	434.218
868.803	249.395
872.178	192.862
875.552	191.268
878.927	201.221
882.302	270.157
885.677	331.017
889.052	192.15
892.426	7.9375
895.801	34.3599
899.176	3.31934
902.551	89.7915
905.926	45.7056
909.3	12.3242
912.675	110.863
916.05	209.205
919.425	480.02
922.8	914.287
926.174	535.102
929.549	230.271
932.924	75.5698
936.299	6.36475
939.674	88.4341
943.049	67.1328
946.423	108.403
949.798	123.356
953.173	194.568
956.548	239.565
959.923	294.08
963.298	260.975
966.672	325.17
970.047	423.491
973.422	662.998
976.797	865.276
980.172	1145.79
983.546	1189.48
986.921	1391.75
990.296	1613.69
993.671	2154
997.046	2664.8
1000.42	3081.65
1003.79	2835.77
1007.17	2171.37
1010.54	1358.51
1013.92	688.117
1017.29	293.031
1020.67	123.722
1024.04	125.815
1027.42	79.2832
1030.79	45.0293
1034.17	50.8076
1037.54	68.1484
1040.92	43.4058
1044.29	23.1113
1047.67	10.7769
1051.04	24.7188
1054.42	58.458
1057.79	15.8203
1061.17	34.5903
1064.54	31.2549
1067.92	21.7373
1071.29	55.1494
1074.67	0.419434
1078.04	34.9321
1081.42	11.9668
1084.79	84.6782
1088.17	174.373
1091.54	147.756
1094.91	115.133
1098.29	118.157
1101.66	143.484
1105.04	122.701
1108.41	120.874
1111.79	92.0991
1115.16	68.9062
1118.54	55.8188
1121.91	139.04
1125.29	134.202
1128.66	171.976
1132.04	198.378
1135.41	103.781
1138.79	125.619
1142.16	108.35
1145.54	124.203
1148.91	113.056
1152.29	101.095
1155.66	140.392
1159.04	101.749
1162.41	76.3272
1165.79	60.8264
1169.16	5.44263
1172.54	87.3897
1175.91	109.504
1179.29	90.7327
1182.66	134.484
1186.04	77.0142
1189.41	54.3181
1192.79	20.5996
1196.16	50.8726
1199.54	9.29785
1202.91	32.4951
1206.28	53.9377
1209.66	97.1143
1213.03	50.8025
1216.41	63.748
1219.78	103.077
1223.16	33.8835
1226.53	34.0613
1229.91	62.4736
1233.28	120.914
1236.66	82.292
1240.03	53.9502
1243.41	66.3784
1246.78	95.9573
1250.16	88.1934
1253.53	118.726
1256.91	78.488
1260.28	60.7707
1263.66	76.2478
1267.03	19.0742
1270.41	102.051
1273.78	69.4849
1277.15	49.3652
1280.53	68.0283
1283.9	25.2881
1287.28	55.6963
1290.65	58.1392
1294.03	53.3013
1297.4	19.8394
