Measurement: Raman, 785 nm, unoriented, Raman Data Processed
Mineral: Renierite
Rruff sample: R050433
Ideal chemistry: (Cu^1+^,Zn)_11_Fe_4_(Ge^4+^,As^5+^)_2_S_16_
Locality: Tsumeb mine, Tsumeb, Otavi District, Oshikoto, Namibia
Source: University of Arizona Mineral Museum
Description: Bronze metallic massive
Measured chemistry: (Cu_10.51_Zn_0.49_)_Σ=11_Fe_4.00_(Ge_1.67_As_0.33_)_Σ=2_S_16_
Raman shift (cm-1)	intensity
99.35	0
102.725	15.2137
106.1	10.147
109.475	24.1552
112.849	23.7043
116.224	137.767
119.599	151.565
122.974	266.855
126.349	653.13
129.723	1071.37
133.098	1527.57
136.473	1528.69
139.848	1053.99
143.223	1004.67
146.597	1250.16
149.972	1510.65
153.347	1441.58
156.722	1169.11
160.097	1194.08
163.472	1018.42
166.846	785.398
170.221	635.405
173.596	557.925
176.971	392.298
180.346	331.875
183.72	262.173
187.095	221.37
190.47	199.561
193.845	128.647
197.22	132.365
200.595	110.556
203.969	123.77
207.344	71.8681
210.719	55.2449
214.094	12.6546
217.469	26.613
220.844	25.783
224.218	18.9676
227.593	1.52939
230.968	11.7299
234.343	0.452332
237.718	17.1756
241.092	8.26267
244.467	5.99463
247.842	0.63269
251.217	8.12665
254.592	12.3261
257.966	14.5226
261.341	51.4823
264.716	67.1053
268.091	76.6675
271.466	112.298
274.841	122.342
278.215	138.095
281.59	171.251
284.965	191.743
288.34	165.14
291.715	133.108
295.089	105.025
298.464	93.5549
301.839	73.6303
305.214	97.1139
308.589	143.457
311.964	172.404
315.338	208.364
318.713	268.085
322.088	272.801
325.463	276.482
328.838	181.828
332.212	76.7056
335.587	56.0547
338.962	79.7176
342.337	123.468
345.712	210.451
349.087	338.008
352.461	435.5
355.836	439.06
359.211	316.799
362.586	196.399
365.961	151.087
369.335	117.346
372.71	99.0475
376.085	72.9577
379.46	60.0391
382.835	51.3092
386.209	51.0159
389.584	43.6955
392.959	38.509
396.334	22.9501
399.709	13.1526
403.084	5.59094
406.458	19.143
409.833	8.37347
413.208	0.580048
416.583	9.19124
419.958	1.36867
423.332	0.418594
426.707	9.23065
430.082	12.0285
433.457	13.1512
436.832	20.3128
440.207	38.7653
443.581	31.1573
446.956	32.9897
450.331	28.349
453.706	25.6959
457.081	24.101
460.455	44.6384
463.83	29.0153
467.205	41.4928
470.58	16.3202
473.955	35.5984
477.33	23.2416
480.704	29.4503
484.079	30.6675
487.454	16.0226
490.829	37.5327
494.204	8.08655
497.579	20.8188
500.953	20.3024
504.328	34.4959
507.703	4.57764
511.078	4.29269
514.453	29.5238
517.827	13.9049
521.202	9.13187
524.577	29.2014
527.952	10.0085
531.327	17.5336
534.702	2.74132
538.076	22.5216
541.451	11.2143
544.826	11.1258
548.201	12.5768
551.576	2.15002
554.95	4.49408
558.325	21.8171
561.7	1.18823
565.075	7.21683
568.45	22.8531
571.824	16.8318
575.199	24.0193
578.574	21.1625
581.949	14.1729
585.324	7.57437
588.699	9.91063
592.073	7.92944
595.448	23.0239
598.823	8.4855
602.198	24.977
605.573	7.76862
608.947	7.07269
612.322	8.84878
615.697	3.93704
619.072	30.8941
622.447	23.4738
625.822	45.6238
629.196	14.8788
632.571	14.4164
635.946	30.9537
639.321	2.36366
642.696	22.5975
646.071	38.7158
649.445	32.4806
652.82	19.5745
656.195	21.1406
659.57	17.0991
662.945	15.828
666.319	8.42104
669.694	28.1445
673.069	20.3669
676.444	24.8056
679.819	4.5415
683.193	3.66283
686.568	2.93996
689.943	11.1723
693.318	9.44215
696.693	17.8829
700.068	27.8287
703.442	30.7446
706.817	17.1745
710.192	13.4429
713.567	22.2209
716.942	2.26254
720.317	19.5886
723.691	23.0116
727.066	54.6584
730.441	15.2951
733.816	4.34558
737.191	21.7174
740.565	27.3851
743.94	29.5347
747.315	35.95
750.69	21.8763
754.065	33.4085
757.439	21.7281
760.814	32.412
764.189	15.79
767.564	4.20393
770.939	44.348
774.313	20.2391
777.688	2.32535
781.063	17.5527
784.438	39.1783
787.813	27.4842
791.188	17.1485
794.562	25.3233
797.937	18.8984
801.312	6.59808
804.687	2.71135
808.062	10.4173
811.437	34.0316
814.811	10.5722
818.186	24.9822
821.561	19.9556
824.936	9.80997
828.311	14.6498
831.685	3.1992
835.06	7.60207
838.435	22.4547
841.81	9.32045
845.185	24.4415
848.559	17.3755
851.934	2.12714
855.309	16.4658
858.684	28.157
862.059	22.7556
865.434	13.0896
868.808	15.3659
872.183	17.8935
875.558	10.5996
878.933	42.4713
882.308	7.24498
885.683	25.7172
889.057	3.18085
892.432	13.0339
895.807	15.9118
899.182	25.5245
902.557	26.2695
905.931	19.0083
909.306	21.7241
912.681	10.8822
916.056	12.0076
919.431	2.9259
922.806	17.3302
926.18	24.4788
929.555	1.23294
932.93	22.1346
936.305	15.6569
939.68	19.7827
943.054	26.8919
946.429	14.4613
949.804	37.7408
953.179	21.9518
956.554	20.8069
959.928	26.3793
963.303	14.2674
966.678	32.9487
970.053	23.1924
973.428	21.8294
976.803	41.1764
980.177	24.2771
983.552	20.4423
986.927	64.5815
990.302	0.201141
993.677	13.246
997.052	11.0214
1000.43	14.5809
1003.8	26.9921
1007.18	11.0718
1010.55	22.8342
1013.93	44.1979
1017.3	12.8759
1020.67	27.0462
1024.05	1.31133
1027.42	27.2047
1030.8	25.8035
1034.17	39.8191
1037.55	21.3902
1040.92	25.046
1044.3	32.4751
1047.67	22.0324
1051.05	14.0756
1054.42	12.9877
1057.8	48.9194
1061.17	25.7618
1064.55	21.68
1067.92	21.1351
1071.3	27.1556
1074.67	28.858
1078.05	13.1609
1081.42	15.2349
1084.8	29.6803
1088.17	21.5924
1091.55	20.5471
1094.92	27.4117
1098.3	29.9284
1101.67	25.0274
1105.05	30.1525
1108.42	44.2296
1111.8	33.4236
1115.17	4.69171
1118.55	28.3964
1121.92	16.7203
1125.3	28.2181
1128.67	48.5438
1132.04	12.079
1135.42	19.4747
1138.79	8.58698
1142.17	8.20666
1145.54	22.3996
1148.92	22.2941
1152.29	18.3142
1155.67	35.8976
1159.04	28.5234
1162.42	32.3943
1165.79	26.5598
1169.17	25.7609
1172.54	14.5821
1175.92	48.6553
1179.29	28.7773
1182.67	42.9629
1186.04	26.4906
1189.42	28.722
1192.79	38.621
1196.17	32.5067
1199.54	16.156
1202.91	28.8082
1206.29	16.8884
1209.66	40.392
1213.04	48.0185
1216.41	45.9414
1219.79	39.2242
1223.16	36.4164
1226.54	40.9256
1229.91	57.5675
1233.29	43.9947
1236.66	35.9623
1240.04	34.5041
1243.41	39.4918
1246.79	43.1142
1250.16	28.4442
1253.54	68.4853
1256.91	3.59831
1260.29	28.6938
1263.66	18.8458
1267.04	28.2537
1270.41	9.58247
