Measurement: Raman, 532 nm, unoriented, Raman Data Processed
Mineral: Renierite
Rruff sample: R050433
Ideal chemistry: (Cu^1+^,Zn)_11_Fe_4_(Ge^4+^,As^5+^)_2_S_16_
Locality: Tsumeb mine, Tsumeb, Otavi District, Oshikoto, Namibia
Source: University of Arizona Mineral Museum
Description: Bronze metallic massive
Measured chemistry: (Cu_10.51_Zn_0.49_)_Σ=11_Fe_4.00_(Ge_1.67_As_0.33_)_Σ=2_S_16_
Raman shift (cm-1)	intensity
102.579	0
105.953	0.273867
109.328	4.11862
112.703	5.61412
116.078	10.9311
119.453	16.9206
122.828	30.4604
126.202	25.3115
129.577	30.8498
132.952	31.4049
136.327	36.4302
139.702	43.1025
143.076	39.0138
146.451	39.637
149.826	37.9734
153.201	39.4096
156.576	35.5518
159.951	34.737
163.325	32.1292
166.7	28.953
170.075	28.4991
173.45	22.7501
176.825	19.2283
180.199	15.3904
183.574	13.2132
186.949	12.0835
190.324	9.68172
193.699	7.92943
197.073	6.97256
200.448	7.04875
203.823	5.06651
207.198	3.77425
210.573	1.12159
213.948	0.333008
217.322	0.036449
220.697	0.522099
224.072	0.884735
227.447	0.655067
230.822	1.03913
234.196	2.74481
237.571	0.294243
240.946	0.2117
244.321	0.013836
247.696	2.31372
251.071	4.18369
254.445	7.92144
257.82	13.158
261.195	17.2541
264.57	21.4211
267.945	28.1486
271.32	31.0187
274.694	34.6831
278.069	36.3757
281.444	37.7473
284.819	34.6219
288.193	29.8224
291.568	23.4538
294.943	17.0101
298.318	12.2234
301.693	8.88991
305.068	8.62685
308.442	9.69496
311.817	8.92422
315.192	11.2213
318.567	13.1678
321.942	15.8474
325.317	21.6142
328.691	27.206
332.066	40.162
335.441	56.272
338.816	79.7376
342.191	106.849
345.565	131.409
348.94	144.431
352.315	127.483
355.69	93.011
359.065	61.9994
362.44	48.6738
365.814	41.0674
369.189	37.9388
372.564	37.2222
375.939	30.8693
379.314	27.7821
382.688	25.8287
386.063	24.6903
389.438	18.2062
392.813	11.3139
396.188	7.18987
399.562	3.89817
402.937	0.065948
406.312	0.553719
409.687	0.469074
413.062	0.34053
416.437	0.968119
419.811	0.871784
423.186	0.894432
426.561	0.342707
429.936	0.561138
433.311	2.63863
436.685	2.28864
440.06	1.52489
443.435	2.17698
446.81	3.02469
450.185	2.46489
453.56	3.17021
456.934	4.79626
460.309	4.16676
463.684	4.50297
467.059	2.81733
470.434	3.37989
473.808	2.70617
477.183	2.7231
480.558	1.64595
483.933	2.16336
487.308	1.93489
490.683	2.29544
494.057	1.05442
497.432	1.06805
500.807	1.64942
504.182	1.41126
507.557	1.05879
510.931	1.50743
514.306	0.841116
517.681	1.33086
521.056	1.78907
524.431	1.18564
527.806	1.55206
531.18	2.17153
534.555	1.40027
537.93	2.3303
541.305	0.160194
544.68	1.07841
548.054	1.06032
551.429	1.24922
554.804	0.85397
558.179	0.948698
561.554	0.114956
564.928	0.81883
568.303	0.832268
571.678	1.2337
575.053	0.799875
578.428	1.26124
581.803	0.265602
585.177	1.09946
588.552	0.346415
591.927	0.039021
595.302	0.9013
598.677	1.25114
602.052	0.123564
605.426	1.34625
608.801	1.65048
612.176	0.534904
615.551	0.514265
618.926	0.214073
622.3	1.4114
625.675	0.283232
629.05	2.6769
632.425	2.49296
635.8	2.3817
639.174	2.11536
642.549	1.58553
645.924	3.70621
649.299	2.51931
652.674	2.39189
656.048	2.25777
659.423	0.858643
662.798	1.69359
666.173	1.08561
669.548	0.795567
672.923	1.42734
676.297	1.5206
679.672	1.94342
683.047	4.0275
686.422	3.43699
689.797	3.47244
693.172	5.3385
696.546	4.73913
699.921	4.86248
703.296	4.0964
706.671	2.66843
710.046	3.26769
713.42	1.62362
716.795	2.47805
720.17	1.10262
723.545	0.514364
726.92	0.294355
730.294	0.984629
733.669	1.03459
737.044	0.615519
740.419	0.522156
743.794	0.322508
747.169	0.790676
750.543	0.340708
753.918	0.330067
757.293	1.04403
760.668	0.522669
764.043	0.179464
767.418	1.26738
770.792	0.786888
774.167	0.191383
777.542	0.417236
780.917	0.180155
784.292	0.518127
787.666	1.04843
791.041	1.62706
794.416	1.28445
797.791	1.5156
801.166	1.32459
804.54	1.4943
807.915	2.47081
811.29	0.307186
814.665	1.96092
818.04	1.90355
821.415	0.698404
824.789	1.96029
828.164	1.76849
831.539	1.55227
834.914	1.68587
838.289	1.33698
841.663	2.64512
845.038	2.7916
848.413	1.55167
851.788	1.55632
855.163	1.68051
858.538	2.36958
861.912	1.59781
865.287	1.79157
868.662	0.023241
872.037	1.59307
875.412	1.27882
878.786	1.1774
882.161	1.57771
885.536	1.30813
888.911	1.39378
892.286	1.26193
895.66	0.140779
899.035	0.823853
902.41	0.864376
905.785	1.35508
909.16	0.722502
912.535	1.12552
915.909	0.426626
919.284	0.389481
922.659	1.50911
926.034	1.47485
929.409	0.766346
932.784	1.02315
936.158	1.59457
939.533	1.34418
942.908	0.214895
946.283	0.056522
949.658	0.301964
953.032	0.577971
956.407	0.436728
959.782	1.33923
963.157	0.665321
966.532	1.81003
969.907	1.71973
973.281	0.953764
976.656	0.960114
980.031	1.02038
983.406	0.996614
986.781	0.647423
990.155	0.119007
993.53	0.626236
996.905	0.772623
1000.28	0.127565
1003.65	1.04865
1007.03	0.841761
1010.4	0.255953
1013.78	1.1657
1017.15	0.600815
1020.53	0.392216
1023.9	1.10184
1027.28	1.58147
1030.65	1.29181
1034.03	1.94613
1037.4	1.16232
1040.78	0.614027
1044.15	1.37493
1047.53	1.63769
1050.9	0.752764
1054.28	1.79107
1057.65	0.908205
1061.03	0.814861
1064.4	1.15475
1067.78	1.23277
1071.15	1.04378
1074.53	1.52873
1077.9	0.849403
1081.28	0.493858
1084.65	1.20105
1088.03	0.463928
1091.4	0.225658
1094.78	1.57716
1098.15	0.005497
1101.52	1.57786
1104.9	1.5971
1108.27	1.50681
1111.65	1.32786
1115.02	1.42867
1118.4	0.244997
1121.77	0.459713
1125.15	0.588425
1128.52	0.862286
1131.9	0.472876
1135.27	1.77556
1138.65	0.332676
1142.02	1.85126
1145.4	1.56577
1148.77	0.480906
1152.15	0.611694
1155.52	0.260408
1158.9	0.163862
1162.27	1.47436
1165.65	0.931559
1169.02	0.086412
1172.4	1.839
1175.77	1.54191
1179.14	1.36445
1182.52	0.201582
1185.89	1.2954
1189.27	0.096512
1192.64	1.73362
1196.02	0.339754
1199.39	0.236778
1202.77	1.96374
1206.14	0.348579
1209.52	2.02426
1212.89	1.34642
1216.27	0.342556
1219.64	0.964117
1223.02	1.67106
1226.39	0.498384
1229.77	0.004702
1233.14	1.05816
1236.52	0.495214
1239.89	0.683947
1243.27	1.79784
1246.64	1.62039
1250.02	1.62987
1253.39	0.096468
1256.77	0.733526
1260.14	1.63362
1263.52	0.615099
1266.89	1.02342
1270.27	0.181356
1273.64	1.25407
1277.02	0.025347
