Measurement: Raman, 532 nm, unoriented, Raman Data Processed
Mineral: Retgersite
Rruff sample: R130366
Ideal chemistry: NiSO_4_6H_2_O
Locality: Minas Ragra mine, Pasco, Peru
Source: Tom Loomis
Description: Glassy green crystals on patronite, associated with R130365 minasragrite
Raman shift (cm-1)	intensity
187.713	0
190.606	0.067558
193.499	1.6021
196.392	4.57523
199.284	7.86812
202.177	10.8629
205.07	14.326
207.962	18.6457
210.855	17.5746
213.748	14.4687
216.64	10.8153
219.533	8.66089
222.426	6.44136
225.319	6.19408
228.211	6.59302
231.104	7.29029
233.997	7.61078
236.889	9.46756
239.782	9.8019
242.675	9.66533
245.567	9.07119
248.46	8.49929
251.353	8.96692
254.245	9.5817
257.138	10.4962
260.031	11.5848
262.924	13.3833
265.816	15.3554
268.709	15.471
271.602	14.6289
274.494	11.8523
277.387	10.0039
280.28	7.13894
283.173	5.85779
286.065	5.29994
288.958	4.31354
291.851	4.34603
294.743	3.74767
297.636	3.30493
300.529	2.28816
303.421	1.30145
306.314	0.609457
309.207	0.216534
312.099	0.778273
314.992	0.163593
317.885	0.527065
320.778	1.27616
323.67	0.166351
326.563	0.274649
329.456	0.009363
332.348	0.665442
335.241	0.929253
338.134	1.37032
341.027	1.72005
343.919	2.71776
346.812	4.42415
349.705	3.2569
352.597	4.27441
355.49	4.77805
358.383	5.90613
361.276	8.51203
364.168	10.1138
367.061	11.8185
369.954	13.6931
372.846	13.6679
375.739	12.3936
378.632	9.04854
381.524	5.85529
384.417	2.45273
387.31	0.805021
390.202	0.15571
393.095	0.381071
395.988	0.378263
398.881	0.550152
401.773	1.36349
404.666	3.95549
407.559	6.0982
410.451	7.79617
413.344	13.0794
416.237	17.9995
419.13	23.8666
422.022	28.8646
424.915	33.1376
427.808	36.5404
430.7	43.8781
433.593	52.2617
436.486	54.0239
439.378	39.8742
442.271	24.4791
445.164	17.0217
448.057	15.3544
450.949	15.7649
453.842	16.8582
456.735	19.6719
459.627	20.8665
462.52	21.8931
465.413	20.9869
468.305	19.0018
471.198	15.5555
474.091	12.9211
476.983	9.75183
479.876	7.56411
482.769	5.48626
485.662	3.44724
488.554	2.54969
491.447	2.20107
494.34	1.05406
497.232	1.29448
500.125	1.3015
503.018	0.958014
505.911	0.843534
508.803	0.302748
511.696	0.290884
514.589	0.019817
517.481	0.344328
520.374	0.044291
523.267	0.176023
526.159	0.579254
529.052	0.477533
531.945	0.694611
534.837	0.113258
537.73	0.057766
540.623	0.094713
543.516	1.00918
546.408	0.547092
549.301	0.752514
552.194	2.39584
555.086	2.49485
557.979	2.34977
560.872	2.57088
563.764	3.30463
566.657	4.44816
569.55	4.84581
572.443	6.29086
575.335	7.79707
578.228	10.0747
581.121	11.5456
584.013	13.7702
586.906	16.1715
589.799	19.642
592.692	23.0669
595.584	26.08
598.477	29.2078
601.37	30.3002
604.262	31.0964
607.155	29.333
610.048	27.5664
612.94	24.8589
615.833	22.3673
618.726	19.6811
621.619	15.6355
624.511	13.3242
627.404	11.3844
630.297	8.92503
633.189	8.64753
636.082	6.37084
638.975	5.39353
641.867	4.59028
644.76	4.0536
647.653	3.31721
650.545	2.83697
653.438	2.41368
656.331	1.35914
659.224	1.09399
662.116	0.81111
665.009	0.725027
667.902	0.618874
670.794	0.747305
673.687	0.375025
676.58	0.688831
679.472	0.068632
682.365	0.05184
685.258	0.08147
688.151	0.255911
691.043	0.15032
693.936	0.272068
696.829	0.124886
699.721	0.037312
702.614	0.232689
705.507	0.141384
708.399	0.471174
711.292	0.043566
714.185	0.091951
717.078	0.258591
719.97	0.312975
722.863	0.050156
725.756	0.139511
728.648	0.581129
731.541	0.313894
734.434	0.43445
737.327	0.789963
740.219	0.125616
743.112	0.641127
746.005	0.821733
748.897	1.1088
751.79	0.626686
754.683	1.47255
757.575	0.840528
760.468	0.490927
763.361	0.889473
766.254	0.361401
769.146	1.1305
772.039	1.60533
774.932	2.06741
777.824	1.73917
780.717	1.20364
783.61	1.557
786.502	1.37633
789.395	0.951088
792.288	1.43264
795.181	1.22548
798.073	1.412
800.966	1.2636
803.859	1.61163
806.751	0.988655
809.644	1.04131
812.537	1.07457
815.429	0.724323
818.322	0.418491
821.215	0.362528
824.107	0.626923
827	0.720236
829.893	0.534409
832.786	0.251074
835.678	0.405994
838.571	0.46949
841.464	0.634178
844.356	0.957516
847.249	1.018
850.142	0.844471
853.034	1.23607
855.927	1.19171
858.82	1.63658
861.713	2.00616
864.605	1.64976
867.498	1.89729
870.391	1.75181
873.283	0.99128
876.176	1.12549
879.069	0.838198
881.962	0.59642
884.854	0.385569
887.747	0.191879
890.64	0.24033
893.532	0.469297
896.425	0.091669
899.318	0.035227
902.21	0.376812
905.103	0.379478
907.996	0.470005
910.889	0.003193
913.781	0.36252
916.674	0.02482
919.567	0.019819
922.459	0.425301
925.352	0.462797
928.245	0.011078
931.137	0.264948
934.03	0.58448
936.923	0.543285
939.816	1.5739
942.708	0.496475
945.601	1.29522
948.494	1.26828
951.386	2.0362
954.279	2.36401
957.172	3.38643
960.064	4.30588
962.957	6.59649
965.85	11.0436
968.742	18.0041
971.635	33.7766
974.528	74.7529
977.421	114.893
980.313	180.899
983.206	349.037
986.099	542.225
988.991	214.506
991.884	57.8735
994.777	24.7525
997.669	13.4365
1000.56	8.62124
1003.46	5.33048
1006.35	3.66603
1009.24	2.77177
1012.13	1.2868
1015.03	0.134108
1017.92	0.668499
1020.81	0.032019
1023.7	0.003576
1026.6	0.052069
1029.49	0.194628
1032.38	0.329641
1035.28	0.163952
1038.17	0.701056
1041.06	0.20611
1043.95	0.189854
1046.85	0.563848
1049.74	0.485382
1052.63	1.06374
1055.52	1.58441
1058.42	2.81869
1061.31	3.80728
1064.2	4.93994
1067.09	5.73918
1069.99	8.82199
1072.88	11.6484
1075.77	16.0161
1078.66	19.9955
1081.56	23.6602
1084.45	26.2496
1087.34	26.6676
1090.24	24.252
1093.13	19.4202
1096.02	15.6711
1098.91	12.7892
1101.81	9.93896
1104.7	8.52806
1107.59	8.25905
1110.48	8.00627
1113.38	9.17565
1116.27	11.68
1119.16	14.935
1122.06	17.7402
1124.95	20.6585
1127.84	21.0522
1130.73	19.0311
1133.63	15.8924
1136.52	12.0686
1139.41	10.3737
1142.3	6.82832
1145.2	5.19632
1148.09	3.49254
1150.98	2.53047
1153.88	1.65807
1156.77	1.03961
1159.66	0.400623
1162.55	0.781567
1165.45	0.138712
1168.34	0.607344
1171.23	0.490526
1174.12	0.782715
1177.02	1.03359
1179.91	0.156883
1182.8	0.075363
1185.69	0.106794
1188.59	0.107691
1191.48	0.431282
1194.37	0.559822
1197.27	0.12266
1200.16	0.544443
1203.05	0.738506
1205.94	0.982765
1208.84	0.580837
1211.73	0.91395
1214.62	0.436949
1217.52	0.642202
1220.41	0.193657
1223.3	1.18468
1226.19	0.944729
1229.09	0.566996
1231.98	0.794792
1234.87	0.340918
1237.76	0.599165
1240.66	0.427401
1243.55	0.205103
1246.44	0.555431
1249.33	0.733263
1252.23	0.250246
1255.12	0.803766
1258.01	0.30629
1260.9	1.17607
1263.8	1.35306
1266.69	0.695963
1269.58	1.06792
1272.48	0.595211
1275.37	0.730686
1278.26	0.863585
1281.15	0.255791
1284.05	0.711176
1286.94	0.62686
1289.83	0.296669
1292.72	0.051411
1295.62	0.122
1298.51	0.004066
1301.4	0.110201
