Measurement: Raman, 780 nm, unoriented, Raman Data Processed
Mineral: Retgersite
Rruff sample: R130119
Ideal chemistry: NiSO_4_6H_2_O
Locality: Cerro de Pasco, Alcides Carri√≥n Province, Pasco department, Peru
Source: Rock Currier
Raman shift (cm-1)	intensity
145.197	0
148.089	0.005161
150.982	0.959381
153.875	1.45471
156.767	1.13964
159.66	1.36338
162.553	0.432186
165.446	0.000824
168.338	0.522015
171.231	0.412842
174.124	0.186844
177.016	0.478371
179.909	0.447502
182.802	0.983253
185.694	2.53527
188.587	3.29842
191.48	3.94757
194.373	3.07695
197.265	4.03396
200.158	5.36206
203.051	5.37646
205.943	5.87852
208.836	5.60778
211.729	7.109
214.621	7.56524
217.514	9.43963
220.407	11.1925
223.299	11.9055
226.192	12.7775
229.085	14.6263
231.978	16.3725
234.87	17.7441
237.763	19.1582
240.656	21.6536
243.548	21.8125
246.441	21.1137
249.334	17.8053
252.226	17.2137
255.119	13.0614
258.012	10.956
260.904	8.62977
263.797	6.69124
266.69	5.024
269.583	4.19104
272.475	3.65814
275.368	1.69994
278.261	2.13964
281.153	1.03294
284.046	1.30215
286.939	1.85127
289.832	0.838358
292.724	0.723652
295.617	0.984226
298.51	0.640066
301.402	0.02434
304.295	0.613668
307.188	0.608337
310.08	0.048513
312.973	0.901535
315.866	0.662951
318.759	0.659765
321.651	0.968517
324.544	0.885731
327.437	0.461178
330.329	0.805445
333.222	0.389465
336.115	0.272692
339.007	0.628998
341.9	0.537609
344.793	0.738382
347.685	1.42897
350.578	0.740988
353.471	0.909184
356.364	1.3943
359.256	1.35615
362.149	1.23861
365.042	1.87309
367.934	2.19127
370.827	1.54476
373.72	2.37609
376.613	2.99264
379.505	3.7957
382.398	2.56385
385.291	3.16786
388.183	4.0488
391.076	3.85683
393.969	2.90075
396.861	3.30307
399.754	1.68059
402.647	1.1079
405.539	1.04907
408.432	0.868183
411.325	0.245173
414.217	0.532715
417.11	0.123728
420.003	0.057558
422.896	0.633862
425.788	0.983427
428.681	1.95825
431.574	1.94028
434.466	2.58889
437.359	3.2581
440.252	4.22588
443.144	5.04253
446.037	5.00827
448.93	5.01167
451.823	5.7831
454.715	7.45088
457.608	9.04344
460.501	11.2796
463.393	12.9968
466.286	14.4082
469.179	14.199
472.072	12.7547
474.964	10.8101
477.857	8.13563
480.75	5.43573
483.642	4.68656
486.535	3.67152
489.428	2.85993
492.32	1.45348
495.213	1.55762
498.106	1.02521
500.998	0.996883
503.891	0.888571
506.784	0.150261
509.677	0.558723
512.569	0.483383
515.462	0.432518
518.355	0.383354
521.247	0.439413
524.14	0.10787
527.033	0.550259
529.926	0.361305
532.818	0.26967
535.711	0.529808
538.604	0.577206
541.496	1.12657
544.389	1.20991
547.282	0.476717
550.174	0.704952
553.067	1.18115
555.96	0.444111
558.852	1.80313
561.745	0.677536
564.638	1.72562
567.53	1.6859
570.423	1.53225
573.316	1.83782
576.209	1.85007
579.101	1.38155
581.994	3.04564
584.887	1.77392
587.779	3.55562
590.672	4.56301
593.565	5.34979
596.457	5.52733
599.35	5.68435
602.243	6.76257
605.136	6.40641
608.028	7.13553
610.921	6.31394
613.814	5.21037
616.706	4.8246
619.599	3.97702
622.492	3.72337
625.385	2.95445
628.277	2.15889
631.17	1.50155
634.063	2.05436
636.955	1.67637
639.848	1.53248
642.741	1.59658
645.633	0.986431
648.526	0.250977
651.419	0.214718
654.312	1.01747
657.204	0.331812
660.097	0.684542
662.99	0.946209
665.882	1.12957
668.775	0.671686
671.668	0.944998
674.56	0.723299
677.453	0.431105
680.346	0.228878
683.239	0.416681
686.131	0.499784
689.024	1.13672
691.917	0.127209
694.809	0.680254
697.702	0.602161
700.595	0.553787
703.487	0.482454
706.38	1.23233
709.273	1.28593
712.165	1.25898
715.058	0.20027
717.951	0.975754
720.843	0.938725
723.736	0.775097
726.629	0.607809
729.522	0.416517
732.414	0.519844
735.307	0.61084
738.2	0.698465
741.092	1.01878
743.985	1.10326
746.878	0.418253
749.77	1.05192
752.663	0.280506
755.556	0.373512
758.449	1.13692
761.341	0.774426
764.234	1.40319
767.127	1.00397
770.019	0.681097
772.912	0.045099
775.805	0.112812
778.697	0.080082
781.59	0.185768
784.483	0.706474
787.376	0.19973
790.268	0.32135
793.161	0.074121
796.054	0.769869
798.946	0.850225
801.839	1.28413
804.732	0.357891
807.625	0.135044
810.517	0.300076
813.41	0.318054
816.303	0.505077
819.195	0.990866
822.088	0.065517
824.981	0.514553
827.873	0.870951
830.766	0.783266
833.659	0.982809
836.552	0.955103
839.444	0.879374
842.337	0.446022
845.23	0.654192
848.122	0.664806
851.015	0.556196
853.908	0.865778
856.8	0.133577
859.693	0.475956
862.586	1.5511
865.479	0.131405
868.371	0.896893
871.264	1.09394
874.157	0.503506
877.049	0.176323
879.942	1.7313
882.835	1.08297
885.727	1.17642
888.62	1.25949
891.513	0.564997
894.405	0.475622
897.298	0.085461
900.191	1.01799
903.083	0.409262
905.976	1.15705
908.869	0.69523
911.762	0.256054
914.654	0.796768
917.547	0.830145
920.44	1.76695
923.332	0.648354
926.225	0.46348
929.118	0.031973
932.01	0.822321
934.903	0.061543
937.796	0.12738
940.689	1.09897
943.581	0.483381
946.474	0.337971
949.367	1.03808
952.259	1.31529
955.152	2.29158
958.045	2.67213
960.937	3.97606
963.83	5.63347
966.723	8.70688
969.615	17.8974
972.508	33.0561
975.401	46.7854
978.294	76.7683
981.186	128.618
984.079	143.853
986.972	55.6643
989.864	19.851
992.757	9.28376
995.65	6.5662
998.543	4.27364
1001.43	2.33999
1004.33	2.18866
1007.22	1.74556
1010.11	1.48334
1013.01	1.47511
1015.9	0.786821
1018.79	1.36662
1021.68	1.24726
1024.58	0.421881
1027.47	0.260597
1030.36	0.378405
1033.26	0.019751
1036.15	0.026386
1039.04	0.294413
1041.93	1.03996
1044.83	0.245811
1047.72	0.525717
1050.61	0.33758
1053.5	0.457689
1056.4	0.094097
1059.29	0.58563
1062.18	0.461277
1065.08	1.10985
1067.97	1.57359
1070.86	1.78618
1073.75	0.447517
1076.64	1.18784
1079.54	2.04279
1082.43	1.5173
1085.32	1.35962
1088.22	2.40041
1091.11	1.6504
1094	1.00803
1096.89	1.25322
1099.79	1.51187
1102.68	0.964569
1105.57	0.256605
1108.46	0.411018
1111.36	0.374146
1114.25	0.969671
1117.14	0.312035
1120.04	0.279444
1122.93	0.66288
1125.82	0.724554
1128.71	0.415836
1131.61	0.699409
1134.5	0.47584
1137.39	1.09334
1140.29	0.491486
1143.18	1.26598
1146.07	1.45752
1148.96	1.07699
1151.86	1.16081
1154.75	0.154819
1157.64	1.41353
1160.53	0.770918
1163.43	0.831396
1166.32	0.784519
1169.21	1.23835
1172.1	0.818842
1175	0.973337
1177.89	0.48929
1180.78	1.51904
1183.67	0.866121
1186.57	0.170885
1189.46	1.60465
1192.35	1.54396
1195.25	1.72868
1198.14	1.20162
1201.03	0.130404
1203.92	1.71031
1206.82	0.186373
1209.71	1.35498
1212.6	1.09547
1215.49	0.923496
1218.39	0.308025
1221.28	1.31298
1224.17	0.973259
1227.07	0.845259
1229.96	0.714203
1232.85	1.42545
1235.74	0.378914
1238.64	1.5476
1241.53	0.932253
1244.42	1.74511
1247.32	0.281137
1250.21	0.947372
1253.1	0.475054
1255.99	1.05556
1258.88	0.636587
1261.78	1.39405
1264.67	1.27772
1267.56	1.25915
1270.46	1.00376
1273.35	0.50061
1276.24	0.331894
1279.13	0.266907
1282.03	0.114332
