Measurement: Raman, 780 nm, unoriented, Raman Data Processed
Mineral: Retgersite
Rruff sample: R070665
Ideal chemistry: NiSO_4_6H_2_O
Locality: Lovelock Mine, Bolivia, Cottonwood Canyon, Table Mountain District, Churchill Co., Nevada, USA
Source: Michael Scott
Description: Blue-green crystalline coating on rock
Raman shift (cm-1)	intensity
117.385	0
120.76	19.3564
124.135	79.8511
127.509	104.642
130.884	154.179
134.259	270.752
137.634	181.339
141.009	131.328
144.383	79.8193
147.758	55.3289
151.133	69.2419
154.508	40.6467
157.883	26.4028
161.258	17.8489
164.632	13.9841
168.007	21.8791
171.382	26.8669
174.757	11.0752
178.132	4.14502
181.506	124.829
184.881	177.696
188.256	271.389
191.631	449.608
195.006	675.2
198.381	943.284
201.755	1208.44
205.13	1362.18
208.505	1269.12
211.88	973.699
215.255	755.582
218.63	616.228
222.004	665.367
225.379	705.632
228.754	837.551
232.129	986.506
235.504	1083.45
238.878	1208.13
242.253	1218.29
245.628	1192.28
249.003	1113.92
252.378	1056.35
255.752	1012.16
259.127	805.677
262.502	693.386
265.877	638.579
269.252	415.297
272.627	273.923
276.001	183.341
279.376	113.359
282.751	85.1956
286.126	107.153
289.501	82.3496
292.875	43.1997
296.25	47.0437
299.625	47.8704
303	3.39551
306.375	24.9746
309.75	21.8313
313.124	19.2956
316.499	27.0576
319.874	8.85059
323.249	22.4395
326.624	16.2305
329.998	41.3347
333.373	57.7981
336.748	24.4829
340.123	54.8784
343.498	57.385
346.873	82.1804
350.247	84.6397
353.622	94.8584
356.997	145.379
360.372	219.324
363.747	247.403
367.122	386.67
370.496	297.275
373.871	229.089
377.246	171.473
380.621	84.9656
383.996	30.25
387.37	0.376221
390.745	10.9204
394.12	19.8533
397.495	20.2039
400.87	69.9792
404.245	74.4878
407.619	118.947
410.994	159.603
414.369	218.025
417.744	262.646
421.119	331.025
424.493	365.5
427.868	440.01
431.243	599.916
434.618	761.024
437.993	765.884
441.368	657.456
444.742	592.28
448.117	648.922
451.492	762.772
454.867	1016.64
458.242	1220.58
461.616	1441.55
464.991	1493.38
468.366	1365.82
471.741	1057.47
475.116	819.523
478.49	527.152
481.865	405.411
485.24	309.472
488.615	232.054
491.99	157.448
495.365	137.519
498.739	84.6426
502.114	43.5369
505.489	36.9522
508.864	2.1665
512.239	35.8997
515.614	0.385254
518.988	9.79248
522.363	5.2395
525.738	1.91284
529.113	8.62183
532.488	2.77295
535.862	17.0803
539.237	11.0698
542.612	6.92993
545.987	8.8103
549.362	24.3325
552.736	53.9705
556.111	74.1035
559.486	122.283
562.861	82.0671
566.236	72.1484
569.611	93.1338
572.985	114.032
576.36	112.291
579.735	147.486
583.11	217.632
586.485	230.945
589.86	304.168
593.234	374.856
596.609	458.603
599.984	570.898
603.359	609.224
606.734	711.373
610.108	717.274
613.483	731.665
616.858	588.127
620.233	484.197
623.608	356.55
626.982	263.211
630.357	183.77
633.732	137.198
637.107	104.071
640.482	68.9463
643.857	80.5447
647.231	13.1755
650.606	22.729
653.981	38.2344
657.356	49.9448
660.731	36.4119
664.106	9.68481
667.48	40.1858
670.855	6.92163
674.23	52.0017
677.605	23.8452
680.98	3.12231
684.354	25.3425
687.729	32.6658
691.104	53.9888
694.479	11.6404
697.854	28.4062
701.229	15.2317
704.603	10.8557
707.978	49.375
711.353	30.0615
714.728	8.44824
718.103	47.2073
721.477	18.3735
724.852	10.9326
728.227	30.6919
731.602	1.32202
734.977	4.24219
738.351	17.1287
741.726	46.7937
745.101	6.37622
748.476	34.1777
751.851	23.1348
755.226	51.2788
758.6	7.9895
761.975	62.6788
765.35	20.0692
768.725	41.8742
772.1	34.3824
775.475	28.0717
778.849	29.6725
782.224	46.8011
785.599	84.5051
788.974	49.0098
792.349	78.7272
795.723	80.9919
799.098	89.8721
802.473	78.9557
805.848	78.96
809.223	75.1644
812.597	39.9482
815.972	32.5388
819.347	21.4351
822.722	33.6242
826.097	36.6086
829.472	44.1564
832.846	13.7296
836.221	13.7278
839.596	37.296
842.971	60.1715
846.346	68.8658
849.721	68.6659
853.095	65.5422
856.47	43.1898
859.845	73.1583
863.22	31.227
866.595	12.9932
869.969	27.5474
873.344	18.1007
876.719	42.0481
880.094	58.1984
883.469	24.5172
886.843	9.13806
890.218	38.3086
893.593	26.0521
896.968	7.93872
900.343	8.17578
903.718	8.15283
907.092	16.3842
910.467	2.97315
913.842	51.2711
917.217	44.6484
920.592	34.8351
923.966	19.8547
927.341	3.77026
930.716	4.99683
934.091	37.4008
937.466	36.2036
940.841	32.7602
944.215	10.9353
947.59	68.5624
950.965	58.0408
954.34	85.1226
957.715	105.167
961.09	123.028
964.464	222.873
967.839	388.757
971.214	622.449
974.589	1433.86
977.964	3691.5
981.338	7551.2
984.713	12195.6
988.088	7585.44
991.463	2390.49
994.838	804.836
998.212	376.628
1001.59	230.397
1004.96	180.889
1008.34	63.1428
1011.71	67.5308
1015.09	74.3702
1018.46	24.7412
1021.84	33.0039
1025.21	9.15015
1028.59	6.25598
1031.96	5.72571
1035.34	5.32471
1038.71	10.9144
1042.09	11.2658
1045.46	39.8092
1048.84	31.2015
1052.21	8.4696
1055.58	42.4912
1058.96	56.9697
1062.33	84.7007
1065.71	129.494
1069.08	151.503
1072.46	226.66
1075.83	258.577
1079.21	332.52
1082.58	406.917
1085.96	392.65
1089.33	355.902
1092.71	321.132
1096.08	290.6
1099.46	249.69
1102.83	194.935
1106.21	153.816
1109.58	139.611
1112.96	75.2811
1116.33	94.5801
1119.71	84.6256
1123.08	101.209
1126.46	104.971
1129.83	104.019
1133.2	71.5079
1136.58	92.7432
1139.95	55.6737
1143.33	35.1475
1146.7	11.9739
1150.08	8.6936
1153.45	24.2452
1156.83	6.25537
1160.2	6.22302
1163.58	5.17102
1166.95	12.1536
1170.33	24.4219
1173.7	15.8378
1177.08	30.234
1180.45	37.2458
1183.83	39.9029
1187.2	43.1531
1190.58	42.6121
1193.95	29.8567
1197.33	48.9454
1200.7	41.375
1204.08	15.0641
1207.45	48.8509
1210.83	28.5619
1214.2	34.2644
1217.58	47.1123
1220.95	52.6484
1224.33	26.4592
1227.7	16.5997
1231.08	37.9468
1234.45	23.6532
1237.83	21.7492
1241.2	19.4891
1244.57	35.9329
1247.95	35.6101
1251.32	16.9541
1254.7	15.8864
1258.07	36.6334
1261.45	29.144
1264.82	4.18567
1268.2	12.7101
1271.57	8.23511
1274.95	14.9498
1278.32	11.8373
1281.7	9.03687
1285.07	26.3821
1288.45	16.8302
