Measurement: Raman, 532 nm, unoriented, Raman Data Processed
Mineral: Retgersite
Rruff sample: R130119
Ideal chemistry: NiSO_4_6H_2_O
Locality: Cerro de Pasco, Alcides Carri√≥n Province, Pasco department, Peru
Source: Rock Currier
Raman shift (cm-1)	intensity
212.301	0
215.194	2.02301
218.087	6.04986
220.98	11.1407
223.872	17.5411
226.765	22.7941
229.658	30.7705
232.55	37.48
235.443	46.6789
238.336	54.2519
241.228	62.6123
244.121	66.1376
247.014	69.0297
249.906	63.6254
252.799	57.171
255.692	47.8745
258.585	38.4843
261.477	30.2223
264.37	22.5339
267.263	15.2314
270.155	10.5994
273.048	5.7803
275.941	3.92158
278.834	1.17904
281.726	0.185805
284.619	0.464522
287.512	0.173045
290.404	1.08394
293.297	0.794301
296.19	0.83599
299.082	0.848809
301.975	0.29005
304.868	0.852599
307.76	0.26175
310.653	0.16528
313.546	1.14713
316.439	0.739305
319.331	0.449859
322.224	2.18924
325.117	3.01402
328.009	3.61071
330.902	3.14494
333.795	3.74619
336.688	4.70327
339.58	5.11053
342.473	4.02313
345.366	6.07477
348.258	5.55588
351.151	4.59449
354.044	4.53519
356.936	6.55812
359.829	5.75364
362.722	4.9365
365.615	6.97053
368.507	7.97462
371.4	6.34851
374.293	8.90007
377.185	9.53707
380.078	10.8354
382.971	13.2202
385.863	13.6466
388.756	15.9065
391.649	14.4659
394.541	13.0104
397.434	11.6961
400.327	7.55359
403.22	4.15757
406.112	2.96562
409.005	1.24162
411.898	0.0336
414.79	0.09388
417.683	0.840525
420.576	0.500047
423.469	2.11024
426.361	5.00052
429.254	7.66337
432.147	9.55333
435.039	12.4611
437.932	15.9689
440.825	18.1642
443.717	19.1148
446.61	21.0306
449.503	22.5021
452.396	25.3529
455.288	31.1343
458.181	38.3993
461.074	47.6855
463.966	58.5382
466.859	68.4678
469.752	73.316
472.644	71.3571
475.537	59.387
478.43	45.5949
481.322	34.5188
484.215	26.1369
487.108	18.9683
490.001	14.5633
492.893	12.1698
495.786	9.14578
498.679	6.2461
501.571	4.77857
504.464	2.28875
507.357	1.74539
510.25	1.97806
513.142	0.158852
516.035	0.589196
518.928	0.42563
521.82	0.314845
524.713	0.204754
527.606	0.242375
530.498	0.936644
533.391	0.633266
536.284	0.125518
539.177	0.172281
542.069	0.221533
544.962	0.069716
547.855	2.07863
550.747	2.79105
553.64	1.48599
556.533	1.90627
559.425	2.11067
562.318	4.54056
565.211	6.19869
568.104	5.14553
570.996	5.87611
573.889	7.30992
576.782	8.63105
579.674	10.3099
582.567	12.3399
585.46	14.2288
588.352	18.4575
591.245	21.6376
594.138	26.4807
597.03	29.6505
599.923	35.8013
602.816	36.6856
605.709	38.7405
608.601	38.9022
611.494	35.2204
614.387	31.3641
617.279	27.5799
620.172	24.4154
623.065	19.9171
625.957	15.9659
628.85	12.8378
631.743	10.3885
634.636	7.43363
637.528	6.13835
640.421	4.50896
643.314	2.61983
646.206	3.08837
649.099	2.42365
651.992	0.249544
654.885	0.158574
657.777	0.198159
660.67	0.064646
663.563	0.307792
666.455	0.299821
669.348	0.131618
672.241	0.323787
675.133	0.573134
678.026	0.682538
680.919	0.005262
683.812	0.100361
686.704	0.0912
689.597	0.100966
692.49	1.01597
695.382	0.114287
698.275	0.837494
701.168	2.02352
704.06	1.34426
706.953	1.16334
709.846	1.25448
712.739	0.701714
715.631	0.865049
718.524	0.461918
721.417	0.09154
724.309	0.176129
727.202	0.891742
730.095	0.260815
732.987	0.028473
735.88	0.024065
738.773	0.512438
741.665	0.090223
744.558	0.661536
747.451	1.32108
750.344	2.0678
753.236	1.27502
756.129	0.95433
759.022	0.016266
761.914	0.776009
764.807	0.886606
767.7	1.52023
770.592	1.13315
773.485	1.98988
776.378	1.37742
779.271	0.651496
782.163	1.15553
785.056	0.333664
787.949	0.964372
790.841	1.8047
793.734	0.284136
796.627	0.14479
799.519	0.009188
802.412	0.713468
805.305	1.88023
808.198	0.629242
811.09	0.596405
813.983	0.210737
816.876	0.649263
819.768	2.24844
822.661	1.44762
825.554	1.61809
828.447	0.078163
831.339	0.344482
834.232	0.353218
837.125	1.01446
840.017	2.08987
842.91	1.49318
845.803	1.43304
848.695	1.30841
851.588	1.14896
854.481	1.22915
857.374	1.49855
860.266	1.69808
863.159	0.422629
866.052	2.43667
868.944	3.13023
871.837	0.905999
874.73	0.693699
877.622	1.44869
880.515	0.759411
883.408	1.25225
886.301	0.277359
889.193	1.7555
892.086	0.314664
894.979	0.136674
897.871	0.250136
900.764	0.421881
903.657	0.05819
906.549	0.092277
909.442	0.347183
912.335	0.277209
915.227	0.231977
918.12	0.268313
921.013	0.551685
923.906	0.331677
926.798	0.903636
929.691	0.637145
932.584	0.007166
935.476	0.913854
938.369	2.6447
941.262	1.91103
944.154	1.22394
947.047	2.90969
949.94	3.90519
952.833	5.00878
955.725	6.20139
958.618	10.0563
961.511	14.4572
964.403	23.205
967.296	38.1321
970.189	72.0477
973.082	146.48
975.974	221.541
978.867	360.91
981.76	664.259
984.652	859.965
987.545	390.65
990.438	130.111
993.33	61.1218
996.223	34.8267
999.116	23.1215
1002.01	16.6673
1004.9	13.2925
1007.79	11.9693
1010.69	7.77748
1013.58	5.45793
1016.47	3.84382
1019.37	3.04917
1022.26	1.09006
1025.15	0.246291
1028.04	0.086002
1030.94	0.021721
1033.83	0.20864
1036.72	0.250664
1039.61	0.377379
1042.51	0.149918
1045.4	1.3929
1048.29	0.982338
1051.18	0.510056
1054.08	0.740179
1056.97	3.05088
1059.86	1.55154
1062.76	1.50932
1065.65	2.99605
1068.54	3.64361
1071.43	4.0809
1074.33	5.01253
1077.22	5.54952
1080.11	7.08316
1083	7.3524
1085.9	6.39712
1088.79	6.68405
1091.68	6.26769
1094.58	4.57892
1097.47	5.88667
1100.36	5.82331
1103.25	3.901
1106.15	2.00433
1109.04	1.20818
1111.93	0.924394
1114.82	0.035005
1117.72	1.22698
1120.61	0.339473
1123.5	1.85895
1126.39	1.19061
1129.29	1.47052
1132.18	1.14965
1135.07	3.08993
1137.96	4.04071
1140.86	5.48275
1143.75	8.77294
1146.64	9.03011
1149.54	8.69144
1152.43	8.75811
1155.32	6.55441
1158.21	4.79081
1161.11	3.58554
1164	2.39564
1166.89	1.72428
1169.79	2.56331
1172.68	0.654469
1175.57	0.225856
1178.46	1.55706
1181.36	0.099899
1184.25	0.790419
1187.14	0.495261
1190.03	0.166877
1192.93	0.097492
1195.82	0.932337
1198.71	0.093405
1201.61	0.041222
1204.5	0.421503
1207.39	1.06544
1210.28	1.20464
1213.18	1.76575
1216.07	0.192449
1218.96	1.78481
1221.85	0.054712
1224.75	1.15924
1227.64	0.017071
1230.53	0.591933
1233.42	0.013098
1236.32	0.622595
1239.21	2.05474
1242.1	1.73013
1244.99	1.12246
1247.89	0.210024
1250.78	1.53781
1253.67	2.81843
1256.57	1.5979
1259.46	2.90886
1262.35	1.72075
1265.24	1.19839
1268.14	1.93853
1271.03	2.19392
1273.92	1.83092
1276.82	1.23814
1279.71	0.467741
1282.6	0.234447
1285.49	1.02429
1288.39	0.82404
1291.28	1.15957
1294.17	0.657483
1297.06	0.337701
1299.96	0.155333
