Measurement: Raman, 532 nm, unoriented, Raman Data Processed
Mineral: Retgersite
Rruff sample: R070665
Ideal chemistry: NiSO_4_6H_2_O
Locality: Lovelock Mine, Bolivia, Cottonwood Canyon, Table Mountain District, Churchill Co., Nevada, USA
Source: Michael Scott
Description: Blue-green crystalline coating on rock
Raman shift (cm-1)	intensity
146.288	0
149.663	1.82861
153.038	13.9097
156.413	102.342
159.788	57.5869
163.162	94.4297
166.537	0.95752
169.912	18.2793
173.287	19.9727
176.662	19.8643
180.037	114.059
183.411	331.229
186.786	381.453
190.161	558.268
193.536	908.625
196.911	1220.34
200.286	1592.01
203.66	2094.92
207.035	2280.16
210.41	2028.24
213.785	1364.71
217.16	1057.2
220.534	948.127
223.909	1021.78
227.284	1246.35
230.659	1499.9
234.034	1752.87
237.408	1818.33
240.783	1946.86
244.158	1963.62
247.533	1873.23
250.908	1817.77
254.282	1824.59
257.657	1759.66
261.032	1613.88
264.407	1386.92
267.782	1043
271.157	705.704
274.531	382.545
277.906	219.224
281.281	263.488
284.656	212.879
288.031	211.824
291.406	151.876
294.78	133.575
298.155	42.104
301.53	35.5903
304.905	16.5444
308.28	14.8066
311.654	1.67481
315.029	2.8081
318.404	7.23389
321.779	11.8838
325.154	8.59326
328.529	14.1758
331.903	6.43311
335.278	5.68896
338.653	50.3706
342.028	2.78174
345.403	55.5327
348.777	23.852
352.152	247.196
355.527	417.685
358.902	523.66
362.277	713.499
365.651	1030.8
369.026	2015.68
372.401	911.7
375.776	379.593
379.151	311.567
382.526	180.835
385.9	109.776
389.275	17.6621
392.65	33.0977
396.025	40.5498
399.4	14.5
402.774	70.2295
406.149	72.0523
409.524	230.542
412.899	362.521
416.274	453.449
419.649	590.33
423.023	655.983
426.398	856.469
429.773	1108.6
433.148	1261.57
436.523	1519.62
439.897	1331.7
443.272	1199.61
446.647	1287.53
450.022	1393.7
453.397	1665.48
456.772	2179.99
460.146	2653.27
463.521	2939.76
466.896	2979.65
470.271	2608.74
473.646	1962.29
477.02	1394.74
480.395	977.342
483.77	754.865
487.145	499.18
490.52	404.875
493.894	319.115
497.269	200.961
500.644	118.323
504.019	39.2959
507.394	20.5986
510.769	49.5732
514.143	16.7778
517.518	39.3408
520.893	24.2773
524.268	49.5278
527.643	14.626
531.017	3.91553
534.392	3.7085
537.767	3.50488
541.142	5.16699
544.517	68.8769
547.891	100.914
551.266	146.173
554.641	236.534
558.016	369.125
561.391	335.577
564.766	169.776
568.14	150.159
571.515	168.477
574.89	263.506
578.265	341.9
581.64	402.041
585.014	522.3
588.389	684.075
591.764	716.724
595.139	887.322
598.514	1090.61
601.889	1212.16
605.263	1323.57
608.638	1333.72
612.013	1348.14
615.388	1259.44
618.763	1084.48
622.138	816.449
625.512	622.356
628.887	482.904
632.262	333.801
635.637	192.628
639.011	117.327
642.386	97.0688
645.761	64.0723
649.136	62.4019
652.511	97.2803
655.886	94.3252
659.26	8.35791
662.635	31.375
666.01	65.5264
669.385	49.9551
672.76	63.3887
676.135	46.7441
679.509	24.3252
682.884	14.7505
686.259	40.771
689.634	16.459
693.009	9.67139
696.383	96.0312
699.758	4.76611
703.133	13.8687
706.508	40.7412
709.883	70.0991
713.257	22.854
716.632	1.05176
720.007	6.03174
723.382	9.29541
726.757	13.9893
730.131	80.0327
733.506	68.4502
736.881	52.2471
740.256	87.3091
743.631	60.1675
747.006	25.2642
750.38	48.9248
753.755	112.745
757.13	81.6748
760.505	90.436
763.88	61.4692
767.255	82.2983
770.629	177.229
774.004	138.427
777.379	221.92
780.754	263.297
784.129	238.44
787.503	228.657
790.878	255.458
794.253	258.987
797.628	335.185
801.003	243.492
804.378	283.888
807.752	207.908
811.127	174.008
814.502	64.2432
817.877	49.1152
821.252	96.1641
824.626	53.5967
828.001	4.77832
831.376	91.3247
834.751	8.96924
838.126	49.5225
841.5	88.2861
844.875	123.579
848.25	105.891
851.625	148.411
855	199.644
858.375	166.394
861.749	66.6455
865.124	82.6157
868.499	78.418
871.874	3.29443
875.249	28.8145
878.623	107.575
881.998	72.4248
885.373	25.9424
888.748	32.8877
892.123	79.1948
895.497	57.2773
898.872	26.749
902.247	35.0464
905.622	20.5469
908.997	31.6919
912.372	16.9263
915.746	40.0098
919.121	41.6855
922.496	72.9751
925.871	82.1016
929.246	45.5371
932.62	92.54
935.995	77.3809
939.37	119.517
942.745	73.3613
946.12	105.503
949.495	139.238
952.869	91.8794
956.244	278.014
959.619	304.515
962.994	423.178
966.369	754.432
969.744	1372.67
973.118	3300.08
976.493	7917.54
979.868	12739.5
983.243	20582.3
986.618	29840
989.992	10101.7
993.367	2677.33
996.742	1097.62
1000.12	632.976
1003.49	345.011
1006.87	267.791
1010.24	147.02
1013.62	66.3291
1016.99	15.3711
1020.37	14.6123
1023.74	29.7002
1027.12	14.0698
1030.49	17.7134
1033.87	42.4644
1037.24	26.4575
1040.62	22.5488
1043.99	3.88867
1047.36	17.106
1050.74	31.186
1054.11	88.1411
1057.49	99.7061
1060.86	146.587
1064.24	252.32
1067.61	340.428
1070.99	500.074
1074.36	672.25
1077.74	837.528
1081.11	931.062
1084.49	1023.38
1087.86	1046.39
1091.24	960.718
1094.61	832.055
1097.99	685.36
1101.36	490.734
1104.74	503.509
1108.11	335.617
1111.49	286.116
1114.86	211.942
1118.23	307.463
1121.61	313.893
1124.98	342.167
1128.36	301.7
1131.73	318.308
1135.11	287.372
1138.48	329.914
1141.86	112.972
1145.23	56.1455
1148.61	73.2803
1151.98	41.7026
1155.36	45.2886
1158.73	12.1992
1162.11	29.4087
1165.48	11.8696
1168.86	14.729
1172.23	56.6138
1175.61	15.7251
1178.98	0.022461
1182.36	17.0068
1185.73	23.8355
1189.11	17.5371
1192.48	14.7046
1195.86	42.0269
1199.23	10.0762
1202.61	39.1909
1205.98	107.941
1209.36	97.3979
1212.73	38.773
1216.11	99.2368
1219.48	79.3652
1222.86	88.834
1226.23	46.8926
1229.6	52.7114
1232.98	90.165
1236.35	57.1177
1239.73	59.1728
1243.1	97.8188
1246.48	57.8955
1249.85	86.5449
1253.23	59.1152
1256.6	0.126953
1259.98	57.8662
1263.35	41.4487
1266.73	93.5552
1270.1	24.7593
1273.48	2.76025
1276.85	2.84082
1280.23	61.0034
1283.6	116.727
1286.98	39.773
1290.35	132.36
1293.73	42.0034
1297.1	83.6973
1300.47	59.8687
1303.85	11.8174
