Measurement: Raman, 532 nm, unoriented, Raman Data Processed
Mineral: Retgersite
Rruff sample: R100086
Ideal chemistry: NiSO_4_6H_2_O
Locality: Synthetic, Fluka Chemie 72280
Source: Lab supplies
Description: Loose aggregate of euhedral blue-green crystals
Raman shift (cm-1)	intensity
91.4564	0
94.8312	3.03059
98.2061	2.56758
101.581	5.49925
104.956	5.80941
108.331	11.0322
111.705	9.50038
115.08	12.3472
118.455	8.13458
121.83	5.23174
125.205	3.42734
128.579	0.578269
131.954	4.44443
135.329	2.02365
138.704	0.670181
142.079	0.727863
145.453	7.14599
148.828	12.485
152.203	25.257
155.578	38.7197
158.953	49.3455
162.328	52.0754
165.702	55.2805
169.077	53.5115
172.452	47.6645
175.827	41.8377
179.202	33.4885
182.577	33.7124
185.951	34.078
189.326	36.779
192.701	43.773
196.076	50.4916
199.451	63.4972
202.825	80.4838
206.2	98.0274
209.575	103.38
212.95	78.1387
216.325	54.3314
219.699	37.7064
223.074	33.0926
226.449	35.0459
229.824	37.8961
233.199	44.2936
236.573	54.2137
239.948	57.3086
243.323	56.5632
246.698	52.0638
250.073	50.1475
253.448	44.6941
256.822	47.3279
260.197	48.0945
263.572	44.0142
266.947	42.9174
270.322	36.5838
273.697	30.6676
277.071	22.1937
280.446	15.8092
283.821	10.0771
287.196	9.3922
290.571	9.3808
293.945	8.43992
297.32	10.1859
300.695	5.25269
304.07	2.93835
307.445	1.43814
310.82	2.18575
314.194	1.16749
317.569	2.31261
320.944	2.87288
324.319	0.93618
327.694	4.11848
331.068	0.357681
334.443	0.62262
337.818	1.30692
341.193	3.28535
344.568	2.29084
347.942	4.35008
351.317	7.70469
354.692	10.3959
358.067	15.1467
361.442	19.5655
364.817	29.2242
368.191	34.2034
371.566	40.6223
374.941	41.5267
378.316	33.3477
381.691	22.3886
385.065	9.64271
388.44	2.92754
391.815	3.89898
395.19	1.15997
398.565	0.373009
401.94	4.46641
405.314	12.0127
408.689	19.6798
412.064	27.9806
415.439	43.5039
418.814	54.8525
422.188	71.3361
425.563	80.4239
428.938	87.3876
432.313	99.2738
435.688	120.581
439.062	105.217
442.437	67.4108
445.812	55.8524
449.187	55.5416
452.562	61.7101
455.937	76.7002
459.311	92.3049
462.686	100.555
466.061	103.791
469.436	92.1643
472.811	74.0271
476.185	54.9844
479.56	38.0287
482.935	25.9354
486.31	17.7513
489.685	14.6556
493.06	9.87948
496.434	3.64778
499.809	5.3861
503.184	1.06168
506.559	1.14837
509.934	3.23628
513.308	0.331989
516.683	0.614025
520.058	0.862896
523.433	1.51794
526.808	0.01622
530.183	1.73026
533.557	1.85412
536.932	1.1195
540.307	1.38826
543.682	0.086922
547.057	2.13408
550.432	2.81448
553.806	6.71744
557.181	7.21183
560.556	6.84082
563.931	10.9611
567.306	13.4456
570.68	19.3493
574.055	22.8725
577.43	26.2091
580.805	32.6468
584.18	40.8407
587.554	48.374
590.929	61.3229
594.304	71.7342
597.679	79.7195
601.054	84.1274
604.428	86.7562
607.803	85.8063
611.178	81.4221
614.553	71.5136
617.928	63.3212
621.303	49.7437
624.677	35.7609
628.052	27.9106
631.427	22.278
634.802	17.5152
638.177	14.2381
641.552	11.4176
644.926	10.1752
648.301	6.56112
651.676	4.75691
655.051	1.83828
658.426	4.2127
661.8	2.43906
665.175	2.9094
668.55	2.47186
671.925	1.43001
675.3	1.72208
678.674	1.6476
682.049	1.41829
685.424	1.45918
688.799	0.729698
692.174	1.35829
695.549	0.349693
698.923	1.29282
702.298	0.399658
705.673	0.250603
709.048	0.248421
712.423	0.465389
715.798	2.95861
719.172	0.586872
722.547	2.85524
725.922	0.038059
729.297	0.796421
732.672	3.20494
736.046	4.34159
739.421	4.04878
742.796	4.52273
746.171	4.7161
749.546	4.31684
752.92	7.09933
756.295	4.35434
759.67	5.48236
763.045	6.08387
766.42	4.05402
769.795	1.8347
773.169	4.91708
776.544	6.46784
779.919	3.9567
783.294	4.3172
786.669	3.47974
790.043	3.54081
793.418	3.51181
796.793	4.92766
800.168	3.99924
803.543	4.52231
806.918	5.76028
810.292	4.55405
813.667	5.24641
817.042	1.28654
820.417	1.78853
823.792	1.64437
827.166	0.942711
830.541	0.362995
833.916	1.58968
837.291	2.24291
840.666	1.02169
844.04	0.887314
847.415	1.85702
850.79	3.27761
854.165	2.63483
857.54	3.48417
860.915	3.73835
864.289	4.9846
867.664	3.72431
871.039	3.79974
874.414	3.65918
877.789	2.36088
881.163	4.02705
884.538	2.86221
887.913	4.7684
891.288	0.601364
894.663	1.02307
898.038	0.068424
901.412	1.38377
904.787	1.94662
908.162	0.594276
911.537	0.294994
914.912	0.219112
918.287	0.337215
921.661	1.2793
925.036	1.6267
928.411	1.91983
931.786	0.318451
935.161	0.146469
938.535	3.72944
941.91	3.25058
945.285	4.40644
948.66	5.53414
952.035	6.93382
955.409	7.15995
958.784	15.4633
962.159	20.088
965.534	33.2572
968.909	56.9643
972.284	116.553
975.658	287.503
979.033	496.308
982.408	965.29
985.783	2021.6
989.158	1310.32
992.533	270.38
995.907	98.5517
999.282	46.7043
1002.66	26.0984
1006.03	16.7453
1009.41	10.626
1012.78	6.25578
1016.16	3.37553
1019.53	2.65259
1022.91	0.461258
1026.28	0.99464
1029.66	0.767128
1033.03	0.484142
1036.4	0.698093
1039.78	0.312592
1043.15	1.95425
1046.53	1.09404
1049.9	2.19477
1053.28	3.31258
1056.65	5.25304
1060.03	6.75265
1063.4	7.73766
1066.78	12.3855
1070.15	20.6835
1073.53	31.7492
1076.9	44.7903
1080.28	56.3399
1083.65	70.0642
1087.03	75.5545
1090.4	70.5554
1093.78	55.9933
1097.15	46.2353
1100.53	34.8356
1103.9	26.8056
1107.28	19.2119
1110.65	17.309
1114.03	20.4485
1117.4	22.9898
1120.78	29.2839
1124.15	38.2224
1127.53	43.2518
1130.9	38.5168
1134.28	31.2636
1137.65	20.2438
1141.02	15.3504
1144.4	12.464
1147.77	9.87921
1151.15	4.75017
1154.52	2.57828
1157.9	2.17006
1161.27	0.636715
1164.65	0.317974
1168.02	0.952732
1171.4	0.281849
1174.77	0.767834
1178.15	0.957634
1181.52	1.61018
1184.9	2.00727
1188.27	1.02471
1191.65	2.16354
1195.02	1.40899
1198.4	1.93403
1201.77	2.72547
1205.15	1.71118
1208.52	2.26133
1211.9	0.619686
1215.27	1.50881
1218.64	1.91961
1222.02	1.29426
1225.39	1.70773
1228.77	2.17254
1232.14	3.3746
1235.52	2.81879
1238.89	3.36992
1242.27	3.45793
1245.64	3.38337
1249.02	0.005299
1252.39	1.92033
1255.77	2.6292
1259.14	0.84716
1262.52	1.37515
1265.89	0.699841
1269.27	1.6234
1272.64	2.68105
1276.02	0.868404
1279.39	1.88842
1282.77	1.57721
1286.14	0.411102
1289.52	0.407764
1292.89	2.11853
1296.27	5.85982
1299.64	2.93773
1303.02	0
