Measurement: Raman, 780 nm, unoriented, Raman Data Processed
Mineral: Retgersite
Rruff sample: R100086
Ideal chemistry: NiSO_4_6H_2_O
Locality: Synthetic, Fluka Chemie 72280
Source: Lab supplies
Description: Loose aggregate of euhedral blue-green crystals
Raman shift (cm-1)	intensity
128.656	0
132.031	1.38873
135.406	0.565187
138.781	0.778961
142.155	0.737476
145.53	4.59215
148.905	7.19404
152.28	11.7637
155.655	16.3218
159.03	21.7531
162.404	21.1059
165.779	17.2358
169.154	12.3121
172.529	7.96996
175.904	3.56234
179.278	3.6405
182.653	3.3731
186.028	6.50926
189.403	7.78465
192.778	11.3758
196.153	16.4692
199.527	22.1398
202.902	29.955
206.277	35.7146
209.652	38.9148
213.027	32.8712
216.401	21.1813
219.776	10.5864
223.151	7.39827
226.526	2.29385
229.901	1.244
233.275	1.22505
236.65	1.25883
240.025	0.31793
243.4	1.30594
246.775	1.55206
250.15	3.67225
253.524	4.65124
256.899	7.58729
260.274	11.654
263.649	15.0778
267.024	17.5375
270.399	15.1682
273.773	13.6184
277.148	9.68558
280.523	8.8241
283.898	7.8127
287.273	8.40805
290.647	8.80838
294.022	8.66996
297.397	7.38299
300.772	5.48207
304.147	3.40774
307.522	1.88621
310.896	0.13661
314.271	0.124382
317.646	0.933516
321.021	0.25676
324.396	3.07297
327.77	0.853096
331.145	0.308676
334.52	0.701067
337.895	0.165316
341.27	1.03143
344.644	1.64552
348.019	3.36815
351.394	5.28364
354.769	8.6499
358.144	10.6254
361.519	14.2935
364.893	17.8351
368.268	22.321
371.643	24.9711
375.018	23.7968
378.393	18.1138
381.767	13.6904
385.142	6.29398
388.517	4.45831
391.892	4.03363
395.267	3.80032
398.642	3.73164
402.016	7.17255
405.391	11.4561
408.766	16.6209
412.141	20.5545
415.516	29.7364
418.89	36.2157
422.265	41.6555
425.64	42.4305
429.015	38.1613
432.39	33.0478
435.765	31.4975
439.139	26.7959
442.514	21.1227
445.889	19.2674
449.264	19.8429
452.639	20.1119
456.014	22.4788
459.388	22.6092
462.763	22.2054
466.138	19.3301
469.513	14.1106
472.887	10.8007
476.262	8.13927
479.637	4.59736
483.012	2.38563
486.387	1.52687
489.762	1.64487
493.136	1.01067
496.511	0.424371
499.886	0.564737
503.261	0.903965
506.636	0.089178
510.01	0.113281
513.385	0.337147
516.76	0.064291
520.135	0.252929
523.51	0.173304
526.885	0.972333
530.259	0.113223
533.634	0.992081
537.009	0.943056
540.384	0.6926
543.759	0.931605
547.134	2.94541
550.508	2.58133
553.883	2.82646
557.258	4.85694
560.633	4.8433
564.008	6.40274
567.382	8.63565
570.757	9.88082
574.132	12.1367
577.507	15.6459
580.882	18.7659
584.256	21.9809
587.631	28.3084
591.006	33.8581
594.381	37.1641
597.756	40.9924
601.131	41.4739
604.505	39.3512
607.88	37.0544
611.255	32.1797
614.63	25.3934
618.005	20.8823
621.38	16.8171
624.754	13.0144
628.129	9.42243
631.504	6.62188
634.879	6.03237
638.254	4.9897
641.628	4.64688
645.003	2.67088
648.378	2.05101
651.753	1.53071
655.128	1.86782
658.503	0.925719
661.877	0.308468
665.252	1.00504
668.627	1.00656
672.002	1.67176
675.377	0.004685
678.751	0.001383
682.126	0.393476
685.501	0.608826
688.876	0.520152
692.251	0.066202
695.625	0.117192
699	0.374283
702.375	0.088571
705.75	0.219728
709.125	0.054019
712.5	0.539917
715.874	0.428416
719.249	1.29059
722.624	0.220167
725.999	0.146537
729.374	0.309175
732.749	0.90105
736.123	0.919025
739.498	1.12309
742.873	0.106575
746.248	0.323438
749.623	1.64159
752.997	1.4404
756.372	0.774903
759.747	1.7867
763.122	0.801016
766.497	0.602214
769.871	0.985318
773.246	1.92213
776.621	0.544282
779.996	1.99963
783.371	1.06809
786.745	0.628826
790.12	1.19012
793.495	1.02681
796.87	0.925105
800.245	0.56674
803.62	0.969
806.994	0.250952
810.369	0.544984
813.744	0.557224
817.119	0.967439
820.494	0.332047
823.869	0.610027
827.243	1.17476
830.618	0.607497
833.993	1.1355
837.368	1.01583
840.743	0.941099
844.117	1.1879
847.492	1.60191
850.867	1.66063
854.242	1.40373
857.617	2.13497
860.991	1.56825
864.366	1.89956
867.741	2.17986
871.116	1.00763
874.491	1.86875
877.866	1.75079
881.24	2.21404
884.615	0.42779
887.99	0.505044
891.365	0.427481
894.74	1.39457
898.115	1.04114
901.489	0.608152
904.864	0.201482
908.239	0.123486
911.614	0.220363
914.989	0.967764
918.363	0.623558
921.738	0.241355
925.113	0.086438
928.488	1.11593
931.863	0.777328
935.237	0.985958
938.612	1.13462
941.987	2.48254
945.362	2.42548
948.737	1.17267
952.112	2.99082
955.486	3.55303
958.861	6.55793
962.236	8.02266
965.611	12.5071
968.986	23.0222
972.361	59.926
975.735	44.252
979.11	57.061
982.485	86.2882
985.86	143.909
989.235	97.8766
992.609	67.3197
995.984	26.5756
999.359	12.4862
1002.73	6.67904
1006.11	3.81546
1009.48	2.7316
1012.86	1.17977
1016.23	0.376582
1019.61	0.7934
1022.98	0.151424
1026.36	0.009481
1029.73	0.306936
1033.11	0.197296
1036.48	0.202748
1039.86	0.45848
1043.23	0.406386
1046.61	1.18613
1049.98	1.02442
1053.36	1.04982
1056.73	1.81779
1060.11	2.9024
1063.48	4.3923
1066.86	7.66337
1070.23	10.5882
1073.61	14.351
1076.98	19.4124
1080.36	23.6719
1083.73	28.5673
1087.1	28.4197
1090.48	23.9457
1093.85	19.4198
1097.23	13.9942
1100.6	9.9527
1103.98	7.08746
1107.35	4.6548
1110.73	4.15403
1114.1	4.49324
1117.48	3.59913
1120.85	5.75798
1124.23	7.19485
1127.6	6.8115
1130.98	7.34365
1134.35	5.99361
1137.73	4.12294
1141.1	2.46479
1144.48	1.7423
1147.85	0.589113
1151.23	0.617844
1154.6	1.04783
1157.97	0.161802
1161.35	0.525692
1164.72	1.31877
1168.1	0.749641
1171.47	0.774736
1174.85	0.319629
1178.22	0.789662
1181.6	0.855266
1184.97	0.814261
1188.35	0.894772
1191.72	1.32552
1195.1	0.662974
1198.47	0.915948
1201.85	0.526923
1205.22	0.68252
1208.6	0.615912
1211.97	0.51837
1215.35	0.852699
1218.72	0.289992
1222.1	1.81088
1225.47	0.108924
1228.85	0.38391
1232.22	0.228908
1235.6	1.25179
1238.97	1.52987
1242.35	1.04177
1245.72	1.3917
1249.1	0.815236
1252.47	1.35561
1255.85	1.29876
1259.22	0.748064
1262.6	0.995363
1265.97	0.887231
1269.34	0.157248
1272.72	0.357002
1276.09	1.14792
1279.47	1.67785
1282.84	0.456461
