Measurement: Raman, 780 nm, unoriented, Raman Data Processed
Mineral: Retgersite
Rruff sample: R130366
Ideal chemistry: NiSO_4_6H_2_O
Locality: Minas Ragra mine, Pasco, Peru
Source: Tom Loomis
Description: Glassy green crystals on patronite, associated with R130365 minasragrite
Raman shift (cm-1)	intensity
134.108	0
137.001	0.059601
139.893	0.074631
142.786	1.41165
145.679	1.88805
148.571	2.14397
151.464	4.43079
154.357	6.60223
157.25	7.26039
160.142	6.6022
163.035	6.0965
165.928	6.59625
168.82	6.3967
171.713	6.08876
174.606	7.00163
177.498	6.78906
180.391	8.51479
183.284	12.7346
186.177	16.1708
189.069	24.8246
191.962	28.7973
194.855	15.8446
197.747	11.8291
200.64	10.7585
203.533	12.4004
206.425	11.9408
209.318	10.3642
212.211	9.67799
215.103	8.3573
217.996	8.2923
220.889	6.27293
223.782	2.27856
226.674	0.028412
229.567	0.20697
232.46	0.557495
235.352	0.390732
238.245	0.089539
241.138	0.160278
244.03	0.480087
246.923	0.532349
249.816	0.451401
252.709	2.02116
255.601	3.21728
258.494	3.73851
261.387	3.66423
264.279	6.75484
267.172	7.72569
270.065	9.16945
272.957	7.99164
275.85	4.98019
278.743	4.27145
281.635	4.89243
284.528	5.43625
287.421	4.71947
290.314	3.69289
293.206	2.95306
296.099	2.0085
298.992	2.38989
301.884	0.394623
304.777	1.14348
307.67	0.506912
310.562	1.36603
313.455	0.051056
316.348	0.349518
319.241	1.05171
322.133	1.83041
325.026	1.77673
327.919	3.22549
330.811	4.69978
333.704	6.74655
336.597	8.85254
339.49	12.4847
342.382	14.9618
345.275	20.4877
348.168	19.7128
351.06	11.4707
353.953	7.02821
356.846	7.33231
359.738	6.59912
362.631	7.16913
365.524	7.65181
368.416	8.45821
371.309	8.561
374.202	7.87242
377.095	7.8508
379.987	6.37938
382.88	5.05798
385.773	3.36733
388.665	3.27861
391.558	1.45694
394.451	2.00157
397.344	0.064545
400.236	1.02426
403.129	0.625824
406.022	1.78113
408.914	2.39778
411.807	3.8472
414.7	4.42151
417.592	5.59152
420.485	6.86665
423.378	6.50156
426.27	6.55711
429.163	5.16855
432.056	5.15686
434.949	4.68164
437.841	3.62248
440.734	3.63901
443.627	2.42665
446.519	3.25264
449.412	2.13635
452.305	3.84413
455.197	2.63586
458.09	3.08519
460.983	4.34967
463.875	2.29486
466.768	3.19447
469.661	2.23892
472.554	1.13786
475.446	1.00256
478.339	0.538773
481.232	0.393936
484.124	0.26091
487.017	0.593582
489.91	0.01355
492.803	0.877975
495.695	0.376129
498.588	0.553726
501.481	0.025848
504.373	1.12743
507.266	0.357452
510.159	0.498474
513.051	0.333069
515.944	0.522217
518.837	1.20877
521.73	0.794235
524.622	1.63736
527.515	2.19181
530.408	2.04553
533.3	2.70242
536.193	2.80363
539.086	3.17437
541.978	2.85651
544.871	2.02767
547.764	1.81303
550.656	1.69522
553.549	1.50516
556.442	1.87914
559.335	2.17529
562.227	0.311607
565.12	1.45219
568.013	1.31341
570.905	2.03609
573.798	1.86272
576.691	3.23676
579.583	3.84673
582.476	2.963
585.369	5.08055
588.261	7.03381
591.154	5.9612
594.047	7.61159
596.94	9.15687
599.832	9.19723
602.725	9.33757
605.618	8.24995
608.51	7.88277
611.403	6.85736
614.296	6.05598
617.188	4.97176
620.081	3.56189
622.974	4.01386
625.867	2.20222
628.759	3.26916
631.652	1.4856
634.545	2.45465
637.437	0.894203
640.33	0.524849
643.223	0.266685
646.115	0.896538
649.008	0.072716
651.901	0.392822
654.794	0.715157
657.686	0.080505
660.579	0.065407
663.472	0.159119
666.364	1.12415
669.257	0.395386
672.15	0.100777
675.043	0.132462
677.935	1.15193
680.828	0.698235
683.721	0.837936
686.613	0.887154
689.506	3.54013
692.399	2.24856
695.291	1.16785
698.184	1.44545
701.077	1.48436
703.97	1.36855
706.862	0.704063
709.755	0.934357
712.648	1.07668
715.54	1.2201
718.433	0.510742
721.326	0.799965
724.218	0.778877
727.111	0.980835
730.004	1.64019
732.896	0.656235
735.789	0.90554
738.682	0.870201
741.574	0.569817
744.467	0.255501
747.36	0.472198
750.253	1.10873
753.145	0.65815
756.038	0.694084
758.931	1.09059
761.823	0.673004
764.716	1.24013
767.609	1.09277
770.501	0.59861
773.394	1.56532
776.287	0.394173
779.18	0.192238
782.072	0.787186
784.965	0.730705
787.858	0.532364
790.75	1.39933
793.643	0.378471
796.536	0.645432
799.428	0.151535
802.321	0.267326
805.214	0.054947
808.107	0.540306
810.999	0.108345
813.892	0.332077
816.785	0.203499
819.677	0.924583
822.57	0.214302
825.463	0.292389
828.356	1.86771
831.248	0.880569
834.141	0.967102
837.034	1.31277
839.926	0.183556
842.819	0.736809
845.712	0.380783
848.604	1.23161
851.497	0.140495
854.39	0.580795
857.283	1.41542
860.175	1.41339
863.068	0.577126
865.961	1.41921
868.853	0.81118
871.746	0.225426
874.639	0.137733
877.531	1.23888
880.424	0.944939
883.317	0.922905
886.209	1.31619
889.102	0.673248
891.995	1.04886
894.888	0.505386
897.78	1.02672
900.673	0.581276
903.566	0.065514
906.458	0.261391
909.351	0.25679
912.244	0.085068
915.136	0.517921
918.029	0.516769
920.922	1.03052
923.814	0.763321
926.707	0.647774
929.6	1.18
932.493	0.987228
935.385	0.468513
938.278	0.417618
941.171	1.12251
944.063	1.12563
946.956	1.17786
949.849	1.11001
952.741	0.296059
955.634	1.34979
958.527	1.64132
961.42	2.37999
964.312	2.70438
967.205	4.16161
970.098	7.17532
972.99	16.0005
975.883	25.3692
978.776	35.796
981.668	59.0698
984.561	108.744
987.454	85.3183
990.347	23.033
993.239	7.77736
996.132	4.38846
999.025	3.39437
1001.92	2.10396
1004.81	1.71704
1007.7	0.488853
1010.6	1.1897
1013.49	0.044357
1016.38	0.09491
1019.27	0.919319
1022.17	0.200508
1025.06	0.251137
1027.95	0.004448
1030.84	0.024277
1033.74	0.473785
1036.63	0.570808
1039.52	0.28257
1042.41	1.5415
1045.31	0.071465
1048.2	0.891953
1051.09	0.120163
1053.99	0.838142
1056.88	0.895691
1059.77	0.862312
1062.66	1.22294
1065.56	1.78358
1068.45	1.94395
1071.34	3.25572
1074.23	4.18019
1077.13	4.19688
1080.02	5.94363
1082.91	5.66367
1085.81	5.33598
1088.7	5.22276
1091.59	4.40479
1094.48	3.23854
1097.38	1.9405
1100.27	1.43613
1103.16	1.32674
1106.05	0.587021
1108.95	0.730835
1111.84	1.08241
1114.73	0.326103
1117.62	0.153206
1120.52	0.7742
1123.41	1.15844
1126.3	1.59777
1129.2	1.39326
1132.09	1.27733
1134.98	0.990456
1137.87	0.943863
1140.77	0.29937
1143.66	0.218536
1146.55	1.03497
1149.44	0.2743
1152.34	0.409546
1155.23	0.402008
1158.12	0.025291
1161.02	1.75371
1163.91	0.534912
1166.8	0.182411
1169.69	0.49823
1172.59	0.421974
1175.48	0.900192
1178.37	1.45637
1181.27	1.39526
1184.16	1.01091
1187.05	0.485115
1189.94	1.07019
1192.84	0.919739
1195.73	2.22041
1198.62	1.13819
1201.51	1.94759
1204.41	0.701447
1207.3	0.555748
1210.19	1.35756
1213.08	0.288673
1215.98	0.447952
1218.87	0.329849
1221.76	0.605942
1224.65	0.116119
1227.55	0.139206
1230.44	0.823563
1233.33	0.552467
1236.23	0.715477
1239.12	1.05459
1242.01	1.1785
1244.9	1.14568
1247.8	1.7826
1250.69	1.07358
1253.58	1.72022
1256.47	0.660828
1259.37	1.6947
1262.26	0.782875
1265.15	0.724205
1268.05	0.392128
1270.94	0.119453
1273.83	0.347
1276.72	0.484138
1279.62	1.09139
1282.51	1.37903
