Measurement: Raman, 780 nm, unoriented, Raman Data Processed
Mineral: Reyerite
Rruff sample: R060490
Ideal chemistry: Na_2_Ca_14_Al_2_Si_22_O_58_(OH)_8_6H_2_O
Locality: Drynoch, Island of Skye, Scotland
Source: Michael Scott
Description: Colorless deformed and contorted plates
Measured chemistry: K_3.27_(Ca_12.73_K_0.78_Na_0.49_)_Σ=14_Al_2.00_Si_22.00_O_58_(OH)_8_·6H_2_O; (OH) estimated by charge balance; H_2_O by difference
Raman shift (cm-1)	intensity
93.4884	0
96.8632	16.6851
100.238	13.6788
103.613	0.513794
106.988	8.849
110.362	18.6773
113.737	26.7325
117.112	14.2477
120.487	0.755981
123.862	6.91211
127.237	2.87671
130.611	6.88904
133.986	0.377441
137.361	2.34534
140.736	13.4565
144.111	14.7734
147.485	14.8491
150.86	3.73975
154.235	13.2354
157.61	17.3866
160.985	24.8582
164.359	35.3452
167.734	41.719
171.109	41.0605
174.484	29.1482
177.859	22.2798
181.234	21.9291
184.608	22.4138
187.983	26.7343
191.358	31.238
194.733	41.6212
198.108	44.269
201.482	48.3633
204.857	54.4333
208.232	49.9404
211.607	40.6979
214.982	20.9816
218.357	10.5347
221.731	4.64697
225.106	0.598633
228.481	0.471375
231.856	0.490356
235.231	4.17352
238.605	1.42346
241.98	3.20905
245.355	8.44452
248.73	14.4306
252.105	15.4144
255.48	22.4659
258.854	31.1956
262.229	43.905
265.604	58.7149
268.979	70.0978
272.354	81.3213
275.728	104.097
279.103	128.318
282.478	146.048
285.853	134.959
289.228	99.5118
292.602	69.3887
295.977	57.3677
299.352	52.1035
302.727	37.2624
306.102	25.3495
309.476	16.1536
312.851	8.05908
316.226	8.73309
319.601	3.19476
322.976	0.533386
326.351	1.69086
329.725	0.431702
333.1	5.9823
336.475	16.3271
339.85	30.7129
343.225	45.0651
346.599	60.0038
349.974	72.2025
353.349	87.7264
356.724	90.9003
360.099	64.3906
363.474	42.564
366.848	28.8547
370.223	22.2035
373.598	16.9533
376.973	17.7688
380.348	14.2204
383.722	11.2963
387.097	10.4135
390.472	10.6787
393.847	10.8094
397.222	16.0836
400.596	15.9587
403.971	11.2954
407.346	6.16705
410.721	0.565308
414.096	1.70361
417.471	3.57849
420.845	0.432007
424.22	0.02301
427.595	4.15271
430.97	5.46185
434.345	9.08935
437.719	10.9586
441.094	11.4277
444.469	18.9691
447.844	20.7087
451.219	26.7731
454.594	24.7639
457.968	23.7504
461.343	30.2076
464.718	31.7266
468.093	34.2807
471.468	35.3
474.842	38.5297
478.217	35.6441
481.592	23.0524
484.967	12.181
488.342	12.0313
491.716	11.9113
495.091	11.9016
498.466	12.218
501.841	8.74658
505.216	7.85382
508.591	3.5871
511.965	2.6059
515.34	3.04285
518.715	2.3786
522.09	1.02966
525.465	4.34265
528.84	11.8362
532.214	22.4416
535.589	31.1705
538.964	26.3908
542.339	14.45
545.713	13.9747
549.088	5.9071
552.463	9.66315
555.838	19.8646
559.213	42.2543
562.588	69.0153
565.962	102.45
569.337	153.961
572.712	196.734
576.087	150.933
579.462	81.2418
582.837	53.1996
586.211	47.8768
589.586	55.7107
592.961	67.1144
596.336	83.2224
599.711	92.0953
603.085	97.6545
606.46	99.0231
609.835	102.041
613.21	107.584
616.585	116.291
619.96	99.9806
623.334	81.2903
626.709	60.3945
630.084	50.303
633.459	43.4485
636.833	39.5148
640.208	30.7825
643.583	18.7781
646.958	10.2424
650.333	5.24085
653.708	2.29004
657.082	3.73169
660.457	3.9801
663.832	0.748535
667.207	0.786499
670.582	1.05926
673.957	1.73022
677.331	0.432007
680.706	1.28882
684.081	0.668274
687.456	2.03638
690.831	3.18958
694.205	5.89868
697.58	4.04645
700.955	11.822
704.33	14.7944
707.705	14.6408
711.079	11.8614
714.454	8.28894
717.829	6.0802
721.204	3.94446
724.579	6.78235
727.953	3.80121
731.328	3.57678
734.703	3.51923
738.078	3.30511
741.453	1.0976
744.828	1.33417
748.202	0.321289
751.577	2.07288
754.952	1.57074
758.327	2.63062
761.702	2.59436
765.077	6.45746
768.451	4.58307
771.826	9.14246
775.201	10.0581
778.576	9.93957
781.951	6.12421
785.325	7.07312
788.7	2.23761
792.075	3.09247
795.45	2.26721
798.825	6.7406
802.199	2.52338
805.574	1.7262
808.949	1.75165
812.324	1.54309
815.699	0.825256
819.073	4.81653
822.448	4.35065
825.823	5.57227
829.198	3.53375
832.573	5.12036
835.948	4.67072
839.322	4.57001
842.697	5.01776
846.072	4.5404
849.447	7.54224
852.822	7.07019
856.197	4.54114
859.571	4.81494
862.946	6.70843
866.321	5.77734
869.696	5.12384
873.071	4.29932
876.445	2.80023
879.82	2.94714
883.195	5.45953
886.57	2.1156
889.945	0.729675
893.319	1.08289
896.694	2.35651
900.069	1.10968
903.444	0.589355
906.819	1.99396
910.193	1.54443
913.568	0.466736
916.943	0.212952
920.318	0.496948
923.693	1.01178
927.068	0.306641
930.442	2.05335
933.817	3.54547
937.192	5.98804
940.567	2.63666
943.942	0.958435
947.317	1.49365
950.691	0.037231
954.066	2.42694
957.441	4.64288
960.816	7.3858
964.191	1.93359
967.565	1.32373
970.94	4.49451
974.315	0.214417
977.69	1.16541
981.065	1.42895
984.439	1.771
987.814	1.96582
991.189	1.06897
994.564	4.47284
997.939	3.75671
1001.31	6.7431
1004.69	10.8505
1008.06	10.5866
1011.44	11.0799
1014.81	18.8119
1018.19	24.189
1021.56	31.6055
1024.94	36.8633
1028.31	40.3478
1031.69	44.7883
1035.06	45.8025
1038.44	48.0579
1041.81	49.5767
1045.19	49.4196
1048.56	51.9167
1051.94	53.8946
1055.31	57.5424
1058.68	53.7451
1062.06	41.0636
1065.43	26.1618
1068.81	16.012
1072.18	9.36691
1075.56	6.27954
1078.93	4.13513
1082.31	3.82452
1085.68	4.86343
1089.06	3.45023
1092.43	3.7735
1095.81	1.13413
1099.18	0.541382
1102.56	1.21957
1105.93	1.18115
1109.31	3.26868
1112.68	1.07614
1116.06	0.001984
1119.43	0.500366
1122.81	5.48108
1126.18	2.59171
1129.56	1.83224
1132.93	3.57715
1136.31	5.13589
1139.68	3.80533
1143.06	1.30246
1146.43	2.96353
1149.81	2.96018
1153.18	5.26978
1156.56	4.07318
1159.93	2.25195
1163.31	2.75134
1166.68	1.77356
1170.05	6.45962
1173.43	3.85361
1176.8	4.3725
1180.18	5.02463
1183.55	2.24149
1186.93	3.13629
1190.3	3.19147
1193.68	0.469452
1197.05	3.047
1200.43	3.15122
1203.8	1.62619
1207.18	1.78061
1210.55	2.99298
1213.93	2.26895
1217.3	0.149048
1220.68	0.352936
1224.05	0.725739
1227.43	3.00925
1230.8	0.767426
1234.18	1.92844
1237.55	2.1871
1240.92	0.705475
1244.3	0.278503
1247.67	2.16318
1251.05	1.64212
1254.42	0.833923
1257.8	2.95233
1261.17	1.14191
1264.55	5.68451
1267.92	2.98776
1271.3	2.12228
1274.67	1.14255
1278.05	1.22717
1281.42	3.14825
1284.8	0
