Measurement: Raman, 532 nm, unoriented, Raman Data Processed
Mineral: Reyerite
Rruff sample: R060490
Ideal chemistry: Na_2_Ca_14_Al_2_Si_22_O_58_(OH)_8_6H_2_O
Locality: Drynoch, Island of Skye, Scotland
Source: Michael Scott
Description: Colorless deformed and contorted plates
Measured chemistry: K_3.27_(Ca_12.73_K_0.78_Na_0.49_)_Σ=14_Al_2.00_Si_22.00_O_58_(OH)_8_·6H_2_O; (OH) estimated by charge balance; H_2_O by difference
Raman shift (cm-1)	intensity
220.356	0
223.248	11.133
226.141	99.861
229.034	130.448
231.926	78.453
234.819	67.145
237.712	121.247
240.605	176.616
243.497	163.935
246.39	98.813
249.283	11.505
252.176	44.002
255.068	28.23
257.961	23.186
260.854	30.73
263.746	88.763
266.639	187.417
269.532	253.873
272.424	352.771
275.317	375.158
278.21	515.204
281.103	575.034
283.995	705.17
286.888	762.522
289.781	827.831
292.673	922.151
295.566	932.62
298.459	704.108
301.351	459.011
304.244	319.257
307.137	237.903
310.03	103.816
312.922	102.027
315.815	87.496
318.708	89.848
321.6	95.427
324.493	105.917
327.386	163.118
330.278	171.517
333.171	224.021
336.064	262.718
338.957	281.038
341.849	290.799
344.742	379.883
347.635	409.905
350.527	442.35
353.42	481.432
356.313	298.47
359.205	207.933
362.098	185.041
364.991	157.202
367.884	121.393
370.776	77.912
373.669	31.467
376.562	75.776
379.454	36.793
382.347	4.896
385.24	4.992
388.132	2.917
391.025	20.476
393.918	18.002
396.81	31.977
399.703	29.436
402.596	131.552
405.489	215.582
408.381	307.333
411.274	439.316
414.167	538.009
417.06	618.322
419.952	631.821
422.845	645.634
425.738	648.429
428.63	545.771
431.523	553.891
434.416	671.323
437.308	755.208
440.201	1026.86
443.094	1165.32
445.987	1098.48
448.879	1031.27
451.772	781.023
454.665	515.736
457.557	193.46
460.45	75.907
463.343	14.636
466.235	40.513
469.128	37.812
472.021	98.102
474.914	101.228
477.806	30.405
480.699	83.011
483.592	14.312
486.484	91.041
489.377	79.509
492.27	156.8
495.162	114.82
498.055	65.048
500.948	126.573
503.841	97.401
506.733	249.837
509.626	325.275
512.519	600.537
515.411	1012.62
518.304	1833.25
521.197	2811.56
524.089	4176.42
526.982	5892.82
529.875	7622.16
532.768	8458.37
535.66	6938.72
538.553	4590.83
541.446	2885.44
544.338	1845.55
547.231	1275.38
550.124	743.599
553.016	631.05
555.909	503.966
558.802	516.108
561.695	600.798
564.587	615.669
567.48	766.627
570.373	840.278
573.265	620.779
576.158	235.424
579.051	113.475
581.943	2.521
584.836	31.617
587.729	45.408
590.622	198.427
593.514	192.99
596.407	222.056
599.3	279.117
602.192	385.25
605.085	420.551
607.978	518.281
610.87	527.495
613.763	559.668
616.656	504.763
619.549	421.078
622.441	321.751
625.334	243.522
628.227	162.507
631.119	184.899
634.012	98.23
636.905	88.987
639.797	70.104
642.69	9.984
645.583	82.803
648.476	61.506
651.368	14.862
654.261	62.424
657.154	39.179
660.046	91.747
662.939	89.13
665.832	64.82
668.724	91.667
671.617	118.023
674.51	77.44
677.403	73.624
680.295	113.468
683.188	181.388
686.081	164.013
688.973	175.827
691.866	222
694.759	213.382
697.652	321.794
700.544	315.37
703.437	374.433
706.33	396.715
709.222	449.493
712.115	515.712
715.008	453.773
717.901	360.334
720.793	241.786
723.686	115.951
726.579	63.248
729.471	81.836
732.364	73.49
735.257	21.707
738.149	66.426
741.042	100.356
743.935	158.94
746.828	223.03
749.72	337.794
752.613	370.517
755.506	341.602
758.398	244.598
761.291	189.899
764.184	104.466
767.076	91.954
769.969	84.607
772.862	76.076
775.755	68.035
778.647	35.136
781.54	66.435
784.433	62.108
787.325	48.694
790.218	48.903
793.111	38.771
796.003	29.89
798.896	85.434
801.789	10.823
804.682	19.249
807.574	14.511
810.467	20.856
813.36	1.053
816.252	40.717
819.145	18.418
822.038	6.947
824.93	22.136
827.823	41.48
830.716	46.989
833.609	60.789
836.501	13.046
839.394	7.372
842.287	65.809
845.179	25.129
848.072	66.772
850.965	3.064
853.857	33.234
856.75	37.743
859.643	43.688
862.536	40.405
865.428	44.991
868.321	84.679
871.214	92.768
874.106	51.199
876.999	68.554
879.892	71.059
882.784	46.411
885.677	2.074
888.57	75.729
891.463	70.716
894.355	91.65
897.248	128.407
900.141	50.55
903.033	125.508
905.926	61.189
908.819	29.558
911.711	23.085
914.604	94.68
917.497	0.794
920.39	104.571
923.282	104.429
926.175	98.863
929.068	190.526
931.96	186.074
934.853	194.492
937.746	219.662
940.638	208.034
943.531	144.464
946.424	18.928
949.317	10.494
952.209	22.122
955.102	5.954
957.995	13.412
960.888	45.094
963.78	69.448
966.673	93.794
969.566	119.49
972.458	184.005
975.351	226.007
978.244	174.339
981.136	104.787
984.029	115.168
986.922	146.88
989.815	191.342
992.707	227.213
995.6	186.399
998.493	195.141
1001.38	140.392
1004.28	187.139
1007.17	137.967
1010.06	167.923
1012.96	204.376
1015.85	227.263
1018.74	295.957
1021.63	246.366
1024.53	466.362
1027.42	523.628
1030.31	565.843
1033.2	724.772
1036.1	791.21
1038.99	868.144
1041.88	1062.94
1044.78	1083.72
1047.67	873.693
1050.56	684.142
1053.45	555.533
1056.35	566.856
1059.24	367.565
1062.13	219.501
1065.03	171.786
1067.92	163.605
1070.81	45.174
1073.7	120.055
1076.6	170.964
1079.49	76.382
1082.38	88.338
1085.27	112.389
1088.17	128.222
1091.06	114.907
1093.95	121.811
1096.84	171.715
1099.74	134.371
1102.63	90.054
1105.52	79.848
1108.41	37.519
1111.31	8.392
1114.2	39.904
1117.09	18.151
1119.99	79.001
1122.88	14.785
1125.77	16.287
1128.66	22.979
1131.56	29.199
1134.45	28.771
1137.34	18.065
1140.23	40.826
1143.13	49.984
1146.02	38.968
1148.91	7.86
1151.81	60.163
1154.7	32.4
1157.59	94.713
1160.48	106.427
1163.38	33.676
1166.27	10.181
1169.16	13.409
1172.06	39.326
1174.95	51.587
1177.84	122.715
1180.73	61.385
1183.62	102.238
1186.52	89.193
1189.41	25.714
1192.3	51.681
1195.2	66.928
1198.09	78.923
1200.98	111.011
1203.87	17.69
1206.77	24.745
1209.66	105.17
1212.55	125.194
1215.44	156.974
1218.34	101.377
1221.23	41.818
1224.12	90.742
1227.02	103.99
1229.91	130.971
1232.8	109.309
1235.69	105.973
1238.59	172.176
1241.48	152.732
1244.37	112.889
1247.27	199.312
1250.16	47.332
1253.05	124.246
1255.94	130.544
1258.84	102.297
1261.73	106.51
1264.62	35.687
1267.51	26.94
1270.41	79.83
1273.3	119.316
1276.19	97.188
1279.09	140.477
1281.98	69.369
1284.87	99.126
1287.76	86.811
1290.66	10.508
1293.55	58.976
1296.44	0.148
