Measurement: Raman, 532 nm, unoriented, Raman Data Processed
Mineral: Reyerite
Rruff sample: R060490
Ideal chemistry: Na_2_Ca_14_Al_2_Si_22_O_58_(OH)_8_6H_2_O
Locality: Drynoch, Island of Skye, Scotland
Source: Michael Scott
Description: Colorless deformed and contorted plates
Measured chemistry: K_3.27_(Ca_12.73_K_0.78_Na_0.49_)_Σ=14_Al_2.00_Si_22.00_O_58_(OH)_8_·6H_2_O; (OH) estimated by charge balance; H_2_O by difference
Raman shift (cm-1)	intensity
90.2653	0
93.6401	48.8033
97.0149	30.1439
100.39	9.17932
103.765	2.45209
107.139	20.7493
110.514	53.0902
113.889	81.7849
117.264	76.3889
120.639	59.5352
124.013	76.4788
127.388	74.8658
130.763	82.7079
134.138	85.4474
137.513	87.8435
140.888	114.54
144.262	112.507
147.637	104.283
151.012	87.3025
154.387	84.6294
157.762	88.4737
161.137	96.6591
164.511	111.517
167.886	118.146
171.261	112.882
174.636	90.3009
178.011	76.5572
181.385	70.3705
184.76	70.3585
188.135	87.6904
191.51	99.8025
194.885	109.1
198.26	127.44
201.634	130.87
205.009	123.803
208.384	103.691
211.759	79.809
215.133	49.1797
218.508	28.7386
221.883	16.8433
225.258	1.89954
228.633	2.55188
232.008	8.71179
235.382	6.42664
238.757	1.97436
242.132	13.2024
245.507	21.7574
248.882	27.7581
252.256	39.1788
255.631	56.7689
259.006	78.7189
262.381	108.06
265.756	137.594
269.131	166.337
272.505	200.948
275.88	254.011
279.255	304.32
282.63	336.837
286.005	296.022
289.38	202.36
292.754	129.99
296.129	98.4055
299.504	74.7567
302.879	54.6444
306.254	34.0449
309.628	30.4409
313.003	17.3505
316.378	13.1491
319.753	0.902954
323.128	2.97766
326.502	4.3833
329.877	4.6405
333.252	16.6783
336.627	44.0894
340.002	77.9834
343.377	116.333
346.751	153.088
350.126	193.383
353.501	223.19
356.876	204.421
360.251	141.269
363.625	87.5365
367	59.0712
370.375	39.707
373.75	31.6777
377.125	30.3346
380.5	30.2213
383.874	25.9109
387.249	22.2163
390.624	22.6726
393.999	28.7728
397.374	35.6093
400.748	33.0558
404.123	31.576
407.498	15.8223
410.873	1.09802
414.248	1.88208
417.623	0.55603
420.997	3.6095
424.372	5.99182
427.747	1.91797
431.122	3.17651
434.497	3.55115
437.872	10.7705
441.246	24.3274
444.621	28.0703
447.996	38.4375
451.371	39.5265
454.745	45.6099
458.12	57.2095
461.495	68.7617
464.87	76.0826
468.245	79.1211
471.62	81.1886
474.994	91.5503
478.369	74.521
481.744	52.7162
485.119	45.656
488.494	36.2304
491.868	37.1019
495.243	32.6246
498.618	27.3466
501.993	22.3678
505.368	19.7819
508.743	3.17261
512.117	3.70544
515.492	9.01843
518.867	10.3851
522.242	2.16846
525.617	12.1559
528.991	27.0516
532.366	51.3781
535.741	50.7235
539.116	44.9279
542.491	26.8771
545.866	23.1121
549.24	24.5422
552.615	40.5981
555.99	80.2008
559.365	152.036
562.74	237.289
566.115	343.636
569.489	465.777
572.864	499.071
576.239	356.231
579.614	204.645
582.989	154.24
586.363	163.293
589.738	194.155
593.113	229.362
596.488	249.576
599.863	274.618
603.237	284.46
606.612	296.496
609.987	313.846
613.362	333.22
616.737	329.6
620.112	282.272
623.486	221.624
626.861	176.482
630.236	149.52
633.611	133.899
636.986	115.661
640.361	85.7777
643.735	58.4402
647.11	36.8137
650.485	28.2787
653.86	19.373
657.235	11.6378
660.609	6.74353
663.984	4.17029
667.359	2.04834
670.734	0.859009
674.109	5.30188
677.484	7.76172
680.858	3.00122
684.233	2.55737
687.608	1.35864
690.983	11.6352
694.357	17.925
697.732	22.7971
701.107	39.1981
704.482	47.3823
707.857	40.0612
711.232	23.5918
714.606	21.2645
717.981	11.1644
721.356	12.4988
724.731	14.3848
728.106	15.5079
731.481	9.94434
734.855	9.56177
738.23	7.32495
741.605	3.42493
744.98	5.0564
748.355	12.3561
751.729	14.4183
755.104	14.8932
758.479	16.8314
761.854	20.265
765.229	26.3114
768.604	37.3208
771.978	45.0468
775.353	46.1593
778.728	38.3981
782.103	29.8982
785.478	18.0041
788.852	9.66602
792.227	11.3616
795.602	2.26147
798.977	0.374512
802.352	1.46558
805.726	1.10889
809.101	3.45508
812.476	0.814697
815.851	3.84228
819.226	9.68286
822.601	10.6748
825.975	4.57422
829.35	7.60132
832.725	3.72144
836.1	4.15674
839.475	8.28784
842.85	7.84692
846.224	13.8665
849.599	7.13354
852.974	11.7729
856.349	14.8882
859.724	16.8254
863.098	16.6963
866.473	10.8052
869.848	13.9258
873.223	12.8042
876.598	10.3059
879.972	5.86231
883.347	2.74731
886.722	0.407959
890.097	5.21436
893.472	7.37305
896.847	6.2771
900.221	3.15967
903.596	3.07983
906.971	0.189453
910.346	1.7959
913.721	3.06714
917.096	0.89502
920.47	1.10449
923.845	5.71997
927.22	1.36475
930.595	2.55762
933.97	4.98144
937.344	3.04199
940.719	3.27026
944.094	7.04321
947.469	5.98926
950.844	4.6665
954.218	0.900146
957.593	6.5166
960.968	0.837646
964.343	8.35913
967.718	11.4336
971.092	9.77759
974.467	4.54321
977.842	5.04443
981.217	11.8401
984.592	14.031
987.967	7.56152
991.341	16.97
994.716	16.5283
998.091	21.5681
1001.47	28.6631
1004.84	30.7559
1008.22	41.2861
1011.59	59.8289
1014.97	79.4998
1018.34	94.9177
1021.72	120.199
1025.09	147.085
1028.46	167.341
1031.84	165.058
1035.21	178.086
1038.59	186.6
1041.96	192.816
1045.34	203.312
1048.71	202.254
1052.09	209.576
1055.46	213.763
1058.84	180.105
1062.21	124.481
1065.59	76.2742
1068.96	44.6306
1072.34	25.7246
1075.71	13.0981
1079.09	6.44653
1082.46	4.97119
1085.84	2.46313
1089.21	3.53223
1092.59	3.03198
1095.96	3.76562
1099.34	1.0835
1102.71	2.44702
1106.09	0.708496
1109.46	5.61035
1112.84	5.16333
1116.21	3.80908
1119.58	6.4519
1122.96	8.48779
1126.33	7.38647
1129.71	4.08765
1133.08	1.7793
1136.46	0.745605
1139.83	7.83789
1143.21	3.74902
1146.58	1.15186
1149.96	0.420654
1153.33	11.2471
1156.71	14.4998
1160.08	12.6565
1163.46	5.78418
1166.83	11.6977
1170.21	4.49707
1173.58	13.8535
1176.96	10.635
1180.33	11.6174
1183.71	8.12573
1187.08	11.2581
1190.46	3.875
1193.83	7.10962
1197.2	7.64136
1200.58	2.62353
1203.95	2.56007
1207.33	9.17529
1210.7	9.13159
1214.08	5.95557
1217.45	6.25537
1220.83	5.97729
1224.2	4.4834
1227.58	2.61231
1230.95	0.824219
1234.33	2.3269
1237.7	0.718994
1241.08	4.18066
1244.45	0.436523
1247.83	9.08594
1251.2	13.3726
1254.58	14.3411
1257.95	11.761
1261.33	7.70264
1264.7	9.19409
1268.08	5.03027
1271.45	5.94336
1274.83	2.92236
1278.2	3.60278
1281.58	6.7981
1284.95	5.92603
1288.33	4.42505
1291.7	1.63135
1295.08	8.66065
1298.45	5.71973
1301.83	0
