Measurement: Raman, 532 nm, unoriented, Raman Data Processed
Mineral: Reyerite
Rruff sample: R060490
Ideal chemistry: Na_2_Ca_14_Al_2_Si_22_O_58_(OH)_8_6H_2_O
Locality: Drynoch, Island of Skye, Scotland
Source: Michael Scott
Description: Colorless deformed and contorted plates
Measured chemistry: K_3.27_(Ca_12.73_K_0.78_Na_0.49_)_Σ=14_Al_2.00_Si_22.00_O_58_(OH)_8_·6H_2_O; (OH) estimated by charge balance; H_2_O by difference
Raman shift (cm-1)	intensity
150.931	0
153.824	45.563
156.716	116.063
159.609	222.592
162.502	545.638
165.394	741.315
168.287	901.382
171.18	622.512
174.072	252.822
176.965	115.959
179.858	269.932
182.751	537.135
185.643	925.67
188.536	1266.35
191.429	1808.3
194.321	2318.99
197.214	2534.16
200.107	2657.94
202.999	2577.32
205.892	2400.42
208.785	2108.4
211.678	1709.07
214.57	1299.65
217.463	1000.66
220.356	704.719
223.248	402.186
226.141	128.46
229.034	113.884
231.926	154.597
234.819	84.027
237.712	9.534
240.605	132.892
243.497	299.904
246.39	476.484
249.283	591.609
252.176	624.946
255.068	671.656
257.961	900.682
260.854	1261.22
263.746	1727.14
266.639	2231.46
269.532	2625.93
272.424	3428.65
275.317	4109.91
278.21	4770.48
281.103	5393.93
283.995	5332.15
286.888	3917.82
289.781	2563.89
292.673	2142.94
295.566	2301.95
298.459	2253.09
301.351	1560.17
304.244	1083.42
307.137	1010.85
310.03	853.631
312.922	708.05
315.815	467.986
318.708	135.104
321.6	90.275
324.493	4.25
327.386	22.983
330.278	94.665
333.171	157.687
336.064	449.776
338.957	816.814
341.849	1286.14
344.742	1610.77
347.635	2088.99
350.527	2857.83
353.42	3217.42
356.313	2403.82
359.205	1301.29
362.098	758.295
364.991	494.397
367.884	368.982
370.776	345.958
373.669	468.774
376.562	569.692
379.454	549.044
382.347	526.282
385.24	478.408
388.132	537.41
391.025	796.824
393.918	1070.8
396.81	1316.95
399.703	1660.38
402.596	1706.31
405.489	1153.54
408.381	548.227
411.274	222.36
414.167	33.56
417.06	23.422
419.952	88.178
422.845	49.822
425.738	16.275
428.63	60.331
431.523	99.188
434.416	162.296
437.308	255.915
440.201	439.384
443.094	728.837
445.987	1100.54
448.879	1432.99
451.772	1720.96
454.665	1548.06
457.557	1423.42
460.45	1239.34
463.343	1247.81
466.235	1373.88
469.128	1585.33
472.021	1924.12
474.914	2092.98
477.806	1725.34
480.699	1188.98
483.592	897.487
486.484	886.193
489.377	1061.84
492.27	1210.43
495.162	1352.82
498.055	1532.03
500.948	1653.92
503.841	1364.27
506.733	949.561
509.626	549.28
512.519	255.557
515.411	181.293
518.304	38.909
521.197	25.885
524.089	45.577
526.982	67.853
529.875	20.755
532.768	73.225
535.66	22.458
538.553	7.186
541.446	47.436
544.338	233.921
547.231	462.233
550.124	808.937
553.016	1332.64
555.909	2228.28
558.802	3666.44
561.695	5519.24
564.587	8480.94
567.48	12336.8
570.373	14713.2
573.265	11777.6
576.158	7162.37
579.051	4563.25
581.943	3488.41
584.836	3077.64
587.729	2876.16
590.622	2772.26
593.514	2946.1
596.407	3315.57
599.3	3917.13
602.192	4713.46
605.085	5995.77
607.978	6922.9
610.87	7936.95
613.763	8487.52
616.656	7782.81
619.549	6243.67
622.441	4733.92
625.334	3593.16
628.227	2903.69
631.119	2622.3
634.012	2265.71
636.905	1641.63
639.797	1043.26
642.69	632.748
645.583	516.691
648.476	407.486
651.368	385.877
654.261	409.571
657.154	450.867
660.046	293.557
662.939	133.107
665.832	93.598
668.724	55.305
671.617	18.882
674.51	15.989
677.403	54.946
680.295	71.675
683.188	69.636
686.081	20.16
688.973	36.049
691.866	102.326
694.759	219.567
697.652	410.875
700.544	568.858
703.437	661.936
706.33	473.876
709.222	225.387
712.115	140.28
715.008	29.467
717.901	33.498
720.793	25.455
723.686	76.474
726.579	111.29
729.471	143.313
732.364	154.152
735.257	45.425
738.149	6.214
741.042	7.991
743.935	41.62
746.828	20.274
749.72	82.496
752.613	73.845
755.506	177.631
758.398	235.977
761.291	288.454
764.184	331.468
767.076	501.464
769.969	613.151
772.862	713.138
775.755	664.996
778.647	481.763
781.54	374.217
784.433	266.119
787.325	153.574
790.218	170.666
793.111	140.79
796.003	181.587
798.896	112.006
801.789	43.385
804.682	33.613
807.574	64.58
810.467	17.536
813.36	5.144
816.252	57.339
819.145	43.35
822.038	7.715
824.93	8.171
827.823	32.145
830.716	140.956
833.609	94.476
836.501	12.663
839.394	73.964
842.287	41.298
845.179	77.747
848.072	85.385
850.965	9.545
853.857	17.568
856.75	89.81
859.643	31.528
862.536	95.094
865.428	49.525
868.321	15.504
871.214	103.054
874.106	30.286
876.999	99.708
879.892	0.388
882.784	1.514
885.677	16.946
888.57	57.524
891.463	50.857
894.355	95.738
897.248	177.987
900.141	114.49
903.033	89.318
905.926	95.059
908.819	30.139
911.711	102.886
914.604	172.619
917.497	190.452
920.39	256.817
923.282	271.735
926.175	274.106
929.068	240.4
931.96	209.386
934.853	166.923
937.746	113.453
940.638	51.006
943.531	68.614
946.424	57.375
949.317	61.804
952.209	43.764
955.102	60.579
957.995	36.276
960.888	48.784
963.78	103.719
966.673	87.312
969.566	160.794
972.458	129.52
975.351	100.056
978.244	159.816
981.136	182.089
984.029	254.985
986.922	303.041
989.815	329.03
992.707	408.516
995.6	499.156
998.493	624.039
1001.38	823.762
1004.28	980.741
1007.17	1278.93
1010.06	1653.65
1012.96	2250.01
1015.85	2925.21
1018.74	3900.72
1021.63	5090.56
1024.53	5775.5
1027.42	5699.52
1030.31	5292.77
1033.2	4700.3
1036.1	4245.79
1038.99	3451.58
1041.88	3163.04
1044.78	3050.86
1047.67	3329.49
1050.56	4194.52
1053.45	5650.02
1056.35	5238.26
1059.24	2989.18
1062.13	1812.91
1065.03	961.42
1067.92	598.022
1070.81	311.28
1073.7	145.838
1076.6	90.181
1079.49	16.015
1082.38	110.523
1085.27	29.06
1088.17	28.28
1091.06	22.686
1093.95	11.699
1096.84	18.794
1099.74	41.354
1102.63	121.215
1105.52	116.474
1108.41	166.96
1111.31	202.35
1114.2	199.558
1117.09	262
1119.99	196.445
1122.88	334.306
1125.77	306.106
1128.66	397.767
1131.56	246.05
1134.45	206.238
1137.34	122.969
1140.23	191.414
1143.13	67.609
1146.02	127.611
1148.91	128.529
1151.81	181.943
1154.7	246.268
1157.59	263.882
1160.48	274.293
1163.38	223.471
1166.27	116.887
1169.16	165.297
1172.06	188.702
1174.95	218.988
1177.84	155.884
1180.73	210.806
1183.62	195.488
1186.52	146.172
1189.41	129.019
1192.3	50.876
1195.2	19.273
1198.09	10.367
1200.98	30.078
1203.87	19.669
1206.77	30.557
1209.66	19.037
1212.55	26.69
1215.44	68.945
1218.34	40.555
1221.23	53.364
1224.12	19.421
1227.02	60.438
1229.91	81.26
1232.8	59.74
1235.69	42.387
1238.59	125.474
1241.48	123.056
1244.37	99.513
1247.27	108.429
1250.16	23.789
1253.05	70.959
1255.94	41.086
1258.84	127.307
1261.73	91.661
1264.62	21.898
1267.51	7.919
1270.41	36.066
1273.3	106.923
1276.19	14.664
1279.09	53.921
1281.98	41.324
1284.87	78.139
1287.76	96.534
1290.66	75.478
1293.55	22.787
