Measurement: Raman, 532 nm, unoriented, Raman Data Processed
Mineral: Rhodonite
Rruff sample: R100038
Ideal chemistry: Mn^2+^SiO_3_
Locality: Langban, Filipstad, Varmland, Sweden
Source: William W Pinch
Description: Pale red, tabular to blocky crystals associated with black langbanite R100037
Raman shift (cm-1)	intensity
90.9743	0
94.3491	0.935612
97.7239	4.23093
101.099	8.08858
104.474	9.8785
107.848	14.594
111.223	21.2577
114.598	22.3998
117.973	16.2329
121.348	8.9451
124.722	4.02328
128.097	1.09428
131.472	3.61142
134.847	0.587357
138.222	9.15353
141.597	19.8102
144.971	24.6607
148.346	37.6332
151.721	63.4871
155.096	79.1953
158.471	93.0521
161.845	104.283
165.22	111.3
168.595	107.608
171.97	101.675
175.345	87.8885
178.72	77.0937
182.094	73.472
185.469	62.5698
188.844	52.7847
192.219	46.5076
195.594	42.0725
198.968	39.4639
202.343	39.6905
205.718	41.5063
209.093	39.4626
212.468	42.4441
215.843	36.9338
219.217	29.3147
222.592	25.3437
225.967	22.2682
229.342	22.1496
232.717	23.63
236.091	23.3523
239.466	28.94
242.841	29.2519
246.216	35.5241
249.591	40.6963
252.965	44.1428
256.34	41.5179
259.715	47.6027
263.09	48.3362
266.465	40.4283
269.84	23.1539
273.214	10.6434
276.589	7.92136
279.964	1.81222
283.339	2.7243
286.714	4.19104
290.089	2.52255
293.463	0.034363
296.838	6.25745
300.213	10.1817
303.588	13.9254
306.963	11.6805
310.337	11.0881
313.712	11.1242
317.087	15.2328
320.462	29.2172
323.837	43.1686
327.212	48.0179
330.586	50.3279
333.961	54.884
337.336	57.7099
340.711	44.3445
344.086	34.8462
347.46	26.7819
350.835	21.9496
354.21	14.0054
357.585	7.43228
360.96	10.5818
364.334	8.26556
367.709	4.04959
371.084	1.50116
374.459	0.375549
377.834	1.14712
381.209	0.131989
384.583	7.15808
387.958	13.8321
391.333	12.2333
394.708	5.52701
398.083	1.27127
401.457	0.277069
404.832	7.56189
408.207	17.5447
411.582	29.6023
414.957	40.6399
418.332	50.1361
421.706	52.4439
425.081	37.3073
428.456	17.5117
431.831	7.01895
435.206	8.60464
438.58	5.40832
441.955	1.99985
445.33	1.3147
448.705	2.58536
452.08	1.62088
455.454	3.07617
458.829	5.36972
462.204	2.7056
465.579	1.98749
468.954	3.18021
472.329	0.805878
475.703	7.52862
479.078	2.51474
482.453	0.944977
485.828	3.24124
489.203	6.17734
492.577	9.89154
495.952	14.6212
499.327	18.6393
502.702	19.016
506.077	22.841
509.452	24.3274
512.826	26.6075
516.201	17.4019
519.576	7.63721
522.951	2.72687
526.326	2.48792
529.701	3.04163
533.075	0.332031
536.45	1.81335
539.825	6.3606
543.2	7.72443
546.575	13.0739
549.949	15.0898
553.324	17.9365
556.699	23.9797
560.074	24.226
563.449	19.2316
566.823	13.213
570.198	19.9509
573.573	16.1926
576.948	14.1478
580.323	6.59039
583.697	7.84644
587.072	5.45691
590.447	5.70911
593.822	1.83752
597.197	1.3045
600.572	2.28931
603.946	0.498901
607.321	2.82129
610.696	3.33179
614.071	1.13245
617.446	4.052
620.821	0.943909
624.195	4.96088
627.57	2.65607
630.945	5.82611
634.32	11.1585
637.695	16.1927
641.069	21.813
644.444	36.9668
647.819	65.1392
651.194	116.097
654.569	199.322
657.943	299.676
661.318	411.567
664.693	511.622
668.068	568.569
671.443	498.047
674.818	327.606
678.192	205.163
681.567	142.658
684.942	82.2419
688.317	43.9449
691.692	21.3734
695.067	14.1638
698.441	7.27527
701.816	9.69507
705.191	6.97351
708.566	16.7089
711.941	19.2539
715.315	19.6013
718.69	15.2205
722.065	7.51502
725.44	5.63513
728.815	4.4447
732.189	2.33972
735.564	8.10925
738.939	4.76013
742.314	1.88892
745.689	3.38269
749.063	2.10632
752.438	0.351563
755.813	1.35742
759.188	1.76636
762.563	0.698242
765.938	3.79285
769.312	5.7948
772.687	2.0918
776.062	6.86621
779.437	7.56726
782.812	7.79468
786.187	7.21082
789.561	12.5264
792.936	12.4094
796.311	6.93835
799.686	9.2456
803.061	11.6145
806.435	10.1339
809.81	8.73486
813.185	9.17432
816.56	10.7111
819.935	7.76025
823.309	11.5463
826.684	4.36865
830.059	1.96777
833.434	8.38318
836.809	7.3197
840.184	2.82605
843.558	0.09082
846.933	6.54419
850.308	0.347534
853.683	2.26294
857.058	2.38831
860.433	5.00793
863.807	7.83264
867.182	7.55908
870.557	18.2903
873.932	29.1717
877.307	34.7556
880.681	26.2734
884.056	17.2888
887.431	11.5471
890.806	11.3137
894.181	13.155
897.556	15.939
900.93	16.9026
904.305	11.6118
907.68	9.72656
911.055	10.0691
914.43	8.31592
917.804	8.3938
921.179	4.521
924.554	1.36597
927.929	3.4021
931.304	4.61206
934.678	11.0637
938.053	20.9985
941.428	18.9829
944.803	6.49512
948.178	1.62988
951.553	5.646
954.927	1.96167
958.302	15.6348
961.677	33.3752
965.052	68.394
968.427	131.219
971.802	213.442
975.176	278.17
978.551	247.964
981.926	192.274
985.301	182.851
988.676	211.938
992.05	234.225
995.425	221.227
998.8	257.7
1002.17	271.962
1005.55	223.913
1008.92	160.283
1012.3	107.649
1015.67	61.6499
1019.05	41.7532
1022.42	27.2905
1025.8	17.1851
1029.17	28.1453
1032.55	25.9683
1035.92	40.5855
1039.3	30.7566
1042.67	31.9021
1046.05	37.1379
1049.42	34.4993
1052.8	31.5828
1056.17	30.583
1059.55	13.9055
1062.92	1.93262
1066.3	1.2395
1069.67	9.58252
1073.05	7.53491
1076.42	12.5562
1079.8	12.4829
1083.17	16.4531
1086.55	15.5532
1089.92	13.5542
1093.3	21.7129
1096.67	11.2524
1100.04	16.4458
1103.42	14.0757
1106.79	34.4985
1110.17	29.4424
1113.54	24.2261
1116.92	26.7119
1120.29	25.9888
1123.67	24.5459
1127.04	16.3242
1130.42	18.3447
1133.79	20.1328
1137.17	14.0381
1140.54	16.1689
1143.92	16.9307
1147.29	11.7798
1150.67	17.7979
1154.04	34.8159
1157.42	27.4097
1160.79	23.7441
1164.17	7.52051
1167.54	18.9233
1170.92	19.9756
1174.29	15.8354
1177.66	5.24316
1181.04	9.94336
1184.41	17.8227
1187.79	17.3457
1191.16	7.67969
1194.54	18.5322
1197.91	35.125
1201.29	27.2632
1204.66	21.1455
1208.04	20.7095
1211.41	38.8164
1214.79	40.104
1218.16	20.6641
1221.54	13.9575
1224.91	10.6289
1228.29	16.0781
1231.66	27.5234
1235.04	18.9575
1238.41	16.4106
1241.79	3.12109
1245.16	9.20508
1248.54	29.2959
1251.91	48.2124
1255.29	31.9297
1258.66	36.102
1262.04	39.4834
1265.41	38.2661
1268.79	58.2759
1272.16	46.9717
1275.54	18.063
1278.91	9.58545
1282.29	14.7158
1285.66	6.97461
1289.03	3.19141
1292.41	4.30859
1295.78	38.2188
1299.16	47.2295
1302.53	17.2363
