Measurement: Raman, 780 nm, unoriented, Raman Data Processed
Mineral: Rhodizite
Rruff sample: R050099
Ideal chemistry: KAl_4_Be_5_B_11_O_28_
Locality: Mont Ibity, Antsirabe, Madagascar
Source: Rock Currier
Description: Pale green single crystals
Measured chemistry: ([box]_0.49_K_0.32_Rb_0.17_Na_0.02_)(Al_3.96_Si_0.04_)_Σ=4_Be_4.00_(B_11.45_Be_0.55_)_Σ=12_O_28_
Raman shift (cm-1)	intensity
303.21	40.2461
306.103	116.379
308.995	24.0703
311.888	22.1484
314.781	63.1914
317.673	15.6445
320.566	43.7969
323.459	132.606
326.351	51.2148
329.244	78.8438
332.137	14.0234
335.03	20.1758
337.922	115.697
340.815	22.7793
343.708	51.0078
346.6	109.934
349.493	129.018
352.386	132.773
355.279	240.342
358.171	134.432
361.064	170.988
363.957	84.709
366.849	199.799
369.742	127.436
372.635	49.4805
375.527	10.1465
378.42	174.103
381.313	80.9824
384.205	127.611
387.098	104.32
389.991	86.291
392.884	11.3496
395.776	94.4102
398.669	13.248
401.562	121.898
404.454	58.8027
407.347	219.875
410.24	124.984
413.132	200.738
416.025	209.865
418.918	25.8516
421.811	197.471
424.703	203.904
427.596	210.56
430.489	255.412
433.381	299.947
436.274	239.143
439.167	181.342
442.06	177.592
444.952	200.014
447.845	304.359
450.738	178.106
453.63	112.283
456.523	112.768
459.416	106.297
462.308	108.689
465.201	193.816
468.094	184.514
470.986	163.156
473.879	151.207
476.772	211.59
479.665	71.084
482.557	154.367
485.45	60.9551
488.343	63.9824
491.235	53.6523
494.128	66.9492
497.021	89.5606
499.913	214.488
502.806	169.006
505.699	100.768
508.592	57.8867
511.484	53.0527
514.377	175.815
517.27	89.1621
520.162	77.5391
523.055	45.6426
525.948	98.125
528.841	97.7197
531.733	50.5147
534.626	99.9522
537.519	80.3789
540.411	63.5078
543.304	54.5996
546.197	43.4228
549.089	13.8105
551.982	95.2773
554.875	8.84277
557.768	103.551
560.66	5.09766
563.553	41.9639
566.446	163.715
569.338	11.0303
572.231	15.1846
575.124	73.7481
578.016	27.5264
580.909	49.7949
583.802	92.7812
586.694	76.3047
589.587	101.895
592.48	129.591
595.373	152.053
598.265	36.6367
601.158	129.799
604.051	76.8154
606.943	141.761
609.836	69.7305
612.729	152.69
615.621	133.343
618.514	96.1582
621.407	95.8818
624.3	91.0391
627.192	113.867
630.085	59.3262
632.978	102.849
635.87	77.7109
638.763	49.1152
641.656	53.9228
644.548	110.79
647.441	25.124
650.334	98.1231
653.227	101.443
656.119	41.71
659.012	100.68
661.905	25.5928
664.797	16.418
667.69	85.6103
670.583	51.3799
673.476	79.7422
676.368	49.3682
679.261	61.6397
682.154	39.3154
685.046	50.084
687.939	3.83301
690.832	79.4981
693.724	86.6035
696.617	94.0068
699.51	28.6934
702.403	120.178
705.295	104.429
708.188	141.361
711.081	107.905
713.973	23.1104
716.866	39.6318
719.759	65.1836
722.651	12.1299
725.544	3.78027
728.437	103.826
731.33	101.144
734.222	39.1982
737.115	85.459
740.008	29.9209
742.9	56.5225
745.793	40.8574
748.686	145.356
751.578	41.5225
754.471	46.4834
757.364	79.4482
760.256	37.415
763.149	19.4502
766.042	5.67773
768.935	22.1748
771.827	100.012
774.72	30.4854
777.613	40.3359
780.505	15.9258
783.398	3.9707
786.291	5.46875
789.183	41.5908
792.076	71.0566
794.969	93.1348
797.862	48.6426
800.754	3.04492
803.647	35.2627
806.54	23.4688
809.432	110.044
812.325	74.7188
815.218	105.086
818.111	91.3779
821.003	38.248
823.896	10.8574
826.789	46.915
829.681	36.2637
832.574	105.244
835.467	12.6123
838.359	43.5601
841.252	80.3462
844.145	23.228
847.037	86.9614
849.93	14.0845
852.823	93.8066
855.716	48.7085
858.608	76.2344
861.501	9.07617
864.394	8.2373
867.286	3.84522
870.179	29.5972
873.072	64.978
875.964	25.146
878.857	51.2515
881.75	69.7769
884.643	65.8379
887.535	2.94678
890.428	93.3369
893.321	23.0083
896.213	36.2769
899.106	55.353
901.999	14.8018
904.891	60.8945
907.784	22.6763
910.677	36.3286
913.569	99.2378
916.462	69.8657
919.355	11.9683
922.248	76.4253
925.14	5.65137
928.033	112.637
930.926	46.9634
933.818	36.3174
936.711	62.3921
939.604	25.3838
942.496	87.7607
945.389	29.7598
948.282	21.4009
951.175	60.3843
954.067	113.682
956.96	84.0361
959.853	55.3838
962.745	31.5132
965.638	75.9722
968.531	95.688
971.423	43.0947
974.316	62.4253
977.209	12.9736
980.102	9.97217
982.994	33.0049
985.887	0.651855
988.78	82.7915
991.672	7.87012
994.565	30.7188
997.458	51.8379
1000.35	91.4189
1003.24	113.749
1006.14	9.59229
1009.03	60.6763
1011.92	37.2207
1014.81	76.2217
1017.71	22.4824
1020.6	75.2666
1023.49	31.3662
1026.38	100.446
1029.28	66.0557
1032.17	56.2412
1035.06	102.99
1037.96	115.303
1040.85	36.916
1043.74	132.087
1046.63	83.1274
1049.53	72.5532
1052.42	60.6582
1055.31	23.4922
1058.2	26.542
1061.1	7.19092
1063.99	84.9966
1066.88	40.9346
1069.78	71.5688
1072.67	59.0537
1075.56	23.4785
1078.45	131.418
1081.35	42.1675
1084.24	44.4932
1087.13	16.0981
1090.02	54.1792
1092.92	40.5312
1095.81	4.63135
1098.7	43.1196
1101.6	23.1104
1104.49	58.2905
1107.38	40.7324
1110.27	3.31055
1113.17	29.8945
1116.06	19.7622
1118.95	48.1685
1121.84	17.0703
1124.74	30.8491
1127.63	37.27
1130.52	41.8105
1133.41	6.25146
1136.31	5.01904
1139.2	50.0059
1142.09	77.9805
1144.98	46.4629
1147.88	94.0547
1150.77	65.9619
1153.66	60.2334
1156.56	91.1753
1159.45	88.2285
1162.34	46.8975
1165.23	78.9048
1168.13	28.521
1171.02	96.4731
1173.91	127.488
1176.81	71.3613
1179.7	52.1016
1182.59	90.1831
1185.48	95.0552
1188.38	76.1826
1191.27	84.146
1194.16	95.8345
1197.05	65.4048
1199.95	75.2705
1202.84	32.0513
1205.73	34.0464
1208.62	35.0566
1211.52	1.35254
1214.41	41.8838
1217.3	38.4126
1220.2	37.2671
1223.09	41.2959
1225.98	3.11426
1228.87	42.7178
1231.77	34.2139
1234.66	30.623
1237.55	26.9087
1240.44	8.00195
1243.34	54.791
1246.23	25.8101
1249.12	31.3984
1252.02	35.8135
1254.91	10.8335
1257.8	20.355
1260.69	16.1001
1263.59	38.3935
1266.48	65.9146
1269.37	71.5669
