Measurement: Raman, 532 nm, unoriented, Raman Data Processed
Mineral: Rhodochrosite
Rruff sample: R040133
Ideal chemistry: MnCO_3_
Locality: Imuris, Sonora, Mexico
Source: University of Arizona Mineral Museum
Description: Pink cleavage fragment
Measured chemistry: (Mn_0.92_Mg_0.02_Ca_0.01_)C_1.02_O_3_
Raman shift (cm-1)	intensity
164.607	0
167.5	45.7208
170.393	245.092
173.286	514.333
176.178	987.481
179.071	1786.49
181.964	3043.3
184.856	3500.64
187.749	1501.3
190.642	535.44
193.535	261.527
196.427	144.836
199.32	76.5307
202.213	36.5105
205.105	17.6615
207.998	9.84738
210.891	2.05142
213.783	3.63916
216.676	22.3583
219.569	13.0004
222.462	9.56342
225.354	14.1966
228.247	1.47812
231.14	10.0098
234.032	25.4783
236.925	34.8873
239.818	44.0029
242.71	69.7618
245.603	85.2052
248.496	109.79
251.388	142.884
254.281	178.997
257.174	232.124
260.067	298.616
262.959	451.739
265.852	641.462
268.745	1006.75
271.637	1696.12
274.53	2839.17
277.423	4396.15
280.315	6448.91
283.208	9326.67
286.101	12406.1
288.994	13904.6
291.886	10846
294.779	6281.29
297.672	3465.47
300.564	2068.35
303.457	1343.02
306.35	958.98
309.243	706.788
312.135	563.319
315.028	444.589
317.921	360.184
320.813	308.731
323.706	253.811
326.599	202.793
329.491	180.696
332.384	145.317
335.277	121.715
338.17	93.0975
341.062	75.0817
343.955	57.1615
346.848	14.8371
349.74	25.6465
352.633	23.2275
355.526	11.0785
358.418	20.6778
361.311	8.69179
364.204	8.27188
367.097	3.99806
369.989	0.308365
372.882	3.4332
375.775	0.087921
378.667	2.44284
381.56	4.94533
384.453	10.8223
387.346	0.344696
390.238	0.073456
393.131	3.02998
396.024	9.28642
398.916	11.6837
401.809	8.65343
404.702	15.125
407.594	3.11282
410.487	18.5333
413.38	0.738953
416.272	9.33414
419.165	13.1103
422.058	12.8663
424.951	17.8835
427.843	14.6455
430.736	10.5791
433.629	12.1143
436.521	19.9082
439.414	10.1064
442.307	14.0408
445.2	8.18614
448.092	8.63084
450.985	14.1063
453.878	19.1795
456.77	17.3135
459.663	13.2903
462.556	11.1283
465.448	10.4511
468.341	17.7424
471.234	10.1631
474.127	0.021439
477.019	5.59825
479.912	15.7815
482.805	17.4513
485.697	13.0539
488.59	16.8897
491.483	4.23747
494.375	18.2826
497.268	10.1868
500.161	9.01309
503.053	13.9348
505.946	15.042
508.839	15.7988
511.732	6.31654
514.624	10.5875
517.517	16.7771
520.41	11.637
523.302	13.0285
526.195	3.27284
529.088	8.60901
531.981	4.72673
534.873	8.45067
537.766	4.60735
540.659	13.5875
543.551	5.06491
546.444	5.75971
549.337	6.89278
552.229	5.58993
555.122	0.804276
558.015	6.9156
560.908	4.44101
563.8	14.4098
566.693	3.84927
569.586	9.57698
572.478	10.7534
575.371	13.098
578.264	11.5616
581.156	5.75633
584.049	4.41464
586.942	17.3171
589.835	2.76674
592.727	10.1363
595.62	0.820984
598.513	3.10452
601.405	0.398422
604.298	2.84258
607.191	8.77391
610.083	1.95548
612.976	4.08589
615.869	6.6471
618.762	0.37944
621.654	2.49239
624.547	17.9595
627.44	6.48611
630.332	5.12402
633.225	5.49387
636.118	6.41901
639.01	4.56984
641.903	3.59149
644.796	1.50615
647.689	2.22957
650.581	0.250031
653.474	1.18092
656.367	0.225891
659.259	11.6741
662.152	5.71056
665.045	3.79114
667.938	2.56546
670.83	3.06216
673.723	4.8116
676.616	5.31476
679.508	9.3918
682.401	5.81029
685.294	7.71097
688.186	12.1799
691.079	19.1019
693.972	53.6089
696.865	78.4698
699.757	144.073
702.65	255.575
705.543	699.881
708.435	1726.66
711.328	2476.71
714.221	3327.06
717.113	4901.38
720.006	3961.37
722.899	1231.95
725.792	511.822
728.684	240.488
731.577	127.018
734.47	79.1712
737.362	45.5103
740.255	37.2438
743.148	41.3807
746.04	19.618
748.933	16.0268
751.826	24.8133
754.719	15.482
757.611	2.47937
760.504	15.0793
763.397	4.20807
766.289	8.66411
769.182	7.13502
772.075	1.0688
774.967	3.37018
777.86	7.54617
780.753	10.7034
783.646	0.834686
786.538	1.34071
789.431	3.78107
792.324	12.9265
795.216	4.72824
798.109	9.58035
801.002	7.64618
803.894	2.35094
806.787	2.26492
809.68	7.23476
812.573	4.85269
815.465	4.49765
818.358	5.75395
821.251	9.04468
824.143	0.673035
827.036	7.00954
829.929	13.9907
832.822	2.21095
835.714	16.791
838.607	12.4678
841.5	0.589371
844.392	13.9269
847.285	11.7248
850.178	7.70903
853.07	10.5625
855.963	22.4741
858.856	31.2297
861.749	41.9375
864.641	56.4367
867.534	54.0205
870.427	36.1885
873.319	27.0556
876.212	29.0557
879.105	21.5619
881.997	24.0053
884.89	23.2214
887.783	31.8105
890.676	22.6543
893.568	21.0407
896.461	16.3395
899.354	28.1148
902.246	23.8326
905.139	11.3371
908.032	28.3826
910.924	20.8398
913.817	34.3605
916.71	28.982
919.602	32.9302
922.495	39.0097
925.388	46.5167
928.281	48.1202
931.173	35.2741
934.066	47.5033
936.959	47.7768
939.851	45.1553
942.744	41.2618
945.637	53.0628
948.529	32.6007
951.422	38.593
954.315	27.7739
957.208	14.3929
960.1	11.7791
962.993	2.04297
965.886	8.11951
968.778	11.7539
971.671	6.5834
974.564	8.44705
977.457	16.0683
980.349	5.10934
983.242	13.2448
986.135	10.5925
989.027	6.08487
991.92	9.81131
994.813	18.7296
997.705	29.0755
1000.6	58.28
1003.49	75.4793
1006.38	120.431
1009.28	147.322
1012.17	184.237
1015.06	195.989
1017.95	195.934
1020.85	245.097
1023.74	251.4
1026.63	237.469
1029.53	249.036
1032.42	248.241
1035.31	241.711
1038.2	278.319
1041.1	311.341
1043.99	374.206
1046.88	437.987
1049.77	538.409
1052.67	649.936
1055.56	770.848
1058.45	1004.86
1061.35	1296.86
1064.24	1712.81
1067.13	1806.83
1070.02	2271.05
1072.92	3773.43
1075.81	8833.22
1078.7	21850.2
1081.59	43112.3
1084.49	79666.3
1087.38	61279
1090.27	18824.8
1093.16	6530.11
1096.06	2728.05
1098.95	1374.15
1101.84	803.478
1104.73	498.779
1107.63	340.4
1110.52	196.104
1113.41	140.275
1116.31	90.9454
1119.2	60.6033
1122.09	30.8186
1124.98	26.0697
1127.88	11.1083
1130.77	16.9847
1133.66	2.77817
1136.56	15.5591
1139.45	3.61795
1142.34	5.48215
1145.23	11.6839
1148.13	11.6897
1151.02	0.656799
1153.91	2.19934
1156.8	1.80719
1159.7	0.313965
1162.59	7.25177
1165.48	16.7617
1168.38	7.24533
1171.27	21.5166
1174.16	12.1158
1177.05	25.3333
1179.95	37.8209
1182.84	36.4889
1185.73	36.9591
1188.62	34.7468
1191.52	49.4279
1194.41	47.7448
1197.3	41.9059
1200.19	37.2124
1203.09	36.5927
1205.98	23.5309
1208.87	36.7706
1211.77	35.9925
1214.66	40.2579
1217.55	53.7176
1220.44	28.101
1223.34	28.4092
1226.23	21.6031
1229.12	8.62616
1232.01	21.3697
1234.91	21.2335
1237.8	17.6569
1240.69	14.2257
1243.59	9.7792
1246.48	16.1884
1249.37	23.771
1252.26	20.9974
1255.16	13.4719
1258.05	9.65158
1260.94	17.4129
1263.83	20.0356
1266.73	15.7562
1269.62	13.8696
1272.51	4.83395
1275.4	29.8472
1278.3	16.0129
1281.19	0.228271
1284.08	16.683
1286.98	3.19089
1289.87	0.328369
1292.76	8.71774
1295.65	14.7848
1298.55	22.3909
1301.44	17.9465
1304.33	17.4589
1307.22	12.7756
1310.12	13.0114
1313.01	0.316528
