Measurement: Raman, 785 nm, unoriented, Raman Data Processed
Mineral: Rhodonite
Rruff sample: R040041
Ideal chemistry: Mn^2+^SiO_3_
Locality: Franklin, Sussex County, New Jersey, USA
Source: University of Arizona Mineral Museum
Description: Pink prismatic crystals
Measured chemistry: (Mn_0.63_Ca_0.21_Zn_0.12_Mg_0.02_Fe_0.02_)_Î£=1_Si_1.00_O_3_
Raman shift (cm-1)	intensity
120.082	0
122.975	39.2978
125.867	106.556
128.76	216.748
131.653	271.984
134.545	193.954
137.438	351.749
140.331	472.946
143.223	372.223
146.116	441.655
149.009	641.372
151.901	818.426
154.794	753.975
157.687	509.827
160.58	437.641
163.472	545.937
166.365	708.753
169.258	803.104
172.15	718.963
175.043	646.459
177.936	650.765
180.828	378.22
183.721	275.867
186.614	293.743
189.507	339.911
192.399	199.971
195.292	53.3428
198.185	22.1134
201.077	40.7975
203.97	26.4663
206.863	57.8812
209.756	225.733
212.648	316.512
215.541	245.256
218.434	124.602
221.326	23.0698
224.219	8.2583
227.112	30.1968
230.004	23.4757
232.897	75.6326
235.79	281.306
238.683	545.622
241.575	644.711
244.468	753.201
247.361	815.151
250.253	864.341
253.146	1101.97
256.039	1707.33
258.931	2325.14
261.824	2417.29
264.717	1733.3
267.61	1037.07
270.502	731.049
273.395	604.113
276.288	501.871
279.18	328.908
282.073	124.28
284.966	5.18567
287.858	54.4669
290.751	38.4331
293.644	243.359
296.536	524.14
299.429	799.016
302.322	953.504
305.215	948.735
308.107	930.845
311	846.155
313.893	880.452
316.785	1085.82
319.678	1456.79
322.571	1607.37
325.464	1390.19
328.356	1215.37
331.249	1084.17
334.142	1119.47
337.034	1224.96
339.927	1147.74
342.82	1273.19
345.712	1247.13
348.605	1152.5
351.498	958.889
354.39	973.098
357.283	1153.01
360.176	1311.46
363.069	1439.68
365.961	1435.69
368.854	1341.57
371.747	1063.84
374.639	729.017
377.532	520.142
380.425	391.743
383.317	330.104
386.21	356.51
389.103	364.098
391.996	250.628
394.888	103.434
397.781	10.0613
400.674	58.6155
403.566	52.7945
406.459	35.2384
409.352	16.4344
412.245	16.8942
415.137	74.889
418.03	143.396
420.923	181.331
423.815	153.225
426.708	164.443
429.601	256.298
432.493	408.295
435.386	603.179
438.279	620.719
441.171	467.761
444.064	342.733
446.957	307.296
449.85	323.746
452.742	376.923
455.635	369.767
458.528	292.419
461.42	184.966
464.313	148.624
467.206	186.218
470.098	198.685
472.991	201.11
475.884	263.441
478.777	217.065
481.669	136.489
484.562	106.306
487.455	167.638
490.347	307.973
493.24	417.622
496.133	398.58
499.026	247.338
501.918	107.472
504.811	102.256
507.704	131.755
510.596	194.647
513.489	272.636
516.382	281.22
519.274	227.932
522.167	134.492
525.06	32.7643
527.952	0.225281
530.845	8.68372
533.738	17.5261
536.631	53.5919
539.523	123.432
542.416	196.935
545.309	227.07
548.201	213.663
551.094	191.295
553.987	188.672
556.88	247.744
559.772	174.029
562.665	131.448
565.558	104.565
568.45	98.767
571.343	103.165
574.236	74.9835
577.128	82.7985
580.021	16.8781
582.914	0.204041
585.807	22.3183
588.699	18.5149
591.592	28.0767
594.485	16.622
597.377	11.5991
600.27	25.3627
603.163	6.63184
606.055	18.3859
608.948	24.8081
611.841	37.0651
614.734	53.9556
617.626	50.4622
620.519	98.8748
623.412	145.724
626.304	161.784
629.197	197.535
632.09	238.883
634.982	276.227
637.875	358.935
640.768	455.291
643.66	589.7
646.553	798.114
649.446	1056.63
652.339	1662.72
655.231	2689.02
658.124	4483.42
661.017	7189.76
663.909	10676.5
666.802	13000.7
669.695	11380.8
672.587	7661.95
675.48	5041.58
678.373	3679.61
681.266	2646.3
684.158	1631.21
687.051	926.819
689.944	542.76
692.836	309.37
695.729	199.905
698.622	135.459
701.514	163.904
704.407	248.876
707.3	425.515
710.193	716.486
713.085	942.597
715.978	820.101
718.871	508.528
721.763	258.317
724.656	137.746
727.549	99.1085
730.442	97.4984
733.334	141.14
736.227	190.095
739.12	264.325
742.012	214.623
744.905	128.826
747.798	51.5895
750.69	2.21381
753.583	11.9636
756.476	20.8699
759.369	5.67047
762.261	16.0347
765.154	12.0046
768.047	15.3227
770.939	11.6097
773.832	5.81207
776.725	5.44415
779.617	16.152
782.51	15.3545
785.403	11.0449
788.295	20.422
791.188	28.4502
794.081	40.2033
796.974	39.4078
799.866	35.4342
802.759	64.2352
805.652	50.0192
808.544	63.8817
811.437	76.5246
814.33	52.601
817.222	43.1437
820.115	36.3061
823.008	47.7741
825.9	33.6946
828.793	26.2337
831.686	31.1887
834.579	19.2111
837.471	4.74503
840.364	25.5116
843.257	11.3153
846.149	0.65506
849.042	7.22287
851.935	4.76636
854.827	13.88
857.72	9.39752
860.613	15.3312
863.506	22.0872
866.398	64.1181
869.291	70.5984
872.184	108.678
875.076	121.748
877.969	89.2952
880.862	77.4221
883.755	45.8539
886.647	32.6835
889.54	36.571
892.433	37.2424
895.325	34.8569
898.218	37.885
901.111	16.684
904.003	67.9402
906.896	147.811
909.789	267.701
912.682	309.17
915.574	309.172
918.467	202.64
921.36	122.904
924.252	76.8717
927.145	30.7119
930.038	68.5214
932.93	128.199
935.823	235.025
938.716	144.292
941.609	24.8262
944.501	26.1242
947.394	46.788
950.287	19.9178
953.179	28.2825
956.072	115.257
958.965	273.536
961.857	597.473
964.75	1154.83
967.643	1974.39
970.535	2907.62
973.428	3115.9
976.321	2649.67
979.214	2352.38
982.106	2655.33
984.999	3389.93
987.892	4568.81
990.784	5526.28
993.677	5457.74
996.57	5751.45
999.462	7109.38
1002.36	7682.08
1005.25	5830.1
1008.14	3362.87
1011.03	2034.31
1013.93	1396.73
1016.82	991.779
1019.71	661.425
1022.6	446.509
1025.5	354.238
1028.39	284.334
1031.28	214.128
1034.17	140.902
1037.07	114.491
1039.96	120.875
1042.85	272.381
1045.75	443.459
1048.64	617.893
1051.53	648.836
1054.42	449.111
1057.32	177.501
1060.21	21.0745
1063.1	27.0116
1065.99	37.346
1068.89	10.9369
1071.78	12.9346
1074.67	23.1566
1077.57	32.8056
1080.46	80.379
1083.35	64.5854
1086.24	107.143
1089.14	112.258
1092.03	125.309
1094.92	127.406
1097.81	169.091
1100.71	184.892
1103.6	194.704
1106.49	199.515
1109.38	172.572
1112.28	197.321
1115.17	160.88
1118.06	127.594
1120.96	108.37
1123.85	57.8146
1126.74	66.2339
1129.63	10.0837
1132.53	0.029602
1135.42	0.716431
1138.31	6.24023
1141.2	12.5227
1144.1	25.8649
1146.99	13.5453
1149.88	28.8727
1152.78	45.949
1155.67	52.4145
1158.56	61.0994
1161.45	65.8953
1164.35	91.5957
1167.24	92.2506
1170.13	131.576
1173.03	106.498
1175.92	143.337
1178.81	142.762
1181.7	127.832
1184.6	122.477
1187.49	116.706
1190.38	93.2843
1193.27	90.0411
1196.17	67.1249
1199.06	33.7701
1201.95	7.11377
1204.84	0.423279
1207.74	8.96191
1210.63	12.4911
1213.52	4.52899
1216.41	26.2476
1219.31	18.9869
1222.2	14.9232
1225.09	46.9564
1227.99	59.2456
1230.88	46.171
1233.77	67.817
1236.66	34.9313
1239.56	59.0422
1242.45	105.404
1245.34	120.82
1248.23	91.7216
1251.13	97.327
1254.02	65.027
1256.91	54.6188
1259.81	12.5504
1262.7	2.01721
