Measurement: Raman, 532 nm, unoriented, Raman Data Processed
Mineral: Rhodonite
Rruff sample: X080001
Ideal chemistry: Mn^2+^SiO_3_
Locality: Brazil
Source: Michael Scott
Description: Red polished gemstone
Raman shift (cm-1)	intensity
123.667	0
127.041	29.2533
130.416	151.977
133.791	359.974
137.166	540.807
140.541	384.142
143.916	102.301
147.29	6.83926
150.665	0.918152
154.04	17.2172
157.415	56.0595
160.79	128.782
164.164	145.859
167.539	111.512
170.914	74.3186
174.289	44.4594
177.664	37.1246
181.038	36.8209
184.413	38.4883
187.788	31.4558
191.163	3.2536
194.538	10.0726
197.913	13.3625
201.287	10.8835
204.662	4.44528
208.037	8.89002
211.412	27.2987
214.787	50.0801
218.161	63.4248
221.536	57.3809
224.911	57.721
228.286	70.553
231.661	97.0413
235.036	129.936
238.41	172.741
241.785	209.798
245.16	245.512
248.535	264.262
251.91	237.555
255.284	190.459
258.659	161.404
262.034	147.99
265.409	126.444
268.784	88.5674
272.159	63.2543
275.533	43.1372
278.908	24.8949
282.283	2.94598
285.658	1.98492
289.033	17.4248
292.407	63.3697
295.782	125.354
299.157	189.439
302.532	223.803
305.907	214.694
309.281	194.092
312.656	160.413
316.031	140.873
319.406	164.157
322.781	227.51
326.156	280.335
329.53	315.2
332.905	351.314
336.28	360.737
339.655	337.585
343.03	297.516
346.404	294.709
349.779	285.554
353.154	245.8
356.529	208.984
359.904	188.699
363.279	162.302
366.653	122.365
370.028	88.4658
373.403	58.8702
376.778	38.9466
380.153	35.0723
383.527	48.7768
386.902	68.9803
390.277	79.459
393.652	57.3521
397.027	19.3422
400.402	6.56412
403.776	15.0344
407.151	11.2766
410.526	4.85445
413.901	0.396927
417.276	11.5128
420.65	23.4781
424.025	28.615
427.4	38.1482
430.775	57.4035
434.15	92.1613
437.524	104.943
440.899	81.9403
444.274	54.8456
447.649	48.564
451.024	51.871
454.399	63.6528
457.773	74.0225
461.148	70.5265
464.523	58.4019
467.898	40.8662
471.273	42.7176
474.647	48.1854
478.022	43.0436
481.397	34.5845
484.772	39.4331
488.147	57.9303
491.522	95.5211
494.896	130.49
498.271	131.163
501.646	102.172
505.021	101.807
508.396	122.449
511.771	115.859
515.145	78.58
518.52	40.2572
521.895	14.5908
525.27	2.84449
528.644	2.36192
532.019	2.66309
535.394	4.45998
538.769	16.286
542.144	32.826
545.519	38.6152
548.893	32.2592
552.268	37.043
555.643	49.0133
559.018	59.1559
562.393	62.7424
565.768	77.8346
569.142	102.053
572.517	117.385
575.892	92.5139
579.267	50.6595
582.642	26.0196
586.016	10.9828
589.391	1.50617
592.766	2.8
596.141	5.88635
599.516	5.01394
602.89	3.7153
606.265	3.30952
609.64	0.333275
613.015	4.57794
616.39	10.2991
619.765	13.5611
623.139	19.7508
626.514	31.2879
629.889	43.0942
633.264	63.1002
636.639	89.631
640.014	131.98
643.388	202.056
646.763	316.292
650.138	488.257
653.513	773.349
656.888	1200.62
660.262	1695.04
663.637	2107.08
667.012	2496.4
670.387	2601.06
673.762	1995.37
677.136	1326.35
680.511	926.277
683.886	596.155
687.261	355.985
690.636	222.467
694.011	156.72
697.385	116.184
700.76	96.1993
704.135	92.5815
707.51	98.775
710.885	106.548
714.259	110.752
717.634	109.592
721.009	102.397
724.384	80.3476
727.759	52.4384
731.134	35.192
734.508	30.8759
737.883	28.5268
741.258	22.9837
744.633	12.0727
748.008	3.90642
751.382	2.0033
754.757	4.70207
758.132	4.61737
761.507	2.72865
764.882	2.36894
768.256	1.15931
771.631	0.739166
775.006	1.15501
778.381	2.78429
781.756	5.29345
785.131	7.37311
788.505	10.4808
791.88	11.2438
795.255	13.8078
798.63	15.441
802.005	18.0265
805.38	19.5589
808.754	20.6713
812.129	19.1391
815.504	18.8658
818.879	17.5566
822.254	15.5582
825.628	13.5914
829.003	12.7519
832.378	12.1643
835.753	12.3885
839.128	13.4938
842.502	16.1441
845.877	16.9259
849.252	16.7322
852.627	14.9696
856.002	14.1801
859.376	13.3632
862.751	13.6883
866.126	15.0343
869.501	20.0248
872.876	26.5312
876.251	32.3748
879.625	36.5701
883	27.6924
886.375	15.7708
889.75	4.59064
893.125	0.465813
896.5	4.70547
899.874	5.71878
903.249	4.33218
906.624	0.774467
909.999	6.59473
913.374	8.72678
916.748	4.98631
920.123	2.85522
923.498	8.43784
926.873	3.73552
930.248	8.11755
933.622	26.5716
936.997	58.9182
940.372	75.7223
943.747	49.4291
947.122	24.3264
950.497	22.8609
953.871	51.5637
957.246	115.738
960.621	245.678
963.996	457.607
967.371	764.176
970.745	1145.83
974.12	1467.54
977.495	1413.83
980.87	1171.45
984.245	1128.08
987.62	1270.6
990.994	1518.78
994.369	1900.3
997.744	2346.78
1001.12	2440.49
1004.49	1933.94
1007.87	1324.03
1011.24	877.345
1014.62	530.251
1017.99	289.994
1021.37	163.133
1024.74	104.147
1028.12	83.0496
1031.49	76.5995
1034.87	84.4347
1038.24	107.152
1041.62	139.864
1044.99	195.963
1048.37	238.925
1051.74	198.659
1055.12	125.985
1058.49	78.8493
1061.87	50.4475
1065.24	34.2837
1068.62	23.1764
1071.99	12.2925
1075.37	0.369644
1078.74	4.70544
1082.11	8.22543
1085.49	6.00382
1088.86	5.85532
1092.24	4.81919
1095.61	3.14114
1098.99	1.54721
1102.36	3.94441
1105.74	5.56471
1109.11	9.25188
1112.49	11.0061
1115.86	13.5179
1119.24	15.5004
1122.61	16.0643
1125.99	17.4566
1129.36	17.8084
1132.74	20.4231
1136.11	20.9107
1139.49	20.9046
1142.86	19.3341
1146.24	17.1278
1149.61	16.2168
1152.98	12.5108
1156.36	12.4827
1159.73	12.0824
1163.11	10.8729
1166.48	8.71181
1169.86	7.65376
1173.23	7.63939
1176.61	6.49875
1179.98	6.40427
1183.36	5.76008
1186.73	5.35872
1190.11	4.65839
1193.48	4.09697
1196.86	4.30292
1200.23	4.21154
1203.61	3.78487
1206.98	2.03437
1210.36	3.16715
1213.73	3.93607
1217.11	3.55244
1220.48	3.35609
1223.86	3.868
1227.23	4.23509
1230.61	2.00888
1233.98	3.61816
1237.36	3.01791
1240.73	1.63411
1244.11	0.873577
1247.48	1.21197
1250.86	0.806675
1254.23	0.611641
1257.61	0.043442
1260.98	0.629063
1264.35	0.169769
1267.73	0.170876
1271.1	0.493546
1274.48	0.64209
1277.85	1.85454
1281.23	4.63524
1284.6	1.33306
1287.98	0.748177
1291.35	0.447792
1294.73	0.238373
