Measurement: Raman, 532 nm, unoriented, Raman Data Processed
Mineral: Rhodochrosite
Rruff sample: R050116
Ideal chemistry: MnCO_3_
Locality: Wudong mine, Liubao, Guangxi Autonomous Region, China
Source: He Xin Jian
Description: Pink crystal associated with colorless quartz
Measured chemistry: (Mn_0.81_Fe_0.17_Mg_0.01_Ca_0.01_)CO_3_
Raman shift (cm-1)	intensity
115.522	0
118.897	3.11064
122.271	1.4978
125.646	0.870758
129.021	4.06076
132.396	10.1346
135.771	11.2026
139.145	12.3742
142.52	10.5087
145.895	13.3021
149.27	19.0763
152.645	24.1443
156.019	33.182
159.394	43.4123
162.769	66.3403
166.144	98.3021
169.519	136.606
172.894	177.895
176.268	242.369
179.643	356.532
183.018	500.696
186.393	457.418
189.768	216.951
193.143	98.7262
196.517	49.6072
199.892	24.8403
203.267	11.4002
206.642	6.70363
210.017	2.54399
213.391	0.391487
216.766	0.605438
220.141	0.078285
223.516	2.82543
226.891	3.15837
230.265	0.843208
233.64	1.71997
237.015	4.43472
240.39	3.43729
243.765	10.2079
247.139	19.2199
250.514	24.6776
253.889	41.9433
257.264	58.2748
260.639	90.8915
264.014	141.276
267.388	229.269
270.763	365.968
274.138	541.615
277.513	732.104
280.888	970.005
284.262	1340.29
287.637	1701.63
291.012	1593.07
294.387	994.961
297.762	549.373
301.137	312.528
304.511	190.028
307.886	129.721
311.261	90.25
314.636	65.5637
318.011	50.1566
321.385	35.1013
324.76	31.0464
328.135	23.2437
331.51	16.1713
334.885	16.655
338.26	10.4905
341.634	9.52506
345.009	5.19424
348.384	3.43917
351.759	3.94302
355.134	0.816059
358.508	1.44141
361.883	0.412674
365.258	0.2253
368.633	0.230843
372.008	0.165291
375.382	0.184681
378.757	1.15201
382.132	0.413582
385.507	0.461998
388.882	0.167259
392.257	0.892097
395.631	1.46053
399.006	0.331379
402.381	0.337727
405.756	1.23047
409.131	0.169216
412.505	1.31336
415.88	0.484989
419.255	1.45185
422.63	2.30775
426.005	1.31086
429.38	1.06464
432.754	0.941544
436.129	1.99563
439.504	2.59928
442.879	0.665485
446.254	1.29312
449.628	0.59296
453.003	2.20308
456.378	2.42694
459.753	2.22577
463.128	2.6159
466.502	1.67779
469.877	1.82607
473.252	4.83513
476.627	4.69757
480.002	3.66753
483.377	6.25568
486.751	6.82859
490.126	6.85614
493.501	6.94082
496.876	8.22755
500.251	9.02665
503.625	9.01146
507	10.4598
510.375	10.4818
513.75	11.0856
517.125	10.1677
520.5	10.4102
523.874	8.15977
527.249	10.0918
530.624	7.91709
533.999	8.14218
537.374	6.52635
540.748	7.17432
544.123	4.72429
547.498	4.44106
550.873	5.40329
554.248	4.07687
557.622	1.69122
560.997	2.59306
564.372	2.68713
567.747	0.974155
571.122	0.296028
574.497	0.513863
577.871	1.85553
581.246	2.17399
584.621	0.812328
587.996	2.22668
591.371	2.4949
594.745	1.75471
598.12	1.37959
601.495	1.16458
604.87	0.469131
608.245	0.628479
611.62	0.259941
614.994	0.201157
618.369	0.139904
621.744	0.57423
625.119	0.025665
628.494	1.47512
631.868	0.93457
635.243	0.925331
638.618	0.768906
641.993	1.70379
645.368	0.809273
648.742	0.172791
652.117	1.10128
655.492	0.858498
658.867	0.600151
662.242	1.67922
665.617	1.45721
668.991	1.98162
672.366	0.634983
675.741	1.60236
679.116	1.28716
682.491	1.02297
685.865	1.3058
689.24	5.12693
692.615	2.97448
695.99	6.00843
699.365	9.44524
702.74	19.6071
706.114	46.3375
709.489	79.6087
712.864	130.345
716.239	246.792
719.614	353.114
722.988	263.19
726.363	113.511
729.738	63.1538
733.113	39.7074
736.488	26.432
739.862	13.5434
743.237	10.094
746.612	6.97375
749.987	5.61824
753.362	4.82698
756.737	2.58617
760.111	0.949589
763.486	0.844822
766.861	0.086266
770.236	1.25483
773.611	0.975174
776.986	0.269405
780.36	0.157921
783.735	0.955334
787.11	0.209957
790.485	1.11119
793.86	0.33102
797.234	1.37362
800.609	0.940697
803.984	2.47676
807.359	4.47095
810.734	6.41328
814.108	5.49561
817.483	2.06285
820.858	1.35085
824.233	0.011269
827.608	0.289558
830.982	0.092731
834.357	0.667381
837.732	1.42151
841.107	0.94194
844.482	1.26842
847.857	1.19313
851.231	1.22105
854.606	1.97625
857.981	1.07716
861.356	2.92252
864.731	4.42382
868.106	2.93752
871.48	2.13439
874.855	1.04744
878.23	3.08226
881.605	3.28666
884.98	2.06205
888.354	1.80208
891.729	2.16004
895.104	3.19285
898.479	1.4364
901.854	0.335125
905.229	3.28355
908.603	2.82361
911.978	2.04895
915.353	4.40899
918.728	3.69498
922.102	3.5017
925.477	2.64753
928.852	4.37004
932.227	5.31064
935.602	4.12369
938.977	5.55952
942.351	3.87387
945.726	2.75832
949.101	4.44832
952.476	4.36493
955.851	2.14607
959.226	2.30454
962.6	1.45224
965.975	2.09528
969.35	0.556236
972.725	1.00541
976.1	1.10251
979.474	1.43532
982.849	1.9648
986.224	2.11581
989.599	1.50138
992.974	0.301762
996.348	1.53553
999.723	1.75236
1003.1	3.65397
1006.47	7.38612
1009.85	11.2239
1013.22	14.3149
1016.6	18.5404
1019.97	21.8193
1023.35	25.3073
1026.72	27.5798
1030.1	30.8664
1033.47	31.2157
1036.85	33.1042
1040.22	33.7482
1043.6	39.7794
1046.97	48.9659
1050.35	63.7355
1053.72	79.1821
1057.1	105.62
1060.47	139.02
1063.85	192.438
1067.22	256.215
1070.59	379.017
1073.97	787.909
1077.34	1581.74
1080.72	2859.09
1084.09	5824.21
1087.47	7982.99
1090.84	2836.32
1094.22	864.989
1097.59	326.657
1100.97	152.708
1104.34	83.8513
1107.72	50.1529
1111.09	32.7229
1114.47	21.5398
1117.84	12.784
1121.22	6.77978
1124.59	4.40512
1127.97	1.85659
1131.34	0.476559
1134.72	1.28942
1138.09	0.959545
1141.46	1.01802
1144.84	1.66825
1148.21	0.38097
1151.59	0.894196
1154.96	1.0905
1158.34	0.09124
1161.71	0.584293
1165.09	0.462822
1168.46	1.08444
1171.84	1.41982
1175.21	3.20697
1178.59	2.33115
1181.96	5.64667
1185.34	4.01037
1188.71	4.40789
1192.09	4.35734
1195.46	4.16201
1198.84	4.96881
1202.21	4.60538
1205.59	5.57011
1208.96	3.71436
1212.34	3.70433
1215.71	2.90299
1219.09	1.74634
1222.46	2.58013
1225.84	2.05193
1229.21	2.15075
1232.59	3.1918
1235.96	1.37209
1239.34	2.53843
1242.71	2.19474
1246.09	1.68119
1249.46	3.17821
1252.83	1.11585
1256.21	0.680481
1259.58	2.69252
1262.96	1.65606
1266.33	1.09587
1269.71	0.900303
1273.08	0.323715
1276.46	1.83521
1279.83	2.11375
1283.21	0.097656
1286.58	2.41587
1289.96	0.953876
1293.33	0.345673
