Measurement: Raman, 532 nm, unoriented, Raman Data Processed
Mineral: Rhodochrosite
Rruff sample: R100162
Ideal chemistry: MnCO_3_
Locality: N'Chwaning mine, Kuruman, Kalahari Mn area, Cape Province, South Africa
Source: William W. Pinch
Description: Reddish-purple cut gemstone
Raman shift (cm-1)	intensity
91.0352	0
94.41	1.9457
97.7848	0.344805
101.16	4.09776
104.534	6.50876
107.909	5.90892
111.284	7.28353
114.659	8.00591
118.034	18.1168
121.409	10.7058
124.783	8.31053
128.158	3.9924
131.533	1.08999
134.908	0.705793
138.283	1.65118
141.657	0.042337
145.032	7.58656
148.407	7.62614
151.782	16.6721
155.157	29.8706
158.532	48.826
161.906	72.1593
165.281	146.138
168.656	264.866
172.031	339.42
175.406	439.93
178.78	621.698
182.155	1050.6
185.53	1286.66
188.905	459.689
192.28	173.578
195.655	90.3353
199.029	54.4074
202.404	35.4394
205.779	22.8969
209.154	14.39
212.529	9.56912
215.904	5.67766
219.278	2.33496
222.653	2.04793
226.028	0.564224
229.403	0.498184
232.778	1.56199
236.152	3.71787
239.527	0.376892
242.902	2.933
246.277	6.15239
249.652	15.7687
253.026	23.1988
256.401	36.7436
259.776	56.3413
263.151	95.7516
266.526	175.844
269.901	358.849
273.276	672.233
276.65	978.713
280.025	1328.2
283.4	1954.36
286.775	3141.35
290.15	3780.61
293.524	2357.26
296.899	1042.97
300.274	503.992
303.649	286.992
307.024	189.96
310.399	131.108
313.773	96.5352
317.148	67.3478
320.523	54.6146
323.898	40.511
327.273	34.8249
330.647	25.3516
334.022	19.6354
337.397	13.4795
340.772	10.2264
344.147	2.97619
347.522	2.52354
350.896	0.325668
354.271	1.07101
357.646	0.898315
361.021	0.006126
364.396	0.182549
367.77	0.434807
371.145	1.15585
374.52	0.128983
377.895	0.241432
381.27	0.444
384.644	0.611618
388.019	1.47955
391.394	0.722481
394.769	1.16331
398.144	3.77434
401.519	2.25314
404.894	2.54719
408.268	2.34872
411.643	2.78863
415.018	2.03808
418.393	3.39916
421.767	2.82202
425.142	2.91765
428.517	1.93551
431.892	2.84457
435.267	3.59005
438.642	3.91001
442.017	2.84065
445.391	2.65508
448.766	4.149
452.141	2.80477
455.516	4.10357
458.891	3.94075
462.265	1.97543
465.64	1.47267
469.015	0.991539
472.39	1.99813
475.765	1.7014
479.139	0.456982
482.514	5.91229
485.889	2.50861
489.264	3.00788
492.639	5.27264
496.014	4.88992
499.388	4.20623
502.763	3.64392
506.138	1.3791
509.513	0.8009
512.888	2.08275
516.263	0.011177
519.637	2.26481
523.012	1.86612
526.387	2.65075
529.762	2.2287
533.137	0.485874
536.511	0.491665
539.886	0.309738
543.261	1.78186
546.636	1.32712
550.011	1.17058
553.386	3.59608
556.76	2.53648
560.135	3.76737
563.51	2.35127
566.885	4.65845
570.26	4.52925
573.635	2.86132
577.009	4.10405
580.384	4.96934
583.759	3.67299
587.134	2.64614
590.509	3.79814
593.883	1.53751
597.258	0.446068
600.633	2.27328
604.008	1.39244
607.383	0.183697
610.758	0.277115
614.132	1.04495
617.507	1.14984
620.882	1.89078
624.257	1.54607
627.632	0.665157
631.006	2.24132
634.381	2.55008
637.756	1.78946
641.131	1.80928
644.506	2.35585
647.881	0.759285
651.255	1.04973
654.63	0.254387
658.005	3.70023
661.38	0.945503
664.755	0.512871
668.13	1.18664
671.504	0.174469
674.879	0.404457
678.254	1.09576
681.629	2.5234
685.004	3.75289
688.378	3.36236
691.753	4.32805
695.128	6.8279
698.503	12.1517
701.878	22.451
705.253	77.2992
708.627	145.216
712.002	225.299
715.377	452.659
718.752	969.577
722.127	412.416
725.501	70.0692
728.876	26.9619
732.251	15.9636
735.626	9.92885
739.001	5.5425
742.375	4.80895
745.75	3.39497
749.125	3.40983
752.5	1.58453
755.875	1.79643
759.25	1.49438
762.625	1.4061
765.999	1.13977
769.374	1.48409
772.749	1.35157
776.124	0.473465
779.499	0.518456
782.873	2.34269
786.248	0.521484
789.623	1.25094
792.998	0.402519
796.373	0.286392
799.747	1.10504
803.122	0.487251
806.497	1.23058
809.872	0.474541
813.247	0.154999
816.621	0.729691
819.996	1.16475
823.371	2.77442
826.746	2.79466
830.121	1.12516
833.496	1.38258
836.87	1.54636
840.245	0.950249
843.62	0.483498
846.995	0.995071
850.37	1.24829
853.745	3.13007
857.119	0.962654
860.494	2.63967
863.869	2.73403
867.244	1.37935
870.619	3.49853
873.994	5.78571
877.368	3.35024
880.743	5.08318
884.118	4.07249
887.493	5.24352
890.868	2.6706
894.242	2.7267
897.617	3.71122
900.992	2.18494
904.367	3.68526
907.742	3.61311
911.116	6.12544
914.491	3.91869
917.866	8.16613
921.241	7.57561
924.616	9.61426
927.991	8.89584
931.365	9.80692
934.74	10.6234
938.115	10.3589
941.49	8.13485
944.865	9.9776
948.24	7.24184
951.614	5.16469
954.989	4.5246
958.364	4.54759
961.739	1.72758
965.114	1.22432
968.489	2.07814
971.863	0.293388
975.238	3.63204
978.613	2.30399
981.988	2.93292
985.362	2.41904
988.737	0.133698
992.112	1.52603
995.487	5.17052
998.862	10.958
1002.24	17.2379
1005.61	26.9249
1008.99	32.815
1012.36	41.5137
1015.74	47.1251
1019.11	52.8801
1022.49	54.3354
1025.86	53.7687
1029.23	50.5771
1032.61	44.0408
1035.98	45.0066
1039.36	51.8574
1042.73	65.8674
1046.11	84.9522
1049.48	105.779
1052.86	128.481
1056.23	166.685
1059.61	205.896
1062.98	281.046
1066.36	371.484
1069.73	425.762
1073.11	873.809
1076.48	2553.65
1079.86	4567.71
1083.23	10082.5
1086.61	21030.6
1089.98	4692.47
1093.36	957.401
1096.73	383.122
1100.11	197.483
1103.48	115.54
1106.86	72.3207
1110.23	45.2648
1113.61	29.3386
1116.98	17.6743
1120.36	7.51445
1123.73	4.3822
1127.11	0.943665
1130.48	0.720596
1133.86	0.306519
1137.23	2.4021
1140.6	1.59009
1143.98	2.01198
1147.35	2.92673
1150.73	0.59375
1154.1	0.475372
1157.48	1.72685
1160.85	1.28751
1164.23	1.92976
1167.6	1.29358
1170.98	5.19249
1174.35	4.01215
1177.73	4.61125
1181.1	8.92686
1184.48	8.65903
1187.85	11.5655
1191.23	11.5638
1194.6	9.64809
1197.98	10.1004
1201.35	11.5699
1204.73	10.0779
1208.1	7.62848
1211.48	8.92906
1214.85	6.42198
1218.22	6.06419
1221.6	4.46112
1224.97	6.9545
1228.35	4.36379
1231.72	3.33604
1235.1	2.606
1238.47	2.09457
1241.85	4.22649
1245.22	6.31126
1248.6	5.47014
1251.97	3.83279
1255.35	3.47241
1258.72	4.19537
1262.1	4.21294
1265.47	2.8463
1268.85	3.63927
1272.22	4.57942
1275.6	3.50835
1278.97	0.451385
1282.35	0.659912
1285.72	3.82352
1289.1	0.611542
1292.47	2.51302
1295.85	2.1425
1299.22	0.331146
1302.6	0
