Measurement: Raman, 780 nm, unoriented, Raman Data Processed
Mineral: Rhodochrosite
Rruff sample: R100002
Ideal chemistry: MnCO_3_
Locality: Wudong mine, Liubao, Guangxi  Autonomous Region, China
Source: Marcus Origlieri
Description: Red cleavage fragment
Raman shift (cm-1)	intensity
92.6273	0
96.0021	14.8962
99.3769	8.35429
102.752	15.6951
106.127	18.5359
109.501	2.20385
112.876	3.69704
116.251	13.6647
119.626	10.3053
123.001	16.36
126.376	1.03719
129.75	4.051
133.125	7.01736
136.5	8.52823
139.875	9.72413
143.25	3.76376
146.624	10.7825
149.999	9.97786
153.374	29.2279
156.749	42.2373
160.124	54.7524
163.499	99.3517
166.873	156.316
170.248	190.993
173.623	276.476
176.998	490.294
180.373	1112.91
183.747	2102.95
187.122	1048.55
190.497	355.37
193.872	159.441
197.247	86.3198
200.621	49.807
203.996	31.1017
207.371	14.7156
210.746	8.52828
214.121	3.38845
217.495	0.89872
220.87	6.1059
224.245	1.4374
227.62	2.34998
230.995	3.63607
234.37	0.700874
237.744	5.49634
241.119	12.1519
244.494	20.7466
247.869	29.6109
251.244	39.8232
254.619	66.839
257.993	98.8712
261.368	156.685
264.743	262.934
268.118	490.292
271.493	847.097
274.867	1163.23
278.242	1601.47
281.617	2422.97
284.992	4090.49
288.367	5779.43
291.741	4234.14
295.116	1975.93
298.491	935.676
301.866	513.005
305.241	327.778
308.616	234.173
311.99	164.257
315.365	120.693
318.74	90.5103
322.115	70.3652
325.49	57.6977
328.865	46.2852
332.239	35.97
335.614	30.0863
338.989	16.9585
342.364	18.0608
345.739	7.6486
349.113	6.92101
352.488	2.65073
355.863	2.80232
359.238	0.092361
362.613	2.22804
365.988	0.114441
369.362	1.39758
372.737	0.69471
376.112	5.91405
379.487	1.95687
382.862	8.87839
386.236	6.88171
389.611	2.68513
392.986	6.08645
396.361	6.50659
399.736	14.7036
403.111	14.048
406.485	10.9037
409.86	7.04789
413.235	2.22001
416.61	6.60582
419.985	2.6616
423.359	1.39743
426.734	8.1859
430.109	7.47156
433.484	4.33362
436.859	4.10834
440.233	4.10367
443.608	2.99783
446.983	4.99396
450.358	4.93217
453.733	3.78204
457.108	2.19887
460.482	7.54034
463.857	3.17534
467.232	6.52123
470.607	6.42183
473.982	1.82544
477.356	1.66161
480.731	5.72135
484.106	3.50798
487.481	3.57839
490.856	6.0509
494.231	4.58003
497.605	12.6019
500.98	9.09164
504.355	7.61938
507.73	7.59605
511.105	7.17482
514.479	5.42539
517.854	4.66525
521.229	6.50355
524.604	5.51343
527.979	11.2276
531.354	8.27533
534.728	8.44589
538.103	8.68078
541.478	11.7265
544.853	3.78688
548.228	1.724
551.602	10.2241
554.977	7.19165
558.352	4.74653
561.727	7.61607
565.102	5.82716
568.476	7.06387
571.851	5.05158
575.226	5.01671
578.601	1.07038
581.976	6.77838
585.351	8.46163
588.725	0.650747
592.1	2.56356
595.475	8.54249
598.85	6.28651
602.225	0.448324
605.6	0.042179
608.974	3.59683
612.349	5.33466
615.724	1.55755
619.099	3.3051
622.474	7.4777
625.848	2.32758
629.223	4.3145
632.598	0.73313
635.973	5.35926
639.348	7.36306
642.722	8.92258
646.097	2.63082
649.472	7.52002
652.847	5.17515
656.222	6.06731
659.597	0.88781
662.971	1.03022
666.346	4.91287
669.721	0.351723
673.096	1.33516
676.471	3.74889
679.846	1.89329
683.22	1.3522
686.595	2.40989
689.97	2.36771
693.345	6.05781
696.72	9.42203
700.094	20.1409
703.469	66.0848
706.844	165.514
710.219	174.085
713.594	238.43
716.968	305.262
720.343	249.429
723.718	55.8115
727.093	29.6447
730.468	20.7609
733.842	10.5801
737.217	8.07587
740.592	8.11793
743.967	4.94729
747.342	8.20382
750.717	3.40066
754.091	5.05846
757.466	4.90804
760.841	1.85452
764.216	8.98114
767.591	4.57813
770.966	3.97874
774.34	3.81646
777.715	9.38641
781.09	1.29264
784.465	2.66243
787.84	9.59337
791.214	6.85435
794.589	3.60464
797.964	4.70177
801.339	2.68435
804.714	4.82254
808.088	4.70798
811.463	3.71512
814.838	4.6709
818.213	8.4101
821.588	6.3513
824.963	5.05174
828.337	8.00969
831.712	3.1063
835.087	2.98294
838.462	8.4555
841.837	10.2015
845.212	2.99026
848.586	4.55967
851.961	6.72785
855.336	5.90067
858.711	5.52083
862.086	8.29656
865.46	2.38352
868.835	6.50294
872.21	11.8361
875.585	8.69268
878.96	11.6306
882.335	12.0316
885.709	8.88177
889.084	0.292435
892.459	11.076
895.834	8.46135
899.209	5.47229
902.583	8.1587
905.958	6.58674
909.333	5.06768
912.708	6.0301
916.083	8.53707
919.457	9.14084
922.832	1.62599
926.207	12.3166
929.582	10.2109
932.957	6.22751
936.332	13.015
939.706	13.2418
943.081	8.45988
946.456	5.8137
949.831	6.3095
953.206	8.49844
956.58	6.94712
959.955	1.73946
963.33	0.929815
966.705	5.47509
970.08	2.35013
973.455	0.157883
976.829	3.71087
980.204	3.63062
983.579	6.86861
986.954	3.76133
990.329	2.99481
993.703	5.14938
997.078	3.05584
1000.45	10.5452
1003.83	17.1049
1007.2	17
1010.58	22.221
1013.95	31.2436
1017.33	30.5364
1020.7	43.6702
1024.08	35.2129
1027.45	44.7431
1030.83	37.2855
1034.2	23.1784
1037.58	30.5454
1040.95	43.1213
1044.33	54.207
1047.7	71.4126
1051.08	84.8396
1054.45	113.481
1057.83	130.122
1061.2	189.068
1064.58	302.754
1067.95	304.99
1071.32	468.397
1074.7	1109.15
1078.07	1805.6
1081.45	4063.13
1084.82	15163.3
1088.2	10513.1
1091.57	1465.45
1094.95	497.654
1098.32	229.229
1101.7	133.752
1105.07	82.1734
1108.45	56.2573
1111.82	28.441
1115.2	20.3338
1118.57	18.7499
1121.95	1.22084
1125.32	6.48992
1128.7	3.28041
1132.07	2.24162
1135.45	0.143654
1138.82	1.00353
1142.19	2.15367
1145.57	0.705757
1148.94	1.1897
1152.32	0.109898
1155.69	1.96474
1159.07	2.53178
1162.44	9.80166
1165.82	5.68321
1169.19	10.5961
1172.57	7.58424
1175.94	4.54519
1179.32	3.0975
1182.69	8.94978
1186.07	9.03684
1189.44	14.8501
1192.82	13.2724
1196.19	7.56787
1199.57	10.5333
1202.94	9.94319
1206.32	10.3526
1209.69	5.86865
1213.07	7.70686
1216.44	11.0188
1219.82	7.44856
1223.19	5.69545
1226.57	6.84657
1229.94	3.09554
1233.32	12.3239
1236.69	6.22521
1240.07	11.2218
1243.44	12.5581
1246.82	11.8823
1250.19	3.48643
1253.56	8.12548
1256.94	4.33069
1260.31	7.0031
1263.69	9.34963
1267.06	4.64288
1270.44	8.00979
1273.81	7.55877
1277.19	2.80644
1280.56	7.34525
1283.94	1.06727
