Measurement: Raman, 780 nm, unoriented, Raman Data Processed
Mineral: Rhodonite
Rruff sample: R060196
Ideal chemistry: Mn^2+^SiO_3_
Locality: Morro da Mina, Minas Gerais, Brazil
Source: Marcus Origlieri
Description: Pink transparent cleavage fragment
Measured chemistry: (Mn_0.82_Fe_0.06_Mg_0.05_Ca_0.10_)Si_0.99_O_3_
Raman shift (cm-1)	intensity
145.824	0
148.717	0.795975
151.61	8.40202
154.502	19.4562
157.395	39.9135
160.288	69.7422
163.18	76.1346
166.073	73.6322
168.966	42.1221
171.858	13.439
174.751	9.05397
177.644	4.66147
180.537	1.82148
183.429	3.05466
186.322	2.14594
189.215	2.43526
192.107	11.372
195	15.9336
197.893	13.4363
200.786	11.8358
203.678	9.89978
206.571	16.4484
209.464	19.9634
212.356	15.5494
215.249	12.5561
218.142	10.0052
221.034	12.1028
223.927	14.6693
226.82	12.8133
229.713	9.64729
232.605	13.1301
235.498	20.4981
238.391	30.6132
241.283	39.1532
244.176	53.7922
247.069	65.2285
249.961	66.6168
252.854	62.0418
255.747	56.4911
258.639	55.1884
261.532	55.8174
264.425	51.7968
267.318	39.4633
270.21	28.2988
273.103	19.0924
275.996	16.576
278.888	12.3728
281.781	5.28024
284.674	0.256622
287.567	3.32913
290.459	0.396164
293.352	5.99388
296.245	11.3621
299.137	14.8188
302.03	9.14838
304.923	5.41099
307.815	2.70227
310.708	7.59108
313.601	15.5134
316.493	37.0143
319.386	69.1622
322.279	102.006
325.172	130.082
328.064	146.013
330.957	163.518
333.85	166.923
336.742	151.34
339.635	127.729
342.528	117.549
345.421	130.4
348.313	138.669
351.206	113.799
354.099	73.7413
356.991	40.8701
359.884	25.272
362.777	11.0169
365.669	4.1448
368.562	3.89239
371.455	0.192345
374.348	3.79656
377.24	1.65051
380.133	4.90611
383.026	13.6389
385.918	24.2287
388.811	22.7064
391.704	14.4991
394.596	13.1885
397.489	19.1704
400.382	29.8446
403.274	50.9656
406.167	77.3679
409.06	104.907
411.953	135.481
414.845	180.805
417.738	229.317
420.631	221.306
423.523	153.236
426.416	87.1548
429.309	47.8054
432.202	29.0323
435.094	16.147
437.987	15.0314
440.88	15.4249
443.772	19.9177
446.665	25.123
449.558	32.692
452.45	34.8734
455.343	30.6826
458.236	26.0204
461.128	19.1772
464.021	12.8898
466.914	7.37221
469.807	4.66766
472.699	2.24934
475.592	0.004536
478.485	2.63348
481.377	0.749062
484.27	0.558666
487.163	4.8498
490.055	11.4298
492.948	17.7559
495.841	26.6011
498.734	28.3273
501.626	36.1089
504.519	54.4995
507.412	74.1403
510.304	74.2791
513.197	51.0346
516.09	28.1437
518.982	16.5144
521.875	9.38946
524.768	9.10907
527.661	3.88866
530.553	4.3333
533.446	7.57732
536.339	8.11305
539.231	13.3249
542.124	23.7212
545.017	23.3031
547.909	27.4968
550.802	42.3385
553.695	65.4162
556.588	77.6392
559.48	61.9745
562.373	36.3465
565.266	19.7986
568.158	16.5135
571.051	11.8943
573.944	9.39156
576.837	4.96941
579.729	3.88844
582.622	0.491264
585.515	0.890366
588.407	1.04329
591.3	1.2069
594.193	1.57747
597.085	0.272743
599.978	1.67575
602.871	0.706448
605.764	0.819546
608.656	1.7009
611.549	3.34845
614.442	5.7619
617.334	6.92115
620.227	11.3285
623.12	16.0284
626.012	20.3919
628.905	25.9533
631.798	33.9082
634.691	42.7812
637.583	57.9481
640.476	79.1199
643.369	114.854
646.261	163.511
649.154	237.817
652.047	359.436
654.939	556.098
657.832	819.871
660.725	1042.98
663.617	1150.04
666.51	1266.86
669.403	1271.13
672.296	976.335
675.188	635.247
678.081	435.537
680.974	301.312
683.866	195.092
686.759	124.307
689.652	85.6294
692.544	60.3361
695.437	40.8776
698.33	30.1067
701.223	23.9278
704.115	20.654
707.008	21.5185
709.901	18.2391
712.793	18.545
715.686	16.735
718.579	14.7294
721.471	10.5739
724.364	6.14746
727.257	4.00089
730.15	2.24185
733.042	3.43996
735.935	3.13212
738.828	2.00265
741.72	2.13494
744.613	1.0978
747.506	1.28181
750.399	0.606972
753.291	1.71921
756.184	1.53707
759.077	1.80456
761.969	0.239819
764.862	0.073898
767.755	2.03064
770.647	0.997452
773.54	0.845337
776.433	2.0236
779.326	2.14625
782.218	3.39012
785.111	4.89745
788.004	4.98696
790.896	3.78416
793.789	4.19418
796.682	6.61574
799.574	8.04932
802.467	8.61256
805.36	10.2763
808.253	6.76551
811.145	7.07803
814.038	7.26535
816.931	4.55965
819.823	5.41538
822.716	5.5433
825.609	4.93064
828.501	3.80043
831.394	3.87466
834.287	2.18979
837.179	3.25857
840.072	2.42101
842.965	0.126019
845.857	0.782398
848.75	0.344513
851.643	0.012436
854.536	0.694614
857.428	0.12244
860.321	0.489552
863.214	3.16339
866.106	9.11784
868.999	16.3206
871.892	27.654
874.784	41.4465
877.677	55.4263
880.57	56.5763
883.463	43.7828
886.355	26.5937
889.248	16.5711
892.141	10.898
895.033	7.62711
897.926	5.69022
900.819	5.7275
903.712	6.15427
906.604	7.25786
909.497	10.1623
912.39	10.7305
915.282	9.53349
918.175	1.34233
921.068	5.03317
923.96	4.49324
926.853	2.42396
929.746	6.62051
932.639	23.2391
935.531	51.6984
938.424	71.1931
941.317	59.971
944.209	30.3595
947.102	13.8714
949.995	8.904
952.888	13.9541
955.78	31.8572
958.673	62.1175
961.566	113.164
964.458	193.374
967.351	315.048
970.244	476.274
973.136	611.422
976.029	599.264
978.922	463.638
981.814	370.627
984.707	343.119
987.6	340.892
990.493	334.786
993.385	327.001
996.278	342.382
999.171	339.941
1002.06	288.015
1004.96	214.493
1007.85	156.159
1010.74	103.729
1013.63	65.7252
1016.53	41.3385
1019.42	32.3045
1022.31	27.0931
1025.2	29.0559
1028.1	29.5621
1030.99	38.7708
1033.88	48.9315
1036.78	62.877
1039.67	72.1258
1042.56	69.5608
1045.45	56.1038
1048.35	39.9
1051.24	24.3188
1054.13	11.9958
1057.03	7.47518
1059.92	1.89075
1062.81	0.615299
1065.7	1.77557
1068.6	0.206638
1071.49	2.16841
1074.38	1.21801
1077.27	2.45504
1080.17	0.524817
1083.06	1.65864
1085.95	2.16234
1088.84	0.359285
1091.74	1.44324
1094.63	2.64148
1097.52	3.16908
1100.41	5.00809
1103.31	3.81782
1106.2	5.98181
1109.09	5.14065
1111.99	6.83783
1114.88	6.7675
1117.77	8.3836
1120.66	7.86317
1123.56	8.50325
1126.45	8.24402
1129.34	8.67808
1132.23	7.18468
1135.13	4.46715
1138.02	6.16998
1140.91	6.18914
1143.81	4.40639
1146.7	3.95438
1149.59	5.96408
1152.48	5.04718
1155.38	5.18885
1158.27	5.79034
1161.16	3.82692
1164.06	3.33506
1166.95	4.02778
1169.84	3.24075
1172.73	3.27079
1175.62	1.6594
1178.52	1.66213
1181.41	1.81713
1184.3	0.93928
1187.2	2.03801
1190.09	2.36851
1192.98	1.00705
1195.87	1.87223
1198.77	1.41254
1201.66	1.66718
1204.55	2.94858
1207.44	1.92945
1210.34	2.91361
1213.23	1.17013
1216.12	2.1056
1219.02	2.58586
1221.91	2.89741
1224.8	0.930244
1227.69	1.88634
1230.59	3.29248
1233.48	0.158138
1236.37	0.517374
1239.27	0.55987
1242.16	0.682953
1245.05	1.40287
1247.94	2.09271
1250.84	1.78966
1253.73	1.25483
1256.62	1.32435
1259.51	3.21563
1262.41	2.15418
1265.3	2.70185
1268.19	1.31142
1271.08	0.838671
1273.98	0.358498
1276.87	2.97533
1279.76	2.32749
1282.65	1.53092
