Measurement: Raman, 785 nm, unoriented, Raman Data Processed
Mineral: Rhodochrosite
Rruff sample: R050019
Ideal chemistry: MnCO_3_
Locality: Home Sweet Home mine, Colorado, USA
Source: Eugene Schlepp
Description: Pink single crystal rhombs on quartz
Measured chemistry: Mn_1.00_CO_3_
Raman shift (cm-1)	intensity
108.966	0
111.859	1.67285
114.752	4.73672
117.645	0.458059
120.537	2.26905
123.43	6.84638
126.323	10.3555
129.215	14.2449
132.108	39.3071
135.001	71.8019
137.893	65.8238
140.786	55.7896
143.679	49.6142
146.572	59.8461
149.464	92.4069
152.357	134.082
155.25	96.4209
158.142	73.3219
161.035	81.1787
163.928	102.717
166.821	130.572
169.713	188.231
172.606	243.118
175.499	307.786
178.391	460.915
181.284	789.472
184.177	1207.22
187.069	715.698
189.962	268.471
192.855	123.904
195.748	77.6738
198.64	62.8503
201.533	44.7239
204.426	41.6574
207.318	31.2687
210.211	21.6493
213.104	10.1916
215.996	16.9479
218.889	3.35241
221.782	8.01476
224.674	6.61998
227.567	3.86205
230.46	2.42421
233.353	2.08311
236.245	0.034279
239.138	4.70285
242.031	3.14975
244.923	3.97545
247.816	1.0408
250.709	3.58315
253.601	1.80879
256.494	8.64773
259.387	16.6311
262.28	20.1082
265.172	38.588
268.065	86.007
270.958	133.918
273.85	234.583
276.743	374.864
279.636	572.703
282.529	820.716
285.421	1257.52
288.314	1612.53
291.207	1401.82
294.099	775.062
296.992	403.168
299.885	214.978
302.777	133.498
305.67	82.0619
308.563	74.4189
311.455	48.7021
314.348	42.9926
317.241	39.0139
320.134	24.3805
323.026	20.4892
325.919	16.7208
328.812	22.0179
331.704	11.3808
334.597	3.84789
337.49	6.91261
340.382	2.89154
343.275	21.3076
346.168	0.39624
349.061	6.75954
351.953	2.41264
354.846	11.1318
357.739	5.93311
360.631	8.0761
363.524	1.19093
366.417	1.377
369.31	3.44136
372.202	2.72916
375.095	0.988686
377.988	0.985481
380.88	9.0686
383.773	7.62298
386.666	15.3076
389.558	0.976944
392.451	7.51273
395.344	10.4246
398.236	5.62258
401.129	3.87532
404.022	5.542
406.915	7.27921
409.807	3.86444
412.7	8.21912
415.593	2.49071
418.485	4.48933
421.378	0.828468
424.271	13.633
427.163	5.63612
430.056	10.0121
432.949	0.541176
435.842	7.92898
438.734	2.99303
441.627	5.19519
444.52	6.12655
447.412	1.39616
450.305	9.89749
453.198	2.75539
456.091	8.78011
458.983	10.3838
461.876	6.29456
464.769	7.46909
467.661	4.95391
470.554	6.19548
473.447	10.6948
476.339	11.5367
479.232	2.52107
482.125	9.66999
485.017	2.86888
487.91	7.57529
490.803	10.3452
493.696	8.27766
496.588	12.0183
499.481	4.6841
502.374	13.6656
505.266	5.96737
508.159	4.89765
511.052	3.16295
513.944	3.35845
516.837	7.548
519.73	15.1421
522.623	1.81559
525.515	2.81506
528.408	1.91855
531.301	4.91221
534.193	6.36719
537.086	0.145744
539.979	3.77132
542.871	2.85397
545.764	10.8054
548.657	9.81708
551.55	11.2339
554.442	9.84805
557.335	13.1451
560.228	8.83723
563.12	2.5187
566.013	15.0857
568.906	1.17283
571.798	9.40848
574.691	7.55321
577.584	10.3361
580.477	14.8745
583.369	2.02241
586.262	6.77341
589.155	3.12934
592.047	5.30283
594.94	5.08862
597.833	0.162842
600.726	8.57301
603.618	5.03569
606.511	7.38476
609.404	5.64342
612.296	4.37198
615.189	6.58602
618.082	4.5861
620.974	3.34563
623.867	10.5238
626.76	6.83009
629.653	14.7286
632.545	5.36219
635.438	13.8949
638.331	0.128387
641.223	7.27751
644.116	11.4419
647.009	4.39755
649.901	6.35516
652.794	8.67356
655.687	5.90683
658.58	9.67071
661.472	1.51613
664.365	1.15916
667.258	14.4695
670.15	4.27673
673.043	0.718781
675.936	11.6226
678.828	14.63
681.721	7.26524
684.614	4.72514
687.506	3.84346
690.399	7.79545
693.292	3.98807
696.185	15.7484
699.077	15.0842
701.97	34.6468
704.863	49.7193
707.755	136.896
710.648	268.191
713.541	531.826
716.433	987.351
719.326	1347.53
722.219	481.79
725.112	118.571
728.004	57.3905
730.897	31.6001
733.79	24.3766
736.682	16.0977
739.575	10.3668
742.468	17.03
745.361	9.52769
748.253	9.11408
751.146	11.1261
754.039	11.3251
756.931	5.21069
759.824	17.5116
762.717	3.92081
765.609	1.15189
768.502	7.43371
771.395	11.0583
774.288	5.09809
777.18	3.14829
780.073	1.83196
782.966	5.70786
785.858	2.46325
788.751	0.278076
791.644	6.70871
794.536	4.10355
797.429	7.5147
800.322	6.03491
803.215	4.66754
806.107	5.27747
809	8.62303
811.893	2.23678
814.785	7.05121
817.678	8.23739
820.571	1.70223
823.463	7.7299
826.356	3.54598
829.249	11.7221
832.141	3.13172
835.034	7.6858
837.927	2.21066
840.82	2.4537
843.712	2.09057
846.605	0.014931
849.498	2.69685
852.39	0.369278
855.283	7.8175
858.176	1.47374
861.068	1.72881
863.961	8.27948
866.854	6.19393
869.747	11.0514
872.639	4.07404
875.532	13.9307
878.425	6.5815
881.317	6.35574
884.21	7.10381
887.103	11.5466
889.995	3.89336
892.888	10.0261
895.781	10.3639
898.674	11.7085
901.566	10.0327
904.459	8.86265
907.352	1.11872
910.244	0.116821
913.137	11.0086
916.03	13.2005
918.923	19.6041
921.815	10.4408
924.708	10.5579
927.601	16.1267
930.493	5.62749
933.386	25.3885
936.279	14.1365
939.171	16.5338
942.064	19.4156
944.957	14.4512
947.85	15.8773
950.742	10.8653
953.635	14.5856
956.528	18.7975
959.42	0.941162
962.313	6.86283
965.206	0.50518
968.098	11.4245
970.991	5.24664
973.884	3.25736
976.777	4.373
979.669	5.38823
982.562	1.54263
985.455	1.21758
988.347	5.98424
991.24	2.02453
994.133	1.44389
997.025	6.48738
999.918	17.8284
1002.81	17.495
1005.7	24.3358
1008.6	29.95
1011.49	27.7494
1014.38	36.1335
1017.27	36.6569
1020.17	42.394
1023.06	43.5054
1025.95	45.8672
1028.85	38.3398
1031.74	40.713
1034.63	33.9924
1037.52	34.9746
1040.42	35.0076
1043.31	49.0232
1046.2	55.1202
1049.09	89.4868
1051.99	94.629
1054.88	119.431
1057.77	144.659
1060.66	183.835
1063.56	262.189
1066.45	296.78
1069.34	315.265
1072.24	460.261
1075.13	912.379
1078.02	2363.87
1080.91	4903.76
1083.81	12080.4
1086.7	16611
1089.59	5068.42
1092.48	1259.38
1095.38	477.97
1098.27	242.959
1101.16	138.918
1104.06	80.1569
1106.95	52.341
1109.84	38.2513
1112.73	16.6875
1115.63	14.3277
1118.52	7.72696
1121.41	9.81767
1124.3	1.4532
1127.2	7.30713
1130.09	8.95834
1132.98	4.42804
1135.88	5.5381
1138.77	8.5896
1141.66	5.85278
1144.55	5.917
1147.45	3.0528
1150.34	2.59033
1153.23	9.4229
1156.12	8.68155
1159.02	4.12868
1161.91	8.75583
1164.8	3.99731
1167.69	1.97395
1170.59	19.3072
1173.48	9.70961
1176.37	9.61592
1179.27	14.2454
1182.16	14.3016
1185.05	3.6932
1187.94	13.6197
1190.84	7.8188
1193.73	10.8768
1196.62	7.78729
1199.51	3.84294
1202.41	8.73917
1205.3	4.0802
1208.19	7.44623
1211.09	12.814
1213.98	8.58218
1216.87	17.7685
1219.76	9.01515
1222.66	5.5656
1225.55	7.90187
1228.44	20.69
1231.33	16.6427
1234.23	3.34749
