Measurement: Raman, 514 nm, unoriented, Raman Data Processed
Mineral: Rhodonite
Rruff sample: R040041
Ideal chemistry: Mn^2+^SiO_3_
Locality: Franklin, Sussex County, New Jersey, USA
Source: University of Arizona Mineral Museum
Description: Pink prismatic crystals
Measured chemistry: (Mn_0.63_Ca_0.21_Zn_0.12_Mg_0.02_Fe_0.02_)_Î£=1_Si_1.00_O_3_
Raman shift (cm-1)	intensity
103.124	0
107.3	1094.61
111.473	675.532
115.644	192.378
119.813	731.723
123.981	1241.36
128.146	862.887
132.309	543.217
136.47	567.27
140.63	303.611
144.787	120.993
148.942	328.482
153.096	657.865
157.247	336.916
161.396	188.4
165.544	373.038
169.689	482.574
173.833	499.833
177.974	417.15
182.114	92.969
186.251	56.158
190.387	3.465
194.52	110.831
198.652	157.123
202.782	29.812
206.909	746.777
211.035	402.106
215.159	209.252
219.281	86.086
223.4	3.707
227.518	12.809
231.634	131.285
235.748	443.716
239.86	711.726
243.97	956.746
248.079	1160.38
252.185	1545.64
256.289	2853.89
260.391	3775.02
264.492	2816.92
268.59	1702.18
272.687	1283.21
276.781	1039.44
280.874	704.795
284.964	481.896
289.053	467.464
293.14	678.053
297.225	1031.27
301.308	1277.22
305.389	1406.31
309.468	1352.79
313.545	1571.05
317.62	2257.58
321.693	2796.18
325.765	2448.14
329.834	1928.86
333.902	1840.45
337.967	1772.17
342.031	1643.88
346.093	1620.19
350.153	1262.26
354.21	1158.3
358.267	1379.95
362.321	1507.33
366.373	1607.15
370.423	1338.01
374.471	926.025
378.518	537.988
382.563	506.266
386.605	630.492
390.646	524.352
394.685	239.612
398.722	35.47
402.757	46.011
406.79	27.01
410.821	20.98
414.851	19.074
418.878	37.971
422.904	111.243
426.927	136.423
430.949	292.309
434.969	526.084
438.987	452.192
443.003	262.584
447.018	187.746
451.03	211.676
455.041	246.772
459.049	194.163
463.056	155.134
467.061	164.971
471.064	242.722
475.065	334.482
479.064	282.204
483.062	172.905
487.057	174.639
491.051	251.37
495.043	293.12
499.032	213.859
503.02	148.215
507.007	192.311
510.991	324.108
514.973	466.037
518.954	369.245
522.933	204.886
526.91	71.792
530.885	43.716
534.858	2.565
538.829	121.363
542.799	199.146
546.766	188.972
550.732	234.888
554.696	236.861
558.658	200.289
562.618	106.096
566.576	83.159
570.533	124.131
574.488	60.992
578.44	19.375
582.391	0.571
586.341	24.822
590.288	35.66
594.233	13.532
598.177	10.518
602.119	28.419
606.059	44.387
609.997	38.275
613.933	70.033
617.868	152.17
621.801	223.105
625.731	308.629
629.66	347.048
633.588	450.611
637.513	558.005
641.437	821.647
645.358	985.978
649.278	1574.03
653.196	2529.59
657.113	4862.85
661.027	10044.3
664.94	17504.5
668.851	18463.6
672.76	11656.2
676.667	7022.33
680.572	4697.84
684.476	2782.79
688.378	1540.74
692.278	997.074
696.176	773.486
700.072	585.857
703.967	654.113
707.86	1039.69
711.751	1735.89
715.64	1762.9
719.527	1015.87
723.413	669.236
727.297	458.504
731.179	483.214
735.059	492.529
738.937	685.996
742.814	570.356
746.689	332.925
750.562	277.193
754.433	67.754
758.303	69.25
762.17	23.894
766.036	101.806
769.901	10.028
773.763	20.03
777.624	69.984
781.482	64.877
785.339	15.701
789.195	28.573
793.048	21.992
796.9	54.435
800.75	26.269
804.598	38.103
808.445	28.887
812.289	27.204
816.132	26.417
819.973	9.76
823.813	35.192
827.65	29.199
831.486	8.529
835.32	51.353
839.152	63.205
842.983	7.619
846.812	34.563
850.639	33.129
854.464	64.333
858.288	35.169
862.11	7.962
865.93	104.696
869.748	154.404
873.564	230.087
877.379	214.761
881.192	188.45
885.004	195.158
888.813	215.892
892.621	249.661
896.427	234.492
900.232	285.39
904.034	365.361
907.835	584.32
911.634	950.313
915.432	961.923
919.227	729.938
923.021	666.453
926.813	514.105
930.604	646.293
934.393	810.508
938.18	842.812
941.965	597.462
945.749	536.932
949.53	588.674
953.311	722.476
957.089	838.025
960.866	1246.59
964.641	2156.52
968.414	4340.43
972.185	6749.52
975.955	6365.11
979.723	5108.27
983.49	5500.65
987.254	7805.75
991.017	10210.1
994.779	10273.9
998.538	11438.5
1002.3	13948.9
1006.05	10592.7
1009.81	5872.45
1013.56	3761.66
1017.31	2804.47
1021.06	2215.43
1024.81	1858.74
1028.55	1619.04
1032.3	1386.57
1036.04	1168.2
1039.78	1064.05
1043.52	1158.19
1047.26	1367.83
1050.99	1638.77
1054.73	1271.83
1058.46	778.873
1062.19	483.956
1065.92	430.095
1069.65	447.979
1073.37	307.273
1077.1	366.016
1080.82	316.579
1084.54	228.715
1088.26	184.896
1091.97	154.553
1095.69	169.911
1099.4	117.017
1103.12	106.494
1106.83	80.499
1110.54	46.253
1114.24	105.399
1117.95	175.654
1121.65	211.569
1125.35	299.512
1129.06	44.762
1132.75	72.823
1136.45	57.219
1140.15	50.481
1143.84	3.505
1147.53	86.543
1151.22	60.13
1154.91	32.123
1158.6	54.153
1162.28	118.83
1165.97	42.476
1169.65	25.296
1173.33	13.33
1177.01	16.972
1180.69	5.137
1184.36	59.285
1188.04	42.945
1191.71	5.812
1195.38	19.062
1199.05	37.281
1202.71	59.051
1206.38	73.099
1210.04	45.826
1213.71	16.638
1217.37	46.164
1221.03	13.613
1224.68	58.95
1228.34	64.284
1231.99	3.617
1235.65	22.32
1239.3	41.065
1242.95	66.815
1246.59	13.381
1250.24	10.182
1253.88	21.061
1257.53	4.103
1261.17	72.899
1264.81	21.553
1268.45	42.032
1272.08	28.744
1275.72	19.271
1279.35	33.1
1282.98	58.729
1286.61	111.906
1290.24	44.036
1293.87	16.266
1297.49	88.463
1301.11	61.11
1304.73	10.708
1308.36	35.218
1311.97	61.488
1315.59	10.56
1319.2	111.324
1322.82	113.503
1326.43	33.477
1330.04	69.605
1333.65	76.317
1337.26	43.817
1340.86	48.552
1344.47	3.108
1348.07	32.192
1351.67	66.175
1355.27	75.874
1358.87	77.175
1362.46	152.261
1366.06	101.098
1369.65	105.312
1373.24	109.547
1376.83	134.172
1380.42	81.895
1384	73.786
1387.59	145.849
1391.17	182.405
1394.75	93.014
1398.33	120.179
1401.91	89.922
1405.49	130.95
1409.06	92.981
1412.64	119.123
1416.21	127.323
1419.78	42.304
1423.35	72.172
1426.91	169.006
1430.48	224.375
1434.05	177.647
1437.61	140.217
1441.17	144.578
1444.73	158.287
1448.29	149.707
1451.84	93.718
1455.4	135.864
1458.95	139.787
1462.5	135.66
1466.05	232.916
1469.6	167.268
1473.15	263.009
1476.69	169.11
1480.24	126.702
1483.78	111.59
1487.32	95.736
1490.86	95.219
1494.39	111.215
1497.93	101.9
1501.46	31.415
1505	82.716
1508.53	168.39
1512.06	124.768
1515.59	171.752
1519.11	155.832
1522.64	92.316
1526.16	0
