Measurement: Raman, 780 nm, unoriented, Raman Data Processed
Mineral: Rhodonite
Rruff sample: R060549
Ideal chemistry: Mn^2+^SiO_3_
Locality: unknown
Source: Gemological Institute of America
Description: Pink cleavage fragment
Measured chemistry: (Mn_0.76_Ca_0.12_Fe_0.07_Mg_0.06_)Si_0.99_O_3_
Raman shift (cm-1)	intensity
95.4169	0
98.7917	45.5696
102.166	27.4416
105.541	3.7959
108.916	23.1265
112.291	30.6033
115.666	46.3726
119.041	40.3186
122.415	26.588
125.79	68.6785
129.165	85.192
132.54	118.58
135.915	160.467
139.29	181.999
142.664	113.219
146.039	26.7817
149.414	7.56909
152.789	14.6128
156.163	22.1602
159.538	52.243
162.913	70.8311
166.288	58.3124
169.663	46.6926
173.038	34.563
176.412	23.6544
179.787	26.6937
183.162	29.8705
186.537	23.983
189.912	12.7743
193.286	4.32019
196.661	6.10547
200.036	2.07202
203.411	0.562866
206.786	4.77368
210.161	1.3866
213.535	8.00012
216.91	9.68665
220.285	15.5084
223.66	9.7439
227.035	7.69727
230.409	16.2272
233.784	25.0605
237.159	39.8273
240.534	59.1948
243.909	73.3087
247.284	85.0186
250.658	90.5676
254.033	91.0888
257.408	98.2039
260.783	108.68
264.158	124.247
267.532	113.195
270.907	77.0779
274.282	53.9617
277.657	33.8756
281.032	18.4166
284.406	2.85059
287.781	8.3396
291.156	0.088013
294.531	20.6519
297.906	53.2262
301.281	78.7837
304.655	86.2334
308.03	76.9437
311.405	65.4744
314.78	60.9385
318.155	64.9536
321.529	95.3558
324.904	122.737
328.279	134.146
331.654	131.061
335.029	133.09
338.404	132.832
341.778	109.285
345.153	82.9919
348.528	73.5676
351.903	58.942
355.278	51.6644
358.652	40.141
362.027	37.614
365.402	35.5568
368.777	35.3223
372.152	19.9781
375.526	13.2039
378.901	6.77454
382.276	12.6252
385.651	19.451
389.026	25.3658
392.401	33.6707
395.775	18.7775
399.15	1.07788
402.525	9.81421
405.9	14.1886
409.275	6.59521
412.649	3.78418
416.024	5.96094
419.399	4.63647
422.774	10.3304
426.149	17.5748
429.524	26.0989
432.898	33.8394
436.273	53.9915
439.648	55.3241
443.023	43.5232
446.398	31.5592
449.772	37.256
453.147	35.0686
456.522	42.1212
459.897	43.7623
463.272	39.2533
466.647	33.3823
470.021	29.5992
473.396	28.6741
476.771	33.0859
480.146	26.0031
483.521	16.5283
486.895	17.222
490.27	22.301
493.645	29.4845
497.02	43.545
500.395	31.6682
503.769	23.9374
507.144	19.8156
510.519	31.6409
513.894	24.8147
517.269	18.4659
520.644	11.8695
524.018	4.16089
527.393	5.83398
530.768	2.02307
534.143	3.30652
537.518	6.51416
540.892	13.7146
544.267	23.4651
547.642	17.9648
551.017	18.7881
554.392	24.3529
557.766	28.7369
561.141	32.5782
564.516	22.6626
567.891	26.1226
571.266	34.3358
574.64	35.3096
578.015	30.668
581.39	12.167
584.765	4.30481
588.14	2.21082
591.515	2.43335
594.889	3.96374
598.264	1.82642
601.639	1.81103
605.014	1.03503
608.389	1.38428
611.764	7.0293
615.138	7.08032
618.513	3.54199
621.888	3.02136
625.263	1.66333
628.638	9.10718
632.012	13.2421
635.387	21.1436
638.762	30.2512
642.137	46.3953
645.512	65.3276
648.886	105.263
652.261	162.086
655.636	269.766
659.011	419.119
662.386	587.452
665.76	766.72
669.135	959.928
672.51	941.181
675.885	660.136
679.26	434.471
682.635	297.3
686.009	179.451
689.384	105.182
692.759	65.0823
696.134	43.8867
699.509	32.0731
702.884	24.7778
706.258	22.5745
709.633	35.0601
713.008	34.298
716.383	38.5447
719.758	40.7787
723.132	35.2627
726.507	23.6803
729.882	14.8806
733.257	16.1885
736.632	18.8538
740.006	15.4917
743.381	18.793
746.756	12.3261
750.131	0.351807
753.506	1.76801
756.88	0.411865
760.255	0.846497
763.63	2.16779
767.005	2.28973
770.38	2.11987
773.755	0.952698
777.129	0.529602
780.504	0.211243
783.879	2.4997
787.254	5.74445
790.629	6.19897
794.003	8.16553
797.378	7.56915
800.753	4.67004
804.128	6.74902
807.503	11.3357
810.878	12.8153
814.252	10.8609
817.627	14.1674
821.002	17.7012
824.377	9.34326
827.752	7.42621
831.126	9.74029
834.501	5.29071
837.876	7.01202
841.251	7.08527
844.626	6.68457
848	7.91626
851.375	11.0379
854.75	5.59863
858.125	4.78497
861.5	3.63275
864.875	7.16638
868.249	1.35858
871.624	10.8154
874.999	8.36005
878.374	4.34369
881.749	5.42419
885.123	7.12555
888.498	5.47882
891.873	3.77576
895.248	1.85095
898.623	4.22937
901.997	0.038086
905.372	4.02325
908.747	2.36877
912.122	4.06488
915.497	4.47632
918.872	5.31567
922.246	1.23309
925.621	0.797668
928.996	1.8678
932.371	2.48999
935.746	7.40094
939.12	19.327
942.495	18.2512
945.87	9.61877
949.245	2.18726
952.62	0.819946
955.995	13.4104
959.369	30.2665
962.744	60.2587
966.119	109.834
969.494	186.348
972.869	287.841
976.243	358.79
979.618	342.438
982.993	301.485
986.368	307.184
989.743	354.561
993.117	402.77
996.492	492.851
999.867	579.772
1003.24	565.646
1006.62	430.595
1009.99	280.047
1013.37	176.15
1016.74	103.623
1020.12	63.6525
1023.49	43.554
1026.87	33.4168
1030.24	26.5086
1033.62	18.6556
1036.99	20.2419
1040.37	20.097
1043.74	19.4078
1047.12	29.8406
1050.49	38.1056
1053.86	30.1362
1057.24	21.4667
1060.61	13.4581
1063.99	6.39178
1067.36	5.10809
1070.74	2.84888
1074.11	0.665466
1077.49	1.08356
1080.86	2.05743
1084.24	0.673584
1087.61	4.27234
1090.99	3.1438
1094.36	1.65009
1097.74	1.79022
1101.11	0.237061
1104.49	3.60852
1107.86	0.235657
1111.24	2.95111
1114.61	3.52838
1117.99	2.57782
1121.36	4.4577
1124.73	3.43475
1128.11	6.75885
1131.48	3.56744
1134.86	7.39075
1138.23	8.86536
1141.61	6.26965
1144.98	5.7132
1148.36	7.58441
1151.73	6.2663
1155.11	8.21619
1158.48	6.50684
1161.86	5.22327
1165.23	5.4411
1168.61	3.6391
1171.98	3.38239
1175.36	7.46539
1178.73	6.74487
1182.11	4.05017
1185.48	5.13867
1188.86	6.97681
1192.23	4.62872
1195.61	5.54742
1198.98	4.77918
1202.36	5.80536
1205.73	4.86255
1209.11	3.66309
1212.48	7.81982
1215.86	2.24805
1219.23	2.34851
1222.61	0.151428
1225.98	0.317139
1229.35	1.08466
1232.73	3.92426
1236.1	3.90326
1239.48	1.65839
1242.85	2.46753
1246.23	1.60675
1249.6	1.68732
1252.98	3.86523
1256.35	4.77435
1259.73	3.58417
1263.1	2.77716
1266.48	4.09961
1269.85	3.25037
1273.23	1.56567
1276.6	3.29645
1279.98	4.89636
1283.35	2.26648
