Measurement: Raman, 514 nm, unoriented, Raman Data Processed
Mineral: Rhodochrosite
Rruff sample: R050116
Ideal chemistry: MnCO_3_
Locality: Wudong mine, Liubao, Guangxi Autonomous Region, China
Source: He Xin Jian
Description: Pink crystal associated with colorless quartz
Measured chemistry: (Mn_0.81_Fe_0.17_Mg_0.01_Ca_0.01_)CO_3_
Raman shift (cm-1)	intensity
79.427	0
83.614	3.375
87.798	58.318
91.981	47.19
96.161	80.056
100.34	70.168
104.516	80.588
108.691	82.14
112.864	166.067
117.034	186.865
121.203	151.302
125.369	103.839
129.534	91.472
133.696	111.953
137.857	209.163
142.016	240.01
146.172	197.417
150.327	185.351
154.48	231.782
158.63	240.847
162.779	234.326
166.926	325.871
171.07	434.533
175.213	870.425
179.354	1550.51
183.493	1851.79
187.63	1225.24
191.765	547.92
195.898	224.79
200.029	145.811
204.158	58.976
208.285	22.279
212.41	18.716
216.533	7.281
220.654	14.969
224.773	32.28
228.891	42.181
233.006	29.58
237.119	33.858
241.231	32.15
245.34	24.665
249.448	109.991
253.553	144.195
257.657	183.097
261.758	231.638
265.858	365.068
269.956	553.688
274.052	991.19
278.146	1732.7
282.237	3163.71
286.327	4767.83
290.416	4900
294.502	3208.31
298.586	1705.55
302.668	912.073
306.749	545.831
310.827	321.658
314.903	209.456
318.978	205.333
323.051	158.275
327.121	134.28
331.19	91.354
335.257	69.484
339.322	87.669
343.385	22.901
347.446	53.177
351.505	30.519
355.563	16.912
359.618	36.343
363.672	18.181
367.723	18.65
371.773	15.888
375.821	47.445
379.866	37.987
383.91	12.436
387.952	17.123
391.992	23.677
396.031	9.789
400.067	25.815
404.101	11.521
408.134	31.027
412.165	6.581
416.193	22.174
420.22	8.756
424.245	58.833
428.268	30.721
432.289	12.791
436.309	24.242
440.326	23.336
444.342	45.999
448.355	36.59
452.367	18.187
456.377	1.832
460.385	41.041
464.391	11.706
468.395	59.251
472.398	29.806
476.398	32.662
480.397	43.186
484.394	75.519
488.389	84.993
492.382	84.535
496.373	41.547
500.362	108.076
504.349	89.532
508.335	80.011
512.319	76.271
516.3	93.91
520.28	74.63
524.259	97.467
528.235	125.439
532.209	96.809
536.182	85.234
540.152	55.012
544.121	76.817
548.088	85.138
552.053	56.433
556.017	28.188
559.978	23.425
563.938	83.779
567.895	66.736
571.851	86.882
575.805	32.133
579.758	58.646
583.708	72.25
587.657	28.65
591.603	83.132
595.548	91.581
599.491	5.749
603.432	87.841
607.372	46.438
611.309	15.151
615.245	15.117
619.179	64.16
623.111	51.62
627.041	37.143
630.97	6.514
634.896	50.922
638.821	40.274
642.744	68.584
646.665	88.989
650.584	43.288
654.502	26.518
658.418	91.664
662.331	50.727
666.244	28.422
670.154	78.46
674.062	51.394
677.969	30.235
681.874	18.985
685.777	58.496
689.678	73.254
693.577	31.363
697.475	118.473
701.371	162.911
705.265	170.583
709.157	241.133
713.047	652.586
716.936	1749.89
720.823	2442.52
724.708	1282.05
728.591	524.365
732.472	332.612
736.352	263.452
740.23	160.703
744.106	115.473
747.98	41.842
751.853	76.63
755.723	51.461
759.592	71.218
763.459	74.792
767.325	126.493
771.188	4.91
775.05	44.012
778.91	36.799
782.768	77.146
786.625	26.623
790.479	55.484
794.332	65.776
798.183	68.886
802.033	33.34
805.88	30.51
809.726	63.663
813.57	24.264
817.413	36.2
821.253	7.57
825.092	53.927
828.929	27.109
832.764	37.875
836.598	8.076
840.429	7.188
844.259	18.581
848.088	15.514
851.914	27.59
855.739	53.645
859.562	23.689
863.383	26.715
867.203	26.722
871.02	1.285
874.836	1.314
878.65	62.639
882.463	55.58
886.274	92.513
890.083	20.44
893.89	54.361
897.695	27.725
901.499	19.13
905.301	41.762
909.102	29.536
912.9	28.43
916.697	50.402
920.492	49.173
924.285	27.004
928.077	11.313
931.867	35.136
935.655	61
939.442	3.836
943.226	36.734
947.009	60.628
950.791	12.519
954.57	14.739
958.348	44.058
962.124	7.943
965.899	46.801
969.671	52.014
973.442	27.06
977.211	78.012
980.979	10.944
984.745	32.968
988.509	4.198
992.271	76.163
996.032	78.816
999.791	71.013
1003.55	165.804
1007.3	155.112
1011.06	135.536
1014.81	184.696
1018.56	234.827
1022.31	226.924
1026.06	285.947
1029.8	340.327
1033.55	354.187
1037.29	420.544
1041.03	374.186
1044.77	468.694
1048.5	466.653
1052.24	628.227
1055.97	700.853
1059.7	933.465
1063.43	1263.31
1067.16	1421.02
1070.89	1790.97
1074.61	2777.44
1078.34	5780.17
1082.06	19102.6
1085.78	48098.7
1089.5	26936.9
1093.21	7614.66
1096.93	2419.67
1100.64	1194.27
1104.35	673.544
1108.06	476.035
1111.77	357.689
1115.48	300.375
1119.18	210.905
1122.89	152.731
1126.59	140.035
1130.29	144.579
1133.99	86.488
1137.68	45
1141.38	109.417
1145.07	26.11
1148.76	7.823
1152.45	45.509
1156.14	0.231
1159.83	41.708
1163.51	75.294
1167.19	16.646
1170.88	70.971
1174.56	22.288
1178.23	4.867
1181.91	53.953
1185.59	51.663
1189.26	61.067
1192.93	48.67
1196.6	67.184
1200.27	42.954
1203.94	26.326
1207.6	62.28
1211.27	35.35
1214.93	12.413
1218.59	91.992
1222.25	50.665
1225.9	86.183
1229.56	97.702
1233.21	25.884
1236.86	17.242
1240.51	59.111
1244.16	37.756
1247.81	75.31
1251.45	7.251
1255.1	52.044
1258.74	61.238
1262.38	23.696
1266.02	49.224
1269.66	85.994
1273.29	57.62
1276.93	11.903
1280.56	55.397
1284.19	55.56
1287.82	26.475
1291.45	32.223
1295.07	7.5
1298.7	42.777
1302.32	34.711
1305.94	17.448
1309.56	9.755
1313.18	28.755
1316.8	48.231
1320.41	55.433
1324.02	53.414
1327.63	4.958
1331.24	4.784
1334.85	52.161
1338.46	95.445
1342.06	72.618
1345.67	111.626
1349.27	48.621
1352.87	17.211
1356.47	10.448
1360.07	85.701
1363.66	57.379
1367.25	49.66
1370.85	36.843
1374.44	39.097
1378.03	47.836
1381.61	61.243
1385.2	129.81
1388.78	125.11
1392.37	112.659
1395.95	126.633
1399.53	108.816
1403.1	180.147
1406.68	301.75
1410.26	401.004
1413.83	549.959
1417.4	889.959
1420.97	849.185
1424.54	614.754
1428.1	488.928
1431.67	355.359
1435.23	334.591
1438.8	280.845
1442.36	282.173
1445.91	259.646
1449.47	207.086
1453.03	184.562
1456.58	173.988
1460.13	87.947
1463.68	108.591
1467.23	202.844
1470.78	136.881
1474.33	187.811
1477.87	85.673
1481.42	135.913
1484.96	69.888
1488.5	44.398
1492.04	24.335
1495.57	109.718
1499.11	127.323
1502.64	8.635
1506.17	63.855
1509.71	46.999
1513.23	123.919
1516.76	155.755
1520.29	76.101
1523.81	77.061
