Measurement: Raman, 532 nm, unoriented, Raman Data Processed
Mineral: Rhodonite
Rruff sample: R040041
Ideal chemistry: Mn^2+^SiO_3_
Locality: Franklin, Sussex County, New Jersey, USA
Source: University of Arizona Mineral Museum
Description: Pink prismatic crystals
Measured chemistry: (Mn_0.63_Ca_0.21_Zn_0.12_Mg_0.02_Fe_0.02_)_Î£=1_Si_1.00_O_3_
Raman shift (cm-1)	intensity
120.076	0
122.969	583.303
125.861	685.033
128.754	609.38
131.647	576.116
134.539	432.52
137.432	941.424
140.325	1053.05
143.217	279.181
146.11	120.667
149.003	289.522
151.895	666.737
154.788	694.054
157.681	394.5
160.573	548.056
163.466	717.604
166.359	865.735
169.252	967.589
172.144	880.372
175.037	706.3
177.93	740.539
180.822	440.105
183.715	231.747
186.608	273.444
189.5	372.675
192.393	169.525
195.286	29.531
198.179	172.065
201.071	165.79
203.964	43.7685
206.857	102.459
209.749	357.867
212.642	522.911
215.535	392.959
218.428	315.54
221.32	235.149
224.213	204.651
227.106	207.162
229.998	303.566
232.891	471.92
235.784	839.498
238.676	1270.78
241.569	1433.41
244.462	1540.1
247.355	1743.42
250.247	1842.19
253.14	2368.54
256.033	3082.24
258.925	3826.91
261.818	3763.47
264.711	2667.11
267.603	1699.82
270.496	1157.21
273.389	1047.87
276.281	875.309
279.174	447.628
282.067	118.08
284.96	95.5308
287.852	82.1804
290.745	171.122
293.638	570.688
296.53	1160.78
299.423	1750.47
302.316	2046.65
305.209	2101.84
308.101	2166.76
310.994	2110.9
313.887	2226.88
316.779	2689.23
319.672	3408.96
322.565	3607.6
325.457	3099.29
328.35	2502.99
331.243	2122.49
334.135	2043.81
337.028	2027.04
339.921	1921.45
342.813	1875.23
345.706	1939.26
348.599	1730.53
351.492	1540.49
354.384	1569.52
357.277	1808.7
360.17	2127.59
363.062	2279.23
365.955	2227.99
368.848	2051.92
371.74	1617.91
374.633	1120.59
377.526	723.746
380.419	585.627
383.311	552.694
386.204	595.633
389.097	656.445
391.989	450
394.882	173.905
397.775	27.5549
400.668	135.132
403.56	73.7985
406.453	82.8348
409.346	0.955322
412.238	4.86633
415.131	128.931
418.024	245.74
420.916	346.228
423.809	349.31
426.702	475.717
429.594	695.458
432.487	1018.96
435.38	1413.88
438.273	1396.5
441.165	995.963
444.058	662.804
446.951	561.988
449.843	516.384
452.736	552.476
455.629	583.926
458.522	422.105
461.414	260.253
464.307	237.455
467.2	245.203
470.092	347.278
472.985	380.749
475.878	418.548
478.77	369.738
481.663	265.272
484.556	270.897
487.448	382.945
490.341	495.332
493.234	694.775
496.127	619.302
499.019	384.175
501.912	222.503
504.805	199.605
507.697	253.269
510.59	400.608
513.483	467.538
516.375	471.578
519.268	360.608
522.161	170.57
525.053	40.9849
527.946	34.1897
530.839	6.28442
533.732	14.719
536.624	96.1713
539.517	243.575
542.41	388.306
545.302	490.956
548.195	439.088
551.088	383.952
553.981	397.627
556.873	441.494
559.766	364.461
562.659	224.103
565.551	176.001
568.444	201.184
571.337	160.28
574.229	115.98
577.122	57.5836
580.015	65.7589
582.908	13.469
585.8	10.5364
588.693	53.6907
591.586	54.5196
594.478	0.751587
597.371	43.228
600.264	27.9961
603.156	21.0864
606.049	49.2908
608.942	44.1506
611.835	55.0529
614.727	114.154
617.62	152.977
620.513	213.02
623.405	267.745
626.298	318.912
629.191	406.175
632.083	478.722
634.976	615.901
637.869	692.402
640.761	903.782
643.654	1193.86
646.547	1692.18
649.439	2626.49
652.332	4096.7
655.225	6263.01
658.118	9266.07
661.01	13277.2
663.903	18177.9
666.796	21383.2
669.688	18755.8
672.581	12671.6
675.474	8180.9
678.366	5885.29
681.259	4236.15
684.152	2635.38
687.045	1485.71
689.937	844.688
692.83	566.083
695.723	321.056
698.615	295.034
701.508	396.29
704.401	528.35
707.293	854.524
710.186	1264.5
713.079	1651
715.972	1432.45
718.864	884.167
721.757	466.111
724.65	377.108
727.542	294.334
730.435	327.806
733.328	385.329
736.221	496.806
739.113	617.913
742.006	474.863
744.899	327.266
747.791	172.269
750.684	13.0403
753.577	14.8788
756.469	27.915
759.362	23.9872
762.255	47.9594
765.148	33.9489
768.04	14.7783
770.933	18.4956
773.826	8.28406
776.718	18.5044
779.611	0.321777
782.504	0.053833
785.396	17.4751
788.289	29.8281
791.182	39.4741
794.074	42.2466
796.967	89.8281
799.86	83.6335
802.753	85.0054
805.645	102.253
808.538	128.72
811.431	194.036
814.323	204.376
817.216	258.985
820.109	279.492
823.001	289.534
825.894	394.32
828.787	439.815
831.679	542.168
834.572	644.037
837.465	768.323
840.358	733.727
843.25	472.628
846.143	278.188
849.036	185.145
851.928	106.202
854.821	79.4224
857.714	42.4312
860.606	41.4619
863.499	33.6726
866.392	65.4634
869.284	113.483
872.177	148.267
875.07	132.292
877.963	80.345
880.855	61.0476
883.748	51.6484
886.641	13.7417
889.533	24.03
892.426	1.91016
895.319	6.06396
898.212	24.9197
901.104	28.7053
903.997	132.977
906.89	332.791
909.782	469.492
912.675	680.826
915.568	578.961
918.46	395.723
921.353	196.597
924.246	79.8262
927.139	46.0981
930.031	144.371
932.924	269.958
935.817	384.647
938.709	255.249
941.602	17.729
944.495	96.9126
947.388	102.323
950.28	38.2031
953.173	100.869
956.066	402.445
958.958	919.986
961.851	1841.01
964.744	3107.8
967.636	4834.98
970.529	6713.39
973.422	7233.85
976.314	6500.36
979.207	6318.74
982.1	7279.04
984.992	9224.83
987.885	11841.4
990.778	14255
993.671	14067
996.563	14641.2
999.456	16962.3
1002.35	17754.8
1005.24	13574.9
1008.13	7929.78
1011.03	4944.99
1013.92	3342.4
1016.81	2445
1019.71	1839.37
1022.6	1434.32
1025.49	1182.52
1028.38	932.76
1031.28	780.282
1034.17	636.543
1037.06	656.242
1039.95	734.057
1042.85	959.741
1045.74	1295.76
1048.63	1603.2
1051.53	1663.98
1054.42	1210.27
1057.31	517.29
1060.2	165.074
1063.1	79.0283
1065.99	41.6526
1068.88	27.3606
1071.77	62.4998
1074.67	88.4192
1077.56	83.145
1080.45	7.30518
1083.34	2.20215
1086.24	11.6069
1089.13	0.172363
1092.02	55.8279
1094.91	28.3843
1097.81	7.1167
1100.7	16.6157
1103.59	3.13159
1106.49	66.6572
1109.38	39.6494
1112.27	80.2671
1115.16	96.2087
1118.06	84.1689
1120.95	58.7275
1123.84	77.802
1126.73	98.2068
1129.63	102.223
1132.52	129.95
1135.41	133.261
1138.31	144.283
1141.2	158.081
1144.09	166.841
1146.98	157.503
1149.88	90.7463
1152.77	120.752
1155.66	115.647
1158.55	100.623
1161.45	91.5256
1164.34	32.0637
1167.23	73.1199
1170.12	58.989
1173.02	39.2356
1175.91	37.3386
1178.8	27.6333
1181.7	33.3364
1184.59	35.2139
1187.48	37.4487
1190.37	60.4236
1193.27	64.0239
1196.16	32.5388
1199.05	34.4419
1201.94	45.585
1204.84	55.2524
1207.73	16.0037
1210.62	60.408
1213.52	39.4736
1216.41	20.1995
1219.3	14.7908
1222.19	55.4465
1225.09	53.2275
1227.98	43.0828
