Measurement: Raman, 514 nm, unoriented, Raman Data Processed
Mineral: Rhodochrosite
Rruff sample: R050019
Ideal chemistry: MnCO_3_
Locality: Home Sweet Home mine, Colorado, USA
Source: Eugene Schlepp
Description: Pink single crystal rhombs on quartz
Measured chemistry: Mn_1.00_CO_3_
Raman shift (cm-1)	intensity
107.3	0
111.473	33.657
115.644	56.087
119.813	108.945
123.981	36.374
128.146	44.125
132.309	63.48
136.47	66.023
140.63	84.62
144.787	62.912
148.942	55.769
153.096	101.106
157.247	15.832
161.396	59.011
165.544	89.37
169.689	104.278
173.833	233.113
177.974	645.126
182.114	1819.37
186.251	1636.83
190.387	468.517
194.52	181.293
198.652	74.12
202.782	53.022
206.909	52.017
211.035	16.118
215.159	34.324
219.281	0.354
223.4	32.074
227.518	24.61
231.634	8.752
235.748	3.01
239.86	49.833
243.97	32.803
248.079	65.883
252.185	35.083
256.289	53.457
260.391	59.803
264.492	120.309
268.59	185.342
272.687	307.029
276.781	550.071
280.874	1346.3
284.964	3434.88
289.053	5769.58
293.14	4179.45
297.225	1891.47
301.308	850.631
305.389	452.9
309.468	285.321
313.545	229.783
317.62	152.335
321.693	120.972
325.765	103.853
329.834	86.636
333.902	58.477
337.967	67.501
342.031	54.471
346.093	7.503
350.153	8.594
354.21	27.744
358.267	38.949
362.321	68.383
366.373	35.695
370.423	79.062
374.471	34.667
378.518	58.096
382.563	19.993
386.605	20.589
390.646	0.087
394.685	68.367
398.722	5.955
402.757	40.789
406.79	37.585
410.821	58.472
414.851	25.334
418.878	11.232
422.904	64.426
426.927	9.609
430.949	0.62
434.969	44.295
438.987	30.637
443.003	2.238
447.018	11.938
451.03	32.154
455.041	68.414
459.049	35.843
463.056	21.218
467.061	0.367
471.064	17.081
475.065	26.699
479.064	4.565
483.062	2.846
487.057	11.766
491.051	49.406
495.043	17.319
499.032	32.029
503.02	56.764
507.007	92.524
510.991	23.443
514.973	4.252
518.954	15.099
522.933	33.971
526.91	39.877
530.885	12.858
534.858	58.904
538.829	4.159
542.799	4.789
546.766	66.766
550.732	61.717
554.696	24.717
558.658	25.609
562.618	9.636
566.576	26.325
570.533	44.677
574.488	59.683
578.44	23.655
582.391	41.664
586.341	47.202
590.288	94.163
594.233	1.47
598.177	54.065
602.119	38.96
606.059	13.937
609.997	46.01
613.933	46.23
617.868	35.417
621.801	55.166
625.731	39.053
629.66	60.988
633.588	61.563
637.513	65.345
641.437	78.076
645.358	24.968
649.278	42.849
653.196	30.178
657.113	60.922
661.027	70.004
664.94	79.1
668.851	31.971
672.76	54.812
676.667	48.446
680.572	64.271
684.476	18.7
688.378	130.555
692.278	38.156
696.176	96.578
700.072	20.875
703.967	77.875
707.86	166.532
711.751	321.186
715.64	1228.85
719.527	3802.63
723.413	1017.55
727.297	237.919
731.179	128.448
735.059	125.375
738.937	70.601
742.814	76.463
746.689	85.964
750.562	58.846
754.433	39.423
758.303	55.772
762.17	12.096
766.036	23.4
769.901	26.314
773.763	4.225
777.624	90.93
781.482	80.125
785.339	10.697
789.195	5.783
793.048	42.885
796.9	84.858
800.75	38.8
804.598	27.758
808.445	49.4
812.289	18.935
816.132	71.841
819.973	13.927
823.813	58.563
827.65	21.672
831.486	4.067
835.32	19.885
839.152	62.66
842.983	59.233
846.812	49.683
850.639	4.767
854.464	14.743
858.288	37.242
862.11	58.722
865.93	12.188
869.748	26.639
873.564	72.076
877.379	4.507
881.192	41.938
885.004	31.393
888.813	46.828
892.621	82.261
896.427	46.678
900.232	58.078
904.034	59.596
907.835	101.984
911.634	60.383
915.432	48.687
919.227	20.102
923.021	36.033
926.813	105.637
930.604	77.035
934.393	13.428
938.18	54.635
941.965	27.704
945.749	52.095
949.53	40.481
953.311	7.865
957.089	32.245
960.866	16.159
964.641	2.495
968.414	1.395
972.185	27.64
975.955	41.944
979.723	34.446
983.49	58.48
987.254	52.262
991.017	56.592
994.779	89.783
998.538	82.206
1002.3	149.038
1006.05	132.619
1009.81	184.723
1013.56	152.381
1017.31	154.675
1021.06	186.47
1024.81	239.17
1028.55	220.861
1032.3	255.861
1036.04	242.763
1039.78	257.748
1043.52	307.298
1047.26	361.524
1050.99	376.071
1054.73	504.001
1058.46	538.245
1062.19	689.821
1065.92	1008.14
1069.65	979.831
1073.37	1138.15
1077.1	1831.45
1080.82	3848.92
1084.54	19499.6
1088.26	51759.6
1091.97	7774.93
1095.69	2019.48
1099.4	890.967
1103.12	543.727
1106.83	400.129
1110.54	204.379
1114.24	194.038
1117.95	162.716
1121.65	148.677
1125.35	109.852
1129.06	77.82
1132.75	155.993
1136.45	54.438
1140.15	43.444
1143.84	68.927
1147.53	81.999
1151.22	19.94
1154.91	74.711
1158.6	54.271
1162.28	87.13
1165.97	3.401
1169.65	45.934
1173.33	8.347
1177.01	72.046
1180.69	34.697
1184.36	50.315
1188.04	33.859
1191.71	21.19
1195.38	50.893
1199.05	80.396
1202.71	8.298
1206.38	48.656
1210.04	40.362
1213.71	23.305
1217.37	121.165
1221.03	63.459
1224.68	26.199
1228.34	39.2
1231.99	24.639
1235.65	147.783
1239.3	82.399
1242.95	70.852
1246.59	41.239
1250.24	34.382
1253.88	59.537
1257.53	47.64
1261.17	56.459
1264.81	64.159
1268.45	93.709
1272.08	19.103
1275.72	38.361
1279.35	33.483
1282.98	48.286
1286.61	23.009
1290.24	36.561
1293.87	94.77
1297.49	81.563
1301.11	77.435
1304.73	13.197
1308.36	45.536
1311.97	33.637
1315.59	25.205
1319.2	12.767
1322.82	66.987
1326.43	36.918
1330.04	4.117
1333.65	12.491
1337.26	50.615
1340.86	54.72
1344.47	10.363
1348.07	29.103
1351.67	58.171
1355.27	40.598
1358.87	54.136
1362.46	85.534
1366.06	55.898
1369.65	95.15
1373.24	60.32
1376.83	79.26
1380.42	114.836
1384	73.967
1387.59	48.12
1391.17	104.871
1394.75	112.774
1398.33	98.896
1401.91	146.421
1405.49	150.599
1409.06	111.368
1412.64	452.954
1416.21	1286.16
1419.78	1059.7
1423.35	485.541
1426.91	315.538
1430.48	189.519
1434.05	208.676
1437.61	258.125
1441.17	195.713
1444.73	161.591
1448.29	213.102
1451.84	117.975
1455.4	131.908
1458.95	64.309
1462.5	157.549
1466.05	104.282
1469.6	50.172
1473.15	164.999
1476.69	144.737
1480.24	100.738
1483.78	60.083
1487.32	58.646
1490.86	52.625
1494.39	105.94
1497.93	124.548
1501.46	92.617
1505	105.155
1508.53	24.118
1512.06	32.307
1515.59	95.599
1519.11	83.224
1522.64	79.708
1526.16	0
