Measurement: Raman, 532 nm, unoriented, Raman Data Processed
Mineral: Rhodochrosite
Rruff sample: R050019
Ideal chemistry: MnCO_3_
Locality: Home Sweet Home mine, Colorado, USA
Source: Eugene Schlepp
Description: Pink single crystal rhombs on quartz
Measured chemistry: Mn_1.00_CO_3_
Raman shift (cm-1)	intensity
133.27	0
136.645	7.41875
140.019	5.57359
143.394	2.31257
146.769	5.69903
150.144	8.15312
153.519	22.3683
156.894	27.7647
160.268	36.6363
163.643	56.189
167.018	91.046
170.393	161.015
173.768	256.217
177.143	461.87
180.517	872.299
183.892	1362.83
187.267	581.905
190.642	186.295
194.017	82.2888
197.391	47.9165
200.766	27.8477
204.141	21.7631
207.516	13.7737
210.891	10.6447
214.266	11.1342
217.64	0.246536
221.015	0.361855
224.39	0.094673
227.765	3.42808
231.14	2.16605
234.514	0.143364
237.889	2.11948
241.264	1.71322
244.639	7.94614
248.014	11.4204
251.388	21.4438
254.763	30.5417
258.138	47.4925
261.513	75.0282
264.888	109.974
268.263	202.256
271.637	421.272
275.012	761.466
278.387	1334.1
281.762	2304.7
285.137	3507.53
288.512	4273.73
291.886	2880.84
295.261	1310.2
298.636	638.4
302.011	356.243
305.386	227.1
308.76	164.536
312.135	114.196
315.51	87.2464
318.885	73.6553
322.26	58.3837
325.635	50.3225
329.009	28.2161
332.384	26.0967
335.759	23.4511
339.134	12.5886
342.509	7.97548
345.883	8.24786
349.258	9.47479
352.633	3.33402
356.008	0.976746
359.383	0.638916
362.757	2.52241
366.132	2.00902
369.507	0.391953
372.882	5.58671
376.257	0.920059
379.632	2.95081
383.006	3.84132
386.381	2.30867
389.756	8.72968
393.131	3.97987
396.506	2.88742
399.88	1.02923
403.255	1.41223
406.63	4.2845
410.005	8.73864
413.38	0.646179
416.755	1.07165
420.129	5.57163
423.504	0.690331
426.879	7.04613
430.254	7.48732
433.629	9.28213
437.003	5.46784
440.378	6.05165
443.753	1.26575
447.128	10.3338
450.503	11.2757
453.878	6.32331
457.252	11.0351
460.627	10.8794
464.002	4.33246
467.377	5.13512
470.752	1.6264
474.127	4.6864
477.501	5.22731
480.876	6.53633
484.251	10.2527
487.626	8.29359
491.001	4.09914
494.375	2.64891
497.75	3.97093
501.125	7.31739
504.5	2.65149
507.875	6.25878
511.25	5.30364
514.624	1.30351
517.999	6.67839
521.374	0.280273
524.749	6.04872
528.124	6.6323
531.498	1.74372
534.873	8.6352
538.248	2.53818
541.623	9.12399
544.998	3.00362
548.372	1.19408
551.747	0.123116
555.122	4.08038
558.497	5.39144
561.872	8.67304
565.247	5.23761
568.621	0.115585
571.996	14.1814
575.371	3.0244
578.746	8.67346
582.121	7.90676
585.495	6.46358
588.87	1.11383
592.245	4.56927
595.62	8.196
598.995	7.72386
602.37	6.67876
605.744	7.60329
609.119	5.19118
612.494	3.76679
615.869	0.542877
619.244	11.8482
622.619	4.38185
625.993	6.01303
629.368	3.94621
632.743	7.66851
636.118	2.58232
639.493	2.17118
642.867	11.638
646.242	17.0698
649.617	3.62595
652.992	2.03419
656.367	6.39465
659.741	0.894646
663.116	8.08238
666.491	10.3409
669.866	4.16
673.241	7.05543
676.616	12.7158
679.99	2.11873
683.365	13.4456
686.74	7.17877
690.115	10.8979
693.49	12.3759
696.865	19.038
700.239	39.9502
703.614	88.2786
706.989	383.772
710.364	716.234
713.739	986.815
717.113	1628.96
720.488	980.548
723.863	170.697
727.238	71.6678
730.613	35.5776
733.987	27.2392
737.362	18.3712
740.737	12.6663
744.112	8.99805
747.487	6.18436
750.862	6.06828
754.236	1.57085
757.611	4.24774
760.986	6.67582
764.361	3.27148
767.736	6.9624
771.111	5.90597
774.485	0.243523
777.86	3.25187
781.235	3.09905
784.61	1.39859
787.985	12.0689
791.359	3.66579
794.734	2.7666
798.109	6.33553
801.484	2.36472
804.859	7.13698
808.234	6.36997
811.608	11.7573
814.983	2.04577
818.358	7.98708
821.733	9.45715
825.108	3.85222
828.482	1.50002
831.857	6.24103
835.232	8.17352
838.607	2.31876
841.982	6.87356
845.356	5.54955
848.731	10.5599
852.106	8.52221
855.481	9.52133
858.856	10.2398
862.231	10.0505
865.605	3.75442
868.98	12.6804
872.355	10.1461
875.73	11.581
879.105	7.97284
882.48	5.81255
885.854	14.2065
889.229	12.7071
892.604	13.9038
895.979	16.3074
899.354	1.30123
902.729	12.5171
906.103	11.6909
909.478	18.1966
912.853	10.2333
916.228	19.706
919.602	10.3879
922.977	16.6788
926.352	25.758
929.727	19.7587
933.102	10.5053
936.477	29.7091
939.851	13.7632
943.226	13.5623
946.601	7.42722
949.976	13.9909
953.351	18.0472
956.726	4.4676
960.1	6.23064
963.475	3.58019
966.85	5.32684
970.225	2.50178
973.6	6.07539
976.974	2.6964
980.349	0.342232
983.724	0.906487
987.099	0.008568
990.474	4.65836
993.848	5.94429
997.223	8.23146
1000.6	17.5979
1003.97	28.215
1007.35	48.3838
1010.72	40.6275
1014.1	66.2386
1017.47	65.054
1020.85	66.7617
1024.22	73.3179
1027.6	71.7928
1030.97	69.6438
1034.35	67.4949
1037.72	71.6252
1041.1	84.1147
1044.47	100.19
1047.85	145.735
1051.22	167.969
1054.6	212.278
1057.97	281.16
1061.35	363.429
1064.72	529.704
1068.09	522.362
1071.47	765.081
1074.84	1736.76
1078.22	5543.38
1081.59	12614.6
1084.97	29007.2
1088.34	11285
1091.72	2084.6
1095.09	720.398
1098.47	343.046
1101.84	189.54
1105.22	113.315
1108.59	72.7875
1111.97	42.9292
1115.34	30.6396
1118.72	16.6115
1122.09	4.81133
1125.47	6.45232
1128.84	5.40794
1132.22	0.577286
1135.59	4.73477
1138.97	12.2477
1142.34	16.0848
1145.71	1.96764
1149.09	7.24588
1152.46	4.60498
1155.84	4.71709
1159.21	1.94927
1162.59	1.55969
1165.96	9.75638
1169.34	16.9073
1172.71	7.38913
1176.09	11.7158
1179.46	9.25442
1182.84	11.1079
1186.21	8.8084
1189.59	10.1131
1192.96	17.4119
1196.34	10.6723
1199.71	18.5434
1203.09	19.2005
1206.46	17.3872
1209.84	24.4102
1213.21	12.383
1216.59	12.2588
1219.96	16.5528
1223.34	13.7606
1226.71	9.67801
1230.09	16.6073
1233.46	15.5583
1236.84	14.6072
1240.21	12.7119
1243.59	17.8681
1246.96	6.61336
1250.34	11.6421
1253.71	7.08095
1257.08	1.24916
1260.46	6.54568
1263.83	6.5703
1267.21	6.56137
1270.58	13.2999
1273.96	8.71284
1277.33	13.8407
1280.71	10.6372
1284.08	25.7832
1287.46	15.4271
1290.83	10.6624
1294.21	8.50703
1297.58	12.4099
1300.96	8.40498
1304.33	1.79785
1307.71	4.87941
