Measurement: Raman, 532 nm, unoriented, Raman Data Processed
Mineral: Rhodonite
Rruff sample: R060196
Ideal chemistry: Mn^2+^SiO_3_
Locality: Morro da Mina, Minas Gerais, Brazil
Source: Marcus Origlieri
Description: Pink transparent cleavage fragment
Measured chemistry: (Mn_0.82_Fe_0.06_Mg_0.05_Ca_0.10_)Si_0.99_O_3_
Raman shift (cm-1)	intensity
146.075	0
149.45	16.2783
152.825	67.3932
156.2	120.956
159.574	159.977
162.949	161.593
166.324	144.605
169.699	94.6045
173.074	61.8346
176.448	59.513
179.823	38.9039
183.198	0.020538
186.573	10.0932
189.948	0.651093
193.323	16.7758
196.697	26.9003
200.072	11.884
203.447	6.24921
206.822	22.9366
210.197	41.4
213.571	35.3684
216.946	19.2498
220.321	9.93927
223.696	17.5612
227.071	30.1077
230.446	41.9265
233.82	73.1407
237.195	108.051
240.57	142.421
243.945	173.694
247.32	207.868
250.695	221.473
254.069	227.454
257.444	250.618
260.819	287.565
264.194	284.369
267.568	219.621
270.943	157.226
274.318	111.94
277.693	82.0931
281.068	48.0744
284.443	17.1358
287.817	7.0098
291.192	8.23645
294.567	0.014069
297.942	16.1616
301.317	16.3863
304.692	16.3336
308.066	33.8481
311.441	70.0963
314.816	122.587
318.191	218.135
321.566	341.06
324.94	430.656
328.315	432.022
331.69	422.666
335.065	393.931
338.44	318.56
341.815	237.846
345.189	209.578
348.564	190.558
351.939	137.178
355.314	80.714
358.689	49.2827
362.063	28.7834
365.438	21.4909
368.813	22.8745
372.188	6.14166
375.563	4.48767
378.938	2.98441
382.312	23.9665
385.687	51.5467
389.062	43.6836
392.437	22.7876
395.812	4.06186
399.186	10.5169
402.561	43.7632
405.936	91.4002
409.311	140.563
412.686	193.593
416.06	260.489
419.435	291.8
422.81	210.08
426.185	98.1953
429.56	31.567
432.935	3.99432
436.309	6.03787
439.684	5.93979
443.059	1.53253
446.434	5.84692
449.809	17.7906
453.183	21.9802
456.558	20.3087
459.933	20.9608
463.308	21.2578
466.683	27.7538
470.058	28.3516
473.432	26.4007
476.807	13.2634
480.182	3.59647
483.557	4.90672
486.932	18.5251
490.306	38.6687
493.681	64.5886
497.056	96.082
500.431	123.97
503.806	184.694
507.18	258.94
510.555	259.904
513.93	165.144
517.305	81.9791
520.68	35.3534
524.055	12.6982
527.429	2.65604
530.804	2.51677
534.179	8.15462
537.554	14.6666
540.929	28.6907
544.303	41.86
547.678	45.1439
551.053	68.6621
554.428	97.844
557.803	108.289
561.178	76.7467
564.552	54.4695
567.927	52.5927
571.302	59.1797
574.677	46.689
578.052	25.3778
581.427	7.20821
584.801	0.949585
588.176	4.50674
591.551	5.53951
594.926	4.77461
598.301	7.99576
601.675	1.13582
605.05	0.519455
608.425	5.68985
611.8	10.6021
615.175	12.6043
618.549	23.8209
621.924	34.4737
625.299	48.9562
628.674	67.2987
632.049	96.2398
635.423	131.782
638.798	192.345
642.173	298.043
645.548	469.823
648.923	739.234
652.298	1184.47
655.672	1869.73
659.047	2699.82
662.422	3271.7
665.797	3636.52
669.172	3759.26
672.546	2827.17
675.921	1750.53
679.296	1158.9
682.671	744.308
686.046	446.901
689.42	279.097
692.795	193.678
696.17	140.415
699.545	106.986
702.92	97.562
706.295	101.392
709.669	104.121
713.044	102.577
716.419	101.576
719.794	88.001
723.169	69.2996
726.543	43.0211
729.918	30.9646
733.293	24.5362
736.668	25.8643
740.043	20.1151
743.418	10.1629
746.792	0.168777
750.167	3.80896
753.542	5.08019
756.917	4.1241
760.292	3.3869
763.667	3.35033
767.041	0.363174
770.416	1.40715
773.791	1.9211
777.166	4.43579
780.541	6.73679
783.915	10.8014
787.29	15.2769
790.665	17.58
794.04	20.8203
797.415	22.2976
800.789	25.9406
804.164	26.6426
807.539	27.4208
810.914	25.2913
814.289	22.0352
817.663	19.8165
821.038	18.3879
824.413	16.5216
827.788	15.2995
831.163	11.5773
834.538	9.64325
837.912	8.60927
841.287	3.83612
844.662	4.82568
848.037	1.3546
851.412	2.39883
854.787	1.22849
858.161	0.109375
861.536	10.8476
864.911	28.4036
868.286	61.0344
871.661	100.496
875.035	154.129
878.41	198.264
881.785	171.252
885.16	102.763
888.535	57.9902
891.909	29.4594
895.284	12.9136
898.659	9.8544
902.034	9.47046
905.409	14.2239
908.784	15.9297
912.158	21.4942
915.533	10.2087
918.908	6.54904
922.283	15.2826
925.658	18.9024
929.033	1.43048
932.407	40.3614
935.782	99.0765
939.157	132.689
942.532	88.4448
945.907	39.387
949.281	33.8398
952.656	61.7637
956.031	152.15
959.406	324.452
962.781	623.918
966.155	1081.36
969.53	1673.8
972.905	2221.84
976.28	2189.45
979.655	1628.32
983.029	1345.41
986.404	1346.39
989.779	1437.38
993.154	1568.21
996.529	1775.76
999.904	1789.19
1003.28	1357.48
1006.65	893.313
1010.03	568.394
1013.4	336.109
1016.78	215.018
1020.15	171.1
1023.53	163.229
1026.9	172.942
1030.28	197.78
1033.65	247.735
1037.03	296.147
1040.4	328.469
1043.78	298.33
1047.15	234.426
1050.53	150.142
1053.9	77.8967
1057.28	37.6836
1060.65	16.3157
1064.03	3.50281
1067.4	0.379669
1070.78	2.84848
1074.15	7.14435
1077.52	7.71411
1080.9	6.42749
1084.27	6.27145
1087.65	1.2038
1091.02	0.680695
1094.4	1.18469
1097.77	6.71927
1101.15	9.25275
1104.52	13.1956
1107.9	16.8917
1111.27	19.8284
1114.65	21.8505
1118.02	23.8116
1121.4	22.8242
1124.77	30.4659
1128.15	28.5301
1131.52	31.3201
1134.9	25.9307
1138.27	28.248
1141.65	25.7266
1145.02	20.6187
1148.4	18.7541
1151.77	17.8309
1155.14	17.844
1158.52	16.7124
1161.89	17.2446
1165.27	12.7399
1168.64	10.3151
1172.02	13.6136
1175.39	4.91536
1178.77	4.16446
1182.14	4.17807
1185.52	5.80696
1188.89	4.69806
1192.27	4.00035
1195.64	3.05582
1199.02	2.91725
1202.39	2.63809
1205.77	4.64891
1209.14	3.38159
1212.52	2.59883
1215.89	2.12985
1219.27	6.51108
1222.64	3.21652
1226.02	6.85997
1229.39	3.12723
1232.77	2.50362
1236.14	3.0184
1239.52	4.25682
1242.89	4.17978
1246.27	2.96286
1249.64	1.25922
1253.02	0.636353
1256.39	1.10763
1259.76	0.646851
1263.14	0.321075
1266.51	0.836365
1269.89	1.68247
1273.26	2.17108
1276.64	2.72409
1280.01	4.90308
1283.39	4.62054
1286.76	2.50833
1290.14	0.16394
1293.51	1.62335
1296.89	1.50006
1300.26	3.37961
1303.64	0.671204
