Measurement: Raman, 532 nm, unoriented, Raman Data Processed
Mineral: Rhodochrosite
Rruff sample: R100002
Ideal chemistry: MnCO_3_
Locality: Wudong mine, Liubao, Guangxi  Autonomous Region, China
Source: Marcus Origlieri
Description: Red cleavage fragment
Raman shift (cm-1)	intensity
89.6035	0
92.9783	25.3391
96.3531	8.00786
99.728	23.1321
103.103	40.6495
106.478	21.9284
109.852	30.5851
113.227	36.3574
116.602	21.9211
119.977	18.5472
123.352	16.9103
126.727	10.9653
130.101	45.5793
133.476	63.0396
136.851	55.9273
140.226	96.6131
143.601	120.974
146.975	157.927
150.35	172.5
153.725	246.061
157.1	296.902
160.475	375.657
163.85	539.495
167.224	933.549
170.599	1255
173.974	1794.37
177.349	2798.35
180.724	5119.7
184.098	7355.03
187.473	3081.29
190.848	1034.66
194.223	466.017
197.598	271.51
200.972	168.352
204.347	102.319
207.722	62.2837
211.097	39.26
214.472	22.8477
217.846	11.7846
221.221	0.811829
224.596	3.07436
227.971	9.2952
231.346	1.20808
234.721	3.34341
238.095	17.1768
241.47	25.2617
244.845	45.2575
248.22	85.6898
251.595	133.883
254.97	211.471
258.344	309.564
261.719	478.897
265.094	839.318
268.469	1567.14
271.844	3108.09
275.218	4995.61
278.593	6704.45
281.968	9363.78
285.343	13866.8
288.718	16707
292.092	11314.2
295.467	5277.07
298.842	2584.14
302.217	1463.78
305.592	941.492
308.967	652.799
312.341	457.192
315.716	341.114
319.091	281.826
322.466	205.943
325.841	182.397
329.216	128.994
332.59	101.911
335.965	73.801
339.34	79.5188
342.715	42.2796
346.09	13.5508
349.464	10.1024
352.839	3.08543
356.214	2.04128
359.589	4.24811
362.964	2.46536
366.339	14.7362
369.713	16.9304
373.088	5.87048
376.463	4.4613
379.838	10.649
383.213	9.54219
386.587	0.015488
389.962	5.57573
393.337	8.94395
396.712	18.4187
400.087	5.4449
403.462	20.7147
406.836	22.6347
410.211	7.23463
413.586	3.49254
416.961	9.38019
420.336	22.4248
423.71	22.3026
427.085	18.7996
430.46	18.4104
433.835	21.6589
437.21	1.06753
440.584	18.1932
443.959	10.7182
447.334	9.88713
450.709	17.0531
454.084	23.1095
457.459	13.0552
460.833	15.0409
464.208	10.1432
467.583	18.852
470.958	9.6959
474.333	1.05998
477.707	5.4549
481.082	8.31947
484.457	11.2567
487.832	27.5816
491.207	28.0604
494.582	21.181
497.956	31.4036
501.331	29.2147
504.706	35.869
508.081	10.6901
511.456	20.7383
514.83	24.5567
518.205	15.0035
521.58	23.8184
524.955	23.6391
528.33	40.8713
531.705	11.0532
535.079	19.2956
538.454	27.6809
541.829	35.4022
545.204	4.29237
548.579	8.10402
551.953	25.9803
555.328	17.8622
558.703	7.27138
562.078	25.1913
565.453	16.6172
568.827	21.2843
572.202	14.9808
575.577	12.8763
578.952	10.2396
582.327	19.0998
585.702	25.5605
589.076	3.76199
592.451	5.58345
595.826	16.337
599.201	19.4202
602.576	2.81286
605.95	0.116631
609.325	0.3815
612.7	12.1049
616.075	0.748459
619.45	8.79176
622.824	20.648
626.199	5.96729
629.574	14.1482
632.949	13.7179
636.324	8.09477
639.699	19.4578
643.073	23.4263
646.448	6.39772
649.823	8.66829
653.198	8.66334
656.573	11.2494
659.947	4.23686
663.322	2.53021
666.697	0.733887
670.072	7.33399
673.447	14.6534
676.822	6.21899
680.196	4.5835
683.571	15.5941
686.946	22.0572
690.321	34.1428
693.696	55.632
697.071	83.2646
700.445	140.153
703.82	365.498
707.195	1219.07
710.57	1806.55
713.945	3234.13
717.319	6106.09
720.694	5254.68
724.069	1015
727.444	381.842
730.819	197.826
734.193	121.959
737.568	70.7926
740.943	58.5269
744.318	49.8011
747.693	36.3296
751.068	26.4844
754.442	15.5045
757.817	11.103
761.192	27.6314
764.567	6.29801
767.942	15.5312
771.317	11.2255
774.691	6.95276
778.066	9.24728
781.441	16.7236
784.816	3.54584
788.191	3.28079
791.565	23.1731
794.94	14.2522
798.315	8.25222
801.69	10.0622
805.065	1.9909
808.439	4.48611
811.814	9.76896
815.189	11.0781
818.564	15.9325
821.939	16.0278
825.313	8.1338
828.688	10.3362
832.063	9.34026
835.438	8.73394
838.813	12.3388
842.188	21.9095
845.562	5.67588
848.937	7.50599
852.312	26.5303
855.687	27.3045
859.062	20.9402
862.437	35.6342
865.811	30.8218
869.186	15.9311
872.561	24.0942
875.936	29.463
879.311	45.9036
882.685	20.6442
886.06	31.5029
889.435	23.463
892.81	15.3616
896.185	19.3606
899.559	18.9106
902.934	29.3259
906.309	27.0904
909.684	28.3891
913.059	40.388
916.434	48.8161
919.808	43.9791
923.183	36.8361
926.558	51.4019
929.933	45.3639
933.308	58.9396
936.683	46.0922
940.057	38.5415
943.432	57.2558
946.807	59.9785
950.182	39.5904
953.557	20.4313
956.931	11.9761
960.306	19.7344
963.681	13.992
967.056	1.9016
970.431	8.46846
973.806	1.97707
977.18	9.32988
980.555	22.861
983.93	2.50017
987.305	6.61156
990.68	26.2074
994.054	3.4581
997.429	43.7087
1000.8	77.0591
1004.18	116.55
1007.55	147.8
1010.93	183.49
1014.3	221.285
1017.68	251.595
1021.05	287.356
1024.43	305.701
1027.8	307.496
1031.18	260.959
1034.55	259.898
1037.93	283.515
1041.3	320.022
1044.68	437.015
1048.05	539.312
1051.43	659.164
1054.8	830.71
1058.18	1044.95
1061.55	1367.57
1064.93	2003.39
1068.3	2008.45
1071.67	3051.66
1075.05	7242.22
1078.42	15501.3
1081.8	37022.9
1085.17	104038
1088.55	50586
1091.92	8122.7
1095.3	2861.33
1098.67	1399.4
1102.05	787.854
1105.42	486.213
1108.8	303.855
1112.17	199.926
1115.55	131.177
1118.92	82.3882
1122.3	40.5349
1125.67	24.4956
1129.05	12.5278
1132.42	17.2203
1135.8	3.49733
1139.17	6.94813
1142.55	18.1553
1145.92	1.51863
1149.3	11.2588
1152.67	1.36188
1156.05	9.2263
1159.42	3.29318
1162.8	0.891411
1166.17	19.0776
1169.55	13.9252
1172.92	49.6035
1176.29	26.9557
1179.67	60.1967
1183.04	49.6415
1186.42	50.7992
1189.79	42.6132
1193.17	49.1295
1196.54	54.7121
1199.92	61.4857
1203.29	58.1933
1206.67	47.2737
1210.04	32.1842
1213.42	30.9268
1216.79	36.5487
1220.17	36.5064
1223.54	18.9024
1226.92	24.0314
1230.29	36.1361
1233.67	25.6186
1237.04	24.4878
1240.42	31.0572
1243.79	29.4072
1247.17	32.5477
1250.54	24.9242
1253.91	15.2687
1257.29	15.8202
1260.66	11.9611
1264.04	20.6028
1267.41	20.5434
1270.79	24.4419
1274.16	15.0883
1277.54	9.22069
1280.91	27.7843
1284.29	10.6426
1287.66	0.486603
1291.04	16.0612
1294.41	22.2809
1297.79	22.612
1301.16	0.042267
