Measurement: Raman, 532 nm, unoriented, Raman Data Processed
Mineral: Rhodizite
Rruff sample: R050099
Ideal chemistry: KAl_4_Be_5_B_11_O_28_
Locality: Mont Ibity, Antsirabe, Madagascar
Source: Rock Currier
Description: Pale green single crystals
Measured chemistry: ([box]_0.49_K_0.32_Rb_0.17_Na_0.02_)(Al_3.96_Si_0.04_)_Σ=4_Be_4.00_(B_11.45_Be_0.55_)_Σ=12_O_28_
Raman shift (cm-1)	intensity
145.197	0
148.09	145.795
150.983	1.25781
153.875	378.537
156.768	467.809
159.661	465.603
162.554	293.848
165.446	241.34
168.339	94.7246
171.232	2.91797
174.124	160.594
177.017	166.795
179.91	225.897
182.803	356.359
185.695	415.406
188.588	292.09
191.481	205.477
194.373	199.859
197.266	218.99
200.159	50.6582
203.051	61.8457
205.944	179.121
208.837	200.537
211.729	82.2656
214.622	8.8457
217.515	55.9473
220.407	26.6895
223.3	21.416
226.193	140.742
229.086	148.082
231.978	248.357
234.871	97.9512
237.764	108.352
240.656	178.435
243.549	84.6523
246.442	145.223
249.334	85.5019
252.227	226.006
255.12	537.254
258.013	281.309
260.905	224.574
263.798	308.975
266.691	338.719
269.583	594.281
272.476	424.773
275.369	328.102
278.262	295.846
281.154	252.053
284.047	200.334
286.94	425.34
289.832	605.281
292.725	719.459
295.618	1067.82
298.51	842.713
301.403	574.129
304.296	470.815
307.188	383.758
310.081	282.025
312.974	176.731
315.867	94.3281
318.759	116.363
321.652	210.519
324.545	105.588
327.437	200.621
330.33	236.07
333.223	302.684
336.115	319.285
339.008	267.611
341.901	247.844
344.794	226.463
347.686	200.016
350.579	361.76
353.472	238.316
356.364	199.582
359.257	98.6856
362.15	110.578
365.043	65.4727
367.935	36.6543
370.828	64.3926
373.721	33.8691
376.613	1.94922
379.506	35.8066
382.399	11.1543
385.291	11.0293
388.184	29.3086
391.077	26.3867
393.969	73.4648
396.862	85.7617
399.755	101.881
402.648	79.4375
405.54	110.391
408.433	234.481
411.326	358.672
414.218	547.037
417.111	870.604
420.004	1391.05
422.897	2172.83
425.789	3016.71
428.682	4378.84
431.575	5208.19
434.467	4083.5
437.36	2128.77
440.253	1058.95
443.145	846.109
446.038	607.473
448.931	516.775
451.824	510.342
454.716	844.961
457.609	1219.28
460.502	1901.86
463.394	2926.41
466.287	4599.98
469.18	6939.97
472.072	7388.6
474.965	5399.44
477.858	3204.07
480.75	2090.51
483.643	1412.37
486.536	909.992
489.429	551.773
492.321	237.367
495.214	82.2578
498.107	24.1055
500.999	149.523
503.892	166.449
506.785	82.6445
509.678	9.26562
512.57	3.53906
515.463	90.3867
518.356	16.6484
521.248	60.1484
524.141	0.25
527.034	25.0312
529.926	174.441
532.819	367.434
535.712	437.211
538.604	239.641
541.497	457.785
544.39	586.484
547.283	347.094
550.175	371.902
553.068	273.199
555.961	174.723
558.853	282.754
561.746	429.641
564.639	228.43
567.531	209.961
570.424	76.2695
573.317	172.844
576.21	247.117
579.102	242.812
581.995	258.82
584.888	80.8945
587.78	288.246
590.673	275.402
593.566	306.703
596.458	421.184
599.351	247.703
602.244	177.559
605.136	125.125
608.029	20.4805
610.922	94.3438
613.815	134.625
616.707	210.953
619.6	166.32
622.493	2.61328
625.385	104.25
628.278	166.758
631.171	270.824
634.063	25.3438
636.956	162.625
639.849	303.949
642.742	243.359
645.634	430.078
648.527	515.078
651.42	584.957
654.312	567.344
657.205	476.262
660.098	159.012
662.99	176.641
665.883	255.461
668.776	303.207
671.669	194.734
674.561	150.914
677.454	254.754
680.347	365.383
683.239	273.859
686.132	211.332
689.025	185.91
691.918	91.6094
694.81	99.4531
697.703	72.4688
700.596	157.102
703.488	235.902
706.381	315.16
709.274	375.051
712.166	272.836
715.059	469.59
717.952	418.406
720.845	348.363
723.737	198.379
726.63	316.754
729.523	238.223
732.415	63.6562
735.308	90.0078
738.201	25.4453
741.093	34.2734
743.986	85.1211
746.879	203.644
749.771	224.055
752.664	153.578
755.557	94.3828
758.45	82.2227
761.342	57.7617
764.235	108.531
767.128	313.652
770.02	346.898
772.913	394.688
775.806	347.562
778.698	271.109
781.591	307.434
784.484	366.32
787.377	407.258
790.269	458.512
793.162	471.918
796.055	641.637
798.947	770.316
801.84	643.777
804.733	752.992
807.625	556.648
810.518	561.305
813.411	546.293
816.304	452.109
819.196	263.086
822.089	277.582
824.982	390.356
827.874	252.019
830.767	293.371
833.66	147.746
836.552	148.719
839.445	177.113
842.338	197.356
845.231	338.617
848.123	426.574
851.016	457.227
853.909	409.035
856.801	407.16
859.694	539.023
862.587	520.82
865.479	403.109
868.372	260.434
871.265	192.328
874.158	84.8867
877.05	209.953
879.943	191.016
882.836	143.715
885.728	210.809
888.621	94.8086
891.514	56.7188
894.406	84.457
897.299	191.824
900.192	167.176
903.085	14.875
905.977	39.2695
908.87	61.5625
911.763	84.5898
914.655	35.8906
917.548	101.551
920.441	37.9688
923.333	105.93
926.226	13.5547
929.119	121.473
932.011	121.812
934.904	128.394
937.797	171.191
940.69	94.625
943.582	149.055
946.475	208.363
949.368	168.988
952.26	112.754
955.153	176.527
958.046	87.7109
960.938	27.8516
963.831	8.17188
966.724	171.18
969.617	147.059
972.509	230.777
975.402	50.5469
978.295	113.816
981.187	142.945
984.08	154.004
986.973	146.305
989.865	154.535
992.758	70.918
995.651	82.4141
998.544	198.082
1001.44	312.438
1004.33	183.059
1007.22	147.207
1010.11	210.144
1013.01	38.7344
1015.9	93.5352
1018.79	24.3477
1021.68	54.2656
1024.58	77.6016
1027.47	47.3789
1030.36	86.7891
1033.26	256.453
1036.15	140.789
1039.04	115.07
1041.93	207.082
1044.83	253.531
1047.72	184.269
1050.61	124.781
1053.51	167.211
1056.4	282.746
1059.29	137.113
1062.18	229.051
1065.08	211.133
1067.97	189.574
1070.86	91.0547
1073.75	95.1133
1076.65	80.3594
1079.54	102.594
1082.43	64.4141
1085.33	71.9141
1088.22	63.0586
1091.11	39.4141
1094	71.7734
1096.89	26.8086
1099.79	39.7656
1102.68	33.6719
1105.57	175.891
1108.47	117.914
1111.36	325.707
1114.25	389.129
1117.14	386.82
1120.04	288.973
1122.93	176.981
1125.82	324.445
1128.71	370.914
1131.61	484.004
1134.5	563.234
1137.39	417.273
1140.29	339.422
1143.18	210.246
1146.07	323.254
1148.96	289.867
1151.86	75.9336
1154.75	210.688
1157.64	283.215
1160.54	214.332
1163.43	93.6836
1166.32	59.918
1169.21	216.938
1172.11	269.121
1175	237.106
1177.89	88.9766
1180.78	152.965
1183.68	117.621
1186.57	324.203
1189.46	337.191
1192.35	305.852
1195.25	415.344
1198.14	193.34
1201.03	340.078
1203.92	306.969
1206.82	477.852
1209.71	285.164
1212.6	453.023
1215.5	457.242
1218.39	455.981
1221.28	338.375
1224.17	378.793
1227.07	259.281
1229.96	373.441
1232.85	434.754
1235.74	292.113
1238.64	307.129
1241.53	291.93
1244.42	265.078
1247.32	240.254
1250.21	163.324
1253.1	98.8008
1255.99	174.32
1258.89	157.039
1261.78	136.359
1264.67	55.7148
1267.57	9.53516
1270.46	12.3164
1273.35	0.734375
