Measurement: Raman, 780 nm, unoriented, Raman Data Processed
Mineral: Rhodochrosite
Rruff sample: R100162
Ideal chemistry: MnCO_3_
Locality: N'Chwaning mine, Kuruman, Kalahari Mn area, Cape Province, South Africa
Source: William W. Pinch
Description: Reddish-purple cut gemstone
Raman shift (cm-1)	intensity
148.459	0
151.352	0.831528
154.245	0.015518
157.137	2.6793
160.03	9.96158
162.923	23.7352
165.816	40.6215
168.708	53.6886
171.601	74.4132
174.494	109.147
177.386	164.371
180.279	309.747
183.172	565.96
186.065	443.828
188.957	158.427
191.85	64.0989
194.743	32.4669
197.635	18.5153
200.528	11.5081
203.421	6.26273
206.313	2.75357
209.206	1.30572
212.099	2.93866
214.992	1.07896
217.884	1.01836
220.777	0.085503
223.67	1.57308
226.562	0.020561
229.455	0.544525
232.348	1.48735
235.24	3.01672
238.133	5.11449
241.026	9.98579
243.918	12.3985
246.811	16.2952
249.704	22.3011
252.597	29.4956
255.489	35.888
258.382	51.8338
261.275	79.6542
264.167	120.136
267.06	201.133
269.953	329.2
272.846	474.38
275.738	664.8
278.631	1003.7
281.524	1619.41
284.416	2763.11
287.309	4206.23
290.202	4297.94
293.094	2597.31
295.987	1287.79
298.88	667.763
301.772	399.855
304.665	267.03
307.558	195.897
310.45	145.865
313.343	112.63
316.236	86.4323
319.129	70.6794
322.021	59.9931
324.914	48.5733
327.807	42.608
330.699	34.4146
333.592	27.717
336.485	21.9928
339.377	18.2839
342.27	12.2411
345.163	8.39912
348.056	5.73299
350.948	3.89521
353.841	3.74087
356.734	0.787849
359.626	1.20336
362.519	0.675858
365.412	1.4649
368.305	0.719971
371.197	1.01804
374.09	1.1363
376.983	0.391834
379.875	0.623821
382.768	0.031574
385.661	0.979607
388.553	0.44944
391.446	1.60123
394.339	0.377281
397.231	2.10665
400.124	2.57363
403.017	1.07073
405.909	1.88234
408.802	0.503456
411.695	0.944851
414.588	3.26532
417.48	2.30494
420.373	3.2526
423.266	2.69288
426.158	3.7765
429.051	2.05296
431.944	2.70903
434.837	3.59191
437.729	3.93672
440.622	2.88741
443.515	2.82125
446.407	4.69346
449.3	4.08661
452.193	3.34026
455.085	3.84115
457.978	5.03292
460.871	3.07061
463.764	3.49973
466.656	0.133751
469.549	1.54485
472.442	1.56243
475.334	1.22476
478.227	1.43193
481.12	5.2881
484.012	3.24642
486.905	5.24194
489.798	2.77803
492.69	4.15371
495.583	3.90663
498.476	3.78961
501.369	4.7366
504.261	1.34088
507.154	0.980751
510.047	1.45213
512.939	2.66603
515.832	1.09667
518.725	1.4528
521.617	1.40441
524.51	2.24591
527.403	0.414213
530.296	0.588291
533.188	1.36523
536.081	0.125139
538.974	1.18758
541.866	1.84098
544.759	2.39271
547.652	2.64528
550.544	4.07205
553.437	3.22707
556.33	2.03201
559.222	2.541
562.115	3.51426
565.008	3.54331
567.901	3.61153
570.793	2.53657
573.686	2.48355
576.579	5.75872
579.471	5.58753
582.364	3.96755
585.257	1.10375
588.149	5.22952
591.042	1.80041
593.935	2.24962
596.828	0.528181
599.72	2.07373
602.613	1.25335
605.506	0.071451
608.398	0.113811
611.291	1.7131
614.184	0.958555
617.077	1.00291
619.969	1.65623
622.862	2.95862
625.755	0.926414
628.647	2.16546
631.54	3.41353
634.433	6.87354
637.325	2.2569
640.218	2.28795
643.111	1.07899
646.004	1.36326
648.896	2.7803
651.789	1.20802
654.682	4.54905
657.574	1.22892
660.467	3.19061
663.36	2.04583
666.252	0.403574
669.145	0.898127
672.038	0.197474
674.931	1.60709
677.823	2.65719
680.716	0.73983
683.609	0.369534
686.501	1.03568
689.394	1.36813
692.287	1.67011
695.179	2.99211
698.072	5.6019
700.965	11.0732
703.857	28.0022
706.75	40.2026
709.643	57.1127
712.535	105.473
715.428	279.217
718.321	630.999
721.214	278.691
724.106	54.5964
726.999	20.4333
729.892	11.8178
732.784	7.87362
735.677	4.11841
738.57	4.64195
741.462	2.73817
744.355	4.22435
747.248	2.15076
750.141	3.18001
753.033	0.004263
755.926	0.9415
758.819	1.6
761.711	1.35784
764.604	0.921713
767.497	0.293489
770.389	0.864401
773.282	2.46379
776.175	1.15104
779.068	0.207554
781.96	0.456358
784.853	1.63022
787.746	0.571468
790.638	0.90556
793.531	0.8323
796.424	1.21567
799.317	2.69914
802.209	1.24951
805.102	1.35403
807.995	1.08957
810.887	0.827448
813.78	1.72655
816.673	2.20234
819.565	1.51589
822.458	3.849
825.351	2.90919
828.244	2.48797
831.136	2.03329
834.029	0.983088
836.922	3.00056
839.814	1.83895
842.707	0.890471
845.6	3.94701
848.492	4.06105
851.385	2.31699
854.278	2.35594
857.17	1.85885
860.063	2.67075
862.956	3.11424
865.849	3.50129
868.741	2.65142
871.634	1.63004
874.527	3.61758
877.419	3.8938
880.312	4.09156
883.205	1.17631
886.097	3.1673
888.99	2.05512
891.883	3.14816
894.775	1.80873
897.668	2.21477
900.561	0.847683
903.454	2.19131
906.346	2.96117
909.239	3.0693
912.132	2.29795
915.024	3.30575
917.917	2.45763
920.81	3.22611
923.702	4.44566
926.595	5.73308
929.488	4.76153
932.381	1.40545
935.273	3.08146
938.166	4.08416
941.059	4.85393
943.951	2.83815
946.844	5.26941
949.737	4.49622
952.63	3.81587
955.522	1.88407
958.415	3.43125
961.308	2.3174
964.2	0.145132
967.093	0.768452
969.986	0.638065
972.878	1.26257
975.771	2.30805
978.664	0.914385
981.557	1.16272
984.449	0.893068
987.342	1.57473
990.235	0.666643
993.127	0.929888
996.02	2.27811
998.913	4.12332
1001.8	9.32124
1004.7	12.6269
1007.59	17.724
1010.48	20.2515
1013.38	21.471
1016.27	21.8894
1019.16	27.74
1022.05	26.6573
1024.95	28.513
1027.84	25.3141
1030.73	22.2535
1033.62	17.5699
1036.52	18.6413
1039.41	25.075
1042.3	29.265
1045.2	38.7357
1048.09	50.3021
1050.98	60.2506
1053.87	76.1972
1056.77	92.0152
1059.66	110.067
1062.55	153.198
1065.44	220.845
1068.34	207.143
1071.23	322.051
1074.12	702.927
1077.02	1010.47
1079.91	1823.4
1082.8	4497.67
1085.69	14479.2
1088.59	4848.47
1091.48	960.055
1094.37	365.583
1097.26	186.386
1100.16	107.85
1103.05	69.6119
1105.94	46.4088
1108.84	30.4868
1111.73	19.977
1114.62	12.0563
1117.51	8.40129
1120.41	5.99709
1123.3	1.45562
1126.19	0.415878
1129.08	0.331064
1131.98	0.748119
1134.87	0.124691
1137.76	1.27746
1140.65	1.60028
1143.55	2.68904
1146.44	0.022867
1149.33	0.072664
1152.23	1.3647
1155.12	0.399141
1158.01	1.00609
1160.9	0.562229
1163.8	0.304119
1166.69	2.92867
1169.58	1.16432
1172.47	2.59542
1175.37	3.09081
1178.26	1.79204
1181.15	4.04162
1184.05	5.205
1186.94	6.18271
1189.83	5.0564
1192.72	5.57619
1195.62	5.18853
1198.51	6.50934
1201.4	4.98578
1204.29	5.11118
1207.19	6.43724
1210.08	6.28956
1212.97	2.66367
1215.87	3.07565
1218.76	3.95038
1221.65	3.60528
1224.54	4.24828
1227.44	3.01984
1230.33	2.61297
1233.22	1.03878
1236.11	1.54519
1239.01	2.53048
1241.9	4.12752
1244.79	1.86938
1247.68	1.97532
1250.58	1.40509
1253.47	4.43162
1256.36	1.58152
1259.26	2.64123
1262.15	0.352833
1265.04	0.399523
1267.93	3.16565
1270.83	1.85569
1273.72	3.50217
1276.61	2.76404
1279.5	2.30049
1282.4	1.02655
