Measurement: Raman, 780 nm, unoriented, Raman Data Processed
Mineral: Rhodonite
Rruff sample: R060363
Ideal chemistry: Mn^2+^SiO_3_
Locality: 2600' level, Broken Hill mine, New South Wales, Australia
Source: Herb Obodda
Description: Reddish brown cleavage fragment
Measured chemistry: (Mn_0.75_Fe_0.18_Ca_0.09_)Si_0.99_O_3_
Raman shift (cm-1)	intensity
142.155	0
145.048	0.137299
147.941	7.17657
150.834	13.5723
153.726	14.391
156.619	29.5921
159.512	58.0804
162.404	84.8265
165.297	83.2337
168.19	56.459
171.083	43.3506
173.975	40.4131
176.868	34.5403
179.761	16.0696
182.653	4.29386
185.546	0.911728
188.439	0.026321
191.331	3.95988
194.224	0.456841
197.117	1.46871
200.01	2.94189
202.902	2.73129
205.795	7.31497
208.688	9.9639
211.58	13.7057
214.473	13.7269
217.366	12.0155
220.258	13.5528
223.151	20.4643
226.044	32.1244
228.936	43.6755
231.829	59.7673
234.722	78.6579
237.615	94.5955
240.507	106.832
243.4	120.262
246.293	134.95
249.185	138.929
252.078	141.513
254.971	143.755
257.863	149.942
260.756	155.346
263.649	148.962
266.542	127.27
269.434	106.106
272.327	88.444
275.22	67.3038
278.112	45.2595
281.005	27.8529
283.898	13.159
286.791	6.47199
289.683	4.17024
292.576	8.89204
295.469	14.772
298.361	12.128
301.254	5.75049
304.147	1.14191
307.039	4.02546
309.932	1.79897
312.825	7.64813
315.717	20.2831
318.61	40.6543
321.503	69.1213
324.396	96.665
327.288	111.219
330.181	113.315
333.074	106.2
335.966	91.8225
338.859	77.5262
341.752	70.1929
344.644	71.406
347.537	71.4496
350.43	62.0192
353.323	48.8073
356.215	40.0639
359.108	34.4138
362.001	30.2512
364.893	25.1303
367.786	19.7287
370.679	15.4686
373.572	9.30685
376.464	2.7363
379.357	0.009354
382.25	2.19729
385.142	0.531349
388.035	3.63533
390.928	2.25576
393.82	1.36655
396.713	0.456554
399.606	0.892483
402.498	3.72665
405.391	12.216
408.284	19.7026
411.177	27.0082
414.069	37.7489
416.962	48.1922
419.855	44.7975
422.747	29.3925
425.64	13.3037
428.533	6.28697
431.425	2.75015
434.318	0.327068
437.211	1.28458
440.104	0.52557
442.996	0.655548
445.889	1.47092
448.782	3.24767
451.674	5.32961
454.567	7.89969
457.46	8.57181
460.353	11.7298
463.245	15.1523
466.138	21.5753
469.031	25.2398
471.923	22.9683
474.816	18.0873
477.709	15.1667
480.601	9.06361
483.494	8.73615
486.387	7.99125
489.279	9.4973
492.172	11.3145
495.065	14.3638
497.958	15.5381
500.85	20.0603
503.743	27.5242
506.636	37.9125
509.528	41.3736
512.421	35.2188
515.314	25.407
518.207	15.5468
521.099	8.32784
523.992	3.86955
526.885	1.71978
529.777	0.498219
532.67	0.197498
535.563	2.11679
538.455	3.63872
541.348	5.20107
544.241	5.19676
547.134	6.88986
550.026	9.28475
552.919	12.749
555.812	15.3422
558.704	16.5146
561.597	14.6576
564.49	16.9132
567.382	23.0764
570.275	28.2918
573.168	24.8938
576.061	16.4828
578.953	8.82512
581.846	4.02038
584.739	1.2434
587.631	1.28327
590.524	0.515852
593.417	1.49383
596.309	1.55234
599.202	1.9283
602.095	1.37155
604.987	1.641
607.88	0.402964
610.773	1.1474
613.666	1.82137
616.558	5.27524
619.451	4.54283
622.344	6.69256
625.236	10.2344
628.129	12.5595
631.022	16.4248
633.915	21.7608
636.807	31.9057
639.7	42.1559
642.593	59.4646
645.485	83.3586
648.378	122.593
651.271	182.229
654.163	282.546
657.056	424.732
659.949	584.58
662.842	707.596
665.734	823.848
668.627	952.12
671.52	909.598
674.412	686.984
677.305	476.15
680.198	340.725
683.091	236.162
685.983	151.904
688.876	102.12
691.769	69.9298
694.661	52.1182
697.554	40.472
700.447	32.7117
703.339	28.6255
706.232	26.8578
709.125	26.609
712.018	26.6309
714.91	24.7436
717.803	22.4546
720.696	21.0206
723.588	18.2572
726.481	13.3306
729.374	9.02665
732.266	9.00481
735.159	8.83004
738.052	7.04282
740.944	6.46569
743.837	4.64439
746.73	1.94662
749.623	0.494146
752.515	1.34339
755.408	0.991682
758.301	1.60317
761.193	0.370687
764.086	0.435097
766.979	0.232599
769.871	0.517609
772.764	0.450188
775.657	0.567205
778.55	1.04028
781.442	0.379728
784.335	1.61365
787.228	2.66923
790.12	3.27018
793.013	3.66041
795.906	4.92215
798.798	5.49567
801.691	7.13058
804.584	6.11477
807.477	6.2672
810.369	6.73869
813.262	6.02063
816.155	5.95158
819.047	5.7522
821.94	5.55564
824.833	2.9173
827.726	3.65831
830.618	2.68633
833.511	3.05686
836.404	2.80794
839.296	1.45629
842.189	1.4756
845.082	1.96457
847.974	0.936472
850.867	1.35842
853.76	0.723866
856.653	3.39965
859.545	2.71419
862.438	2.94707
865.331	5.62102
868.223	8.06574
871.116	11.7913
874.009	15.4168
876.901	19.6966
879.794	20.7874
882.687	17.7419
885.58	10.8906
888.472	6.84613
891.365	2.87546
894.258	0.923435
897.15	0.334887
900.043	1.83664
902.936	0.487049
905.828	0.587437
908.721	1.47933
911.614	0.875698
914.506	0.359188
917.399	1.00635
920.292	0.755814
923.185	2.51475
926.077	1.44629
928.97	1.1824
931.863	6.06384
934.755	15.6563
937.648	21.7718
940.541	21.3888
943.433	17.7601
946.326	12.6961
949.219	15.7584
952.112	19.4072
955.004	29.6946
957.897	50.118
960.79	87.2376
963.682	139.564
966.575	215.142
969.468	298.589
972.361	365.118
975.253	371.906
978.146	327.297
981.039	283.908
983.931	269.051
986.824	290.897
989.717	334.608
992.609	389.135
995.502	437.432
998.395	412.88
1001.29	325.851
1004.18	231.869
1007.07	161.37
1009.97	108.312
1012.86	72.67
1015.75	52.1955
1018.64	40.2464
1021.54	35.3109
1024.43	32.3832
1027.32	32.8795
1030.21	34.0788
1033.11	36.5742
1036	42.2743
1038.89	46.6301
1041.79	49.004
1044.68	44.2266
1047.57	31.9533
1050.46	18.858
1053.36	11.3541
1056.25	7.3654
1059.14	4.39091
1062.03	1.7057
1064.93	1.13458
1067.82	0.200644
1070.71	1.52034
1073.61	1.38028
1076.5	1.35256
1079.39	0.84889
1082.28	0.922987
1085.18	0.961794
1088.07	0.145472
1090.96	0.016138
1093.85	0.70236
1096.75	0.921646
1099.64	1.80577
1102.53	1.34558
1105.42	1.90383
1108.32	3.31219
1111.21	3.19896
1114.1	3.41419
1116.99	5.03088
1119.89	4.30739
1122.78	4.88805
1125.67	5.14646
1128.57	5.30139
1131.46	5.90334
1134.35	5.1768
1137.24	4.37357
1140.14	5.8695
1143.03	4.54164
1145.92	4.00721
1148.82	4.40613
1151.71	3.57076
1154.6	3.94824
1157.49	4.56019
1160.39	2.92258
1163.28	2.74718
1166.17	2.95137
1169.06	2.35605
1171.96	2.94438
1174.85	2.1765
1177.74	1.62626
1180.63	0.995852
1183.53	2.09834
1186.42	1.9044
1189.31	1.47027
1192.21	1.28641
1195.1	1.62789
1197.99	2.42138
1200.88	0.037225
1203.78	0.735565
1206.67	1.29102
1209.56	0.742912
1212.45	1.13468
1215.35	0.839345
1218.24	2.02005
1221.13	1.44728
1224.03	0.379024
1226.92	1.09934
1229.81	1.16549
1232.7	0.406132
1235.6	0.684449
1238.49	0.331644
1241.38	0.916183
1244.27	3.20286
1247.17	0.794704
1250.06	2.05405
1252.95	0.041371
1255.85	0.643649
1258.74	1.24712
1261.63	0.706012
1264.52	0.116926
1267.42	1.09088
1270.31	0.080081
1273.2	0.526769
1276.09	1.47091
1278.99	0.834482
1281.88	0.609312
1284.77	0.045163
