Measurement: Raman, 514 nm, unoriented, Raman Data Processed
Mineral: Rhodizite
Rruff sample: R050099
Ideal chemistry: KAl_4_Be_5_B_11_O_28_
Locality: Mont Ibity, Antsirabe, Madagascar
Source: Rock Currier
Description: Pale green single crystals
Measured chemistry: ([box]_0.49_K_0.32_Rb_0.17_Na_0.02_)(Al_3.96_Si_0.04_)_Σ=4_Be_4.00_(B_11.45_Be_0.55_)_Σ=12_O_28_
Raman shift (cm-1)	intensity
118.424	0
121.203	427.064
123.981	219.473
126.758	192.92
129.534	11.977
132.309	171.416
135.083	144.584
137.857	254.938
140.63	304.408
143.401	193.211
146.172	298.771
148.942	350.713
151.711	335.666
154.48	443.365
157.247	316.602
160.013	232.205
162.779	427.982
165.544	451.754
168.308	439.398
171.07	335.893
173.833	265.68
176.594	382.072
179.354	521.021
182.114	422.516
184.872	563.566
187.63	458.184
190.387	384.281
193.143	309.832
195.898	416.219
198.652	475.865
201.405	458.533
204.158	306.42
206.909	755.359
209.66	545.428
212.41	232.67
215.159	227.121
217.907	356.863
220.654	160.775
223.4	264.146
226.146	323.211
228.891	385.145
231.634	309.74
234.377	99.551
237.119	221.604
239.86	260.455
242.601	282.957
245.34	282.898
248.079	131.578
250.816	217.623
253.553	119.396
256.289	374.922
259.024	378.037
261.758	274.363
264.492	112.906
267.224	83.875
269.956	18.949
272.687	331.619
275.416	83.658
278.146	334.895
280.874	309.248
283.601	326.895
286.327	110.775
289.053	452.578
291.778	756.189
294.502	1030.32
297.225	1176.09
299.947	695.293
302.668	269.883
305.389	635.891
308.108	186.209
310.827	225.848
313.545	4.266
316.262	226.857
318.978	212.201
321.693	26.75
324.408	235.479
327.121	151.365
329.834	75.619
332.546	165.516
335.257	171.781
337.967	300.172
340.677	88.684
343.385	1.689
346.093	180.365
348.799	122.275
351.505	142.254
354.21	243.764
356.915	61.939
359.618	90.199
362.321	269.549
365.022	76.992
367.723	92.232
370.423	98.686
373.122	23.842
375.821	375.57
378.518	312.516
381.215	125.707
383.91	5.85
386.605	254.346
389.299	29.373
391.992	175.982
394.685	185.041
397.376	466.283
400.067	299.832
402.757	209.863
405.446	406.105
408.134	436.951
410.821	459.262
413.508	591.809
416.193	777.436
418.878	1067.42
421.562	1540.1
424.245	2686.7
426.927	3457.15
429.609	4448.95
432.289	4477.75
434.969	3208.64
437.648	1916.4
440.326	1202.36
443.003	751.371
445.68	762.689
448.355	778.234
451.03	574.061
453.704	939.77
456.377	856.758
459.049	1071.68
461.721	1814.97
464.391	3201.57
467.061	5317.93
469.73	6200.66
472.398	5746.35
475.065	4357.11
477.731	3458.79
480.397	2600.97
483.062	1726.32
485.725	1106.39
488.389	488.621
491.051	239.363
493.712	196.105
496.373	119.754
499.032	191.047
501.691	248.984
504.349	38.211
507.007	158.074
509.663	284.48
512.319	160.441
514.973	221.309
517.627	704.504
520.28	556.48
522.933	171.18
525.584	49.09
528.235	36.398
530.885	358.012
533.534	90.184
536.182	285.328
538.829	251.977
541.476	222.785
544.121	66.914
546.766	734.387
549.41	411.707
552.053	562.238
554.696	114.754
557.337	367.992
559.978	197.34
562.618	374.758
565.257	129.418
567.895	139.938
570.533	419.281
573.17	47.672
575.805	94.637
578.44	73.074
581.075	353.766
583.708	356.93
586.341	60.707
588.972	493.531
591.603	376.316
594.233	218.719
596.863	377.637
599.491	172.602
602.119	302.863
604.746	373.055
607.372	198.414
609.997	11.953
612.621	41.129
615.245	334.816
617.868	297.461
620.49	519.137
623.111	789.52
625.731	747.867
628.351	508.836
630.97	231.398
633.588	354.781
636.205	157.363
638.821	336.887
641.437	714.914
644.051	367.527
646.665	604.828
649.278	742.855
651.89	555.609
654.502	582
657.113	336.25
659.722	773.035
662.331	388.301
664.94	592.688
667.547	584.371
670.154	675.73
672.76	304.391
675.365	226.168
677.969	381.164
680.572	372.555
683.175	450.77
685.777	355.156
688.378	120.668
690.978	548.656
693.577	453.523
696.176	6.949
698.774	283.617
701.371	647.078
703.967	88.887
706.562	955.586
709.157	179.715
711.751	86.938
714.344	378.32
716.936	42.359
719.527	466.16
722.118	428.629
724.708	397.387
727.297	215.043
729.885	369.062
732.472	490.582
735.059	212.25
737.645	358.512
740.23	330.824
742.814	223.574
745.397	438.027
747.98	143.906
750.562	161.512
753.143	64.043
755.723	121.473
758.303	733.836
760.881	362.68
763.459	611.082
766.036	11.465
768.613	11.301
771.188	328.434
773.763	726.211
776.337	612.445
778.91	370.52
781.482	346.695
784.054	524.031
786.625	684.363
789.195	783.793
791.764	532.668
794.332	573.855
796.9	867.941
799.467	805.543
802.033	899.703
804.598	1326.27
807.163	1193.41
809.726	882.082
812.289	811.414
814.851	559.438
817.413	372.188
819.973	925.66
822.533	654.816
825.092	561.062
827.65	638.109
830.208	486.121
832.764	347.805
835.32	628.227
837.875	724.23
840.429	354.07
842.983	726.57
845.536	882.121
848.088	710.738
850.639	830.859
853.189	294.191
855.739	792.719
858.288	1161.24
860.836	997.797
863.383	567.562
865.93	642.727
868.475	922.773
871.02	648.355
873.564	518.668
876.108	298.805
878.65	845.34
881.192	527.934
883.733	568.152
886.274	513.141
888.813	1050.16
891.352	573.184
893.89	130.082
896.427	83.562
898.964	186.48
901.499	369.637
904.034	435.348
906.568	479.668
909.102	323.008
911.634	120.086
914.166	300.984
916.697	328.465
919.227	691.57
921.757	484.52
924.285	504.617
926.813	583.477
929.341	302.699
931.867	596.492
934.393	626.422
936.918	33.527
939.442	256.742
941.965	438.449
944.488	49.688
947.009	152.922
949.53	319.801
952.051	397.008
954.57	380.625
957.089	395.473
959.607	177.207
962.124	83.289
964.641	610.426
967.156	691.039
969.671	63.102
972.185	109.121
974.699	605.203
977.211	411.898
979.723	759.918
982.234	97.027
984.745	21.566
987.254	992.828
989.763	717.246
992.271	456.102
994.779	547.816
997.285	905.789
999.791	135.203
1002.3	227.004
1004.8	748.02
1007.3	616.434
1009.81	547.457
1012.31	812.746
1014.81	549.996
1017.31	595.949
1019.81	117.227
1022.31	711.992
1024.81	1118.39
1027.31	240.195
1029.8	14.645
1032.3	211.508
1034.79	691.703
1037.29	356.023
