Measurement: Raman, 532 nm, unoriented, Raman Data Processed
Mineral: Rhodonite
Rruff sample: R060363
Ideal chemistry: Mn^2+^SiO_3_
Locality: 2600' level, Broken Hill mine, New South Wales, Australia
Source: Herb Obodda
Description: Reddish brown cleavage fragment
Measured chemistry: (Mn_0.75_Fe_0.18_Ca_0.09_)Si_0.99_O_3_
Raman shift (cm-1)	intensity
90.4922	0
93.867	0.263876
97.2418	3.18608
100.617	3.23021
103.992	5.50464
107.366	5.76264
110.741	9.66436
114.116	10.2086
117.491	5.85674
120.865	6.18796
124.24	2.2075
127.615	0.803225
130.99	1.70111
134.365	0.367691
137.74	1.55323
141.114	2.60102
144.489	7.73761
147.864	13.6723
151.239	30.6832
154.614	53.1803
157.988	70.0373
161.363	85.3625
164.738	92.5746
168.113	69.137
171.488	52.5939
174.863	45.4551
178.237	39.7295
181.612	33.9152
184.987	34.9292
188.362	43.2263
191.737	44.7567
195.112	38.2495
198.486	29.1866
201.861	29.8701
205.236	36.321
208.611	35.966
211.986	27.6853
215.36	19.0086
218.735	14.7514
222.11	11.6155
225.485	12.642
228.86	13.2326
232.234	20.873
235.609	25.3199
238.984	30.081
242.359	36.1437
245.734	47.2061
249.109	48.5463
252.483	47.1839
255.858	45.4832
259.233	44.5308
262.608	42.077
265.983	35.7929
269.358	25.8355
272.732	19.3321
276.107	13.1548
279.482	10.3997
282.857	2.2691
286.232	2.66479
289.606	2.57898
292.981	0.442757
296.356	2.12257
299.731	1.44613
303.106	0.802391
306.481	1.3163
309.855	6.7877
313.23	17.6124
316.605	35.343
319.98	59.531
323.355	82.3294
326.729	98.4573
330.104	108.374
333.479	108.053
336.854	92.8232
340.229	74.838
343.603	69.486
346.978	66.7999
350.353	57.0825
353.728	34.649
357.103	17.2598
360.478	9.19022
363.852	3.75259
367.227	1.15138
370.602	0.800346
373.977	0.840214
377.352	0.178665
380.726	7.31373
384.101	12.1388
387.476	17.0866
390.851	13.4961
394.226	15.5005
397.601	15.5125
400.975	25.5514
404.35	44.5896
407.725	68.9555
411.1	98.41
414.475	136.597
417.849	167.338
421.224	138.502
424.599	77.1697
427.974	38.6142
431.349	17.6378
434.724	8.13142
438.098	3.76742
441.473	3.71327
444.848	9.63105
448.223	12.7995
451.598	15.7455
454.972	18.4379
458.347	15.42
461.722	10.7985
465.097	8.1353
468.472	4.33756
471.846	0.990702
475.221	0.687843
478.596	0.549219
481.971	1.95601
485.346	1.29004
488.721	6.16499
492.095	13.0459
495.47	18.8424
498.845	23.7808
502.22	34.503
505.595	49.2527
508.969	52.9066
512.344	39.9273
515.719	23.7329
519.094	12.0661
522.469	5.71837
525.844	2.45164
529.218	2.21442
532.593	2.09059
535.968	4.45997
539.343	6.36134
542.718	8.61719
546.092	10.1457
549.467	16.7599
552.842	25.3074
556.217	34.5613
559.592	25.4359
562.967	15.3586
566.341	11.7089
569.716	10.4569
573.091	8.37509
576.466	4.93499
579.841	2.17546
583.216	0.491871
586.59	0.326746
589.965	1.2966
593.34	2.19388
596.715	0.973248
600.09	0.233124
603.464	1.25936
606.839	1.4934
610.214	1.81837
613.589	3.91213
616.964	4.48648
620.338	7.17599
623.713	9.94301
627.088	12.7974
630.463	16.6063
633.838	24.0801
637.212	33.2268
640.587	46.0781
643.962	66.849
647.337	104.47
650.712	166.365
654.087	272.999
657.461	431.207
660.836	584.817
664.211	646.523
667.586	716.402
670.961	716.973
674.335	524.971
677.71	340.005
681.085	226.712
684.46	140.786
687.835	83.9423
691.21	54.0418
694.584	36.1765
697.959	25.5256
701.334	18.5505
704.709	14.6123
708.084	12.6562
711.458	11.0514
714.833	10.7702
718.208	10.1987
721.583	7.90289
724.958	5.34308
728.332	1.94776
731.707	2.28266
735.082	4.2199
738.457	4.58403
741.832	3.15708
745.207	1.42688
748.581	0.39912
751.956	1.79879
755.331	0.619024
758.706	0.862095
762.081	1.43678
765.456	0.113274
768.83	0.089315
772.205	0.157072
775.58	0.792536
778.955	1.1966
782.33	2.76833
785.704	2.24978
789.079	3.15435
792.454	3.07882
795.829	8.83917
799.204	6.00333
802.578	6.03158
805.953	6.26781
809.328	6.06447
812.703	5.29518
816.078	5.34957
819.453	5.37103
822.827	4.53806
826.202	2.78468
829.577	1.70128
832.952	1.75411
836.327	0.569132
839.702	1.11838
843.076	0.267326
846.451	0.619038
849.826	0.668562
853.201	0.66292
856.576	0.456108
859.95	2.58736
863.325	6.90746
866.7	13.1449
870.075	20.8196
873.45	32.6319
876.824	41.7314
880.199	42.8952
883.574	35.2722
886.949	22.1139
890.324	12.3468
893.698	6.41188
897.073	0.73362
900.448	0.999836
903.823	0.875046
907.198	1.19421
910.573	1.37137
913.947	0.746086
917.322	1.90947
920.697	2.38501
924.072	3.62196
927.447	2.79156
930.822	13.5044
934.196	33.5147
937.571	49.8528
940.946	44.9685
944.321	27.0323
947.696	16.7633
951.07	16.0287
954.445	27.8615
957.82	52.4124
961.195	96.2245
964.57	167.191
967.944	267.638
971.319	371.04
974.694	430.251
978.069	371.919
981.444	303.402
984.819	275.119
988.193	267.584
991.568	280.525
994.943	303.595
998.318	296.764
1001.69	244.679
1005.07	183.593
1008.44	128.278
1011.82	85.7526
1015.19	56.1614
1018.57	40.0514
1021.94	34.8242
1025.32	34.2131
1028.69	37.9144
1032.07	45.1184
1035.44	53.6514
1038.82	62.0286
1042.19	61.49
1045.57	48.9905
1048.94	28.5096
1052.32	15.9975
1055.69	6.93795
1059.07	4.14802
1062.44	0.007858
1065.81	1.09699
1069.19	0.867344
1072.56	1.98211
1075.94	0.914494
1079.31	1.36479
1082.69	0.683615
1086.06	0.498331
1089.44	0.957287
1092.81	2.15014
1096.19	1.36993
1099.56	3.57059
1102.94	4.79342
1106.31	4.37642
1109.69	4.26428
1113.06	6.91195
1116.44	6.00676
1119.81	6.57472
1123.19	6.67512
1126.56	6.62607
1129.94	7.8391
1133.31	5.93946
1136.68	5.54673
1140.06	4.25682
1143.43	5.20088
1146.81	3.64414
1150.18	3.37056
1153.56	4.07356
1156.93	3.45325
1160.31	3.36286
1163.68	2.84315
1167.06	1.817
1170.43	2.36054
1173.81	1.82542
1177.18	1.40934
1180.56	1.72906
1183.93	1.01551
1187.31	1.32715
1190.68	0.749358
1194.06	1.35519
1197.43	1.12834
1200.81	1.67799
1204.18	1.64367
1207.56	0.108476
1210.93	1.37437
1214.31	1.44659
1217.68	1.21183
1221.06	1.21378
1224.43	0.918096
1227.81	0.721743
1231.18	0.296741
1234.56	0.988273
1237.93	1.26557
1241.31	1.03617
1244.68	0.365576
1248.05	0.507091
1251.43	0.212099
1254.8	0.512738
1258.18	0.403754
1261.55	1.32019
1264.93	0.295406
1268.3	0.300328
1271.68	1.43693
1275.05	1.40167
1278.43	1.13216
1281.8	0.203295
1285.18	1.26438
1288.55	1.06623
1291.93	1.11987
1295.3	1.70688
1298.68	1.89924
1302.05	0.024041
