Measurement: Raman, 532 nm, unoriented, Raman Data Processed
Mineral: Rhodizite
Rruff sample: R110072
Ideal chemistry: KAl_4_Be_5_B_11_O_28_
Locality: Sahanivotry, Sud Antzirabe, Madagascar
Source: Renato & Adriana Pagano
Description: Pale yellow dodecahedra
Raman shift (cm-1)	intensity
186.916	0
189.808	64.0821
192.701	4.60889
195.594	37.2905
198.486	61.8243
201.379	54.9348
204.272	97.5927
207.164	33.6212
210.057	41.1589
212.95	27.0574
215.843	35.6382
218.735	29.2648
221.628	32.6116
224.521	31.1283
227.413	34.7217
230.306	30.4367
233.199	47.2488
236.091	28.3047
238.984	13.0905
241.877	4.49231
244.769	20.4038
247.662	28.312
250.555	5.46033
253.448	33.2172
256.34	43.3938
259.233	67.0345
262.126	37.8192
265.018	10.5185
267.911	35.861
270.804	30.0277
273.697	30.1027
276.589	82.7231
279.482	70.9663
282.375	126.531
285.267	195.279
288.16	261.141
291.053	443.537
293.945	653.619
296.838	748.7
299.731	605.485
302.623	343.62
305.516	259.839
308.409	216.053
311.302	157.874
314.194	72.2075
317.087	51.5371
319.98	8.21643
322.872	35.3558
325.765	3.06592
328.658	13.235
331.55	1.7251
334.443	1.85205
337.336	14.0488
340.229	7.06165
343.121	56.2959
346.014	89.6263
348.907	84.3988
351.799	48.5265
354.692	67.0335
357.585	68.459
360.478	26.6238
363.37	11.6182
366.263	22.4982
369.156	16.8081
372.048	21.8567
374.941	18.8839
377.834	2.26599
380.726	4.12073
383.619	28.9315
386.512	39.5458
389.404	14.1255
392.297	6.08447
395.19	28.4211
398.083	79.9147
400.975	72.7466
403.868	112.909
406.761	140.452
409.653	206.044
412.546	316.773
415.439	483.845
418.332	732.363
421.224	1146
424.117	1660.97
427.01	2294.55
429.902	2824.18
432.795	2865.67
435.688	2000.36
438.58	1037.6
441.473	571.37
444.366	449.661
447.259	379.219
450.151	354.643
453.044	421.921
455.937	657.129
458.829	1007.11
461.722	1573.16
464.615	2334.07
467.507	3490.69
470.4	4702.06
473.293	4784.18
476.185	3234.14
479.078	2027.88
481.971	1185.2
484.864	710.053
487.756	377.947
490.649	181.735
493.542	88.5276
496.434	44.0266
499.327	6.74585
502.22	37.3616
505.113	17.6408
508.005	7.26257
510.898	7.38806
513.791	21.699
516.683	29.7053
519.576	7.19763
522.469	11.2679
525.361	37.1726
528.254	20.4137
531.147	58.2687
534.04	73.2573
536.932	100.024
539.825	108.515
542.718	175.487
545.61	170.882
548.503	158.061
551.396	119.6
554.288	67.5712
557.181	41.2989
560.074	44.868
562.967	0.390381
565.859	32.637
568.752	43.8158
571.645	5.33728
574.537	37.6648
577.43	17.1155
580.323	28.3361
583.216	2.11462
586.108	15.2404
589.001	14.8667
591.894	16.1689
594.786	31.4556
597.679	16.4391
600.572	15.1928
603.464	5.31763
606.357	18.8682
609.25	0.392822
612.142	33.0653
615.035	49.0348
617.928	31.3041
620.821	34.2073
623.713	17.7571
626.606	11.2918
629.499	30.3855
632.391	25.8768
635.284	75.8771
638.177	65.8219
641.069	158.614
643.962	212.062
646.855	260.893
649.747	325.936
652.64	334.866
655.533	276.104
658.426	161.514
661.318	96.1224
664.211	61.6251
667.104	77.075
669.996	85.458
672.889	73.7612
675.782	57.5157
678.674	47.6992
681.567	47.7023
684.46	17.9844
687.353	10.3656
690.245	36.7041
693.138	52.0314
696.031	50.1788
698.923	66.7666
701.816	105.641
704.709	117.628
707.601	116.194
710.494	123.709
713.387	153.888
716.28	120.45
719.172	78.1573
722.065	47.2617
724.958	46.0435
727.85	24.4189
730.743	11.9585
733.636	11.4202
736.529	12.4628
739.421	8.52808
742.314	13.9061
745.207	30.9773
748.099	16.3429
750.992	12.9742
753.885	2.2843
756.777	19.4282
759.67	10.8296
762.563	7.41748
765.456	14.4984
768.348	5.78442
771.241	34.1348
774.134	66.3577
777.026	74.6587
779.919	105.195
782.812	106.669
785.704	150.059
788.597	175.553
791.49	252.933
794.383	300.615
797.275	343.079
800.168	372.054
803.061	355.849
805.953	339.348
808.846	292.589
811.739	254.097
814.631	247.295
817.524	237.724
820.417	214.978
823.309	192.681
826.202	178.028
829.095	179.8
831.988	160.929
834.88	161.573
837.773	173.181
840.666	200.86
843.558	204.1
846.451	238.417
849.344	302.771
852.236	341.08
855.129	387.787
858.022	436.602
860.915	413.692
863.807	418.96
866.7	341.89
869.593	286.141
872.485	227.133
875.378	210.627
878.271	170.468
881.163	109.617
884.056	128.118
886.949	114.691
889.842	111.372
892.734	109.102
895.627	83.844
898.52	59.0881
901.412	45.2283
904.305	52.5427
907.198	27.7041
910.091	31.4561
912.983	18.0422
915.876	36.2241
918.769	40.0962
921.661	24.8232
924.554	16.6805
927.447	13.9279
930.339	15.7688
933.232	8.72082
936.125	4.11633
939.018	20.4607
941.91	1.61719
944.803	19.1811
947.696	5.09644
950.588	9.54285
953.481	2.75525
956.374	0.789917
959.266	9.30688
962.159	14.9094
965.052	57.8278
967.944	10.1918
970.837	40.8893
973.73	39.3475
976.623	25.2211
979.515	23.2531
982.408	28.0459
985.301	47.834
988.193	26.3447
991.086	56.2688
993.979	24.9833
996.871	42.5035
999.764	42.9327
1002.66	6.77942
1005.55	69.5554
1008.44	30.7201
1011.34	33.0989
1014.23	35.2852
1017.12	19.2227
1020.01	49.0134
1022.91	55.2356
1025.8	17.6992
1028.69	20.7483
1031.58	57.5627
1034.48	68.7349
1037.37	48.6846
1040.26	55.6292
1043.15	105.823
1046.05	93.9199
1048.94	141.039
1051.83	172.095
1054.73	192.687
1057.62	212.079
1060.51	249.957
1063.4	187.108
1066.3	167.668
1069.19	127.369
1072.08	76.551
1074.97	31.5249
1077.87	21.7979
1080.76	58.9839
1083.65	10.4512
1086.55	14.3184
1089.44	14.0847
1092.33	5.08838
1095.22	8.97705
1098.12	20.3828
1101.01	14.9888
1103.9	43.4045
1106.79	33.5874
1109.69	68.9507
1112.58	86.6348
1115.47	107.47
1118.37	84.96
1121.26	101.003
1124.15	45.8213
1127.04	110.186
1129.94	93.7437
1132.83	62.0981
1135.72	60.2642
1138.61	75.2373
1141.51	57.4333
1144.4	52.4812
1147.29	33.1406
1150.18	46.7434
1153.08	58.1316
1155.97	41.9231
1158.86	24.5867
1161.76	0.859863
1164.65	32.9734
1167.54	29.8557
1170.43	7.70654
1173.33	9.53125
1176.22	19.3225
1179.11	12.7539
1182	6.27905
1184.9	25.3745
1187.79	9.58838
1190.68	1.68774
1193.58	29.1155
1196.47	50.9431
1199.36	45.9768
1202.25	42.1284
1205.15	37.4194
1208.04	75.1929
1210.93	70.0173
1213.82	57.3359
1216.72	9.80762
1219.61	10.2438
1222.5	23.5665
1225.39	18.3629
1228.29	52.1445
1231.18	45.7889
1234.07	41.6033
1236.97	76.5594
1239.86	28.9584
1242.75	33.354
1245.64	56.7085
1248.54	16.9468
1251.43	7.40149
1254.32	22.9065
1257.21	18.7992
1260.11	36.3167
1263	20.8638
1265.89	25.3149
1268.79	9.31116
1271.68	57.295
1274.57	8.22668
1277.46	43.4815
1280.36	48.4713
1283.25	2.81653
1286.14	17.2217
1289.03	21.6271
1291.93	24.6444
1294.82	2.04248
1297.71	22.2155
1300.61	28.5615
