Measurement: Raman, 780 nm, unoriented, Raman Data Processed
Mineral: Rhodonite
Rruff sample: X080001
Ideal chemistry: Mn^2+^SiO_3_
Locality: Brazil
Source: Michael Scott
Description: Red polished gemstone
Raman shift (cm-1)	intensity
127.196	0
130.571	9.52554
133.946	32.6319
137.321	46.9746
140.695	18.1539
144.07	0.62886
147.445	4.88554
150.82	15.9121
154.195	27.0259
157.569	44.576
160.944	60.6704
164.319	57.0896
167.694	45.0079
171.069	26.76
174.444	18.9597
177.818	17.0949
181.193	9.91633
184.568	1.77792
187.943	0.677563
191.318	4.15318
194.692	2.48947
198.067	0.643612
201.442	2.86909
204.817	6.61747
208.192	11.3752
211.566	17.1782
214.941	19.4558
218.316	18.7748
221.691	17.7277
225.066	21.1779
228.441	29.2407
231.815	39.0858
235.19	51.4367
238.565	64.9943
241.94	78.2436
245.315	90.8525
248.69	96.1465
252.064	101.404
255.439	103.709
258.814	107.262
262.189	106.151
265.563	86.9886
268.938	60.0423
272.313	39.1873
275.688	23.7298
279.063	11.5732
282.438	1.29956
285.812	0.380653
289.187	1.53286
292.562	9.59367
295.937	18.0777
299.312	26.0624
302.687	29.5837
306.061	33.1611
309.436	32.6827
312.811	37.9579
316.186	47.2675
319.561	62.7539
322.935	77.9854
326.31	83.0212
329.685	82.0842
333.06	76.3294
336.435	66.3881
339.809	50.4759
343.184	42.1691
346.559	39.5345
349.934	33.5834
353.309	25.1671
356.683	20.4198
360.058	16.8048
363.433	15.0276
366.808	10.4736
370.183	7.31032
373.558	3.86783
376.932	0.908127
380.307	4.14532
383.682	7.48621
387.057	11.6097
390.432	11.7211
393.807	7.04568
397.181	1.04387
400.556	3.48074
403.931	3.0614
407.306	0.634945
410.681	2.81567
414.055	5.42281
417.43	8.96409
420.805	10.7414
424.18	9.50285
427.555	10.4317
430.93	16.7087
434.304	20.0321
437.679	19.4823
441.054	13.5502
444.429	9.2384
447.804	7.35023
451.178	10.6058
454.553	10.862
457.928	10.2615
461.303	7.81531
464.678	5.67088
468.053	5.76272
471.427	5.55539
474.802	4.49992
478.177	3.43394
481.552	2.06114
484.926	2.65941
488.301	5.81607
491.676	9.54336
495.051	11.5459
498.426	9.51532
501.801	6.642
505.175	7.18977
508.55	8.30463
511.925	7.0983
515.3	3.06907
518.675	0.818233
522.049	0.292521
525.424	0.027157
528.799	1.39203
532.174	3.14176
535.549	6.59936
538.924	11.6607
542.298	16.0348
545.673	16.6552
549.048	16.0318
552.423	18.1762
555.798	22.7351
559.173	22.2887
562.547	19.8699
565.922	20.5563
569.297	23.9066
572.672	23.9843
576.047	15.9428
579.421	7.5182
582.796	3.45207
586.171	0.877785
589.546	0.338188
592.921	0.875837
596.295	1.72064
599.67	0.459185
603.045	1.21197
606.42	0.482409
609.795	0.666521
613.169	1.49765
616.544	1.49342
619.919	3.77893
623.294	5.74007
626.669	7.99833
630.044	12.8743
633.418	17.8935
636.793	28.4931
640.168	44.4492
643.543	69.3423
646.918	110.388
650.293	167.037
653.667	251.456
657.042	347.719
660.417	442.874
663.792	511.483
667.167	563.144
670.541	517.579
673.916	361.163
677.291	242.157
680.666	165.424
684.041	101.791
687.415	62.6029
690.79	39.3906
694.165	29.5271
697.54	22.6549
700.915	18.8463
704.29	18.7596
707.664	19.5642
711.039	21.1088
714.414	20.2316
717.789	18.6591
721.164	16.7406
724.538	13.6216
727.913	10.7502
731.288	9.8488
734.663	9.48811
738.038	9.76208
741.413	7.38379
744.787	3.9517
748.162	1.14905
751.537	0.451271
754.912	0.911701
758.287	0.670273
761.661	0.605804
765.036	0.406421
768.411	0.276958
771.786	0.683447
775.161	0.231116
778.535	0.940066
781.91	1.42319
785.285	1.28384
788.66	2.4346
792.035	2.61292
795.409	2.73342
798.784	3.04325
802.159	3.91028
805.534	3.58781
808.909	3.40746
812.284	4.15686
815.658	6.63562
819.033	3.78156
822.408	4.0586
825.783	2.43621
829.158	2.21404
832.533	1.96051
835.907	2.16292
839.282	2.61176
842.657	3.08008
846.032	3.0426
849.407	2.73025
852.781	2.86046
856.156	2.79271
859.531	2.45969
862.906	3.54056
866.281	3.74745
869.655	4.25695
873.03	4.91844
876.405	6.0115
879.78	5.77539
883.155	3.31074
886.529	1.00998
889.904	0.327518
893.279	0.688936
896.654	0.984707
900.029	0.494629
903.404	0.142807
906.778	0.477036
910.153	0.968462
913.528	0.947622
916.903	0.247776
920.278	1.3178
923.653	0.624851
927.027	1.25994
930.402	3.78683
933.777	7.49375
937.152	10.8131
940.527	10.3909
943.901	5.92834
947.276	3.50436
950.651	7.88644
954.026	17.7417
957.401	37.2094
960.775	70.7739
964.15	116.393
967.525	168.775
970.9	218.834
974.275	239.065
977.65	211.929
981.024	192.135
984.399	204.893
987.774	234.265
991.149	278.39
994.524	327.648
997.899	360.688
1001.27	319.313
1004.65	226.651
1008.02	150.872
1011.4	94.465
1014.77	58.4759
1018.15	35.97
1021.52	24.7134
1024.9	20.3867
1028.27	15.4038
1031.65	15.4776
1035.02	15.3962
1038.4	18.3861
1041.77	22.8395
1045.15	27.5936
1048.52	24.9446
1051.9	18.3541
1055.27	10.8069
1058.64	6.04841
1062.02	4.42816
1065.39	2.40317
1068.77	0.446356
1072.14	0.084129
1075.52	0.779362
1078.89	1.58175
1082.27	1.49894
1085.64	0.362751
1089.02	0.483912
1092.39	0.483709
1095.77	0.253214
1099.14	0.142022
1102.52	1.42951
1105.89	1.80844
1109.27	2.31907
1112.64	2.5412
1116.02	2.55818
1119.39	2.64796
1122.77	2.83751
1126.14	3.38364
1129.52	3.34447
1132.89	3.28334
1136.27	3.88114
1139.64	3.51698
1143.02	3.0644
1146.39	3.01368
1149.77	2.78607
1153.14	2.81936
1156.52	1.96433
1159.89	2.05048
1163.26	1.96171
1166.64	1.30971
1170.01	1.29686
1173.39	1.47354
1176.76	1.09811
1180.14	0.913357
1183.51	0.674623
1186.89	0.550477
1190.26	0.47131
1193.64	0.737833
1197.01	0.64598
1200.39	0.480192
1203.76	0.755815
1207.14	0.777995
1210.51	0.864303
1213.89	0.54759
1217.26	0.537642
1220.64	0.904421
1224.01	0.477373
1227.39	0.251014
1230.76	0.993804
1234.13	0.19818
1237.51	0.730715
1240.88	0.852594
1244.26	0.250456
1247.63	0.918036
1251.01	0.736521
1254.38	0.120861
1257.76	0.446057
1261.13	0.268972
1264.51	0.443715
1267.88	0.175533
1271.26	0.106779
1274.63	0.012482
1278.01	0.31138
1281.38	0.435405
1284.76	0.020256
