Measurement: Raman, 532 nm, unoriented, Raman Data Processed
Mineral: Rhodonite
Rruff sample: R060549
Ideal chemistry: Mn^2+^SiO_3_
Locality: unknown
Source: Gemological Institute of America
Description: Pink cleavage fragment
Measured chemistry: (Mn_0.76_Ca_0.12_Fe_0.07_Mg_0.06_)Si_0.99_O_3_
Raman shift (cm-1)	intensity
112.362	0
115.736	274.072
119.111	814.987
122.486	916.521
125.861	791.344
129.236	1273.21
132.61	2421.68
135.985	4030.74
139.36	3887.72
142.735	1813.88
146.11	672.184
149.484	504.992
152.859	841.253
156.234	1520.41
159.609	2371.63
162.984	2354.6
166.359	1823.57
169.733	1323.62
173.108	874.387
176.483	854.197
179.858	935.744
183.233	838.986
186.607	683.974
189.982	299.496
193.357	16.208
196.732	116.923
200.107	175.885
203.482	177.432
206.857	42.851
210.231	215.74
213.606	448.742
216.981	450.054
220.356	297.468
223.731	191.641
227.105	231.686
230.48	477.881
233.855	748.995
237.23	1213.1
240.605	1581.25
243.98	1896.27
247.354	2154.01
250.729	2338.79
254.104	2409.2
257.479	2607.16
260.854	3072.29
264.228	3187.66
267.603	2521.26
270.978	1729.54
274.353	1282.08
277.728	800.967
281.103	314.803
284.477	12.17
287.852	36.957
291.227	438.302
294.602	1210.07
297.977	2099.81
301.351	2571.42
304.726	2577.82
308.101	2178.48
311.476	1743.62
314.851	1596.15
318.225	2044.31
321.6	2941.17
324.975	3628.86
328.35	3602.55
331.725	3577.57
335.1	3654.29
338.474	3307.48
341.849	2647.14
345.224	2235.7
348.599	2079.98
351.974	1721.07
355.349	1371.05
358.723	1267.52
362.098	1182.85
365.473	1072.11
368.848	789.401
372.223	555.648
375.597	346.173
378.972	279.322
382.347	448.153
385.722	830.148
389.097	1118.69
392.471	887.765
395.846	297.045
399.221	39.411
402.596	165.159
405.971	149.223
409.346	44.336
412.72	52.087
416.095	178.07
419.47	289.354
422.845	415.596
426.22	609.336
429.595	1068.59
432.969	1718.65
436.344	2272.48
439.719	1898.31
443.094	1219.67
446.469	835.258
449.843	836.077
453.218	906.272
456.593	950.364
459.968	891.129
463.343	798.562
466.717	664.71
470.092	771.136
473.467	875.269
476.842	649.75
480.217	395.629
483.592	350.222
486.966	443.116
490.341	755.932
493.716	1190.67
497.091	1181.25
500.466	841.083
503.841	717.235
507.215	889.541
510.59	980.868
513.965	732.473
517.34	403.602
520.715	175.815
524.089	9.625
527.464	54.115
530.839	10.043
534.214	101.257
537.589	344.079
540.964	689.842
544.338	863.622
547.713	683.672
551.088	572.167
554.463	697.774
557.838	802.388
561.213	707.526
564.587	735.155
567.962	924.651
571.337	1131.01
574.712	956.921
578.086	545.035
581.461	262.177
584.836	97.788
588.211	2.276
591.586	46.224
594.961	53.938
598.335	85.62
601.71	46.26
605.085	28.157
608.46	5.979
611.835	11.515
615.209	67.245
618.584	110.611
621.959	222.57
625.334	288.414
628.709	469.196
632.084	642.562
635.458	932.347
638.833	1315.51
642.208	1868.17
645.583	2831.67
648.958	4299.95
652.333	6922.35
655.707	11304.6
659.082	17701.6
662.457	23488.4
665.832	30357.4
669.207	34769.4
672.581	26916.4
675.956	17528.9
679.331	12256.9
682.706	7892.43
686.081	4663.94
689.456	2925.44
692.83	1959.47
696.205	1438.86
699.58	1175.84
702.955	1092.4
706.33	1180.36
709.705	1443.12
713.079	1601.15
716.454	1653.84
719.829	1526.89
723.204	1155.09
726.579	755.334
729.953	595.743
733.328	574.092
736.703	653.207
740.078	605.086
743.453	442.206
746.828	201.723
750.202	58.51
753.577	50.116
756.952	18.007
760.327	68.114
763.702	22.889
767.076	31.916
770.451	26.004
773.826	25.95
777.201	24.043
780.576	15.948
783.951	49.504
787.325	84.3
790.7	105.062
794.075	174.386
797.45	203.402
800.825	223.432
804.199	263.176
807.574	246.918
810.949	268.402
814.324	261.498
817.699	264.559
821.073	201.3
824.448	140.299
827.823	166.611
831.198	178.749
834.573	193.623
837.948	172.591
841.322	183.723
844.697	171.872
848.072	142.245
851.447	164.127
854.822	109.973
858.196	57.405
861.571	80.998
864.946	73.991
868.321	157.287
871.696	183.809
875.071	252.674
878.445	256.656
881.82	239.247
885.195	54.055
888.57	16.598
891.945	25.35
895.32	1.776
898.694	26.94
902.069	55.423
905.444	46.165
908.819	220.556
912.194	287.96
915.568	254.27
918.943	103.68
922.318	20.826
925.693	128.492
929.068	0.134
932.443	210.166
935.817	705.892
939.192	845.028
942.567	483.687
945.942	68.976
949.317	49.22
952.692	247.663
956.066	833.052
959.441	1895.49
962.816	3819.58
966.191	7056.54
969.566	11433.9
972.94	15823.4
976.315	16380.5
979.69	13827.1
983.065	13626.6
986.44	15299.6
989.815	18039.2
993.189	21780
996.564	26869.9
999.939	28929.8
1003.31	23912.3
1006.69	16400.3
1010.06	10393.7
1013.44	6229.99
1016.81	3626.14
1020.19	2259.29
1023.56	1617.5
1026.94	1310.61
1030.31	1057.84
1033.69	973.222
1037.06	1044.54
1040.44	1182.93
1043.81	1652.14
1047.19	2323.26
1050.56	2344.17
1053.94	1710.04
1057.31	1040.55
1060.69	628.174
1064.06	421.883
1067.43	257.697
1070.81	116.126
1074.18	15.46
1077.56	57.475
1080.93	83.925
1084.31	33.093
1087.68	52.754
1091.06	40.187
1094.43	16.83
1097.81	3.68
1101.18	42.685
1104.56	115.468
1107.93	118.145
1111.31	143.021
1114.68	153.77
1118.06	202.998
1121.43	181.463
1124.81	197.94
1128.18	229.674
1131.56	242.149
1134.93	263.876
1138.31	225.242
1141.68	257.005
1145.06	172.197
1148.43	167.396
1151.81	195.789
1155.18	149.148
1158.56	191.561
1161.93	112.231
1165.31	121.366
1168.68	51.876
1172.06	58.994
1175.43	90.68
1178.8	88.103
1182.18	42.741
1185.55	24.234
1188.93	14.634
1192.3	70.842
1195.68	91.331
1199.05	63.381
1202.43	89.365
1205.8	63.329
1209.18	56.872
1212.55	76.219
1215.93	51.272
1219.3	102.575
1222.68	56
1226.05	57.269
1229.43	46.183
1232.8	80.598
1236.18	30.208
1239.55	80.888
1242.93	77.959
1246.3	48.587
1249.68	81.633
1253.05	57.523
1256.42	47.12
1259.8	55.132
1263.17	5.526
1266.55	17.246
1269.92	64.204
1273.3	46.143
1276.67	54.438
1280.05	35.427
1283.42	25.753
1286.8	53.01
1290.17	11.505
