Measurement: Raman, 785 nm, unoriented, Raman Data Processed
Mineral: Rhodochrosite
Rruff sample: R040133
Ideal chemistry: MnCO_3_
Locality: Imuris, Sonora, Mexico
Source: University of Arizona Mineral Museum
Description: Pink cleavage fragment
Measured chemistry: (Mn_0.92_Mg_0.02_Ca_0.01_)C_1.02_O_3_
Raman shift (cm-1)	intensity
166.338	0
169.231	41.9752
172.124	175.625
175.017	336.825
177.909	599.45
180.802	1151.47
183.695	1834.92
186.587	1366.5
189.48	480.734
192.373	171.871
195.265	88.9274
198.158	46.255
201.051	27.436
203.944	13.054
206.836	3.78786
209.729	3.70783
212.622	1.54634
215.514	6.10818
218.407	2.46027
221.3	8.25505
224.192	6.08727
227.085	3.85021
229.978	7.35462
232.87	14.9709
235.763	16.2485
238.656	30.1645
241.549	27.5007
244.441	39.4113
247.334	45.2668
250.227	53.3607
253.119	74.7093
256.012	88.0931
258.905	99.9623
261.798	129.516
264.69	173.886
267.583	255.848
270.476	416.078
273.368	680.195
276.261	1037.66
279.154	1443.2
282.046	1837.1
284.939	2458.85
287.832	3077.85
290.724	3118.66
293.617	2214.15
296.51	1243.73
299.403	711.531
302.295	453.568
305.188	291.851
308.081	228.566
310.973	175.763
313.866	133.663
316.759	124.772
319.651	93.8351
322.544	81.5254
325.437	62.1374
328.33	49.6043
331.222	49.2154
334.115	38.7603
337.008	34.5611
339.9	24.7564
342.793	14.9826
345.686	14.8179
348.579	7.56618
351.471	5.84648
354.364	8.81695
357.257	11.7388
360.149	2.93534
363.042	7.31887
365.935	4.64993
368.827	1.67387
371.72	7.35136
374.613	1.07387
377.505	2.66898
380.398	3.68553
383.291	2.14789
386.184	2.83054
389.076	2.13998
391.969	2.2258
394.862	5.47601
397.754	3.73616
400.647	5.45353
403.54	5.92045
406.433	0.65736
409.325	4.18735
412.218	3.54171
415.111	3.64398
418.003	6.69549
420.896	8.9365
423.789	0.153519
426.681	7.4246
429.574	8.71855
432.467	5.28593
435.36	5.68009
438.252	8.74245
441.145	7.68722
444.038	4.6584
446.93	5.62639
449.823	6.95195
452.716	8.24811
455.608	8.3335
458.501	5.82688
461.394	2.16736
464.286	10.5621
467.179	6.29674
470.072	5.21683
472.965	0.772591
475.857	2.60311
478.75	2.03055
481.643	3.78642
484.535	3.18779
487.428	9.78297
490.321	11.0431
493.214	11.4753
496.106	12.4229
498.999	8.36515
501.892	5.95649
504.784	2.26577
507.677	6.93482
510.57	11.2914
513.462	7.87217
516.355	0.122246
519.248	7.31171
522.14	7.60987
525.033	4.95443
527.926	2.34884
530.819	4.32275
533.711	7.35222
536.604	5.64489
539.497	0.422829
542.389	7.16617
545.282	3.71683
548.175	2.07266
551.067	2.10756
553.96	4.88887
556.853	6.95864
559.745	5.98585
562.638	3.46534
565.531	5.82576
568.424	6.64079
571.316	8.84538
574.209	9.3177
577.102	8.03402
579.994	5.27032
582.887	6.55729
585.78	3.78752
588.673	3.59489
591.565	3.7419
594.458	4.53918
597.351	0.439186
600.243	4.94092
603.136	5.6884
606.029	4.57908
608.921	10.4834
611.814	3.39486
614.707	4.36462
617.6	6.15298
620.492	6.82963
623.385	3.50441
626.278	7.07613
629.17	1.05375
632.063	3.00133
634.956	5.46338
637.848	2.43748
640.741	3.6833
643.634	3.25214
646.527	8.03455
649.419	4.10683
652.312	6.40288
655.205	1.57637
658.097	7.7075
660.99	0.497211
663.883	4.3109
666.775	1.45368
669.668	5.9902
672.561	4.35125
675.454	3.24945
678.346	0.456627
681.239	3.43923
684.132	0.555962
687.024	13.84
689.917	4.30415
692.81	20.1223
695.702	32.3258
698.595	47.827
701.488	65.5701
704.381	124.221
707.273	320.337
710.166	615.018
713.059	1038.55
715.951	1814.53
718.844	2812.08
721.737	1485.17
724.63	473.148
727.522	208.044
730.415	95.6477
733.308	54.806
736.2	29.5555
739.093	21.7262
741.986	13.9111
744.878	9.94391
747.771	5.28629
750.664	9.10023
753.557	6.54236
756.449	7.84623
759.342	3.08489
762.235	1.96947
765.127	2.08047
768.02	8.97934
770.913	6.34352
773.805	4.97921
776.698	8.18885
779.591	8.39574
782.484	0.392513
785.376	2.86923
788.269	8.31397
791.162	1.96717
794.054	7.3352
796.947	1.55866
799.84	2.18453
802.732	1.75911
805.625	3.97003
808.518	1.9923
811.41	1.128
814.303	8.72281
817.196	6.51097
820.089	3.11995
822.981	9.84684
825.874	0.819946
828.767	3.02903
831.659	5.54322
834.552	1.94212
837.445	5.39396
840.337	6.6668
843.23	2.20212
846.123	2.35851
849.016	11.5519
851.908	6.05293
854.801	9.73372
857.694	3.8978
860.586	11.5427
863.479	14.5479
866.372	18.5499
869.264	11.0065
872.157	8.71078
875.05	4.59762
877.943	8.30733
880.835	8.6752
883.728	10.2974
886.621	11.3818
889.513	17.0495
892.406	11.2675
895.299	8.2982
898.192	14.7799
901.084	9.98293
903.977	4.91869
906.87	14.5266
909.762	9.35546
912.655	8.94153
915.548	10.1982
918.44	10.465
921.333	10.9654
924.226	18.6338
927.119	20.5273
930.011	18.46
932.904	20.9079
935.797	20.9061
938.689	17.0426
941.582	19.5174
944.475	17.4973
947.367	16.477
950.26	15.5094
953.153	7.57609
956.045	12.9442
958.938	4.87024
961.831	5.32711
964.724	2.27908
967.616	0.057884
970.509	3.306
973.402	1.93853
976.294	7.09486
979.187	0.778652
982.08	1.31932
984.972	6.61996
987.865	5.56216
990.758	2.68664
993.651	1.71894
996.543	9.7239
999.436	17.1775
1002.33	31.9875
1005.22	46.7284
1008.11	53.0697
1011.01	60.3463
1013.9	80.2848
1016.79	77.1401
1019.68	85.3792
1022.58	95.7591
1025.47	97.3163
1028.36	86.1031
1031.26	83.9975
1034.15	84.2747
1037.04	92.3971
1039.93	108.215
1042.83	123.442
1045.72	160.081
1048.61	182.995
1051.51	210.766
1054.4	253.955
1057.29	343.63
1060.18	419.125
1063.08	579.55
1065.97	701.1
1068.86	762.967
1071.75	1077.62
1074.65	2012.21
1077.54	4941.73
1080.43	10236.5
1083.32	23598.7
1086.22	35979.2
1089.11	15283.4
1092	5084.14
1094.89	1847.95
1097.79	823.93
1100.68	431.623
1103.57	262.77
1106.47	158.878
1109.36	102.543
1112.25	70.2475
1115.14	55.0917
1118.04	41.1141
1120.93	21.5841
1123.82	12.4973
1126.71	7.31158
1129.61	3.59071
1132.5	4.56218
1135.39	5.91676
1138.29	0.055206
1141.18	0.673004
1144.07	7.51935
1146.96	2.93179
1149.86	1.97077
1152.75	2.62083
1155.64	3.95748
1158.53	4.98452
1161.43	3.5665
1164.32	1.70925
1167.21	6.77857
1170.11	4.8542
1173	5.33679
1175.89	4.12737
1178.78	8.60297
1181.68	11.8951
1184.57	15.167
1187.46	16.6702
1190.35	22.3664
1193.25	21.2442
1196.14	21.6973
1199.03	21.0003
1201.92	16.1512
1204.82	15.7212
1207.71	12.7522
1210.6	15.9377
1213.5	10.2577
1216.39	12.6854
1219.28	3.75069
1222.17	12.0103
1225.07	0.641792
1227.96	1.61939
1230.85	7.01421
1233.74	7.62331
1236.64	7.81239
1239.53	4.01186
1242.42	2.45122
