Measurement: Raman, 514 nm, unoriented, Raman Data Processed
Mineral: Rhodochrosite
Rruff sample: R040133
Ideal chemistry: MnCO_3_
Locality: Imuris, Sonora, Mexico
Source: University of Arizona Mineral Museum
Description: Pink cleavage fragment
Measured chemistry: (Mn_0.92_Mg_0.02_Ca_0.01_)C_1.02_O_3_
Raman shift (cm-1)	intensity
133.696	0
137.857	25.096
142.016	40.1
146.172	8.022
150.327	26.326
154.48	10.715
158.63	25.186
162.779	87.898
166.926	110.611
171.07	179.487
175.213	487.128
179.354	1215.86
183.493	1589.65
187.63	1238.82
191.765	408.011
195.898	217.218
200.029	139.111
204.158	106.095
208.285	127.089
212.41	36.108
216.533	0.12
220.654	5.191
224.773	18.304
228.891	10.453
233.006	2.377
237.119	25.806
241.231	8.041
245.34	40.224
249.448	14.423
253.553	11.738
257.657	62.195
261.758	61.374
265.858	114.716
269.956	190.208
274.052	365.13
278.146	813.117
282.237	2084.01
286.327	3784.79
290.416	4248.61
294.502	2608.47
298.586	1166.1
302.668	565.954
306.749	336.377
310.827	187.06
314.903	180.637
318.978	133.186
323.051	88.653
327.121	78.1
331.19	67.451
335.257	50.817
339.322	55.117
343.385	44.263
347.446	16.361
351.505	42.332
355.563	24.302
359.618	60.233
363.672	15.261
367.723	32.204
371.773	14.142
375.821	1.398
379.866	50.34
383.91	46.093
387.952	11.676
391.992	9.322
396.031	29.369
400.067	10.34
404.101	11.772
408.134	16.807
412.165	4.45
416.193	20.486
420.22	2.313
424.245	11.698
428.268	25.491
432.289	12.735
436.309	11.277
440.326	24.02
444.342	51.797
448.355	22.612
452.367	6.333
456.377	8.634
460.385	24.382
464.391	30.067
468.395	6.811
472.398	16.57
476.398	15.263
480.397	19.957
484.394	25.585
488.389	17.244
492.382	24.845
496.373	3.433
500.362	19.008
504.349	13.733
508.335	18.255
512.319	7.812
516.3	29.409
520.28	7.983
524.259	19.323
528.235	25.899
532.209	22.373
536.182	19.789
540.152	23.233
544.121	6.777
548.088	9.218
552.053	22.544
556.017	15.005
559.978	26.012
563.938	43.767
567.895	22.295
571.851	16.745
575.805	19.177
579.758	7.608
583.708	29.059
587.657	17.489
591.603	20.09
595.548	18.499
599.491	22.971
603.432	2.474
607.372	35.887
611.309	19.227
615.245	9.497
619.179	15.989
623.111	38.134
627.041	3.413
630.97	2.732
634.896	1.491
638.821	19.365
642.744	4.718
646.665	30.916
650.584	43.269
654.502	53.377
658.418	33.157
662.331	23.361
666.244	41.675
670.154	8.011
674.062	41.528
677.969	16.66
681.874	6.717
685.777	14.786
689.678	30.911
693.577	49.579
697.475	34.157
701.371	64.96
705.265	70.87
709.157	183.791
713.047	554.841
716.936	2375.78
720.823	2566.7
724.708	529.628
728.591	224.527
732.472	90.195
736.352	56.018
740.23	40.313
744.106	34.95
747.98	28.834
751.853	40.386
755.723	12.175
759.592	23.859
763.459	31.567
767.325	25.455
771.188	25.567
775.05	47.233
778.91	14.897
782.768	26.425
786.625	15.95
790.479	33.565
794.332	64.135
798.183	18.646
802.033	3.178
805.88	20.022
809.726	27.523
813.57	11.001
817.413	5.303
821.253	11.747
825.092	53.101
828.929	45.484
832.764	19.787
836.598	11.235
840.429	14.506
844.259	12.254
848.088	0.033
851.914	22.141
855.739	5.329
859.562	15.509
863.383	5.681
867.203	2.843
871.02	23.996
874.836	21.141
878.65	15.279
882.463	13.41
886.274	25.538
890.083	8.659
893.89	32.781
897.695	25.886
901.499	1.981
905.301	15.073
909.102	5.09
912.9	47.115
916.697	52.195
920.492	36.291
924.285	22.391
928.077	18.031
931.867	29.255
935.655	23.345
939.442	15.366
943.226	47.989
947.009	0.61
950.791	55.43
954.57	16.486
958.348	6.592
962.124	50.738
965.899	21.306
969.671	40.431
973.442	14.478
977.211	17.478
980.979	16.31
984.745	5.492
988.509	41.689
992.271	26.863
996.032	67.189
999.791	70.269
1003.55	90.989
1007.3	116.261
1011.06	137.558
1014.81	176.858
1018.56	180.001
1022.31	211.322
1026.06	232.673
1029.8	239.034
1033.55	255.423
1037.29	254.709
1041.03	240.129
1044.77	284.561
1048.5	331.407
1052.24	393.808
1055.97	436.576
1059.7	527.083
1063.43	735.364
1067.16	972.903
1070.89	939.318
1074.61	1427.01
1078.34	2581.75
1082.06	8264.37
1085.78	42981
1089.5	22167.6
1093.21	4869.32
1096.93	1594.68
1100.64	792.5
1104.35	484.451
1108.06	325.841
1111.77	252.697
1115.48	224.049
1119.18	192.475
1122.89	210.27
1126.59	147.476
1130.29	104.32
1133.99	85.146
1137.68	60.979
1141.38	53.897
1145.07	68.796
1148.76	36.788
1152.45	47.831
1156.14	27.745
1159.83	36.726
1163.51	34.628
1167.19	46.703
1170.88	20.721
1174.56	9.736
1178.23	30.515
1181.91	0.006
1185.59	17.221
1189.26	33.146
1192.93	30.121
1196.6	45.025
1200.27	6
1203.94	54.931
1207.6	9.143
1211.27	28.218
1214.93	16.13
1218.59	39.024
1222.25	41.658
1225.9	29.532
1229.56	8.424
1233.21	19.279
1236.86	31.635
1240.51	26.469
1244.16	0.726
1247.81	7.059
1251.45	10.813
1255.1	0.445
1258.74	23.712
1262.38	11.996
1266.02	8.69
1269.66	13.372
1273.29	2.045
1276.93	18.701
1280.56	24.339
1284.19	5.947
1287.82	14.543
1291.45	13.104
1295.07	1.633
1298.7	30.139
1302.32	3.621
1305.94	23.076
1309.56	1.507
1313.18	3.915
1316.8	5.305
1320.41	7.322
1324.02	3.967
1327.63	1.267
1331.24	26.567
1334.85	48.848
1338.46	7.113
1342.06	6.149
1345.67	38.073
1349.27	31.001
1352.87	24.747
1356.47	46.583
1360.07	44.68
1363.66	43.74
1367.25	54.59
1370.85	23.45
1374.44	34.323
1378.03	1.795
1381.61	50.158
1385.2	25.776
1388.78	60.027
1392.37	357.641
1395.95	95.241
1399.53	70.076
1403.1	81.417
1406.68	97.609
1410.26	237.604
1413.83	618.708
1417.4	1083.73
1420.97	616.696
1424.54	309.829
1428.1	150.407
1431.67	150.943
1435.23	136.08
1438.8	100.767
1442.36	80.914
1445.91	86.296
1449.47	78.934
1453.03	65.552
1456.58	80.185
1460.13	34.837
1463.68	43.471
1467.23	46.024
1470.78	76.498
1474.33	41.969
1477.87	32.481
1481.42	44.182
1484.96	4.982
1488.5	30.942
1492.04	19.005
1495.57	63.126
1499.11	47.846
1502.64	12.404
1506.17	46.505
1509.71	3.703
1513.23	48.184
1516.76	25.818
1520.29	0.431
