Measurement: Raman, 780 nm, unoriented, Raman Data Processed
Mineral: Rhodochrosite
Rruff sample: R050116
Ideal chemistry: MnCO_3_
Locality: Wudong mine, Liubao, Guangxi Autonomous Region, China
Source: He Xin Jian
Description: Pink crystal associated with colorless quartz
Measured chemistry: (Mn_0.81_Fe_0.17_Mg_0.01_Ca_0.01_)CO_3_
Raman shift (cm-1)	intensity
125.438	0
128.812	0.089119
132.187	1.63809
135.562	1.5897
138.937	6.03679
142.312	8.65881
145.686	12.029
149.061	18.5658
152.436	32.3375
155.811	47.6132
159.186	76.1397
162.56	112.2
165.935	143.004
169.31	176.228
172.685	229.896
176.06	325.502
179.435	480.226
182.809	624.438
186.184	449.983
189.559	189.489
192.934	82.3506
196.309	39.2585
199.683	19.0411
203.058	10.4847
206.433	5.19477
209.808	3.53951
213.183	0.254448
216.558	0.741707
219.932	0.718338
223.307	0.560383
226.682	1.49374
230.057	0.133457
233.431	0.565197
236.806	1.68927
240.181	2.5709
243.556	4.21978
246.931	8.19627
250.306	11.6233
253.68	18.3055
257.055	27.7289
260.43	39.5068
263.805	65.4867
267.18	102.552
270.555	152.895
273.929	189.805
277.304	232.052
280.679	287.24
284.054	363.271
287.429	421.151
290.803	354.975
294.178	222.459
297.553	122.932
300.928	72.2316
304.303	44.5018
307.678	31.353
311.052	21.1471
314.427	15.8723
317.802	13.3196
321.177	10.4009
324.551	8.79011
327.926	6.07618
331.301	6.51307
334.676	4.38765
338.051	3.14271
341.426	1.99927
344.8	1.36825
348.175	1.79829
351.55	1.89069
354.925	1.09261
358.3	1.7479
361.675	2.64849
365.049	1.3162
368.424	0.839228
371.799	0.348467
375.174	0.088261
378.549	1.21797
381.923	0.718264
385.298	0.110514
388.673	0.312626
392.048	0.21945
395.423	0.542509
398.798	1.51822
402.172	0.567755
405.547	0.818264
408.922	0.663786
412.297	0.064692
415.671	0.768621
419.046	1.76987
422.421	2.22533
425.796	0.693739
429.171	1.28484
432.546	1.30043
435.92	0.382204
439.295	1.51399
442.67	1.20163
446.045	0.872332
449.42	0.182917
452.795	0.948353
456.169	0.08992
459.544	1.66563
462.919	1.08649
466.294	2.91181
469.668	2.75232
473.043	3.78067
476.418	2.63795
479.793	3.89723
483.168	4.63232
486.543	3.91864
489.917	3.66813
493.292	5.27415
496.667	7.47217
500.042	7.67336
503.417	6.65747
506.791	5.4065
510.166	6.16208
513.541	7.30243
516.916	7.47638
520.291	5.71933
523.666	6.14856
527.04	6.18796
530.415	6.19625
533.79	6.04415
537.165	5.66147
540.54	4.32204
543.914	4.5788
547.289	3.44091
550.664	3.14617
554.039	2.71712
557.414	3.86792
560.788	2.80865
564.163	1.41485
567.538	1.75272
570.913	0.975475
574.288	0.112009
577.663	1.38833
581.037	0.169687
584.412	0.524015
587.787	1.35074
591.162	1.63294
594.537	1.12093
597.912	0.697411
601.286	0.895319
604.661	0.259436
608.036	0.588028
611.411	0.378532
614.786	0.543066
618.16	0.261705
621.535	0.196497
624.91	0.732044
628.285	1.55763
631.66	1.32135
635.034	1.6343
638.409	0.418835
641.784	0.830715
645.159	0.31525
648.534	0.70443
651.909	0.697371
655.283	0.377306
658.658	1.27143
662.033	1.59514
665.408	0.209589
668.783	1.08917
672.157	1.40335
675.532	1.52248
678.907	1.43197
682.282	1.1417
685.657	3.3909
689.032	4.51822
692.406	5.51971
695.781	8.04241
699.156	15.1785
702.531	33.2118
705.906	65.6151
709.28	85.442
712.655	133.472
716.03	233.569
719.405	372.214
722.78	215.332
726.154	88.2736
729.529	45.6215
732.904	25.3407
736.279	13.8799
739.654	7.18938
743.029	4.25226
746.403	2.74818
749.778	3.41014
753.153	1.95731
756.528	0.25752
759.903	0.517398
763.277	0.330227
766.652	1.35087
770.027	1.07287
773.402	0.241022
776.777	0.40761
780.152	0.301006
783.526	0.218763
786.901	0.20041
790.276	0.396446
793.651	0.331204
797.025	0.366241
800.4	1.70056
803.775	2.10065
807.15	1.5819
810.525	1.77349
813.9	3.81531
817.274	0.630152
820.649	0.18875
824.024	1.80441
827.399	1.38154
830.774	0.635894
834.149	1.01637
837.523	1.85173
840.898	1.06801
844.273	0.836739
847.648	0.271869
851.023	0.738537
854.397	1.46573
857.772	2.26543
861.147	0.716334
864.522	1.99299
867.897	2.7152
871.271	2.42678
874.646	1.4824
878.021	2.07578
881.396	1.493
884.771	2.44321
888.145	2.21846
891.52	2.55719
894.895	0.13369
898.27	1.49226
901.645	1.57223
905.02	1.14359
908.394	2.32205
911.769	2.27564
915.144	2.66057
918.519	1.65647
921.894	1.75498
925.269	3.74431
928.643	2.93508
932.018	4.774
935.393	3.19394
938.768	2.98074
942.143	3.45245
945.517	3.48943
948.892	2.85481
952.267	1.98664
955.642	2.30804
959.017	0.740001
962.391	0.487372
965.766	0.568418
969.141	0.486193
972.516	0.770679
975.891	0.31424
979.265	0.943905
982.64	1.25283
986.015	0.847197
989.39	1.21715
992.765	0.65461
996.14	1.97619
999.514	1.96237
1002.89	5.06743
1006.26	7.98167
1009.64	9.8582
1013.01	11.1451
1016.39	14.8465
1019.76	17.7871
1023.14	21.0104
1026.51	22.5409
1029.89	23.1683
1033.26	23.6406
1036.64	24.399
1040.01	27.7215
1043.39	33.7528
1046.76	41.7392
1050.14	55.0463
1053.51	70.1194
1056.89	89.0289
1060.26	120.296
1063.64	176.768
1067.01	250.612
1070.38	443.463
1073.76	917.427
1077.13	1412.17
1080.51	2505.52
1083.88	5000.11
1087.26	5869.49
1090.63	1663.37
1094.01	536.521
1097.38	208.833
1100.76	101.514
1104.13	57.2127
1107.51	32.2854
1110.88	21.1544
1114.26	12.3308
1117.63	7.78685
1121.01	5.04891
1124.38	1.61207
1127.76	0.603809
1131.13	0.020191
1134.51	0.812437
1137.88	0.507944
1141.26	1.71958
1144.63	1.11961
1148.01	0.95314
1151.38	0.868631
1154.76	1.37149
1158.13	0.859299
1161.51	0.371372
1164.88	1.20299
1168.26	2.57008
1171.63	2.66913
1175.01	1.36894
1178.38	3.08864
1181.75	3.88244
1185.13	4.12108
1188.5	4.72656
1191.88	4.68039
1195.25	5.12634
1198.63	4.58998
1202	3.77281
1205.38	4.45812
1208.75	4.46976
1212.13	4.62773
1215.5	4.04193
1218.88	3.93767
1222.25	4.50536
1225.63	3.59211
1229	4.90623
1232.38	6.37834
1235.75	5.26483
1239.13	6.61082
1242.5	6.71106
1245.88	5.58949
1249.25	6.50847
1252.62	7.9901
1256	6.78611
1259.38	8.08491
1262.75	9.64919
1266.12	9.82812
1269.5	10.0411
1272.87	10.001
1276.25	10.1248
1279.62	12.516
1283	13.079
1286.37	13.1366
1289.75	0.834115
