Measurement: Raman, 532 nm, unoriented, Raman Data Processed
Mineral: Rhomboclase
Rruff sample: R070507
Ideal chemistry: (H_3_O)Fe^3+^(SO_4_)_2_3H_2_O
Locality: Alcaparrosa, Antofogasta, Chile
Source: James Shigley
Description: Platy to granular transparent light tan unconsolidated fragments
Raman shift (cm-1)	intensity
148.709	0
151.602	39.5044
154.494	296.988
157.387	642.669
160.28	920.699
163.173	1277.29
166.065	1294.39
168.958	891.83
171.851	438.542
174.743	269.69
177.636	4.10156
180.529	79.8525
183.421	17.9561
186.314	140.038
189.207	450.284
192.1	752.342
194.992	1284.21
197.885	1756.15
200.778	2073.72
203.67	2509.76
206.563	2771.41
209.456	2977.06
212.348	2928.06
215.241	2625.31
218.134	2289.73
221.026	2110.94
223.919	2387.67
226.812	3198.2
229.705	4425.64
232.597	5893.93
235.49	7607.34
238.383	8986.81
241.275	8676.8
244.168	6668.89
247.061	5198.3
249.954	4251.64
252.846	4033.59
255.739	3986.33
258.632	4111.01
261.524	4235.92
264.417	4354.65
267.31	4203.86
270.202	3838.12
273.095	3360.74
275.988	2754.31
278.881	2246.58
281.773	1868.71
284.666	1364.38
287.559	976.163
290.451	686.587
293.344	413.731
296.237	209.2
299.13	9.74414
302.022	34.3721
304.915	113.485
307.808	82.9209
310.7	28.582
313.593	25.167
316.486	3.24902
319.378	54.7148
322.271	58.7832
325.164	110.003
328.057	186.99
330.949	217.314
333.842	297.531
336.735	410.786
339.627	471.916
342.52	579.246
345.413	673.197
348.305	874.862
351.198	1133.79
354.091	1598.96
356.983	2079.12
359.876	2703.49
362.769	3673.05
365.662	4960.7
368.554	6708.43
371.447	8587.11
374.34	10398.8
377.232	11657.1
380.125	11021.3
383.018	8746.83
385.911	6089.62
388.803	4024.01
391.696	2526.43
394.589	1460.14
397.481	928.48
400.374	444.194
403.267	187.608
406.159	42.9492
409.052	85.0625
411.945	8.74609
414.837	22.0879
417.73	34.6475
420.623	114.869
423.516	196.953
426.408	431.861
429.301	846.889
432.194	1260.5
435.086	1898.44
437.979	2441
440.872	3285.07
443.764	4108.14
446.657	4910.03
449.55	5425.3
452.443	4687.35
455.335	3222.36
458.228	2476.36
461.121	2441.01
464.014	2713.38
466.906	3049.18
469.799	3269.11
472.692	3207.37
475.584	2567.4
478.477	1922.95
481.37	1447.86
484.262	1024.34
487.155	701.776
490.048	471.188
492.94	389.985
495.833	209.871
498.726	188.303
501.619	135.492
504.511	59.332
507.404	14.8037
510.297	37.8935
513.189	97.6016
516.082	3.16211
518.975	60.374
521.867	3.53223
524.76	66.7041
527.653	3.40332
530.546	41.915
533.438	27.8945
536.331	73.9844
539.224	8.19727
542.116	9.45898
545.009	55.2725
547.902	127.316
550.794	106.333
553.687	20.4365
556.58	128.177
559.473	131.494
562.365	204.398
565.258	191.302
568.151	360.366
571.043	445.931
573.936	546.739
576.829	727.119
579.721	897.467
582.614	970.225
585.507	1234.91
588.4	1445.48
591.292	1748.89
594.185	1886.62
597.078	1913.92
599.97	1820.66
602.863	1781.91
605.756	1817.01
608.649	1843.89
611.541	1844.06
614.434	1904.99
617.327	1812.78
620.219	1736.73
623.112	1593.47
626.005	1541.77
628.897	1372.58
631.79	1256.71
634.683	1158.79
637.576	931.905
640.468	1032.79
643.361	933.296
646.254	916.084
649.146	852.132
652.039	784.47
654.932	673.185
657.824	566.406
660.717	390.956
663.61	314.526
666.503	265.787
669.395	149.596
672.288	81.1689
675.181	37.75
678.073	4.79981
680.966	56.4111
683.859	8.43262
686.751	58.584
689.644	53.7734
692.537	12.665
695.43	4.47168
698.322	96.167
701.215	60.8379
704.108	22.082
707	87.9707
709.893	58.6484
712.786	29.373
715.678	116.532
718.571	117.045
721.464	88.0801
724.357	73.1494
727.249	190.682
730.142	204.519
733.035	161.769
735.927	188.648
738.82	223.956
741.713	323.672
744.606	312.472
747.498	406.718
750.391	452.084
753.284	477.375
756.176	521.665
759.069	517.253
761.962	454.175
764.854	450.826
767.747	415.161
770.64	410.978
773.533	331.297
776.425	289.635
779.318	215.484
782.211	198.64
785.103	198.921
787.996	143.635
790.889	182.713
793.781	63.4082
796.674	25.4502
799.567	41.1836
802.46	16.9502
805.352	46.331
808.245	32.0068
811.138	50.6816
814.03	31.8291
816.923	24.9287
819.816	24.8281
822.708	18.333
825.601	123.897
828.494	14.2285
831.386	59.043
834.279	112.48
837.172	138.901
840.065	148.791
842.957	117.268
845.85	141.574
848.743	143.602
851.635	141.456
854.528	142.208
857.421	66.2812
860.313	161.472
863.206	229.557
866.099	217.989
868.992	168.462
871.884	229.633
874.777	170.745
877.67	215.493
880.562	191.472
883.455	243.857
886.348	153.105
889.24	159.244
892.133	196.921
895.026	211.261
897.919	179.401
900.811	28.3916
903.704	143.915
906.597	34.2422
909.489	140.699
912.382	103.075
915.275	46.7568
918.168	32.8721
921.06	6.16797
923.953	2.42285
926.846	77.6602
929.738	36.082
932.631	19.6396
935.524	90.6856
938.416	3.43555
941.309	14.8018
944.202	19.2578
947.095	17.0195
949.987	85.8389
952.88	66.5576
955.773	77.3984
958.665	31.7578
961.558	86.4707
964.451	76.5508
967.343	87.832
970.236	70.3672
973.129	206.804
976.021	324.842
978.914	418.727
981.807	632.991
984.7	790.65
987.592	1096.22
990.485	1679.8
993.378	2301.08
996.27	3304.08
999.163	5099.27
1002.06	7864.37
1004.95	11760.5
1007.84	15317
1010.73	17089
1013.63	15122.2
1016.52	11021.3
1019.41	7828.85
1022.3	7037.21
1025.2	8296.73
1028.09	10358.2
1030.98	10347.7
1033.88	5907.79
1036.77	2554.62
1039.66	1299.23
1042.55	881.21
1045.45	620.642
1048.34	433.6
1051.23	460.907
1054.12	388.486
1057.02	336.539
1059.91	301.008
1062.8	446.149
1065.69	552.546
1068.59	579.195
1071.48	586.681
1074.37	750.84
1077.27	507.519
1080.16	511.889
1083.05	411.199
1085.94	480.178
1088.84	498.648
1091.73	379.376
1094.62	392.65
1097.52	363.684
1100.41	349.67
1103.3	192.702
1106.19	101.971
1109.09	81.5869
1111.98	100.049
1114.87	94.0859
1117.76	25.1631
1120.66	43.0674
1123.55	74.7266
1126.44	142.487
1129.34	9.9248
1132.23	74.9619
1135.12	0.693359
1138.01	83.1641
1140.91	124.999
1143.8	208.908
1146.69	134.481
1149.58	276.901
1152.48	305.699
1155.37	487.065
1158.26	551.593
1161.15	807.425
1164.05	1068.73
1166.94	1554.72
1169.83	2294.5
1172.72	3041.62
1175.62	3900.2
1178.51	4586.95
1181.4	4699.98
1184.3	4354.64
1187.19	3648.31
1190.08	2860.73
1192.97	2138.61
1195.87	1677.52
1198.76	1233.72
1201.65	874.312
1204.55	701.762
1207.44	464.084
1210.33	339.328
1213.22	281.66
1216.12	224.516
1219.01	291.457
1221.9	295.207
1224.79	123.519
1227.69	100.355
1230.58	81.5644
1233.47	12.876
1236.37	23.5635
1239.26	65.5654
1242.15	32.707
1245.04	34.0176
1247.94	37.127
1250.83	79.7939
1253.72	25.127
1256.61	28.9365
1259.51	50.8955
1262.4	148.73
1265.29	205.6
1268.18	122.004
1271.08	116.356
1273.97	77.2949
1276.86	107.44
1279.76	24.5107
1282.65	108.423
1285.54	32.3877
1288.43	66.1123
1291.33	9.56445
1294.22	0
