Measurement: Raman, 785 nm, unoriented, Raman Data Processed
Mineral: Rhomboclase
Rruff sample: R070507
Ideal chemistry: (H_3_O)Fe^3+^(SO_4_)_2_3H_2_O
Locality: Alcaparrosa, Antofogasta, Chile
Source: James Shigley
Description: Platy to granular transparent light tan unconsolidated fragments
Raman shift (cm-1)	intensity
153.702	0
156.595	14.0391
159.487	336.234
162.38	816.6
165.273	1192.95
168.165	1012.37
171.058	688.754
173.951	235.213
176.843	90.4766
179.736	69.2773
182.629	77.9883
185.522	209.207
188.414	470.09
191.307	683.449
194.2	933.686
197.092	1426.71
199.985	1586.87
202.878	1825.13
205.77	1967.53
208.663	2130.73
211.556	2265.56
214.448	2041.87
217.341	2044.78
220.234	2042.55
223.127	2244.67
226.019	2741.22
228.912	3655.97
231.805	4483.05
234.697	5523.4
237.59	6702.8
240.483	7136.79
243.375	5614.31
246.268	4212.65
249.161	2924.78
252.054	2365.78
254.946	2103.58
257.839	1989.06
260.732	1970.22
263.624	1914.16
266.517	1769.26
269.41	1707.54
272.302	1408.43
275.195	1202.25
278.088	1001.83
280.981	812.411
283.873	542.864
286.766	393.176
289.659	226.234
292.551	149.63
295.444	17.8193
298.337	50.9473
301.229	25.7207
304.122	57.6953
307.015	17.9463
309.908	49.917
312.8	83.9981
315.693	4.04981
318.586	44.1152
321.478	75.2998
324.371	67.7109
327.264	221.672
330.156	98.2949
333.049	96.2783
335.942	178.092
338.834	221.801
341.727	250.959
344.62	380.213
347.513	513.901
350.405	555.199
353.298	670.099
356.191	887.832
359.083	1150.58
361.976	1636.94
364.869	2109.66
367.762	2721.56
370.654	3437.54
373.547	4028.55
376.44	4765.57
379.332	4744.43
382.225	4320.73
385.118	3190.74
388.01	2180.98
390.903	1482.6
393.796	925.533
396.688	488.38
399.581	299.924
402.474	121.425
405.367	40.5498
408.259	54.6719
411.152	41.7051
414.045	10.1836
416.937	120.227
419.83	225.269
422.723	365.406
425.615	432.479
428.508	670.128
431.401	1019.92
434.293	1318.72
437.186	1773.2
440.079	1980.52
442.972	2088.35
445.864	2264.89
448.757	2480.34
451.65	2505.85
454.542	1903.07
457.435	1431.06
460.328	1407.71
463.221	1625.18
466.113	1804.77
469.006	2088.13
471.899	2112.43
474.791	1752.29
477.684	1393.52
480.577	1001.82
483.469	621.962
486.362	395.773
489.255	323.103
492.147	154.558
495.04	157.457
497.933	43.9414
500.826	38.5059
503.718	35.9824
506.611	33.7451
509.504	54.1777
512.396	27.6689
515.289	88.0176
518.182	2.04004
521.074	23.7148
523.967	27.1875
526.86	17.9023
529.753	24.5996
532.645	3.58496
535.538	42.2842
538.431	71.8369
541.323	40.0615
544.216	5.76953
547.109	67.1191
550.001	87.3818
552.894	91.4951
555.787	190.638
558.68	193.145
561.572	262.795
564.465	211.976
567.358	301.788
570.25	319.6
573.143	318.368
576.036	467.837
578.928	494.837
581.821	632.389
584.714	787.607
587.607	819.102
590.499	993.479
593.392	1195.09
596.285	1236.37
599.177	1356.64
602.07	1306.85
604.963	1349.52
607.856	1474.7
610.748	1535.01
613.641	1540.48
616.534	1506.11
619.426	1525.84
622.319	1470.44
625.212	1351.59
628.104	1210.33
630.997	1076.94
633.89	958.47
636.782	905.778
639.675	809.861
642.568	852.31
645.461	812.473
648.353	685.591
651.246	609.548
654.139	543.983
657.031	429.626
659.924	364.427
662.817	301.821
665.709	225.586
668.602	158.997
671.495	131.635
674.388	155.816
677.28	12.8652
680.173	58.168
683.066	12.252
685.958	3.08301
688.851	12.0342
691.744	15.3105
694.636	76.1484
697.529	39.7539
700.422	71.5889
703.314	68.3955
706.207	22.8291
709.1	37.749
711.993	41.3037
714.885	34.794
717.778	118.123
720.671	92.9053
723.563	146.125
726.456	32.794
729.349	109.293
732.241	122.735
735.134	88.2363
738.027	117.942
740.92	190.261
743.812	189.653
746.705	141.35
749.598	245.718
752.49	253.483
755.383	318.155
758.276	286.68
761.168	362.042
764.061	338.546
766.954	274.092
769.847	242.64
772.739	196.404
775.632	171.172
778.525	172.242
781.417	185.533
784.31	152.473
787.203	89.5684
790.096	107.676
792.988	17.2393
795.881	53.4463
798.774	61.126
801.666	51.6191
804.559	75.1475
807.452	8.04492
810.344	8.96582
813.237	35.8828
816.13	19.9033
819.023	82.8135
821.915	78.0088
824.808	26.9893
827.701	5.80371
830.593	77.8213
833.486	61.3242
836.379	89.208
839.271	26.0615
842.164	9.66699
845.057	5.39648
847.949	35.585
850.842	106.462
853.735	0.068359
856.628	7.02539
859.52	54.3525
862.413	59.6533
865.306	73.7373
868.198	102.309
871.091	76.8633
873.984	74.6387
876.876	141.94
879.769	126.552
882.662	88.6152
885.554	129.997
888.447	128.849
891.34	109.506
894.233	48.6191
897.125	91.0205
900.018	70.8086
902.911	85.6143
905.803	95.7256
908.696	51.9961
911.589	107.304
914.481	100.362
917.374	20.2354
920.267	4.52148
923.16	42.627
926.052	47.8291
928.945	28.7715
931.838	41.333
934.73	47.9961
937.623	19.6006
940.516	60.1113
943.408	48.3213
946.301	7.89648
949.194	18.4238
952.087	24.8135
954.979	32.4141
957.872	42.0576
960.765	31.0811
963.657	15.6709
966.55	60.5498
969.443	82.5918
972.335	34.9072
975.228	98.6143
978.121	144.893
981.014	249.06
983.906	365.551
986.799	432.068
989.692	642.65
992.584	894.051
995.477	1253.84
998.37	1776.61
1001.26	2734
1004.15	4014.59
1007.05	5480.7
1009.94	6706.35
1012.83	6736.06
1015.73	5762.57
1018.62	4692.79
1021.51	4637.07
1024.4	5505
1027.3	7593.29
1030.19	9430.85
1033.08	6831.3
1035.97	3185.58
1038.87	1551.29
1041.76	789.508
1044.65	479.129
1047.55	370.022
1050.44	313.506
1053.33	281.832
1056.22	255.884
1059.12	180.762
1062.01	178.44
1064.9	217.347
1067.8	258.153
1070.69	334.246
1073.58	295.353
1076.47	304.306
1079.37	267.795
1082.26	276.334
1085.15	222.015
1088.04	183.019
1090.94	263.381
1093.83	214.85
1096.72	200.147
1099.61	188.08
1102.51	165.053
1105.4	158.313
1108.29	4.35303
1111.18	11.8745
1114.08	27.9512
1116.97	22.8799
1119.86	4.23682
1122.76	33.3457
1125.65	49.5132
1128.54	88.0176
1131.43	117.267
1134.33	36.7959
1137.22	4.31982
1140.11	46.7681
1143.01	41.1196
1145.9	78.2656
1148.79	68.8838
1151.68	82.1479
1154.58	229.715
1157.47	242.998
1160.36	402.753
1163.25	558.232
1166.15	784.726
1169.04	1068.29
1171.93	1518.03
1174.82	1957.23
1177.72	2404.84
1180.61	2518.82
1183.5	2401.01
1186.39	2123.05
1189.29	1637.33
1192.18	1272.75
1195.07	1043.28
1197.97	755.802
1200.86	551.371
1203.75	452.752
1206.64	340.699
1209.54	273.666
1212.43	231.27
1215.32	155.711
1218.21	134.511
1221.11	87.8599
1224	131.017
1226.89	124.37
1229.79	58.8799
1232.68	88.8852
1235.57	27.6445
1238.46	38.5239
1241.36	24.6108
1244.25	53.669
1247.14	19.352
1250.04	9.05762
1252.93	45.6606
1255.82	36.918
1258.71	49.0767
1261.61	74.6919
1264.5	68.3218
1267.39	17.2881
