Measurement: Raman, 532 nm, unoriented, Raman Data Processed
Mineral: Ribbeite
Rruff sample: R150125
Ideal chemistry: Mn^2+^_5_(SiO_4_)_2_(OH)_2_
Locality: Parker Shaft, Franklin, Sussex County, New Jersey, USA
Source: Michael Scott
Description: Pink gemmy anhedral fragment found as an inclusion in leucophoenicite (R060308)
Raman shift (cm-1)	intensity
89.7832	0
93.158	34.8265
96.5328	29.6163
99.9077	16.1237
103.282	9.89243
106.657	0.641785
110.032	4.61673
113.407	0.804474
116.782	15.4505
120.157	17.8264
123.531	32.1578
126.906	42.5978
130.281	61.8811
133.656	78.539
137.031	93.0356
140.405	107.629
143.78	85.2088
147.155	66.6673
150.53	54.6333
153.905	46.1869
157.28	31.8417
160.654	18.0773
164.029	13.868
167.404	7.81207
170.779	4.77292
174.154	0.444427
177.528	0.138
180.903	2.12552
184.278	2.68274
187.653	0.638519
191.028	0.148865
194.403	2.48865
197.777	3.63516
201.152	6.04803
204.527	7.54517
207.902	8.42575
211.277	7.60721
214.651	11.8283
218.026	10.6317
221.401	7.80957
224.776	8.10721
228.151	10.6374
231.525	12.8092
234.9	16.8699
238.275	23.4211
241.65	28.5455
245.025	33.0307
248.4	33.922
251.774	32.8254
255.149	34.1305
258.524	34.1341
261.899	30.6996
265.274	29.3732
268.649	29.7842
272.023	32.5294
275.398	29.7335
278.773	28.8853
282.148	25.846
285.523	20.1037
288.897	18.2965
292.272	18.5488
295.647	13.9463
299.022	13.5006
302.397	15.0164
305.772	14.8995
309.146	16.0989
312.521	16.4809
315.896	13.4925
319.271	11.9458
322.646	9.37207
326.02	5.89371
329.395	2.85886
332.77	0.373901
336.145	0.438354
339.52	0.558533
342.894	0.165344
346.269	0.87735
349.644	0.740509
353.019	1.55139
356.394	2.92609
359.769	4.9054
363.143	8.9845
366.518	12.9694
369.893	16.7738
373.268	23.1501
376.643	31.2747
380.017	40.6934
383.392	52.3465
386.767	64.6578
390.142	71.9031
393.517	73.1231
396.892	67.1734
400.266	61.7206
403.641	57.8783
407.016	48.3524
410.391	49.111
413.766	42.838
417.14	44.0799
420.515	39.9106
423.89	33.6751
427.265	27.5809
430.64	21.5958
434.014	15.2641
437.389	9.30792
440.764	6.6268
444.139	4.24377
447.514	0.635315
450.889	0.389587
454.263	0.020569
457.638	0.470551
461.013	0.103638
464.388	1.17633
467.763	0.10675
471.137	0.838104
474.512	0.104645
477.887	0.013275
481.262	2.16699
484.637	5.44961
488.012	7.74313
491.386	8.46298
494.761	6.24246
498.136	7.96155
501.511	9.35019
504.886	9.33594
508.26	8.19846
511.635	7.71735
515.01	10.6417
518.385	7.41974
521.76	3.65225
525.135	4.04336
528.509	1.63501
531.884	3.53601
535.259	8.07758
538.634	8.09619
542.009	8.74704
545.384	11.0955
548.758	10.4762
552.133	11.5576
555.508	13.4226
558.883	17.9029
562.258	20.5441
565.632	29.1017
569.007	34.2654
572.382	44.3879
575.757	45.5772
579.132	40.5323
582.506	25.878
585.881	18.6508
589.256	10.9257
592.631	6.59994
596.006	4.45145
599.381	1.90332
602.755	1.68228
606.13	0.300842
609.505	0.142609
612.88	0.895996
616.255	0.521973
619.63	0.927979
623.004	0.253448
626.379	1.49869
629.754	1.36484
633.129	2.88944
636.504	2.80676
639.878	3.11493
643.253	2.53027
646.628	4.09155
650.003	4.09546
653.378	3.82956
656.752	3.97961
660.127	5.24551
663.502	3.93738
666.877	4.89804
670.252	5.63486
673.626	3.08618
677.001	5.53323
680.376	3.3866
683.751	4.19369
687.126	4.17447
690.501	4.52066
693.875	1.96677
697.25	2.41522
700.625	3.65402
704	6.64514
707.375	5.35495
710.75	5.45752
714.124	5.39719
717.499	1.91592
720.874	3.86649
724.249	2.88129
727.624	2.73868
730.998	2.40006
734.373	1.24597
737.748	1.51813
741.123	1.79996
744.498	2.50915
747.872	1.44559
751.247	1.15848
754.622	0.061462
757.997	3.60794
761.372	1.72681
764.747	1.97534
768.121	3.02786
771.496	4.24029
774.871	0.917206
778.246	2.61743
781.621	10.6718
784.995	17.6388
788.37	33.4028
791.745	60.8443
795.12	115.413
798.495	224.282
801.87	420.719
805.244	742.781
808.619	1168.77
811.994	1497.96
815.369	1543.01
818.744	1382.59
822.119	1054.82
825.493	726.708
828.868	538.743
832.243	486.458
835.618	491.57
838.993	497.187
842.367	449.961
845.742	371.95
849.117	292.717
852.492	224.093
855.867	165.037
859.241	118.898
862.616	86.608
865.991	57.5314
869.366	39.2937
872.741	27.0581
876.115	21.6903
879.49	18.2296
882.865	21.0392
886.24	28.3433
889.615	41.7088
892.99	52.5381
896.364	46.7364
899.739	32.0252
903.114	12.6967
906.489	1.78601
909.864	4.24698
913.239	5.6142
916.613	3.32941
919.988	1.1138
923.363	6.302
926.738	12.3586
930.113	18.2804
933.487	22.7324
936.862	31.455
940.237	50.0699
943.612	73.21
946.987	81.4617
950.361	58.2733
953.736	29.0456
957.111	14.1904
960.486	8.85757
963.861	8.08881
967.236	8.92749
970.61	4.93161
973.985	3.37378
977.36	0.968964
980.735	0.271637
984.11	0.891144
987.485	3.64368
990.859	2.16675
994.234	1.59872
997.609	0.713745
1000.98	0.799927
1004.36	0.415222
1007.73	0.327393
1011.11	1.08633
1014.48	0.910553
1017.86	0.681793
1021.23	1.89337
1024.61	2.00995
1027.98	4.02686
1031.36	1.32736
1034.73	4.32321
1038.11	3.7038
1041.48	5.60925
1044.86	5.74884
1048.23	6.14975
1051.61	6.31601
1054.98	5.19464
1058.36	2.67868
1061.73	3.74622
1065.11	2.93845
1068.48	2.1232
1071.86	2.41214
1075.23	1.56171
1078.6	1.5285
1081.98	3.44376
1085.35	1.07806
1088.73	2.71033
1092.1	0.934631
1095.48	1.26471
1098.85	1.35111
1102.23	0.962769
1105.6	1.88495
1108.98	0.646301
1112.35	2.46463
1115.73	2.32092
1119.1	1.59619
1122.48	2.47812
1125.85	2.48996
1129.23	1.04489
1132.6	0.293701
1135.98	2.8779
1139.35	1.38495
1142.73	1.37949
1146.1	2.27972
1149.48	2.32507
1152.85	4.08887
1156.22	5.43091
1159.6	5.7728
1162.97	4.33249
1166.35	6.43979
1169.72	4.24371
1173.1	4.77435
1176.47	5.36752
1179.85	3.76279
1183.22	3.20416
1186.6	3.32248
1189.97	2.82565
1193.35	1.91788
1196.72	3.23502
1200.1	0.092438
1203.47	1.17206
1206.85	0.778595
1210.22	0.907379
1213.6	2.06882
1216.97	1.44626
1220.35	0.293488
1223.72	0.425201
1227.1	1.67117
1230.47	0.946411
1233.85	2.35953
1237.22	1.09265
1240.6	3.28754
1243.97	2.35483
1247.35	4.73505
1250.72	5.13541
1254.1	4.49072
1257.47	4.07053
1260.85	3.02765
1264.22	2.40561
1267.59	1.37857
1270.97	1.13242
1274.34	1.90747
1277.72	1.75369
1281.09	1.56491
1284.47	0.722046
1287.84	1.85312
1291.22	1.01321
1294.59	3.72739
1297.97	1.27683
1301.34	0.648529
