Measurement: Raman, 780 nm, unoriented, Raman Data Processed
Mineral: Ribbeite
Rruff sample: R150125
Ideal chemistry: Mn^2+^_5_(SiO_4_)_2_(OH)_2_
Locality: Parker Shaft, Franklin, Sussex County, New Jersey, USA
Source: Michael Scott
Description: Pink gemmy anhedral fragment found as an inclusion in leucophoenicite (R060308)
Raman shift (cm-1)	intensity
94.9347	0
98.3096	7.72827
101.684	2.84973
105.059	1.77319
108.434	22.1306
111.809	3.74475
115.184	10.5201
118.558	5.48377
121.933	0.171021
125.308	8.7959
128.683	7.12427
132.058	14.0803
135.433	17.8002
138.807	30.5301
142.182	32.9518
145.557	19.7791
148.932	7.2113
152.307	2.62891
155.681	2.37769
159.056	2.85718
162.431	0.842651
165.806	1.94458
169.181	0.675293
172.555	0.889404
175.93	0.639893
179.305	0.845581
182.68	1.24316
186.055	0.569946
189.43	6.63159
192.804	2.65662
196.179	9.70178
199.554	6.28308
202.929	7.27161
206.304	17.2861
209.678	14.3377
213.053	16.1741
216.428	21.915
219.803	16.9003
223.178	14.4207
226.553	16.9435
229.927	16.8916
233.302	20.9273
236.677	18.0255
240.052	21.4363
243.427	24.8697
246.801	25.1534
250.176	22.71
253.551	19.3555
256.926	19.3042
260.301	15.4224
263.675	16.8525
267.05	17.0605
270.425	17.0778
273.8	11.3633
277.175	9.92212
280.55	11.3024
283.924	10.6978
287.299	6.3761
290.674	8.20551
294.049	8.12982
297.424	8.04315
300.798	10.6868
304.173	10.2918
307.548	7.67749
310.923	8.44757
314.298	9.27881
317.673	10.875
321.047	6.80725
324.422	4.41266
327.797	1.50061
331.172	1.06677
334.547	1.33893
337.921	4.53601
341.296	1.2641
344.671	1.22314
348.046	3.70355
351.421	1.71905
354.796	0.392639
358.17	1.40649
361.545	3.3111
364.92	1.46619
368.295	4.5918
371.67	7.32428
375.044	2.25177
378.419	8.59546
381.794	13.2427
385.169	20.4941
388.544	21.1926
391.918	27.7413
395.293	28.0641
398.668	25.4539
402.043	22.3481
405.418	19.6578
408.793	11.6665
412.167	12.8093
415.542	12.5574
418.917	8.62653
422.292	13.5233
425.667	12.2662
429.041	9.91443
432.416	6.88586
435.791	5.02179
439.166	3.84363
442.541	3.17371
445.915	0.34314
449.29	0.632935
452.665	2.70721
456.04	4.58868
459.415	1.37024
462.789	0.48053
466.164	0.23468
469.539	4.60529
472.914	4.61365
476.289	0.801758
479.664	4.54956
483.038	4.50348
486.413	6.67255
489.788	2.56421
493.163	6.11462
496.538	6.6792
499.913	5.83466
503.287	5.70264
506.662	3.35944
510.037	4.76471
513.412	5.16925
516.787	8.18402
520.161	4.99951
523.536	3.14221
526.911	2.26141
530.286	0.304871
533.661	0.189148
537.035	0.965271
540.41	4.33362
543.785	2.09894
547.16	4.75116
550.535	1.28101
553.909	4.08154
557.284	4.14764
560.659	0.538635
564.034	4.06592
567.409	2.39716
570.784	6.21258
574.158	7.14789
577.533	12.3315
580.908	9.82208
584.283	6.21222
587.658	3.60431
591.033	3.19165
594.407	0.213684
597.782	0.357971
601.157	0.820984
604.532	0.118225
607.907	1.16852
611.281	3.51532
614.656	1.41211
618.031	3.48535
621.406	0.556335
624.781	0.182861
628.155	1.51593
631.53	3.56928
634.905	2.02588
638.28	3.25574
641.655	4.40301
645.029	1.96692
648.404	0.512207
651.779	3.48834
655.154	1.59851
658.529	4.6178
661.904	2.53644
665.278	2.27734
668.653	2.37781
672.028	2.2829
675.403	2.7569
678.778	2.6654
682.153	0.963928
685.527	3.55633
688.902	1.73883
692.277	0.757324
695.652	3.14465
699.027	1.62219
702.401	1.41742
705.776	2.54376
709.151	0.428833
712.526	3.1131
715.901	3.91071
719.275	4.33942
722.65	3.01746
726.025	2.82428
729.4	0.072693
732.775	3.22681
736.149	2.68018
739.524	2.31982
742.899	1.15643
746.274	1.50446
749.649	1.07666
753.024	3.70953
756.398	3.7677
759.773	2.60083
763.148	2.34186
766.523	3.57715
769.898	0.36615
773.273	0.228455
776.647	0.709534
780.022	1.323
783.397	2.63117
786.772	5.52271
790.146	7.68072
793.521	17.3413
796.896	27.5739
800.271	52.1794
803.646	106.142
807.021	210.781
810.395	357.057
813.77	482.988
817.145	502.827
820.52	459.547
823.895	346.979
827.269	230.691
830.644	159.485
834.019	137.346
837.394	139.459
840.769	147.655
844.144	130.989
847.518	108.516
850.893	84.2626
854.268	64.3978
857.643	46.0804
861.018	36.7227
864.393	27.7404
867.767	19.1682
871.142	11.8669
874.517	7.73297
877.892	7.74481
881.266	6.04938
884.641	5.04199
888.016	8.64441
891.391	12.899
894.766	17.1213
898.141	12.9174
901.515	14.1408
904.89	1.51849
908.265	3.14575
911.64	1.38513
915.015	2.34815
918.389	1.06952
921.764	0.227234
925.139	2.25263
928.514	3.82758
931.889	2.18512
935.264	3.93201
938.638	8.5874
942.013	10.2834
945.388	19.0203
948.763	20.2453
952.138	11.602
955.512	6.30017
958.887	4.18555
962.262	2.68207
965.637	5.42542
969.012	6.70654
972.386	1.79449
975.761	1.6861
979.136	0.400146
982.511	1.11499
985.886	1.8645
989.261	0.696899
992.635	0.087524
996.01	0.798828
999.385	3.93158
1002.76	3.12524
1006.13	2.5813
1009.51	0.351501
1012.88	4.32776
1016.26	4.97138
1019.63	1.69202
1023.01	2.45209
1026.38	1.37518
1029.76	1.78732
1033.13	3.40747
1036.51	7.40295
1039.88	3.85764
1043.26	4.16827
1046.63	1.39987
1050.01	1.77515
1053.38	4.76056
1056.76	4.09598
1060.13	1.7363
1063.51	2.92877
1066.88	1.93692
1070.26	1.30295
1073.63	4.30987
1077.01	3.63333
1080.38	1.92599
1083.76	1.58734
1087.13	2.51633
1090.51	4.10684
1093.88	0.131805
1097.26	0.094238
1100.63	1.93222
1104	0.050354
1107.38	1.60254
1110.75	2.50095
1114.13	0.640015
1117.5	1.39847
1120.88	1.202
1124.25	0.731018
1127.63	0.119507
1131	0.389496
1134.38	0.431702
1137.75	0.576202
1141.13	2.69174
1144.5	0.191345
1147.88	3.2308
1151.25	3.45071
1154.63	2.98514
1158	4.01395
1161.38	2.24176
1164.75	2.6879
1168.13	3.49692
1171.5	5.55371
1174.88	8.73529
1178.25	3.50195
1181.62	4.07114
1185	3.18384
1188.38	6.01334
1191.75	3.1152
1195.12	4.25815
1198.5	3.22513
1201.87	1.97742
1205.25	3.36966
1208.62	1.66855
1212	1.71295
1215.37	3.06827
1218.75	1.79681
1222.12	0.154999
1225.5	1.69748
1228.87	3.74905
1232.25	2.03757
1235.62	2.18518
1239	1.13861
1242.37	0.058746
1245.75	0.725098
1249.12	2.49597
1252.5	1.95328
1255.87	3.31061
1259.25	3.55566
1262.62	4.28287
1265.99	6.60236
1269.37	1.38315
1272.74	1.10843
1276.12	0.586578
1279.49	4.04968
1282.87	1.84515
