Measurement: Raman, 532 nm, unoriented, Raman Data Processed
Mineral: Ribbeite
Rruff sample: R140497
Ideal chemistry: Mn^2+^_5_(SiO_4_)_2_(OH)_2_
Locality: Kombat mine, Kombat, Grootfontein District, Otjozondjupa Region, Namibia
Source: Rock Currier
Description: Transparent to translucent pink fragments in a gelatin capsule
Raman shift (cm-1)	intensity
90.7474	0
94.1222	54.7303
97.4971	32.1493
100.872	14.3405
104.247	4.57721
107.621	28.8043
110.996	39.1576
114.371	63.4813
117.746	92.0965
121.121	90.2191
124.496	124.133
127.87	110.115
131.245	129.072
134.62	130.039
137.995	143.971
141.37	144.334
144.744	114.962
148.119	95.7704
151.494	80.5948
154.869	66.2378
158.244	47.0686
161.619	31.2433
164.993	25.3149
168.368	20.1526
171.743	18.1228
175.118	12.5724
178.493	7.87878
181.868	5.46905
185.242	4.30572
188.617	3.86072
191.992	7.5907
195.367	5.5929
198.742	4.5177
202.116	4.01856
205.491	3.88867
208.866	1.66309
212.241	1.88086
215.616	5.10278
218.99	5.76514
222.365	5.40735
225.74	0.193115
229.115	0.116333
232.49	0.299927
235.865	1.2915
239.239	6.3269
242.614	9.30896
245.989	6.85474
249.364	7.57031
252.739	0.59375
256.113	0.386597
259.488	0.648804
262.863	5.84998
266.238	3.27844
269.613	1.17395
272.988	6.66785
276.362	8.15332
279.737	7.74207
283.112	9.72058
286.487	11.8445
289.862	10.2293
293.236	6.06567
296.611	8.19739
299.986	4.08167
303.361	7.64587
306.736	9.27515
310.111	15.8292
313.485	13.2369
316.86	13.6751
320.235	14.0576
323.61	11.4355
326.985	11.7529
330.359	9.25403
333.734	7.95569
337.109	7.45715
340.484	10.7685
343.859	8.53174
347.233	8.70129
350.608	1.51819
353.983	1.27637
357.358	0.99231
360.733	0.339111
364.108	0.07019
367.482	4.36035
370.857	1.74927
374.232	2.09351
377.607	10.1876
380.982	15.6506
384.356	23.1356
387.731	29.1384
391.106	29.0529
394.481	30.2831
397.856	33.9437
401.231	37.6746
404.605	47.0414
407.98	50.0183
411.355	56.4869
414.73	60.8611
418.105	65.0288
421.479	58.3179
424.854	47.0924
428.229	38.7502
431.604	26.1693
434.979	30.3176
438.354	35.0051
441.728	36.9689
445.103	23.4233
448.478	10.5087
451.853	2.08044
455.228	1.92163
458.603	0.246216
461.977	1.22949
465.352	0.57605
468.727	2.53552
472.102	2.27515
475.477	3.89404
478.851	1.50769
482.226	1.95019
485.601	6.5531
488.976	7.46277
492.351	6.67493
495.726	5.29724
499.1	5.06018
502.475	2.88342
505.85	6.38318
509.225	7.10474
512.6	9.14002
515.974	13.3972
519.349	14.1919
522.724	20.2648
526.099	19.007
529.474	26.6111
532.848	24.3003
536.223	19.4055
539.598	19.3428
542.973	13.1632
546.348	12.4778
549.722	16.4989
553.097	15.1184
556.472	12.6256
559.847	25.9896
563.222	20.6202
566.597	23.2248
569.971	18.4208
573.346	17.4855
576.721	18.3946
580.096	10.5381
583.471	4.36939
586.846	3.07935
590.22	0.555054
593.595	2.71753
596.97	2.70373
600.345	4.94043
603.72	13.6053
607.094	25.2432
610.469	41.0715
613.844	46.5692
617.219	35.3973
620.594	31.8758
623.968	23.3253
627.343	20.1199
630.718	16.366
634.093	12.1503
637.468	18.1626
640.843	11.0863
644.217	7.11243
647.592	5.63916
650.967	3.99683
654.342	3.27332
657.717	1.70142
661.091	0.375122
664.466	3.06519
667.841	4.12903
671.216	2.35925
674.591	8.56519
677.966	0.667603
681.34	2.99817
684.715	0.979614
688.09	3.97376
691.465	10.2714
694.84	0.786133
698.215	0.174072
701.589	1.67529
704.964	1.46728
708.339	1.97815
711.714	3.43713
715.089	5.25122
718.463	2.37854
721.838	9.1416
725.213	17.8445
728.588	21.1354
731.963	20.6072
735.337	19.773
738.712	11.2293
742.087	12.7344
745.462	6.60376
748.837	10.8793
752.212	8.84509
755.586	4.02734
758.961	5.3894
762.336	7.70996
765.711	3.85852
769.086	0.515747
772.46	7.43372
775.835	4.03345
779.21	0.895996
782.585	8.91431
785.96	20.3779
789.335	39.9602
792.709	77.1585
796.084	146.534
799.459	287.729
802.834	534.743
806.209	950.561
809.583	1457.4
812.958	1781.63
816.333	1798.45
819.708	1611.38
823.083	1210.9
826.457	826.388
829.832	617.172
833.207	530.631
836.582	505.578
839.957	490.491
843.332	436.089
846.706	356.195
850.081	270.084
853.456	202.019
856.831	152.353
860.206	108.811
863.581	71.9314
866.955	43.2153
870.33	20.7192
873.705	5.58521
877.08	0.456299
880.455	3.10278
883.829	3.19458
887.204	13.7539
890.579	46.8435
893.954	64.3201
897.329	53.5806
900.703	35.5754
904.078	25.0984
907.453	34.4573
910.828	64.7576
914.203	84.7986
917.578	76.3225
920.952	49.6279
924.327	24.9338
927.702	16.7612
931.077	9.49512
934.452	5.43408
937.827	7.51758
941.201	24.1331
944.576	46.7395
947.951	48.1099
951.326	21.2341
954.701	5.50269
958.075	8.42041
961.45	6.07202
964.825	1.39575
968.2	10.3232
971.575	13.0168
974.949	10.5322
978.324	9.81494
981.699	13.5745
985.074	16.0654
988.449	12.4397
991.823	18.6977
995.198	18.7512
998.573	25.7722
1001.95	28.3201
1005.32	26.1409
1008.7	13.3196
1012.07	14.2112
1015.45	9.91748
1018.82	9.06006
1022.2	2.31397
1025.57	4.49365
1028.95	5.82519
1032.32	0.750977
1035.7	4.34985
1039.07	12.6262
1042.45	12.7839
1045.82	10.4023
1049.19	3.30933
1052.57	12.6384
1055.94	7.80859
1059.32	5.43213
1062.69	5.66504
1066.07	10.4678
1069.44	7.47168
1072.82	7.59814
1076.19	7.38794
1079.57	6.64575
1082.94	4.28833
1086.32	3.62256
1089.69	5.26758
1093.07	1.91602
1096.44	3.94727
1099.82	1.73755
1103.19	0.033691
1106.57	3.11182
1109.94	3.30078
1113.32	0.54834
1116.69	5.15527
1120.07	11.1033
1123.44	13.2527
1126.82	2.12695
1130.19	0.213379
1133.57	3.26245
1136.94	1.8186
1140.32	9.24683
1143.69	11.897
1147.07	7.18384
1150.44	20.1902
1153.82	48.7932
1157.19	72.2019
1160.56	70.842
1163.94	57.9736
1167.31	66.5618
1170.69	81.8755
1174.06	107.217
1177.44	116.82
1180.81	116.54
1184.19	97.4373
1187.56	71.7141
1190.94	45.543
1194.31	30.1384
1197.69	25.5134
1201.06	17.022
1204.44	19.7212
1207.81	24.9829
1211.19	29.2825
1214.56	22.4297
1217.94	24.5002
1221.31	30.1289
1224.69	31.123
1228.06	33.4043
1231.44	40.2305
1234.81	44.321
1238.18	59.9543
1241.56	83.7126
1244.93	115.37
1248.31	125.804
1251.68	96.74
1255.06	66.5452
1258.43	45.1567
1261.81	44.9849
1265.18	18.2419
1268.56	16.5952
1271.93	11.4793
1275.31	3.03125
1278.68	0.028564
1282.06	1.80078
1285.43	3.50513
1288.81	9.20361
1292.18	14.8001
1295.56	19.7329
1298.93	5.51367
