Measurement: Raman, 532 nm, unoriented, Raman Data Processed
Mineral: Richterite
Rruff sample: R060471
Ideal chemistry: Na(CaNa)Mg_5_Si_8_O_22_(OH)_2_
Locality: Kipawa Complex, Villedieu Township, Quebec, Canada
Source: Michael Scott
Description: Black platy fragment embedded in albite
Measured chemistry: (Na_0.52_K_0.40_[box]_0.08_)(Na_1.60_Ca_0.40_)_=2_(Mg_4.25_Mn_0.75_)_=5_Si_8_O_22_(OH)_2_
Raman shift (cm-1)	intensity
157.085	0
159.978	1.2663
162.871	10.553
165.763	24.1926
168.656	31.459
171.549	46.0096
174.441	45.3409
177.334	52.6305
180.227	49.6617
183.119	46.9586
186.012	46.683
188.905	59.8716
191.798	67.1457
194.69	74.2859
197.583	98.1228
200.476	109.039
203.369	127.027
206.261	142.522
209.154	147.834
212.047	161.297
214.939	169.421
217.832	179.101
220.725	184.472
223.617	181.062
226.51	164.759
229.403	162.921
232.296	138.801
235.188	122.33
238.081	110.619
240.974	98.896
243.866	78.9062
246.759	69.7498
249.652	53.8994
252.544	47.4445
255.437	35.9562
258.33	30.1102
261.223	22.2715
264.115	15.8617
267.008	9.84515
269.901	7.87172
272.793	3.14578
275.686	2.9838
278.579	5.21905
281.471	5.33153
284.364	2.09486
287.257	2.69676
290.15	1.40706
293.042	4.89778
295.935	16.2987
298.828	19.4225
301.72	27.1073
304.613	31.7836
307.506	35.7397
310.399	37.8316
313.291	35.1126
316.184	38.7999
319.077	35.4226
321.969	33.3264
324.862	29.6016
327.755	33.1991
330.647	27.6596
333.54	26.0528
336.433	21.698
339.325	18.4362
342.218	15.6651
345.111	19.647
348.004	20.5767
350.896	26.5959
353.789	28.4442
356.682	36.598
359.574	41.3612
362.467	44.4543
365.36	47.2611
368.253	49.7599
371.145	37.7562
374.038	35.2407
376.931	31.8153
379.823	30.7525
382.716	25.9919
385.609	27.6735
388.502	25.0971
391.394	22.9768
394.287	22.9737
397.18	26.6668
400.072	26.0638
402.965	24.5175
405.858	21.0263
408.75	22.7972
411.643	24.0006
414.536	23.41
417.428	27.3393
420.321	31.125
423.214	32.4037
426.107	29.0829
428.999	18.7815
431.892	12.5881
434.785	2.64961
437.677	4.26265
440.57	0.730263
443.463	1.49482
446.356	0.94986
449.248	3.43446
452.141	2.14591
455.034	2.229
457.926	0.385971
460.819	0.135231
463.712	1.28989
466.604	9.17235
469.497	7.35024
472.39	9.03599
475.283	5.1793
478.175	3.16798
481.068	6.20148
483.961	3.57571
486.853	2.48896
489.746	6.2857
492.639	4.70146
495.531	10.466
498.424	9.69051
501.317	15.7519
504.21	18.2992
507.102	27.0826
509.995	23.6822
512.888	26.9416
515.78	27.7119
518.673	33.4791
521.566	35.6554
524.458	36.5593
527.351	43.429
530.244	37.7051
533.137	55.9335
536.029	55.8382
538.922	63.8608
541.815	64.4883
544.707	67.6371
547.6	59.2448
550.493	60.1169
553.386	58.6741
556.278	52.8932
559.171	49.9851
562.064	47.7361
564.956	40.6816
567.849	38.4244
570.742	38.9068
573.635	38.3388
576.527	30.4011
579.42	33.8485
582.313	30.4859
585.205	23.7259
588.098	15.4966
590.991	10.0734
593.883	1.34491
596.776	0.407814
599.669	2.82113
602.562	2.1087
605.454	5.34753
608.347	1.26743
611.24	0.350952
614.132	2.91065
617.025	0.670418
619.918	1.75913
622.81	1.59266
625.703	8.17271
628.596	7.02055
631.489	8.53413
634.381	8.90907
637.274	9.82961
640.167	13.1251
643.059	18.2786
645.952	15.7847
648.845	20.8635
651.737	24.496
654.63	30.4779
657.523	39.6637
660.416	48.767
663.308	63.5691
666.201	83.3057
669.094	119.417
671.986	178.958
674.879	264.14
677.772	361.994
680.664	477.419
683.557	537.79
686.45	467.247
689.343	304.927
692.235	175.996
695.128	104.739
698.021	69.129
700.913	45.5229
703.806	30.109
706.699	18.9458
709.592	16.9922
712.484	10.1186
715.377	9.35129
718.27	10.8173
721.162	6.34721
724.055	5.29906
726.948	4.1589
729.841	6.37293
732.733	8.18165
735.626	8.1002
738.519	10.5848
741.411	10.5611
744.304	8.75012
747.197	4.42661
750.089	6.3664
752.982	2.24977
755.875	2.4451
758.768	2.98006
761.66	1.8156
764.553	1.16171
767.446	0.268639
770.338	1.18829
773.231	1.84376
776.124	0.422913
779.016	1.98229
781.909	1.36414
784.802	0.002937
787.694	2.18851
790.587	3.81008
793.48	0.151642
796.373	0.352531
799.265	1.08992
802.158	0.317116
805.051	2.83903
807.943	5.14345
810.836	0.61982
813.729	2.7732
816.621	3.74299
819.514	1.21088
822.407	1.49857
825.3	2.98002
828.192	1.2338
831.085	2.79688
833.978	3.78652
836.87	2.56214
839.763	4.44273
842.656	2.76208
845.549	3.66915
848.441	3.0918
851.334	0.524498
854.227	2.89929
857.119	0.410378
860.012	2.41869
862.905	1.7308
865.798	1.37531
868.69	2.73206
871.583	0.106659
874.476	2.34774
877.368	0.845993
880.261	3.21449
883.154	3.96553
886.046	8.02289
888.939	13.3367
891.832	8.71851
894.725	11.8936
897.617	13.5754
900.51	14.4195
903.403	15.6679
906.295	14.8201
909.188	21.4483
912.081	18.0824
914.973	15.8226
917.866	17.3687
920.759	19.8499
923.652	22.0655
926.544	17.0613
929.437	23.5644
932.33	17.7911
935.222	17.707
938.115	17.626
941.008	14.2544
943.9	13.2898
946.793	15.7887
949.686	14.1257
952.579	14.9929
955.471	15.4042
958.364	13.4911
961.257	12.1428
964.149	16.5101
967.042	21.8763
969.935	29.9271
972.827	34.2347
975.72	35.5939
978.613	40.609
981.506	43.1253
984.398	40.7258
987.291	35.0061
990.184	31.8902
993.077	28.946
995.969	22.0417
998.862	16.917
1001.75	13.6441
1004.65	9.22572
1007.54	7.98711
1010.43	5.21914
1013.33	4.40805
1016.22	1.53832
1019.11	0.96917
1022	2.89879
1024.9	2.23997
1027.79	2.16181
1030.68	0.127678
1033.57	1.86382
1036.47	5.54253
1039.36	2.26581
1042.25	7.00092
1045.14	8.99099
1048.04	9.30182
1050.93	11.7178
1053.82	13.3414
1056.72	19.6946
1059.61	29.8952
1062.5	31.4046
1065.39	41.2019
1068.29	49.3225
1071.18	61.951
1074.07	74.4715
1076.96	81.7472
1079.86	82.6775
1082.75	79.1454
1085.64	74.8878
1088.54	61.7462
1091.43	40.3203
1094.32	30.6663
1097.21	24.6643
1100.11	16.7194
1103	19.9423
1105.89	16.5625
1108.79	12.9164
1111.68	12.9106
1114.57	8.38297
1117.46	8.15404
1120.36	4.57523
1123.25	7.78988
1126.14	3.44495
1129.03	3.01813
1131.93	7.11301
1134.82	6.74726
1137.71	11.9918
1140.6	8.64398
1143.5	1.94403
1146.39	5.51789
1149.28	7.38387
1152.17	4.74583
1155.07	5.88174
1157.96	3.38782
1160.85	3.65546
1163.75	2.91226
1166.64	2.72077
1169.53	0.116432
1172.42	1.04808
1175.32	0.347153
1178.21	2.22654
1181.1	0.328865
1183.99	0.634167
1186.89	1.58728
1189.78	1.67485
1192.67	1.32041
1195.57	3.11021
1198.46	5.89151
1201.35	6.14622
1204.24	3.55087
1207.14	1.96262
1210.03	2.28322
1212.92	2.51999
1215.82	6.61222
1218.71	6.96265
1221.6	7.48352
1224.49	4.9944
1227.38	5.44513
1230.28	6.455
1233.17	5.22198
1236.06	9.69191
1238.96	4.83331
1241.85	6.43817
1244.74	2.57499
1247.63	6.0635
1250.53	0.398396
1253.42	3.92958
1256.31	3.72444
1259.2	4.94405
1262.1	2.06115
1264.99	1.89383
1267.88	3.65031
1270.78	5.70694
1273.67	3.32594
1276.56	3.02679
1279.45	3.14889
1282.35	1.63722
1285.24	2.52554
1288.13	4.62998
1291.03	0.830227
1293.92	5.91653
1296.81	2.65443
1299.7	1.44568
1302.6	0
