Measurement: Raman, 780 nm, unoriented, Raman Data Processed
Mineral: Richterite
Rruff sample: R060471
Ideal chemistry: Na(CaNa)Mg_5_Si_8_O_22_(OH)_2_
Locality: Kipawa Complex, Villedieu Township, Quebec, Canada
Source: Michael Scott
Description: Black platy fragment embedded in albite
Measured chemistry: (Na_0.52_K_0.40_[box]_0.08_)(Na_1.60_Ca_0.40_)_=2_(Mg_4.25_Mn_0.75_)_=5_Si_8_O_22_(OH)_2_
Raman shift (cm-1)	intensity
126.282	0
129.657	0.144577
133.032	2.58661
136.406	3.43188
139.781	6.81786
143.156	10.3292
146.531	16.6954
149.906	14.7366
153.281	12.7035
156.655	7.31955
160.03	7.2679
163.405	6.01973
166.78	6.79732
170.155	5.11633
173.53	0.880859
176.904	0.402176
180.279	2.71118
183.654	7.65994
187.029	11.9111
190.404	17.0314
193.778	26.6309
197.153	33.3122
200.528	44.1594
203.903	49.85
207.278	56.9672
210.652	61.3174
214.027	63.7126
217.402	67.1557
220.777	69.5339
224.152	65.6416
227.526	62.9674
230.901	55.9522
234.276	51.3733
237.651	46.9826
241.026	41.0497
244.401	34.9014
247.775	31.1974
251.15	22.7859
254.525	16.6206
257.9	11.1959
261.275	6.63913
264.649	1.98521
268.024	2.10982
271.399	1.41636
274.774	2.62756
278.149	1.12743
281.524	1.29101
284.898	4.49036
288.273	9.81696
291.648	12.5188
295.023	16.2217
298.398	20.7003
301.772	23.477
305.147	24.5334
308.522	24.492
311.897	24.1718
315.272	23.9293
318.647	22.2013
322.021	21.4958
325.396	18.4508
328.771	14.2741
332.146	8.22287
335.521	5.88864
338.895	2.50444
342.27	4.03318
345.645	6.51838
349.02	9.24213
352.395	10.0419
355.769	14.7133
359.144	17.7465
362.519	22.2371
365.894	24.7471
369.269	27.7331
372.644	27.9091
376.018	29.1531
379.393	27.5937
382.768	27.3152
386.143	30.2964
389.518	30.5241
392.892	31.0308
396.267	31.4156
399.642	31.3338
403.017	28.4847
406.392	29.863
409.767	29.1448
413.141	25.9268
416.516	24.3616
419.891	22.1258
423.266	15.3329
426.641	12.1735
430.015	7.90947
433.39	6.11252
436.765	1.0868
440.14	0.495056
443.515	1.02556
446.889	1.5323
450.264	1.07034
453.639	0.322716
457.014	0.095039
460.389	1.88862
463.764	1.65083
467.138	1.90203
470.513	1.20929
473.888	1.84849
477.263	2.48248
480.638	2.59243
484.012	3.64457
487.387	2.63908
490.762	4.46366
494.137	5.76546
497.512	4.88197
500.887	6.2103
504.261	9.27058
507.636	5.81781
511.011	7.46151
514.386	10.223
517.761	7.71456
521.135	10.2643
524.51	12.7912
527.885	14.6666
531.26	17.7566
534.635	21.7694
538.01	21.2589
541.384	22.678
544.759	21.3416
548.134	18.6898
551.509	16.3494
554.884	14.8421
558.258	12.4346
561.633	11.2791
565.008	9.35101
568.383	7.84197
571.758	8.32648
575.132	4.74429
578.507	4.01161
581.882	2.61694
585.257	0.526123
588.632	0.545013
592.006	0.05619
595.381	0.677719
598.756	0.667122
602.131	1.10925
605.506	0.253181
608.881	2.14365
612.255	4.09617
615.63	4.40038
619.005	3.58337
622.38	3.59695
625.755	3.21712
629.129	3.93325
632.504	4.33863
635.879	4.65998
639.254	4.0611
642.629	6.27073
646.004	8.47556
649.378	12.0386
652.753	15.0818
656.128	21.3354
659.503	35.3413
662.878	57.9761
666.252	97.2227
669.627	151.275
673.002	189.976
676.377	213.352
679.752	216.597
683.126	186.292
686.501	122.839
689.876	66.1038
693.251	35.1238
696.626	19.4625
700	11.6062
703.375	8.01781
706.75	4.86095
710.125	2.41782
713.5	3.07992
716.875	1.03303
720.249	1.22725
723.624	2.82781
726.999	1.16367
730.374	2.97114
733.749	4.36827
737.124	4.05362
740.498	4.3881
743.873	2.12158
747.248	3.30255
750.623	1.75203
753.998	0.888779
757.372	2.0329
760.747	1.29422
764.122	1.88545
767.497	0.546417
770.872	1.32152
774.246	0.002403
777.621	0.238297
780.996	1.60933
784.371	1.34734
787.746	2.03021
791.12	2.13275
794.495	0.783806
797.87	1.14862
801.245	0.10865
804.62	1.02686
807.995	1.04822
811.369	0.312111
814.744	1.14423
818.119	1.10316
821.494	1.6943
824.869	1.73821
828.244	1.10085
831.618	3.06361
834.993	2.84976
838.368	2.46397
841.743	2.97852
845.118	2.11417
848.492	2.0334
851.867	1.95381
855.242	2.25997
858.617	2.0946
861.992	2.94405
865.366	2.03212
868.741	3.19995
872.116	2.70615
875.491	1.60222
878.866	3.04641
882.24	2.14916
885.615	4.81214
888.99	2.71829
892.365	2.7114
895.74	2.68641
899.115	3.46061
902.489	2.95132
905.864	3.15498
909.239	3.19886
912.614	3.02155
915.989	3.64087
919.364	5.02954
922.738	6.23949
926.113	5.68578
929.488	6.99941
932.863	7.10151
936.237	4.50525
939.612	3.87354
942.987	0.631195
946.362	0.136421
949.737	0.285858
953.112	1.81286
956.486	0.518791
959.861	1.58508
963.236	3.82688
966.611	8.03777
969.986	8.03082
973.361	10.7813
976.735	11.7474
980.11	13.3906
983.485	11.8973
986.86	11.6584
990.235	8.04098
993.609	6.08777
996.984	6.28075
1000.36	4.32018
1003.73	4.016
1007.11	1.93121
1010.48	1.35966
1013.86	1.73292
1017.23	2.31527
1020.61	1.14994
1023.98	1.16982
1027.36	1.11852
1030.73	1.07964
1034.11	0.441811
1037.48	0.791382
1040.86	1.54341
1044.23	2.58721
1047.61	3.41622
1050.98	5.76183
1054.36	10.5039
1057.73	15.4127
1061.11	23.2118
1064.48	29.1749
1067.86	35.5114
1071.23	40.6928
1074.61	41.8336
1077.98	41.3867
1081.35	37.0669
1084.73	32.1709
1088.1	29.6008
1091.48	25.6707
1094.85	27.4808
1098.23	27.1825
1101.6	33.2836
1104.98	33.4485
1108.35	41.1375
1111.73	42.7448
1115.1	44.8345
1118.48	47.9105
1121.85	49.9955
1125.23	49.8434
1128.6	51.5291
1131.98	48.8613
1135.35	47.1611
1138.73	46.6489
1142.1	41.3184
1145.48	37.4668
1148.85	33.8259
1152.23	29.3096
1155.6	23.6137
1158.97	20.248
1162.35	16.3947
1165.72	13.8109
1169.1	8.61681
1172.47	5.86513
1175.85	4.384
1179.22	3.3484
1182.6	2.60358
1185.97	1.54524
1189.35	1.02074
1192.72	1.00412
1196.1	0.24408
1199.47	0.968597
1202.85	0.601776
1206.22	0.723007
1209.6	0.439713
1212.97	1.06136
1216.35	1.72116
1219.72	0.952347
1223.1	3.2531
1226.47	3.97618
1229.85	1.57549
1233.22	3.00615
1236.6	6.04515
1239.97	4.87807
1243.35	3.48833
1246.72	7.55606
1250.1	1.64574
1253.47	1.59125
1256.85	0.584991
1260.22	2.60536
1263.59	3.54265
1266.97	1.06656
1270.34	0.071823
1273.72	1.15085
1277.09	1.26289
1280.47	0.60556
1283.84	0.015091
