Measurement: Raman, 780 nm, unoriented, Raman Data Processed
Mineral: Richterite
Rruff sample: R060043
Ideal chemistry: Na(CaNa)Mg_5_Si_8_O_22_(OH)_2_
Locality: Langban, Filipstad, Varmland, Sweden
Source: University of Arizona Mineral Museum
Description: Brown transparent stubby prismatic single crystal associated with calcite
Measured chemistry: (Na_0.45_K_0.25_[box]_0.30_)(Ca_0.78_Na_1.18_Mn_0.04_)_=2_(Mg_4.25_Mn_0.75_)_=5_(Si_0.97_Fe^3+^_0.02_Al_0.01_)_8_O_22_(OH)_2_
Raman shift (cm-1)	intensity
146.521	0
149.413	2.6684
152.306	20.5776
155.199	22.3538
158.091	23.7319
160.984	12.0737
163.877	0.034485
166.77	8.96185
169.662	8.17499
172.555	8.7804
175.448	11.8611
178.34	6.17981
181.233	7.65088
184.126	5.2464
187.018	3.81262
189.911	20.5273
192.804	24.5793
195.697	39.1385
198.589	38.951
201.482	62.5348
204.375	67.4699
207.267	82.7242
210.16	98.6257
213.053	117.417
215.946	139.237
218.838	163.478
221.731	190.079
224.624	193.047
227.516	179.68
230.409	138.483
233.302	114.217
236.194	76.6274
239.087	55.2202
241.98	61.2374
244.873	43.8779
247.765	44.4801
250.658	39.9855
253.551	33.0526
256.443	15.6996
259.336	21.1822
262.229	13.5879
265.121	3.13428
268.014	0.445313
270.907	0.952026
273.8	3.03809
276.692	6.71423
279.585	3.68103
282.478	4.39087
285.37	3.17224
288.263	0.552124
291.156	0.818359
294.048	7.29968
296.941	3.05542
299.834	6.47876
302.726	3.86755
305.619	3.97815
308.512	2.03467
311.405	7.8363
314.297	8.41956
317.19	17.8256
320.083	22.642
322.975	11.828
325.868	27.1903
328.761	26.9879
331.654	19.783
334.546	15.9829
337.439	29.4988
340.332	25.2461
343.224	9.95679
346.117	11.8645
349.01	10.7809
351.902	12.2583
354.795	9.91882
357.688	11.887
360.58	20.5981
363.473	26.0712
366.366	38.6967
369.259	46.0975
372.151	52.9205
375.044	61.52
377.937	41.9899
380.829	43.4228
383.722	61.0883
386.615	63.8223
389.507	88.5985
392.4	106.915
395.293	104.536
398.185	84.6554
401.078	45.5575
403.971	25.6763
406.864	24.9383
409.756	14.3495
412.649	18.458
415.542	15.8937
418.434	13.2745
421.327	10.5281
424.22	15.5175
427.113	11.4114
430.005	11.2214
432.898	8.25684
435.791	15.4002
438.683	5.6875
441.576	1.38416
444.469	0.357544
447.361	7.70447
450.254	0.508789
453.147	8.302
456.039	7.49756
458.932	6.09473
461.825	17.5398
464.718	13.8762
467.61	18.5214
470.503	16.6688
473.396	20.8117
476.288	24.077
479.181	11.1061
482.074	21.8722
484.966	12.8697
487.859	14.5004
490.752	22.6962
493.645	25.6912
496.537	29.5416
499.43	40.3235
502.323	44.5378
505.215	46.9031
508.108	47.1946
511.001	41.6143
513.894	42.2952
516.786	34.0806
519.679	37.3962
522.572	23.0398
525.464	17.9282
528.357	9.65747
531.25	16.803
534.142	17.5747
537.035	8.323
539.928	6.67505
542.821	6.70752
545.713	12.7886
548.606	1.14893
551.499	3.6333
554.391	5.47363
557.284	4.38843
560.177	4.98828
563.069	10.1775
565.962	13.6589
568.855	15.676
571.747	21.9062
574.64	25.291
577.533	14.8804
580.426	19.8464
583.318	21.0615
586.211	13.544
589.104	30.6636
591.996	12.7681
594.889	7.41309
597.782	12.7585
600.674	13.1065
603.567	12.1758
606.46	20.1484
609.352	5.31519
612.245	14.9426
615.138	3.82422
618.031	7.1936
620.923	1.5227
623.816	0.135498
626.709	1.61792
629.601	4.78784
632.494	0.575195
635.387	2.31665
638.279	9.35229
641.172	18.3225
644.065	19.9329
646.958	14.4543
649.85	33.1457
652.743	54.2297
655.636	71.1912
658.528	88.8994
661.421	118.067
664.314	145.406
667.207	189.512
670.099	234.028
672.992	289.085
675.885	391.41
678.777	434.609
681.67	385.017
684.563	247.581
687.455	151.955
690.348	81.8755
693.241	48.6526
696.134	26.9624
699.026	31.5461
701.919	17.1799
704.812	17.103
707.704	10.8909
710.597	21.1643
713.49	24.6304
716.382	14.2398
719.275	24.6445
722.168	20.0881
725.061	22.397
727.953	13.1245
730.846	17.0635
733.739	35.2856
736.631	4.06299
739.524	7.25244
742.417	11.0869
745.309	17.9038
748.202	13.9717
751.095	16.1572
753.987	19.259
756.88	6.49365
759.773	14.0786
762.666	0.825195
765.558	4.51074
768.451	7.22852
771.344	2.1355
774.236	9.07251
777.129	12.0493
780.022	9.41455
782.914	9.38892
785.807	16.0483
788.7	13.436
791.593	19.8193
794.485	31.8418
797.378	23.9741
800.271	22.2183
803.163	21.3843
806.056	16.6611
808.949	16.8667
811.841	33.8897
814.734	61.4785
817.627	15.7417
820.52	27.4028
823.412	38.4214
826.305	24.2529
829.198	7.81885
832.09	24.9521
834.983	17.9121
837.876	8.87109
840.769	2.32959
843.661	48.0801
846.554	29.8169
849.447	16.0547
852.339	8.32227
855.232	22.1377
858.125	3.36084
861.017	22.0586
863.91	17.1821
866.803	29.0264
869.696	27.332
872.588	30.6528
875.481	10.9717
878.374	6.10205
881.266	16.145
884.159	10.7534
887.052	7.52637
889.944	31.5913
892.837	10.5254
895.73	15.5737
898.622	14.0317
901.515	25.77
904.408	10.8618
907.301	8.41504
910.193	17.481
913.086	12.4883
915.979	8.27295
918.871	29.6343
921.764	40.0015
924.657	19.0059
927.549	18.458
930.442	20.3115
933.335	38.5703
936.227	33.5044
939.12	36.5093
942.013	26.4775
944.906	42.7637
947.798	25.6362
950.691	40.354
953.584	42.2515
956.476	38.999
959.369	38.9355
962.262	49.5488
965.154	41.6152
968.047	31.0591
970.94	40.708
973.833	10.3652
976.725	23.2207
979.618	3.20361
982.511	7.91553
985.403	51.8032
988.296	23.29
991.189	32.6133
994.082	12.4282
996.974	43.7549
999.867	10.1621
1002.76	7.00195
1005.65	13.6836
1008.54	3.32812
1011.44	30.7856
1014.33	20.9468
1017.22	26.4219
1020.12	45.8403
1023.01	34.2114
1025.9	55.6167
1028.79	39.3413
1031.69	52.001
1034.58	41.9224
1037.47	30.9902
1040.37	65.0195
1043.26	49.749
1046.15	62.46
1049.04	55.169
1051.94	70.4302
1054.83	75.7627
1057.72	125.055
1060.61	100.249
1063.51	112.371
1066.4	102.34
1069.29	100.919
1072.18	107.114
1075.08	92.8369
1077.97	63.4062
1080.86	76.5747
1083.76	74.9072
1086.65	98.7978
1089.54	64.9893
1092.43	62.2012
1095.33	57.958
1098.22	88.8106
1101.11	20
1104	56.5859
1106.9	0.988281
1109.79	19.6328
1112.68	35.5928
1115.58	7.69629
1118.47	26.0479
1121.36	8.8418
1124.25	13.7705
1127.15	21.2471
1130.04	29.2979
1132.93	29.0303
1135.82	34.7793
1138.72	19.3496
1141.61	35.7334
1144.5	39.4258
1147.39	34.1416
1150.29	55.4131
1153.18	50.5381
1156.07	23.5957
1158.96	57.709
1161.86	57.6113
1164.75	57.9736
1167.64	65.7666
1170.54	74.1338
1173.43	59.7568
1176.32	83.6621
1179.21	61.8594
1182.11	86.8086
1185	62.374
1187.89	55.9785
1190.79	64.4561
1193.68	72.0273
1196.57	65.5889
1199.46	61.1963
1202.36	92.8223
1205.25	81.4209
1208.14	80.5898
1211.03	20.8799
1213.93	32.2373
1216.82	35.9492
1219.71	21.6416
1222.61	11.5459
1225.5	25.5566
1228.39	31.1816
1231.28	49.0957
1234.18	39.918
1237.07	17.7324
1239.96	46.5781
1242.85	0.390625
1245.75	14.5918
1248.64	22.9961
1251.53	48.9297
1254.42	34.5039
1257.32	34.6855
1260.21	20.8721
1263.1	48.9502
1265.99	43.8682
1268.89	32.7822
1271.78	45.1152
1274.67	49.5449
1277.57	0.321289
