Measurement: Raman, 532 nm, unoriented, Raman Data Processed
Mineral: Richterite
Rruff sample: R100069
Ideal chemistry: Na(CaNa)Mg_5_Si_8_O_22_(OH)_2_
Locality: La Ceila, near Jumilla, Murcia Province, Spain
Source: Bob Jenkins
Description: Yellow transparent bladed crystals associated with yuanfuliite R100067 and black tabular hematite
Raman shift (cm-1)	intensity
131.954	0
135.329	5.12642
138.704	2.54234
142.079	9.57478
145.453	37.3477
148.828	67.6141
152.203	131.159
155.578	186.873
158.953	270.203
162.328	336.352
165.702	294.235
169.077	258.885
172.452	233.812
175.827	240.026
179.202	219.357
182.577	197.471
185.951	171.719
189.326	168.3
192.701	146.087
196.076	163.726
199.451	167.241
202.825	186.926
206.2	216.229
209.575	230.376
212.95	277.035
216.325	339.153
219.699	440.416
223.074	537.191
226.449	678.386
229.824	826.052
233.199	879.35
236.573	728.967
239.948	508.018
243.323	350.86
246.698	248.451
250.073	177.819
253.448	115.201
256.822	90.1444
260.197	49.2519
263.572	32.0963
266.947	4.33569
270.322	10.9019
273.697	13.5518
277.071	5.33728
280.446	4.87689
283.821	6.16388
287.196	3.95373
290.571	16.7451
293.945	32.081
297.32	41.8971
300.695	55.6236
304.07	81.4992
307.445	108.347
310.82	97.592
314.194	70.418
317.569	35.919
320.944	17.7642
324.319	16.6934
327.694	5.01917
331.068	13.8942
334.443	9.79553
337.818	2.9949
341.193	15.4698
344.568	21.8304
347.942	33.0471
351.317	47.7265
354.692	64.3168
358.067	100.581
361.442	145.231
364.817	203.63
368.191	235.275
371.566	225.713
374.941	207.813
378.316	159.904
381.691	100.902
385.065	50.2974
388.44	18.5531
391.815	4.39462
395.19	0.599213
398.565	11.362
401.94	20.8358
405.314	40.2021
408.689	34.2787
412.064	57.0196
415.439	34.2844
418.814	41.2183
422.188	42.7916
425.563	45.6439
428.938	84.4097
432.313	101.428
435.688	101.773
439.062	80.8002
442.437	44.5368
445.812	26.4523
449.187	12.5011
452.562	0.994263
455.937	5.17596
459.311	1.06125
462.686	3.73114
466.061	2.04239
469.436	7.97604
472.811	19.936
476.185	7.70715
479.56	18.5774
482.935	6.41425
486.31	6.66592
489.685	16.7827
493.06	8.24646
496.434	24.8394
499.809	28.2139
503.184	26.1855
506.559	36.4621
509.934	45.9504
513.308	44.6272
516.683	76.109
520.058	77.0859
523.433	87.483
526.808	100.817
530.183	81.5159
533.557	76.5966
536.932	81.7933
540.307	81.6919
543.682	71.9333
547.057	68.8346
550.432	72.5113
553.806	88.7041
557.181	76.3311
560.556	77.6586
563.931	79.1349
567.306	62.811
570.68	61.4068
574.055	71.6177
577.43	72.7708
580.805	86.2531
584.18	91.7249
587.554	107.425
590.929	104.871
594.304	84.581
597.679	54.6644
601.054	33.7023
604.428	12.3125
607.803	4.90445
611.178	6.01389
614.553	7.76895
617.928	6.24545
621.303	2.80365
624.677	4.12534
628.052	2.21686
631.427	6.74557
634.802	4.80887
638.177	6.75461
641.552	12.5984
644.926	12.701
648.301	14.7256
651.676	31.2969
655.051	40.6996
658.426	75.5907
661.8	110.955
665.175	163.813
668.55	264.566
671.925	410.134
675.3	634.028
678.674	902.523
682.049	1179.77
685.424	1215.7
688.799	871.39
692.174	475.451
695.549	263.235
698.923	153.048
702.298	88.6134
705.673	62.1527
709.048	47.4978
712.423	36.17
715.798	24.8276
719.172	23.9166
722.547	25.5741
725.922	38.2307
729.297	39.7625
732.672	46.0937
736.046	39.3829
739.421	29.7979
742.796	41.1582
746.171	30.3608
749.546	31.741
752.92	39.1475
756.295	49.9412
759.67	51.7921
763.045	67.794
766.42	76.8164
769.795	82.2146
773.169	83.9328
776.544	92.5962
779.919	78.5396
783.294	59.2656
786.669	47.7619
790.043	17.1924
793.418	15.8538
796.793	5.76141
800.168	8.64304
803.543	14.8106
806.918	12.1557
810.292	14.669
813.667	3.26715
817.042	13.4589
820.417	2.444
823.792	9.56485
827.166	3.17483
830.541	0.401947
833.916	6.80337
837.291	1.67828
840.666	3.53461
844.04	2.03281
847.415	11.5704
850.79	9.48093
854.165	8.69815
857.54	1.54254
860.915	14.5062
864.289	16.4833
867.664	18.6829
871.039	21.8538
874.414	34.4878
877.789	43.2799
881.163	43.8018
884.538	48.3775
887.913	51.2105
891.288	44.1332
894.663	49.2114
898.038	51.4237
901.412	50.5738
904.787	52.8918
908.162	44.3295
911.537	44.3546
914.912	60.6411
918.287	53.6298
921.661	66.6458
925.036	56.2186
928.411	63.564
931.786	72.3853
935.161	62.9422
938.535	75.4679
941.91	64.805
945.285	53.6309
948.66	59.0303
952.035	40.2692
955.409	33.2094
958.784	32.8053
962.159	25.3526
965.534	19.4863
968.909	16.8997
972.284	4.04251
975.658	16.4931
979.033	9.89523
982.408	5.80383
985.783	4.79053
989.158	5.5762
992.533	3.36246
995.907	1.9783
999.282	1.28122
1002.66	4.12344
1006.03	2.08679
1009.41	7.01559
1012.78	16.0438
1016.16	13.3607
1019.53	23.7459
1022.91	35.5202
1026.28	42.2173
1029.66	44.5082
1033.03	45.0668
1036.4	73.5915
1039.78	70.853
1043.15	75.6975
1046.53	86.2924
1049.9	91.3118
1053.28	100.912
1056.65	104.356
1060.03	111.397
1063.4	111.747
1066.78	118.189
1070.15	122.169
1073.53	125.064
1076.9	121.779
1080.28	115.223
1083.65	113.248
1087.03	108.215
1090.4	101.952
1093.78	90.7646
1097.15	70.4968
1100.53	53.5464
1103.9	44.6043
1107.28	35.0355
1110.65	29.1522
1114.03	20.0354
1117.4	22.7865
1120.78	15.4884
1124.15	16.0959
1127.53	7.99277
1130.9	15.6403
1134.28	3.75043
1137.65	7.33041
1141.02	7.12271
1144.4	1.94861
1147.77	0.71524
1151.15	4.70898
1154.52	3.18845
1157.9	4.57889
1161.27	4.55615
1164.65	3.23236
1168.02	2.49109
1171.4	3.5339
1174.77	5.82391
1178.15	1.50818
1181.52	4.34451
1184.9	9.53342
1188.27	4.98105
1191.65	8.06757
1195.02	11.9442
1198.4	13.887
1201.77	12.3549
1205.15	9.52646
1208.52	17.7914
1211.9	12.5534
1215.27	11.2903
1218.64	17.5561
1222.02	20.3877
1225.39	12.9101
1228.77	10.894
1232.14	12.0072
1235.52	10.8058
1238.89	8.48319
1242.27	0.766144
1245.64	19.7405
1249.02	15.3899
1252.39	19.4722
1255.77	18.908
1259.14	16.85
1262.52	17.4059
1265.89	11.0271
1269.27	7.9707
1272.64	16.2665
1276.02	17.1358
1279.39	16.4124
1282.77	9.86884
1286.14	9.60272
1289.52	9.66238
1292.89	7.73236
1296.27	14.5533
1299.64	5.35553
1303.02	0
