Measurement: Raman, 532 nm, unoriented, Raman Data Processed
Mineral: Richterite
Rruff sample: R060043
Ideal chemistry: Na(CaNa)Mg_5_Si_8_O_22_(OH)_2_
Locality: Langban, Filipstad, Varmland, Sweden
Source: University of Arizona Mineral Museum
Description: Brown transparent stubby prismatic single crystal associated with calcite
Measured chemistry: (Na_0.45_K_0.25_[box]_0.30_)(Ca_0.78_Na_1.18_Mn_0.04_)_=2_(Mg_4.25_Mn_0.75_)_=5_(Si_0.97_Fe^3+^_0.02_Al_0.01_)_8_O_22_(OH)_2_
Raman shift (cm-1)	intensity
149.64	0
152.533	5.25955
155.426	12.1902
158.319	9.34749
161.211	0.829712
164.104	0.746399
166.997	0.813232
169.889	4.31349
172.782	5.99696
175.675	7.52017
178.567	7.27014
181.46	5.38699
184.353	7.49413
187.245	8.74684
190.138	15.9123
193.031	21.6484
195.924	28.8581
198.816	35.8556
201.709	46.1881
204.602	56.5735
207.494	69.6153
210.387	81.7789
213.28	99.3121
216.173	119.183
219.065	144.553
221.958	165.298
224.851	172.803
227.743	156.189
230.636	121.376
233.529	89.2959
236.421	67.1872
239.314	54.5655
242.207	48.5649
245.099	44.7293
247.992	38.0362
250.885	31.9017
253.778	27.3993
256.67	23.7001
259.563	17.2027
262.456	10.9875
265.348	4.31618
268.241	0.752777
271.134	0.964951
274.026	0.546356
276.919	0.89888
279.812	2.42793
282.704	1.92476
285.597	0.914139
288.49	1.16396
291.383	1.13057
294.275	3.52576
297.168	4.465
300.061	4.728
302.953	4.79381
305.846	5.33669
308.739	4.83119
311.632	5.45329
314.524	8.36056
317.417	10.7451
320.31	12.1752
323.202	15.0343
326.095	17.811
328.988	19.8426
331.88	22.8734
334.773	23.094
337.666	22.6116
340.558	20.7419
343.451	18.6493
346.344	18.3309
349.237	18.9862
352.129	19.6668
355.022	25.0626
357.915	28.7616
360.807	35.6481
363.7	44.3886
366.593	56.0352
369.486	67.9103
372.378	70.1971
375.271	64.882
378.164	56.9837
381.056	58.2135
383.949	68.2843
386.842	82.0224
389.734	102.024
392.627	121.511
395.52	124.969
398.413	101.098
401.305	70.2831
404.198	46.1665
407.091	31.9383
409.983	24.3934
412.876	22.8785
415.769	21.9357
418.661	20.973
421.554	18.4578
424.447	16.2623
427.339	12.6685
430.232	12.0157
433.125	8.80652
436.018	5.33241
438.91	2.26906
441.803	0.339111
444.696	1.58179
447.588	2.88565
450.481	2.3027
453.374	1.60521
456.267	0.58696
459.159	1.42244
462.052	3.32448
464.945	4.6888
467.837	5.39183
470.73	6.96004
473.623	6.93863
476.515	4.97527
479.408	3.96632
482.301	4.25613
485.193	3.70303
488.086	5.78589
490.979	7.79794
493.872	10.4231
496.764	14.8489
499.657	19.469
502.55	22.5771
505.442	25.5331
508.335	24.9953
511.228	25.4976
514.12	24.4232
517.013	24.1318
519.906	23.6855
522.799	18.4134
525.691	13.5871
528.584	11.0386
531.477	9.84322
534.369	8.07788
537.262	7.1514
540.155	3.43111
543.048	3.41251
545.94	3.07304
548.833	2.78732
551.726	3.13077
554.618	2.81325
557.511	2.80099
560.404	3.87637
563.296	3.2112
566.189	3.4409
569.082	3.83461
571.975	3.98297
574.867	4.86125
577.76	6.00555
580.653	6.31959
583.545	6.52882
586.438	4.03522
589.331	2.38391
592.223	1.85548
595.116	0.121445
598.009	1.58994
600.901	0.204803
603.794	0.718582
606.687	0.399368
609.58	0.515366
612.472	0.024445
615.365	0.619308
618.258	1.23573
621.15	1.06937
624.043	1.34279
626.936	0.526627
629.828	0.993805
632.721	2.97473
635.614	3.5988
638.506	7.36481
641.399	9.95178
644.292	13.3935
647.185	18.1909
650.077	23.4374
652.97	33.7409
655.863	47.5275
658.755	67.0549
661.648	93.8461
664.541	136.039
667.433	188.454
670.326	252.176
673.219	338.615
676.112	444.34
679.004	517.94
681.897	467.373
684.79	316.495
687.682	186.582
690.575	110.979
693.468	73.0604
696.361	52.0003
699.253	36.1727
702.146	30.0694
705.039	26.3215
707.931	24.5941
710.824	24.2981
713.717	24.5863
716.609	21.8885
719.502	20.1493
722.395	18.4375
725.288	17.2766
728.18	18.9825
731.073	14.4452
733.966	12.2464
736.858	8.82823
739.751	6.52089
742.644	4.78714
745.536	4.45474
748.429	1.3399
751.322	1.70619
754.215	0.427597
757.107	0.344879
760	0.923904
762.893	0.471558
765.785	0.003601
768.678	0.550201
771.571	0.418976
774.463	0.487854
777.356	0.08165
780.249	0.088455
783.141	0.693939
786.034	1.76384
788.927	0.959702
791.82	0.791397
794.712	3.1322
797.605	1.63629
800.498	2.76701
803.39	3.28885
806.283	2.5956
809.176	2.66032
812.068	2.04804
814.961	2.25546
817.854	2.32393
820.747	1.83627
823.639	1.38373
826.532	0.614883
829.425	1.28642
832.317	0.089981
835.21	0.639664
838.103	0.605408
840.995	0.433884
843.888	0.251877
846.781	0.370941
849.674	0.176422
852.566	0.473511
855.459	0.765884
858.352	1.31345
861.244	0.835587
864.137	1.84775
867.03	2.57727
869.923	4.78607
872.815	6.29036
875.708	5.28301
878.601	7.64175
881.493	7.37042
884.386	8.6174
887.279	7.57967
890.171	6.38295
893.064	5.26416
895.957	5.26305
898.85	2.50032
901.742	4.56036
904.635	4.21127
907.528	6.06908
910.42	7.599
913.313	9.68454
916.206	13.6635
919.098	17.4518
921.991	20.1103
924.884	24.0654
927.777	25.3729
930.669	24.9312
933.562	22.7443
936.455	22.4125
939.347	20.7219
942.24	18.3148
945.133	20.62
948.025	18.2386
950.918	18.7803
953.811	16.299
956.703	10.8406
959.596	8.12773
962.489	4.77702
965.382	2.86408
968.274	2.74818
971.167	1.49583
974.06	4.53828
976.952	1.01109
979.845	2.80096
982.738	0.5634
985.63	1.04552
988.523	0.587036
991.416	0.625275
994.308	0.76709
997.201	0.62323
1000.09	0.302826
1002.99	0.79364
1005.88	0.24292
1008.77	0.133331
1011.66	0.136932
1014.56	1.97232
1017.45	2.45584
1020.34	1.93518
1023.24	3.76373
1026.13	6.27564
1029.02	8.79196
1031.91	12.0899
1034.81	14.1196
1037.7	16.9031
1040.59	17.9908
1043.48	21.127
1046.38	23.7743
1049.27	27.0078
1052.16	30.9641
1055.06	34.761
1057.95	40.7646
1060.84	44.8512
1063.73	51.4557
1066.63	57.8674
1069.52	60.1141
1072.41	61.8977
1075.3	58.4554
1078.2	56.5591
1081.09	49.1719
1083.98	46.8016
1086.88	41.2135
1089.77	34.3256
1092.66	27.4455
1095.55	21.2243
1098.45	16.2141
1101.34	12.1609
1104.23	11.4105
1107.12	8.51291
1110.02	8.31455
1112.91	5.08868
1115.8	5.57788
1118.69	5.11331
1121.59	2.87588
1124.48	3.18744
1127.37	2.81458
1130.27	2.75201
1133.16	1.43997
1136.05	2.06793
1138.94	1.3057
1141.84	1.26538
1144.73	2.19617
1147.62	0.2211
1150.51	2.51184
1153.41	2.05008
1156.3	0.237457
1159.19	0.726837
1162.09	0.029816
1164.98	0.478821
1167.87	0.26413
1170.76	0.182983
1173.66	0.180634
1176.55	0.37088
1179.44	1.65836
1182.33	0.223328
1185.23	0.541901
1188.12	1.28128
1191.01	2.57727
1193.9	1.00647
1196.8	2.22818
1199.69	1.95615
1202.58	3.88467
1205.48	2.98331
1208.37	3.19678
1211.26	2.97028
1214.15	2.03079
1217.05	2.93188
1219.94	3.43997
1222.83	3.63495
1225.72	3.89105
1228.62	4.17258
1231.51	2.40436
1234.4	2.93155
1237.3	0.771545
1240.19	1.56473
1243.08	2.49225
1245.97	2.1333
1248.87	2.09589
1251.76	1.95914
1254.65	3.01068
1257.54	0.471039
1260.44	1.89255
1263.33	1.35071
1266.22	1.2587
1269.12	1.82932
1272.01	2.93979
1274.9	1.41727
1277.79	0.883606
1280.69	0.14212
1283.58	1.04224
1286.47	0.311371
