Measurement: Raman, 532 nm, unoriented, Raman Data Processed
Mineral: Richelsdorfite
Rruff sample: R130552
Ideal chemistry: Ca_2_Cu^2+^_5_Sb^5+^(As^5+^O_4_)_4_(OH)_6_Cl6H_2_O
Locality: Silberberg, Brixlegg, Austria
Source: Bob Jenkins
Description: Platy blue crystals, with a 2-fold twin around [110]
Raman shift (cm-1)	intensity
211.819	0
214.712	2.63971
217.605	5.27139
220.497	11.1344
223.39	15.1375
226.283	16.4263
229.175	15.8697
232.068	6.66821
234.961	0.029388
237.854	0.262787
240.746	1.99811
243.639	2.96063
246.532	1.50479
249.424	3.50571
252.317	4.85474
255.21	12.875
258.103	17.0244
260.995	18.2932
263.888	12.0942
266.781	9.80359
269.673	7.9848
272.566	10.6701
275.459	12.9338
278.351	16.472
281.244	15.4897
284.137	10.6882
287.029	6.45013
289.922	3.72305
292.815	2.16553
295.708	2.15152
298.6	0.185181
301.493	0.783234
304.386	0.160553
307.278	3.23019
310.171	4.22488
313.064	7.18277
315.957	7.38791
318.849	7.43274
321.742	10.9237
324.635	11.6076
327.527	14.4236
330.42	18.7009
333.313	24.1453
336.205	28.1533
339.098	33.4172
341.991	35.9524
344.884	34.2825
347.776	27.7309
350.669	24.6223
353.562	21.5046
356.454	17.1574
359.347	15.976
362.24	13.627
365.132	14.2148
368.025	10.7661
370.918	5.65274
373.81	4.28842
376.703	2.5325
379.596	2.72357
382.489	0.899872
385.381	0.196167
388.274	0.203552
391.167	0.986603
394.059	1.54605
396.952	2.42331
399.845	5.19803
402.738	5.64218
405.63	5.97891
408.523	4.88937
411.416	4.66617
414.308	3.46588
417.201	2.16055
420.094	0.593719
422.986	0.519958
425.879	0.946365
428.772	2.0564
431.664	2.26062
434.557	4.06815
437.45	3.48267
440.343	7.00803
443.235	8.59817
446.128	11.3179
449.021	15.1892
451.913	18.2154
454.806	20.6342
457.699	21.9441
460.591	21.9926
463.484	22.1697
466.377	21.3667
469.27	20.0192
472.162	24.981
475.055	28.3468
477.948	32.5703
480.84	32.2487
483.733	26.5704
486.626	17.3633
489.519	9.2721
492.411	4.47257
495.304	1.3111
498.197	0.841064
501.089	1.86185
503.982	1.30652
506.875	2.73285
509.767	0.746979
512.66	2.31079
515.553	3.53159
518.446	4.49197
521.338	9.02063
524.231	13.918
527.124	21.8939
530.016	30.2045
532.909	42.0514
535.802	54.0573
538.694	68.7228
541.587	81.2498
544.48	89.8287
547.372	94.8505
550.265	94.2888
553.158	93.2854
556.051	77.2853
558.943	57.2666
561.836	43.1962
564.729	29.9146
567.621	20.5338
570.514	15.432
573.407	11.0073
576.299	13.3753
579.192	7.69327
582.085	6.44748
584.978	8.23425
587.87	8.2279
590.763	15.519
593.656	17.2361
596.548	25.1239
599.441	31.8012
602.334	43.4858
605.226	62.0075
608.119	88.2407
611.012	117.48
613.905	156.46
616.797	200.242
619.69	235.601
622.583	245.602
625.475	219.03
628.368	174.206
631.261	129.398
634.154	90.0953
637.046	59.2886
639.939	39.9182
642.832	24.1494
645.724	16.4325
648.617	10.7487
651.51	6.47728
654.402	4.22478
657.295	3.25122
660.188	1.35767
663.081	1.45178
665.973	0.71257
668.866	0.145096
671.759	1.34952
674.651	0.066147
677.544	0.426865
680.437	0.248138
683.329	2.33228
686.222	0.77301
689.115	0.201218
692.008	2.64073
694.9	1.53668
697.793	1.18576
700.686	1.99945
703.578	0.304596
706.471	1.85892
709.364	3.32314
712.256	2.60841
715.149	2.31099
718.042	2.40007
720.934	3.20798
723.827	2.54199
726.72	0.346085
729.613	0.438004
732.505	0.210281
735.398	0.761154
738.291	0.496292
741.183	0.091461
744.076	1.20284
746.969	1.06541
749.861	0.131943
752.754	1.00896
755.647	0.23851
758.54	0.569
761.432	0.231964
764.325	3.44789
767.218	6.90234
770.11	11.4712
773.003	14.7315
775.896	22.2689
778.788	26.0196
781.681	34.1205
784.574	31.7195
787.467	27.5313
790.359	21.1164
793.252	22.0846
796.145	24.1581
799.037	30.5178
801.93	38.2171
804.823	44.844
807.716	44.17
810.608	30.9502
813.501	18.1101
816.394	10.7596
819.286	10.0068
822.179	7.89137
825.072	4.506
827.964	4.99048
830.857	4.05261
833.75	7.4292
836.643	13.0532
839.535	23.8338
842.428	42.5691
845.321	66.5194
848.213	101.014
851.106	145.839
853.999	192.606
856.891	216.256
859.784	203.757
862.677	169.935
865.569	124.935
868.462	83.8834
871.355	67.3072
874.248	55.3902
877.14	55.1532
880.033	50.8554
882.926	37.461
885.818	25.7287
888.711	19.7308
891.604	14.0163
894.496	8.68541
897.389	3.10345
900.282	2.73544
903.175	1.80084
906.067	2.13063
908.96	0.176849
911.853	0.478775
914.745	5.21124
917.638	11.6921
920.531	23.5668
923.423	36.9604
926.316	53.4708
929.209	70.8034
932.102	86.3643
934.994	95.9149
937.887	90.4048
940.78	75.6261
943.672	54.3767
946.565	37.0035
949.458	24.1095
952.351	14.3919
955.243	8.5229
958.136	4.99068
961.029	4.36734
963.921	2.24467
966.814	2.56538
969.707	0.513962
972.599	1.46143
975.492	0.101929
978.385	0.543823
981.278	0.523682
984.17	0.442795
987.063	0.190247
989.956	0.197998
992.848	0.670837
995.741	0.848648
998.634	1.08809
1001.53	1.14909
1004.42	0.854721
1007.31	2.13603
1010.21	2.96603
1013.1	4.24503
1015.99	3.36807
1018.88	3.01495
1021.77	5.70802
1024.67	6.58359
1027.56	10.5455
1030.45	13.211
1033.35	17.842
1036.24	24.6509
1039.13	35.1689
1042.02	41.8016
1044.92	36.3381
1047.81	21.6462
1050.7	12.0433
1053.6	7.32053
1056.49	7.18233
1059.38	3.30876
1062.27	2.4028
1065.17	1.49806
1068.06	2.13474
1070.95	2.90909
1073.84	1.51418
1076.74	3.38666
1079.63	2.07565
1082.52	3.17416
1085.41	2.63738
1088.31	2.37738
1091.2	1.23801
1094.09	2.45888
1096.99	1.86572
1099.88	0.805176
1102.77	1.39127
1105.66	0.332382
1108.56	0.766617
1111.45	0.714233
1114.34	1.82378
1117.23	0.163116
1120.13	0.300919
1123.02	1.59499
1125.91	0.594589
1128.81	0.966385
1131.7	2.21788
1134.59	2.68874
1137.48	2.25989
1140.38	2.66196
1143.27	2.23108
1146.16	3.13001
1149.05	2.7249
1151.95	2.96065
1154.84	2.35684
1157.73	3.99809
1160.62	1.77693
1163.52	2.44916
1166.41	2.2823
1169.3	0.894852
1172.2	0.945374
1175.09	1.09657
1177.98	1.59395
1180.87	1.78314
1183.77	0.132095
1186.66	0.106339
1189.55	0.334366
1192.44	0.923523
1195.34	1.07811
1198.23	1.54501
1201.12	1.5701
1204.02	1.22015
1206.91	0.465302
1209.8	0.347778
1212.69	1.23305
1215.59	1.79794
1218.48	1.34067
1221.37	0.672577
1224.26	1.38292
1227.16	1.94047
1230.05	2.2449
1232.94	2.52293
1235.84	0.940262
1238.73	0.396683
1241.62	1.02008
1244.51	0.835724
1247.41	1.19009
1250.3	1.15898
1253.19	1.09862
1256.08	0.454071
1258.98	1.4482
1261.87	1.83726
1264.76	2.30127
1267.65	2.10715
1270.55	1.22722
1273.44	2.3056
1276.33	0.73233
1279.23	2.11868
1282.12	1.4678
1285.01	0.227249
1287.9	0.047745
1290.8	1.64906
1293.69	0.10408
1296.58	2.02817
1299.47	0.399368
