Measurement: Raman, 532 nm, unoriented, Raman Data Processed
Mineral: Richterite
Rruff sample: R050414
Ideal chemistry: Na(CaNa)Mg_5_Si_8_O_22_(OH)_2_
Locality: Kokcha Valley, Badakhshan, Afghanistan
Source: Marcus Origlieri
Description: Transparent pale yellowish-green bladed crystal
Measured chemistry: (Na_0.67_K_0.33_)_Σ=1_(Ca_1.19_Na_0.81_)_Σ=2_Mg_5.00_(Si_7.80_Al_0.19_Ti_0.01_)_Σ=8_O_22_((OH)_1.58_F_0.42_)_Σ=2_
Raman shift (cm-1)	intensity
114.531	0
117.906	0.574097
121.281	64.5585
124.655	117.205
128.03	99.5162
131.405	114.537
134.78	150.858
138.155	168.027
141.529	195.443
144.904	154.83
148.279	157.03
151.654	189.513
155.029	273.501
158.404	383.531
161.778	392.963
165.153	229.303
168.528	181.017
171.903	199.728
175.278	234.872
178.652	264.702
182.027	257.656
185.402	169.075
188.777	131.59
192.152	149.631
195.526	180.895
198.901	249.905
202.276	329.546
205.651	435.115
209.026	535.707
212.401	597.382
215.775	676.566
219.15	835.447
222.525	1006.8
225.9	1217.92
229.275	1393.4
232.649	1296.08
236.024	954.322
239.399	668.973
242.774	568.143
246.149	497.873
249.524	357.783
252.898	230.609
256.273	154.091
259.648	124.255
263.023	71.0049
266.398	26.8932
269.772	4.02905
273.147	25.8512
276.522	17.7017
279.897	24.2742
283.272	17.0361
286.647	3.40503
290.021	13.593
293.396	15.385
296.771	1.03491
300.146	22.2009
303.521	21.7102
306.895	40.1504
310.27	44.6628
313.645	60.7664
317.02	81.3301
320.395	121.11
323.769	145.761
327.144	201.42
330.519	245.753
333.894	267.374
337.269	277.261
340.644	215.497
344.018	147.778
347.393	110.414
350.768	87.1697
354.143	94.9736
357.518	114.778
360.892	151.106
364.267	216.69
367.642	267.388
371.017	286.538
374.392	303.741
377.767	297.623
381.141	346.572
384.516	407.964
387.891	516.911
391.266	640.248
394.641	776.149
398.015	771.51
401.39	625.491
404.765	421.398
408.14	270.133
411.515	182.317
414.89	144.185
418.264	119.716
421.639	126.642
425.014	109.188
428.389	67.5999
431.764	75.7466
435.139	33.9636
438.513	12.283
441.888	8.0459
445.263	9.80786
448.638	25.0852
452.013	2.98999
455.387	6.89429
458.762	6.45728
462.137	14.4712
465.512	24.1182
468.887	38.6255
472.262	47.2148
475.636	57.407
479.011	58.7056
482.386	68.1682
485.761	51.7707
489.136	34.5254
492.51	35.1135
495.885	52.3191
499.26	89.8879
502.635	100.116
506.01	123.036
509.385	153.819
512.759	179.105
516.134	195.22
519.509	186.312
522.884	153.218
526.259	110.405
529.633	79.5488
533.008	36.5938
536.383	29.0913
539.758	3.56152
543.133	13.4009
546.507	12.729
549.882	8.09473
553.257	0.356934
556.632	2.25342
560.007	0.387207
563.381	17.4224
566.756	13.1729
570.131	20.458
573.506	39.5366
576.881	37.416
580.256	59.9736
583.63	112.066
587.005	89.731
590.38	77.0674
593.755	71.2446
597.13	80.6494
600.505	57.2847
603.879	53.1182
607.254	50.0317
610.629	60.2822
614.004	33.1226
617.379	22.6885
620.753	3.30518
624.128	0.428223
627.503	2.47266
630.878	4.77344
634.253	4.04541
637.628	4.71533
641.002	0.144531
644.377	30.1177
647.752	45.1724
651.127	96.0913
654.502	205.693
657.876	275.44
661.251	509.209
664.626	802.099
668.001	1227.5
671.376	1814.75
674.75	2589.54
678.125	3524.49
681.5	3944.57
684.875	2944.55
688.25	1614.36
691.625	857.735
694.999	488.96
698.374	290.768
701.749	209.966
705.124	128.909
708.499	104.401
711.874	92.5098
715.248	81.9155
718.623	79.9038
721.998	76.9277
725.373	108.049
728.748	95.6211
732.122	55.9507
735.497	32.9102
738.872	10.9653
742.247	23.8223
745.622	9.88672
748.996	6.19824
752.371	7.4043
755.746	3.85254
759.121	5.98144
762.496	20.4033
765.87	43.0859
769.245	3.80859
772.62	8.90332
775.995	38.9219
779.37	8.60449
782.745	14.4307
786.119	27.6924
789.494	15.7969
792.869	47.3848
796.244	61.0674
799.619	26.459
802.994	39.0566
806.368	54.5478
809.743	69.8828
813.118	22.4395
816.493	35.4941
819.868	48.8447
823.242	73.7754
826.617	21.043
829.992	6.40234
833.367	35.3994
836.742	47.4512
840.116	21.2979
843.491	37.1416
846.866	1.56836
850.241	0.419922
853.616	20.958
856.991	33.6602
860.365	10.0332
863.74	19.9639
867.115	51.7647
870.49	17.8584
873.865	1.4668
877.24	12.4121
880.614	17.041
883.989	17.4834
887.364	21.9395
890.739	53.1172
894.114	31.4463
897.488	12.294
900.863	17.7041
904.238	26.9561
907.613	71.7705
910.988	72.4736
914.362	46.373
917.737	136.487
921.112	131.86
924.487	152.523
927.862	208.059
931.237	197.549
934.611	147.382
937.986	136.459
941.361	61.2705
944.736	27.8662
948.111	106.136
951.486	168.194
954.86	204.348
958.235	141.26
961.61	92.5547
964.985	23.2676
968.36	37.875
971.734	45.7676
975.109	57.1094
978.484	53.7285
981.859	41.5898
985.234	54.623
988.609	53.9121
991.983	16.3418
995.358	30.1504
998.733	1.95898
1002.11	8.29883
1005.48	1.77344
1008.86	58.5078
1012.23	73.7246
1015.61	69.1231
1018.98	20.2402
1022.36	81.9844
1025.73	65.5117
1029.11	101.768
1032.48	108.652
1035.86	135.33
1039.23	177.799
1042.61	155.44
1045.98	166.449
1049.36	173.598
1052.73	199.475
1056.11	316.603
1059.48	373.344
1062.85	345.844
1066.23	368.812
1069.6	378.106
1072.98	466.863
1076.35	472.486
1079.73	453.85
1083.1	376.295
1086.48	292.305
1089.85	221.963
1093.23	114.91
1096.6	135.945
1099.98	131.543
1103.35	93.5488
1106.73	25.4414
1110.1	0.291016
1113.48	88.5801
1116.85	72.6914
1120.23	52.1973
1123.6	32.7949
1126.98	9.31445
1130.35	69.043
1133.73	81.9805
1137.1	158.203
1140.47	146.418
1143.85	125.986
1147.22	93.4981
1150.6	43.4062
1153.97	12.373
1157.35	24.0938
1160.72	20.0059
1164.1	96.1406
1167.47	113.592
1170.85	133.828
1174.22	78.1231
1177.6	99.5703
1180.97	82.5215
1184.35	40.625
1187.72	105.744
1191.1	115.885
1194.47	184.621
1197.85	128.242
1201.22	66.2481
1204.6	58.2012
1207.97	122.834
1211.35	129.914
1214.72	140.486
1218.1	160.685
1221.47	95.3731
1224.85	74.0059
1228.22	81.4688
1231.6	77.666
1234.97	108.463
1238.35	0.849609
1241.72	18.2461
1245.09	17.3867
1248.47	97.2949
1251.84	175.707
1255.22	55.0547
1258.59	28.4922
1261.97	67.293
1265.34	77.9805
1268.72	0.183594
1272.09	27.9844
1275.47	45.8203
1278.84	0.210938
