Measurement: Raman, 780 nm, unoriented, Raman Data Processed
Mineral: Rickturnerite
Rruff sample: R130568
Ideal chemistry: Pb_7_O_4_[Mg(OH)_4_](OH)Cl_3_
Locality: Merehead Quarry, Cranmore, Somerset, England, UK
Source: Rick Turner
Description: Pale green fibers from the co-type specimen
Raman shift (cm-1)	intensity
92.0421	0
95.4169	457.362
98.7917	298.19
102.166	200.228
105.541	3.61523
108.916	18.0559
112.291	50.9255
115.666	274.4
119.041	574.466
122.415	905.262
125.79	1411.15
129.165	2425.55
132.54	4143.99
135.915	6334.11
139.29	5198.85
142.664	2365.29
146.039	914.613
149.414	321.746
152.789	123.737
156.163	84.8551
159.538	120.467
162.913	171.32
166.288	206.512
169.663	209.667
173.038	167.738
176.412	75.3623
179.787	7.61829
183.162	24.8118
186.537	33.904
189.912	22.3109
193.286	1.82739
196.661	23.377
200.036	36.3417
203.411	58.9324
206.786	89.1794
210.161	94.0189
213.535	101.862
216.91	109.604
220.285	115.728
223.66	120.258
227.035	125.516
230.409	144.26
233.784	157.134
237.159	178.308
240.534	206.286
243.909	229.228
247.284	271.04
250.658	317.869
254.033	369.754
257.408	399.755
260.783	374.278
264.158	307.553
267.532	240.6
270.907	185.334
274.282	148.644
277.657	132.526
281.032	119.252
284.406	83.6323
287.781	59.0519
291.156	48.9106
294.531	37.6404
297.906	46.3495
301.281	64.2617
304.655	86.7839
308.03	123.026
311.405	167.75
314.78	222.325
318.155	290.649
321.529	358.431
324.904	430.675
328.279	490.104
331.654	515.959
335.029	487.295
338.404	409.814
341.778	322.144
345.153	233.709
348.528	166.053
351.903	113.168
355.278	70.7385
358.652	48.3818
362.027	29.7437
365.402	12.5319
368.777	4.19949
372.152	3.25226
375.526	9.50272
378.901	13.4846
382.276	9.74268
385.651	5.05603
389.026	1.96982
392.401	0.891327
395.775	1.6814
399.15	2.00946
402.525	3.57971
405.9	7.715
409.275	16.552
412.649	18.4072
416.024	25.623
419.399	30.9493
422.774	49.1923
426.149	71.8589
429.524	99.1549
432.898	121.435
436.273	147.651
439.648	160.641
443.023	141.72
446.398	113.901
449.772	84.7637
453.147	67.9329
456.522	50.234
459.897	44.0222
463.272	39.4073
466.647	35.5104
470.021	32.3743
473.396	21.1872
476.771	17.8051
480.146	12.626
483.521	8.90289
486.895	8.56625
490.27	5.87613
493.645	3.54156
497.02	3.97865
500.395	7.25087
503.769	12.0928
507.144	7.41437
510.519	7.57817
513.894	6.35269
517.269	5.11847
520.644	1.6862
524.018	1.88837
527.393	1.46716
530.768	2.67671
534.143	3.16473
537.518	3.03175
540.892	4.64571
544.267	2.26338
547.642	5.49066
551.017	4.65575
554.392	4.16359
557.766	3.98349
561.141	3.25607
564.516	2.89418
567.891	1.33801
571.266	5.79347
574.64	4.2527
578.015	5.10461
581.39	3.16379
584.765	6.92236
588.14	4.8717
591.515	5.65895
594.889	1.57373
598.264	5.75372
601.639	4.26436
605.014	3.20819
608.389	3.67487
611.764	2.86687
615.138	3.14497
618.513	1.65549
621.888	2.87242
625.263	0.022659
628.638	0.964798
632.012	0.92952
635.387	1.54607
638.762	0.339859
642.137	1.96783
645.512	0.777176
648.886	1.01387
652.261	1.32401
655.636	0.505997
659.011	1.96713
662.386	2.45569
665.76	6.82748
669.135	0.389786
672.51	4.71274
675.885	4.5145
679.26	2.91785
682.635	3.64366
686.009	8.46469
689.384	8.37991
692.759	9.82753
696.134	11.1119
699.509	16.2633
702.884	19.0492
706.258	31.958
709.633	50.3999
713.008	65.5825
716.383	54.5346
719.758	33.9688
723.132	27.5859
726.507	19.622
729.882	15.7517
733.257	13.9137
736.632	12.1483
740.006	8.67947
743.381	7.32422
746.756	4.85609
750.131	1.00796
753.506	1.52675
756.88	0.883774
760.255	0.686325
763.63	1.29384
767.005	2.05478
770.38	2.06265
773.755	1.48158
777.129	2.64612
780.504	1.08273
783.879	3.51878
787.254	0.038834
790.629	0.390411
794.003	1.60419
797.378	2.65007
800.753	3.23666
804.128	5.22485
807.503	4.23396
810.878	6.78658
814.252	3.82094
817.627	7.57028
821.002	9.07866
824.377	10.2178
827.752	10.343
831.126	18.5418
834.501	28.1624
837.876	38.2881
841.251	32.8306
844.626	25.8552
848	19.5899
851.375	14.5439
854.75	13.2532
858.125	6.39529
861.5	7.20732
864.875	4.47943
868.249	0.83374
871.624	0.779709
874.999	0.09256
878.374	0.46463
881.749	1.69804
885.123	4.8562
888.498	0.896942
891.873	2.18172
895.248	0.439987
898.623	0.293884
901.997	0.084702
905.372	2.38809
908.747	2.23938
912.122	1.21741
915.497	2.91093
918.872	0.937637
922.246	2.07442
925.621	3.66948
928.996	1.75801
932.371	0.787979
935.746	2.00444
939.12	2.7532
942.495	3.99855
945.87	3.83733
949.245	4.99367
952.62	5.13907
955.995	4.47606
959.369	5.34381
962.744	2.56177
966.119	6.72472
969.494	2.91554
972.869	1.03218
976.243	0.708405
979.618	1.38677
982.993	2.71266
986.368	0.130859
989.743	0.292297
993.117	0.027069
996.492	0.237747
999.867	1.89877
1003.24	2.01233
1006.62	0.612183
1009.99	2.75731
1013.37	0.888565
1016.74	2.02492
1020.12	2.4854
1023.49	5.91893
1026.87	7.83073
1030.24	18.8778
1033.62	56.7576
1036.99	115.427
1040.37	105.275
1043.74	56.8365
1047.12	30.3459
1050.49	20.2633
1053.86	18.683
1057.24	21.9187
1060.61	27.1506
1063.99	57.8563
1067.36	101.541
1070.74	140.62
1074.11	132.248
1077.49	90.6366
1080.86	50.5387
1084.24	26.9809
1087.61	14.7437
1090.99	6.35107
1094.36	5.68704
1097.74	0.437927
1101.11	3.7013
1104.49	0.17939
1107.86	3.18044
1111.24	1.77834
1114.61	0.489311
1117.99	2.40426
1121.36	1.10339
1124.73	0.429565
1128.11	2.50824
1131.48	2.90128
1134.86	2.80313
1138.23	3.41126
1141.61	2.41316
1144.98	2.17932
1148.36	0.450294
1151.73	3.56461
1155.11	2.07864
1158.48	3.25594
1161.86	0.069672
1165.23	1.4382
1168.61	3.45769
1171.98	2.20657
1175.36	5.58369
1178.73	4.45463
1182.11	1.58021
1185.48	1.75153
1188.86	0.108963
1192.23	1.98639
1195.61	0.331337
1198.98	2.70564
1202.36	3.96043
1205.73	3.88518
1209.11	4.31245
1212.48	2.86554
1215.86	3.20674
1219.23	3.95265
1222.61	2.63942
1225.98	3.73363
1229.35	4.00319
1232.73	0.157455
1236.1	1.70717
1239.48	2.44928
1242.85	2.37798
1246.23	2.08037
1249.6	1.23024
1252.98	1.85953
1256.35	3.53868
1259.73	1.19879
1263.1	1.09505
1266.48	3.33641
1269.85	0.817413
1273.23	3.23755
1276.6	0.098099
1279.98	0.49234
1283.35	1.00093
