Measurement: Raman, 532 nm, unoriented, Raman Data Processed
Mineral: Rickturnerite
Rruff sample: R130568
Ideal chemistry: Pb_7_O_4_[Mg(OH)_4_](OH)Cl_3_
Locality: Merehead Quarry, Cranmore, Somerset, England, UK
Source: Rick Turner
Description: Pale green fibers from the co-type specimen
Raman shift (cm-1)	intensity
90.2653	0
93.6401	133.278
97.0149	132.298
100.39	65.1093
103.765	9.85144
107.139	16.1332
110.514	120.007
113.889	300.508
117.264	638.504
120.639	1054.55
124.013	1394.24
127.388	1842.89
130.763	2642.19
134.138	4099.84
137.513	4676.25
140.888	2474.96
144.262	984.868
147.637	404.328
151.012	192.259
154.387	124.29
157.762	118.57
161.137	134.327
164.511	156.992
167.886	179.648
171.261	181.393
174.636	126.909
178.011	57.1185
181.385	13.0046
184.76	5.50549
188.135	15.1392
191.51	11.5953
194.885	5.4458
198.26	1.93268
201.634	11.3328
205.009	20.9789
208.384	30.4967
211.759	36.1746
215.133	40.1963
218.508	42.9053
221.883	48.5967
225.258	55.1876
228.633	67.3646
232.008	81.0751
235.382	103.845
238.757	132.296
242.132	169.865
245.507	199.218
248.882	232.313
252.256	269.912
255.631	293.5
259.006	285.439
262.381	241.921
265.756	186.452
269.131	139.439
272.505	109.412
275.88	94.4879
279.255	82.5406
282.63	62.6512
286.005	43.6926
289.38	27.3232
292.754	21.3252
296.129	23.3983
299.504	30.7871
302.879	49.4422
306.254	68.9549
309.628	101.903
313.003	134.995
316.378	174.943
319.753	217.947
323.128	265.759
326.502	307.851
329.877	338.33
333.252	340.057
336.627	302.671
340.002	243.839
343.377	184.83
346.751	135.757
350.126	99.7122
353.501	67.0958
356.876	43.2607
360.251	28.2172
363.625	16.5319
367	8.27911
370.375	0.864624
373.75	4.9259
377.125	6.14264
380.5	0.616821
383.874	5.80987
387.249	2.8367
390.624	0.732849
393.999	0.019226
397.374	4.64273
400.748	8.8223
404.123	14.553
407.498	19.9312
410.873	28.3476
414.248	41.6293
417.623	59.7546
420.997	83.0338
424.372	115.939
427.747	159.139
431.122	203.461
434.497	243.94
437.872	268.172
441.246	253.282
444.621	200.046
447.996	143.571
451.371	102.008
454.745	77.4314
458.12	62.0698
461.495	50.3232
464.87	41.5829
468.245	34.6588
471.62	28.0851
474.994	20.2418
478.369	13.6309
481.744	11.4284
485.119	10.7056
488.494	10.4879
491.868	12.6984
495.243	12.5788
498.618	18.3032
501.993	22.5614
505.368	26.6146
508.743	27.6274
512.117	18.7305
515.492	12.1533
518.867	7.75204
522.242	5.40662
525.617	3.43628
528.991	0.51004
532.366	0.551422
535.741	0.033691
539.116	0.197449
542.491	0.564941
545.866	1.14136
549.24	2.29181
552.615	2.06412
555.99	3.04962
559.365	4.26978
562.74	4.18033
566.115	6.64239
569.489	4.25427
572.864	7.0137
576.239	8.76034
579.614	8.55081
582.989	8.76328
586.363	9.77499
589.738	9.01517
593.113	6.77231
596.488	6.67972
599.863	4.93948
603.237	3.01294
606.612	3.2236
609.987	3.98004
613.362	3.04288
616.737	2.14313
620.112	0.430298
623.486	0.941803
626.861	1.34399
630.236	0.10202
633.611	0.139252
636.986	1.60376
640.361	0.049774
643.735	0.175842
647.11	0.543121
650.485	0.117828
653.86	2.52026
657.235	1.97192
660.609	3.49161
663.984	4.66214
667.359	3.68222
670.734	4.12384
674.109	6.97882
677.484	5.53281
680.858	10.2541
684.233	12.9963
687.608	19.2422
690.983	22.9123
694.357	28.5723
697.732	40.2492
701.107	61.8061
704.482	91.5151
707.857	133.543
711.232	173.731
714.606	184.767
717.981	170.431
721.356	164.2
724.731	157.163
728.106	137.525
731.481	108.027
734.855	77.8191
738.23	53.305
741.605	36.0182
744.98	23.0961
748.355	14.257
751.729	10.8073
755.104	5.18137
758.479	2.61374
761.854	1.56238
765.229	2.25235
768.604	0.635468
771.978	0.104187
775.353	0.349274
778.728	0.240234
782.103	1.0834
785.478	0.093445
788.852	1.00687
792.227	1.20487
795.602	3.70038
798.977	4.35053
802.352	7.81326
805.726	10.4644
809.101	12.6567
812.476	16.8838
815.851	19.7565
819.226	25.3344
822.601	31.8445
825.975	40.1188
829.35	53.6274
832.725	71.5068
836.1	85.4791
839.475	78.4269
842.85	65.7866
846.224	51.4444
849.599	41.1067
852.974	35.8527
856.349	24.9927
859.724	18.1916
863.098	13.7577
866.473	8.74893
869.848	6.22989
873.223	5.43735
876.598	5.27609
879.972	4.94748
883.347	0.192108
886.722	0.31665
890.097	1.60709
893.472	0.224915
896.847	0.928436
900.221	0.455109
903.596	0.023163
906.971	0.118256
910.346	0.030945
913.721	0.279236
917.096	1.41379
920.47	0.607483
923.845	2.5766
927.22	2.04813
930.595	2.53879
933.97	1.22894
937.344	2.3895
940.719	2.69635
944.094	3.52185
947.469	3.66562
950.844	4.29468
954.218	5.07919
957.593	5.60373
960.968	3.65521
964.343	3.07272
967.718	5.30499
971.092	2.76151
974.467	1.33579
977.842	1.13513
981.217	1.59598
984.592	0.987213
987.967	0.727417
991.341	0.797699
994.716	0.065277
998.091	0.548004
1001.47	0.99054
1004.84	0.453003
1008.22	0.194824
1011.59	1.07495
1014.97	3.00467
1018.34	6.14508
1021.72	9.02567
1025.09	25.0433
1028.46	57.493
1031.84	122.054
1035.21	247.032
1038.59	250.781
1041.96	132.171
1045.34	61.5326
1048.71	35.8215
1052.09	26.8378
1055.46	30.0237
1058.84	47.365
1062.21	81.6007
1065.59	138.061
1068.96	209.41
1072.34	220.143
1075.71	157.301
1079.09	90.6612
1082.46	47.8911
1085.84	21.0792
1089.21	8.93936
1092.59	5.16147
1095.96	2.51663
1099.34	2.33066
1102.71	0.194305
1106.09	0.227753
1109.46	1.67767
1112.84	1.63998
1116.21	2.42624
1119.58	1.27905
1122.96	0.438873
1126.33	0.925049
1129.71	0.609253
1133.08	0.700348
1136.46	0.423218
1139.83	0.728638
1143.21	1.14127
1146.58	0.327698
1149.96	1.15836
1153.33	0.401672
1156.71	1.87619
1160.08	2.01483
1163.46	1.26392
1166.83	1.80337
1170.21	1.52423
1173.58	2.07999
1176.96	1.49377
1180.33	3.61307
1183.71	3.41922
1187.08	3.32596
1190.46	3.21295
1193.83	2.3223
1197.2	2.23798
1200.58	1.5943
1203.95	2.16315
1207.33	1.80588
1210.7	2.11984
1214.08	3.38754
1217.45	3.12918
1220.83	2.24808
1224.2	2.21396
1227.58	1.02399
1230.95	0.556641
1234.33	1.08945
1237.7	1.07526
1241.08	1.47839
1244.45	0.855408
1247.83	1.45288
1251.2	1.68955
1254.58	1.21991
1257.95	1.0968
1261.33	1.42142
1264.7	0.596222
1268.08	1.87384
1271.45	3.16305
1274.83	0.660645
1278.2	1.09952
1281.58	1.6387
1284.95	2.55603
1288.33	0.704956
1291.7	1.6619
1295.08	2.20413
1298.45	1.70938
1301.83	0
