Measurement: Raman, 785 nm, unoriented, Raman Data Processed
Mineral: Riebeckite
Rruff sample: R050082
Ideal chemistry: [box]Na_2_(Fe^2+^_3_Fe^3+^_2_)Si_8_O_22_(OH)_2_
Locality: Mt. Malosa, Zomba, Chilwa, Alkaline Area, Malawi
Source: Rock Currier
Description: Black elongated prisms
Measured chemistry: ([box]_0.63_Na_0.19_K_0.18_)(Na_1.58_Ca_0.42_)_Σ=2_Fe^2+^_3.00_(Fe^3+^_1.30_Fe^2+^_0.45_Mn_0.15_Mg_0.05_Ti_0.05_)_Σ=2_(Si_0.98_Al_0.02_)_8_O_22_(OH)_2_
Raman shift (cm-1)	intensity
130.26	0
133.153	2.292
136.046	62.902
138.939	122.333
141.831	236.582
144.724	366.534
147.617	190.637
150.509	19.539
153.402	43.646
156.295	134.246
159.187	254.96
162.08	460.488
164.973	641.393
167.865	374.245
170.758	117.109
173.651	45.583
176.544	1.835
179.436	8.175
182.329	7.129
185.222	28.687
188.114	74.865
191.007	100.568
193.9	153.218
196.792	193.337
199.685	195.195
202.578	90.307
205.471	21.297
208.363	14.702
211.256	2.275
214.149	0.162
217.041	31.35
219.934	54.544
222.827	126.169
225.719	143.821
228.612	56.029
231.505	18.109
234.398	23.967
237.29	66.454
240.183	118.292
243.076	212.894
245.968	280.184
248.861	281.873
251.754	187.871
254.646	64.721
257.539	12.471
260.432	19.798
263.325	3.76
266.217	6.865
269.11	11.879
272.003	16.2
274.895	18.224
277.788	5.139
280.681	6.722
283.573	17.994
286.466	37.764
289.359	65.113
292.252	108.995
295.144	134.923
298.037	136.651
300.93	127.664
303.822	55.411
306.715	25.123
309.608	7.255
312.5	7.353
315.393	0.939
318.286	5.181
321.179	25.419
324.071	53.779
326.964	50.989
329.857	61.648
332.749	44.057
335.642	26.257
338.535	3.108
341.427	3.408
344.32	9.65
347.213	3.171
350.106	39.95
352.998	79.936
355.891	166.914
358.784	240.716
361.676	261.678
364.569	173.446
367.462	99.965
370.354	67.935
373.247	40.332
376.14	27.435
379.033	3.96
381.925	20.972
384.818	13.752
387.711	14.864
390.603	13.607
393.496	0.172
396.389	4.049
399.281	1.036
402.174	9.55
405.067	4.641
407.96	3.665
410.852	12.422
413.745	1.997
416.638	16
419.53	18.516
422.423	20.778
425.316	19.207
428.208	32.625
431.101	55.923
433.994	54.739
436.887	24.832
439.779	19.473
442.672	6.371
445.565	0.23
448.457	0.084
451.35	4.457
454.243	2.771
457.135	0.245
460.028	2.773
462.921	0.465
465.814	3.873
468.706	18.131
471.599	12.245
474.492	18.267
477.384	17.477
480.277	5.135
483.17	6.983
486.062	3.747
488.955	0.289
491.848	1.775
494.741	2.18
497.633	12.455
500.526	23.658
503.419	36.177
506.311	28.421
509.204	16.779
512.097	14.728
514.99	1.096
517.882	3.848
520.775	0.363
523.668	14.634
526.56	36.068
529.453	71.469
532.346	151.392
535.238	217.363
538.131	282.134
541.024	288.828
543.917	216.905
546.809	133.388
549.702	69.31
552.595	24.39
555.487	0.812
558.38	3.925
561.273	0.631
564.165	11.815
567.058	12.522
569.951	51.458
572.844	81.428
575.736	107.188
578.629	115.033
581.522	94.416
584.414	55.845
587.307	42.685
590.2	3.77
593.092	2.58
595.985	4.522
598.878	2.395
601.771	13.171
604.663	3.479
607.556	6.003
610.449	4.55
613.341	7.321
616.234	6.376
619.127	1.339
622.019	12.603
624.912	16.232
627.805	1.373
630.698	3.671
633.59	11.973
636.483	7.934
639.376	0.622
642.268	7.216
645.161	1.516
648.054	7.63
650.946	13.56
653.839	21.444
656.732	20.83
659.625	42.655
662.517	45.693
665.41	34.679
668.303	37.268
671.195	20.938
674.088	17.749
676.981	0.278
679.873	14.271
682.766	10.675
685.659	0.019
688.552	3.279
691.444	3.948
694.337	12.777
697.23	6.181
700.122	8.721
703.015	6.078
705.908	17.84
708.8	9.231
711.693	7.921
714.586	2.888
717.479	14.133
720.371	5.773
723.264	14.311
726.157	27.175
729.049	12.128
731.942	30.608
734.835	21.206
737.727	29.414
740.62	33.538
743.513	21.451
746.406	6.078
749.298	13.185
752.191	11.039
755.084	13.618
757.976	24.174
760.869	3.986
763.762	11.392
766.654	20.095
769.547	17.36
772.44	27.497
775.333	16.767
778.225	20.823
781.118	10.834
784.011	2.6
786.903	12.637
789.796	12.18
792.689	12.545
795.581	3.123
798.474	2.009
801.367	0.243
804.26	8.421
807.152	17.794
810.045	9.889
812.938	16.292
815.83	13.859
818.723	4.753
821.616	11.146
824.508	17.838
827.401	12.944
830.294	15.839
833.187	2.097
836.079	5.062
838.972	18.689
841.865	13.431
844.757	16.078
847.65	3.463
850.543	7.49
853.435	20.367
856.328	9.501
859.221	7.966
862.114	1.62
865.006	8.394
867.899	2.528
870.792	10.636
873.684	7.388
876.577	15.549
879.47	18.609
882.362	14.554
885.255	39.837
888.148	27.911
891.041	17.471
893.933	13.508
896.826	16.964
899.719	12.603
902.611	14.498
905.504	5.733
908.397	10.86
911.289	21.435
914.182	16.678
917.075	12.089
919.968	22.167
922.86	11.52
925.753	11.443
928.646	14.579
931.538	3.051
934.431	0.534
937.324	5.039
940.216	2.547
943.109	5.446
946.002	4.182
948.894	0.198
951.787	10.653
954.68	2.464
957.573	6.269
960.465	20.384
963.358	61.06
966.251	112.284
969.143	141.02
972.036	140.21
974.929	80.736
977.821	53.602
980.714	30.058
983.607	15.469
986.5	22.943
989.392	22.204
992.285	3.547
995.178	1.024
998.07	3.448
1000.96	7.356
1003.86	13.06
1006.75	2.422
1009.64	2.488
1012.53	9.864
1015.43	3.829
1018.32	17.81
1021.21	14.282
1024.11	8.561
1027	28.741
1029.89	36.652
1032.78	6.569
1035.68	9.951
1038.57	24.99
1041.46	27.745
1044.35	25.044
1047.25	8.813
1050.14	26.132
1053.03	3.601
1055.92	8.654
1058.82	14.794
1061.71	16.907
1064.6	4.478
1067.49	20.349
1070.39	12.372
1073.28	12.258
1076.17	7.857
1079.07	32.015
1081.96	36.894
1084.85	42.726
1087.74	44.165
1090.64	15.264
1093.53	14.153
1096.42	9.484
1099.32	1.735
1102.21	9.139
1105.1	2.141
1107.99	4.933
1110.89	2.639
1113.78	12.911
1116.67	4.294
1119.56	18.594
1122.46	12.137
1125.35	9.821
1128.24	13.414
1131.13	2.299
1134.03	21.28
1136.92	4.549
1139.81	0.91
1142.7	14.184
1145.6	0.697
1148.49	8.09
1151.38	1.929
1154.28	3.448
1157.17	0.696
1160.06	2.424
1162.95	0.254
1165.85	6.901
1168.74	13.007
1171.63	6.846
1174.53	10.91
1177.42	9.469
1180.31	9.478
1183.2	10.216
1186.1	2.63
1188.99	2.348
1191.88	12.653
1194.77	3.519
1197.67	5.599
1200.56	0.727
1203.45	15.165
1206.35	6.436
1209.24	9.667
1212.13	5.217
1215.02	4.699
1217.92	1.219
1220.81	2.555
1223.7	9.661
1226.59	5.269
1229.49	17.981
1232.38	15.699
1235.27	10.599
1238.16	7.104
1241.06	2.232
1243.95	4.887
1246.84	4.262
1249.73	3.619
1252.63	21.187
1255.52	15.694
1258.41	9.454
1261.31	11.151
1264.2	6.268
1267.09	7.327
1269.98	7.52
1272.88	5.386
