Measurement: Raman, 532 nm, unoriented, Raman Data Processed
Mineral: Riebeckite
Rruff sample: R050082
Ideal chemistry: [box]Na_2_(Fe^2+^_3_Fe^3+^_2_)Si_8_O_22_(OH)_2_
Locality: Mt. Malosa, Zomba, Chilwa, Alkaline Area, Malawi
Source: Rock Currier
Description: Black elongated prisms
Measured chemistry: ([box]_0.63_Na_0.19_K_0.18_)(Na_1.58_Ca_0.42_)_Σ=2_Fe^2+^_3.00_(Fe^3+^_1.30_Fe^2+^_0.45_Mn_0.15_Mg_0.05_Ti_0.05_)_Σ=2_(Si_0.98_Al_0.02_)_8_O_22_(OH)_2_
Raman shift (cm-1)	intensity
130.377	0
133.752	47.7829
137.127	232.777
140.502	560.616
143.876	382.833
147.251	95.1936
150.626	52.6954
154.001	113.145
157.376	193.635
160.75	287.079
164.125	350.933
167.5	263.324
170.875	148.92
174.25	5.89752
177.625	13.4874
180.999	15.3106
184.374	42.5483
187.749	139.877
191.124	200.205
194.499	265.53
197.874	242.195
201.248	246.442
204.623	298.115
207.998	384.856
211.373	472.799
214.748	505.707
218.122	420.973
221.497	368.092
224.872	281.919
228.247	362.606
231.622	397.784
234.996	488.426
238.371	516.091
241.746	417.632
245.121	304.923
248.496	184.931
251.871	68.8405
255.245	55.8546
258.62	43.8087
261.995	33.9354
265.37	72.9292
268.745	87.2146
272.12	76.0597
275.494	58.3547
278.869	27.042
282.244	24.0976
285.619	4.41614
288.994	18.9767
292.368	15.4899
295.743	4.19354
299.118	8.03491
302.493	41.3414
305.868	87.1089
309.243	104.361
312.617	125.65
315.992	156.682
319.367	183.079
322.742	182.077
326.117	186.697
329.491	160.563
332.866	128.246
336.241	125.279
339.616	164.703
342.991	197.346
346.365	252.589
349.74	337.577
353.115	400.305
356.49	427.393
359.865	449.819
363.24	415.964
366.614	321.888
369.989	260.333
373.364	177.689
376.739	142.68
380.114	94.3768
383.488	66.5503
386.863	27.8428
390.238	29.5992
393.613	4.64069
396.988	11.6877
400.363	6.875
403.737	3.92859
407.112	2.54651
410.487	5.06686
413.862	40.818
417.237	93.6282
420.611	173.108
423.986	215.597
427.361	257.171
430.736	240.655
434.111	172.766
437.486	108.534
440.86	55.9494
444.235	33.0288
447.61	25.8385
450.985	19.7553
454.36	35.6723
457.735	30.4165
461.109	30.608
464.484	40.6664
467.859	36.4822
471.234	13.5372
474.609	4.97754
477.983	6.11844
481.358	2.74426
484.733	1.93622
488.108	15.9558
491.483	23.4445
494.858	39.831
498.232	56.8924
501.607	71.5973
504.982	95.3084
508.357	96.2636
511.732	130.383
515.106	173.871
518.481	199.788
521.856	293.955
525.231	430.004
528.606	535.556
531.981	629.656
535.355	673.207
538.73	616.475
542.105	485.611
545.48	391.423
548.855	306.18
552.229	252.13
555.604	237.474
558.979	254.533
562.354	304.344
565.729	373.35
569.104	405.2
572.478	409.44
575.853	314.085
579.228	178.332
582.603	93.9806
585.978	46.5989
589.352	8.13657
592.727	4.95346
596.102	6.53873
599.477	1.48215
602.852	13.9298
606.227	6.63751
609.601	1.59357
612.976	22.6253
616.351	26.2378
619.726	38.3115
623.101	55.9936
626.476	63.8918
629.85	85.8055
633.225	129.845
636.6	163.064
639.975	215.757
643.35	299.781
646.724	431.807
650.099	605.397
653.474	810.591
656.849	982.698
660.224	1148.66
663.598	1088.17
666.973	881.459
670.348	590.971
673.723	384.626
677.098	210.405
680.472	143.907
683.847	104.057
687.222	73.7045
690.597	42.2597
693.972	40.6197
697.347	17.6039
700.721	26.6052
704.096	5.39029
707.471	0.776825
710.846	17.2051
714.221	2.88812
717.596	3.04559
720.97	26.6814
724.345	6.2095
727.72	10.9788
731.095	7.58633
734.47	3.99988
737.844	22.0027
741.219	12.236
744.594	13.1406
747.969	5.03043
751.344	0.357147
754.719	25.9907
758.093	9.28967
761.468	13.1861
764.843	15.7071
768.218	22.6085
771.593	24.292
774.967	32.7997
778.342	40.1396
781.717	16.6957
785.092	17.3199
788.467	34.3527
791.842	19.0472
795.216	18.4466
798.591	17.0785
801.966	30.9833
805.341	16.0887
808.716	23.0617
812.091	14.397
815.465	39.6645
818.84	15.4595
822.215	5.2601
825.59	3.51825
828.965	1.24722
832.339	3.13724
835.714	18.0268
839.089	5.69321
842.464	4.01062
845.839	7.70105
849.213	11.8404
852.588	25.8123
855.963	26.9957
859.338	0.99942
862.713	19.0784
866.087	48.3725
869.462	37.5188
872.837	72.5949
876.212	47.9674
879.587	80.993
882.962	87.0588
886.337	100.238
889.711	117.316
893.086	92.6814
896.461	95.732
899.836	75.5651
903.211	45.6224
906.585	41.2475
909.96	15.179
913.335	7.651
916.71	13.2538
920.085	5.8996
923.46	49.2551
926.834	50.7183
930.209	78.7435
933.584	116.176
936.959	183.524
940.334	296.3
943.708	378.287
947.083	539.264
950.458	757.907
953.833	1020.09
957.208	1279.26
960.582	1527.23
963.957	1648.96
967.332	1599.2
970.707	1381.58
974.082	1118.77
977.457	955.627
980.831	736.576
984.206	571.118
987.581	407.231
990.956	234.451
994.331	153.666
997.705	87.424
1001.08	19.5414
1004.46	16.0183
1007.83	11.3301
1011.21	0.352051
1014.58	11.2947
1017.95	4.08978
1021.33	6.82867
1024.7	39.5357
1028.08	48.1716
1031.45	71.3899
1034.83	98.9439
1038.2	69.4395
1041.58	67.9957
1044.95	77.9417
1048.33	53.7129
1051.7	47.2233
1055.08	39.5523
1058.45	61.9402
1061.83	54.3199
1065.2	55.6547
1068.58	85.8138
1071.95	86.4831
1075.33	120.417
1078.7	122.77
1082.08	89.5006
1085.45	53.2231
1088.83	11.2762
1092.2	11.4093
1095.58	9.25119
1098.95	6.75226
1102.33	5.56076
1105.7	38.7709
1109.07	41.5328
1112.45	52.681
1115.82	35.0174
1119.2	40.475
1122.57	40.0682
1125.95	32.0695
1129.32	32.537
1132.7	36.0392
1136.07	36.2337
1139.45	34.4607
1142.82	14.3668
1146.2	11.6572
1149.57	4.30987
1152.95	13.7907
1156.32	14.3703
1159.7	0.930115
1163.07	6.28438
1166.45	27.4613
1169.82	17.975
1173.2	33.0899
1176.57	24.0381
1179.95	20.5631
1183.32	25.5711
1186.69	32.0489
1190.07	20.0055
1193.44	43.0856
1196.82	43.7643
1200.19	42.0256
1203.57	34.5864
1206.94	31.4612
1210.32	36.3332
1213.69	40.9074
1217.07	37.3277
1220.44	31.2132
1223.82	28.9521
1227.19	18.8168
1230.57	1.29993
1233.94	22.9408
1237.32	32.3411
1240.69	22.9603
1244.07	31.9511
1247.44	20.9337
1250.82	35.8402
1254.19	27.1185
1257.57	18.4323
1260.94	14.7795
1264.32	12.556
1267.69	12.7073
1271.07	17.6116
1274.44	6.47586
1277.82	5.26181
1281.19	6.95064
1284.57	15.5328
1287.94	26.4282
1291.32	16.5934
1294.69	5.39004
1298.06	12.6476
1301.44	16.7362
