Measurement: Raman, 780 nm, unoriented, Raman Data Processed
Mineral: Riebeckite
Rruff sample: R060028
Ideal chemistry: [box]Na_2_(Fe^2+^_3_Fe^3+^_2_)Si_8_O_22_(OH)_2_
Locality: Transvaal, South Africa
Source: University of Arizona Mineral Museum
Description: Black to blue fibrous, known as blue asbestos
Measured chemistry: ([box]_0.98_K_0.02_)(Na_0.98_Ca_0.02_)_2_(Fe^2+^_0.85_Mg_0.15_)_3_(Fe^3+^_0.99_[box]_0.01_)_2_Si_8.00_O_22_(OH)_2_
Raman shift (cm-1)	intensity
111.808	0
115.183	2.89938
118.558	0.49765
121.933	5.03922
125.308	6.4993
128.682	11.8286
132.057	13.87
135.432	18.8637
138.807	29.8092
142.182	44.7396
145.556	36.3261
148.931	25.3473
152.306	26.9177
155.681	33.0434
159.056	42.4723
162.431	50.8072
165.805	35.2141
169.18	18.4759
172.555	9.56589
175.93	6.55924
179.305	7.55746
182.679	8.70953
186.054	9.34781
189.429	13.7679
192.804	14.6495
196.179	16.5791
199.554	12.3731
202.928	8.12408
206.303	10.8119
209.678	8.24771
213.053	9.19803
216.428	8.34991
219.802	10.2967
223.177	9.94708
226.552	9.61606
229.927	9.35764
233.302	9.03558
236.677	7.22089
240.051	6.91364
243.426	7.20328
246.801	4.25922
250.176	1.74573
253.551	0.070251
256.925	1.51382
260.3	2.12952
263.675	0.408478
267.05	0.618805
270.425	1.99374
273.8	3.75134
277.174	4.61969
280.549	5.19614
283.924	7.43039
287.299	8.53809
290.674	9.94913
294.048	10.4118
297.423	9.98541
300.798	6.87524
304.173	4.93771
307.548	2.92432
310.923	2.66965
314.297	1.96121
317.672	2.62518
321.047	3.34613
324.422	4.16498
327.796	5.46436
331.171	4.98233
334.546	6.13117
337.921	6.44205
341.296	8.51407
344.671	10.3382
348.045	11.6586
351.42	14.5432
354.795	16.3115
358.17	16.1855
361.545	16.084
364.92	14.7314
368.294	13.9643
371.669	14.5399
375.044	12.5997
378.419	10.3961
381.794	6.29981
385.168	5.3649
388.543	3.12665
391.918	0.269714
395.293	1.74939
398.668	1.56574
402.043	0.230225
405.417	0.086578
408.792	0.278107
412.167	0.361969
415.542	3.2742
418.916	2.97748
422.291	3.77426
425.666	4.4295
429.041	3.97388
432.416	2.68109
435.791	2.42529
439.165	1.99887
442.54	1.0253
445.915	0.207245
449.29	2.0094
452.665	1.6023
456.039	1.51346
459.414	1.11084
462.789	2.49075
466.164	0.82962
469.539	1.03046
472.914	0.403442
476.288	0.532928
479.663	0.3367
483.038	0.235718
486.413	1.14932
489.788	0.095184
493.163	2.09473
496.537	1.33936
499.912	2.60815
503.287	3.61508
506.662	3.28565
510.037	5.75235
513.411	5.61945
516.786	7.17926
520.161	8.14612
523.536	9.69016
526.911	13.1072
530.285	15.1018
533.66	15.2784
537.035	13.9499
540.41	10.686
543.785	9.71762
547.159	7.52557
550.534	5.69284
553.909	7.0636
557.284	8.00552
560.659	9.17035
564.034	8.11206
567.408	11.0674
570.783	10.1644
574.158	10.6322
577.533	8.04007
580.908	4.38647
584.283	3.49442
587.657	2.31836
591.032	1.03934
594.407	1.06973
597.782	0.514832
601.157	1.26074
604.531	0.412567
607.906	0.169342
611.281	0.980194
614.656	0.212799
618.031	1.97321
621.405	0.064758
624.78	0.382202
628.155	0.388916
631.53	0.434174
634.905	1.28809
638.279	2.77591
641.654	4.3865
645.029	5.16351
648.404	5.62118
651.779	8.38699
655.154	9.20859
658.528	8.13257
661.903	7.46783
665.278	7.18091
668.653	5.27142
672.028	3.35452
675.403	2.99676
678.777	1.26688
682.152	2.04727
685.527	1.42282
688.902	0.740021
692.277	0.292358
695.651	1.30002
699.026	1.35465
702.401	1.15259
705.776	0.59848
709.151	1.00418
712.525	0.314087
715.9	0.496094
719.275	1.5983
722.65	2.05139
726.025	1.20523
729.399	0.853943
732.774	1.05676
736.149	1.83502
739.524	1.08746
742.899	1.06308
746.274	0.653381
749.648	0.486542
753.023	0.714478
756.398	0.238129
759.773	1.32242
763.148	0.188721
766.523	0.042084
769.897	0.773834
773.272	0.933502
776.647	0.318237
780.022	0.765961
783.397	0.473267
786.771	1.3555
790.146	0.995789
793.521	1.68765
796.896	1.23642
800.271	1.12787
803.645	0.639526
807.02	0.834961
810.395	1.86038
813.77	1.95715
817.145	1.34811
820.52	2.33695
823.894	2.51617
827.269	1.61209
830.644	2.59546
834.019	2.68546
837.394	3.70792
840.769	3.75418
844.143	4.33875
847.518	3.31537
850.893	3.33707
854.268	2.62176
857.643	4.02762
861.017	4.56113
864.392	3.17734
867.767	4.65042
871.142	4.11633
874.517	5.12567
877.891	4.55609
881.266	3.52182
884.641	2.7778
888.016	4.65179
891.391	2.32968
894.765	2.41171
898.14	2.07126
901.515	0.991943
904.89	0.281067
908.265	0.244995
911.64	1.43936
915.014	0.200348
918.389	0.166046
921.764	0.449158
925.139	0.160797
928.514	1.06799
931.889	1.22128
935.263	2.04282
938.638	2.5061
942.013	5.00101
945.388	6.92246
948.763	9.31708
952.137	12.3278
955.512	15.4626
958.887	17.9307
962.262	19.3145
965.637	16.1828
969.011	11.0648
972.386	7.10361
975.761	4.96677
979.136	3.46149
982.511	1.89221
985.886	1.33423
989.26	0.875793
992.635	1.13641
996.01	1.16718
999.385	1.18643
1002.76	0.806458
1006.13	0.946716
1009.51	0.613129
1012.88	0.372253
1016.26	0.217285
1019.63	1.76856
1023.01	1.9288
1026.38	0.984039
1029.76	2.92999
1033.13	2.25415
1036.51	2.41898
1039.88	3.00989
1043.26	2.68439
1046.63	0.520752
1050.01	1.53824
1053.38	1.6907
1056.76	2.10873
1060.13	1.91684
1063.51	2.15915
1066.88	3.1467
1070.26	3.38028
1073.63	6.08106
1077.01	3.65183
1080.38	3.36206
1083.76	3.14822
1087.13	2.40356
1090.51	1.81503
1093.88	0.620575
1097.25	0.287262
1100.63	1.2489
1104	1.36212
1107.38	0.25177
1110.75	0.301117
1114.13	0.425018
1117.5	0.69693
1120.88	0.14505
1124.25	0.923828
1127.63	0.233948
1131	0.207367
1134.38	0.187469
1137.75	1.72037
1141.13	1.3385
1144.5	3.02628
1147.88	2.71472
1151.25	1.71915
1154.63	1.03427
1158	1.22101
1161.38	1.48483
1164.75	1.29215
1168.13	1.85098
1171.5	2.23434
1174.88	1.92224
1178.25	3.69907
1181.62	2.04517
1185	2.44165
1188.38	2.3887
1191.75	0.806274
1195.12	1.73886
1198.5	2.16571
1201.87	1.42767
1205.25	3.27496
1208.62	2.63876
1212	3.10977
1215.37	0.327759
1218.75	1.80539
1222.12	0.331238
1225.5	0.265228
1228.87	0.84317
1232.25	1.65561
1235.62	1.03503
1239	2.33862
1242.37	3.08371
1245.75	1.35098
1249.12	1.77658
1252.5	0.817566
1255.87	0.257599
1259.25	0.708069
1262.62	0.663696
1265.99	1.48154
1269.37	2.11316
1272.74	0.638062
1276.12	1.24341
1279.49	2.42444
