Measurement: Raman, 780 nm, unoriented, Raman Data Processed
Mineral: Riebeckite
Rruff sample: R120033
Ideal chemistry: [box]Na_2_(Fe^2+^_3_Fe^3+^_2_)Si_8_O_22_(OH)_2_
Locality: Zagi Mountain, Hameed Abad Kafoor Dheri, Peshawar, Khyber Pakhtunkhwa, Pakistan
Source: Donald Doell
Description: Black prismatic crystals associated with titanite, R120030
Raman shift (cm-1)	intensity
94.0141	0
97.3889	0.87793
100.764	5.52136
104.138	21.0065
107.513	46.2687
110.888	13.9283
114.263	4.30212
117.638	1.63272
121.013	0.503998
124.388	20.7612
127.762	36.1385
131.137	45.5815
134.512	70.552
137.887	117.089
141.262	243.952
144.636	412.911
148.011	178.271
151.386	81.0738
154.761	81.4379
158.136	112.119
161.51	165.436
164.885	188.845
168.26	114.639
171.635	47.5693
175.01	11.8475
178.385	0.142151
181.759	1.38669
185.134	12.0486
188.509	34.7069
191.884	66.6415
195.259	107.141
198.633	128.573
202.008	118.294
205.383	114.926
208.758	140.321
212.133	163.038
215.507	145.613
218.882	101.098
222.257	68.7768
225.632	55.494
229.007	50.3976
232.382	58.1024
235.756	66.712
239.131	70.8819
242.506	61.8276
245.881	48.378
249.256	35.6764
252.631	22.3282
256.005	15.2122
259.38	15.3578
262.755	18.7827
266.13	24.516
269.505	29.3624
272.879	21.1126
276.254	6.77576
279.629	2.74637
283.004	2.23026
286.379	3.00314
289.753	0.095917
293.128	0.54892
296.503	4.04925
299.878	1.43277
303.253	0.15889
306.628	0.481735
310.002	2.64169
313.377	4.27022
316.752	7.68192
320.127	10.4336
323.502	11.2468
326.877	11.4042
330.251	9.63324
333.626	6.30847
337.001	2.22067
340.376	0.187531
343.751	0.917831
347.125	6.83929
350.5	13.7541
353.875	26.3641
357.25	40.824
360.625	52.2505
364	55.4816
367.374	53.9536
370.749	57.2657
374.124	53.7271
377.499	35.962
380.874	24.2674
384.248	13.4811
387.623	7.18861
390.998	5.59666
394.373	4.17386
397.748	1.1756
401.123	3.48451
404.497	2.77077
407.872	3.78931
411.247	7.30633
414.622	14.664
417.997	19.1987
421.371	26.9365
424.746	38.032
428.121	45.8151
431.496	43.448
434.871	25.8151
438.245	14.2442
441.62	3.71315
444.995	2.34827
448.37	2.20517
451.745	1.77628
455.12	0.713486
458.494	0.226578
461.869	1.93753
465.244	4.36008
468.619	5.39244
471.994	3.51875
475.368	1.1288
478.743	0.34729
482.118	0.261658
485.493	0.304794
488.868	1.02689
492.243	2.37003
495.617	5.36429
498.992	5.34587
502.367	10.4724
505.742	12.2336
509.117	13.5272
512.491	11.0645
515.866	15.0203
519.241	16.6205
522.616	21.8368
525.991	34.5025
529.365	44.4819
532.74	59.3717
536.115	71.1713
539.49	69.973
542.865	58.4839
546.24	44.8552
549.614	32.4964
552.989	25.4148
556.364	23.3602
559.739	22.4777
563.114	21.9824
566.489	24.8929
569.863	27.0584
573.238	30.83
576.613	33.671
579.988	28.4704
583.362	17.2197
586.737	8.1891
590.112	2.09497
593.487	0.541061
596.862	1.07466
600.237	0.138229
603.611	0.137894
606.986	0.53772
610.361	1.64957
613.736	2.20514
617.111	1.17079
620.486	2.41579
623.86	4.35747
627.235	5.33389
630.61	5.52045
633.985	6.76552
637.36	10.2633
640.735	15.3266
644.109	22.3907
647.484	29.7334
650.859	44.6266
654.234	58.2067
657.609	76.7685
660.983	86.8583
664.358	91.659
667.733	81.0226
671.108	59.8448
674.483	39.1135
677.857	23.9264
681.232	13.6144
684.607	7.35796
687.982	4.33666
691.357	1.88803
694.732	0.106522
698.106	0.443359
701.481	0.572723
704.856	0.361115
708.231	0.788025
711.606	1.42043
714.981	0.384537
718.355	0.839127
721.73	2.42754
725.105	0.176712
728.48	2.10786
731.855	3.10403
735.229	3.96788
738.604	3.42618
741.979	0.119797
745.354	1.93672
748.729	2.0628
752.104	0.739929
755.478	1.60857
758.853	1.479
762.228	3.34029
765.603	2.05655
768.977	0.436081
772.352	1.73392
775.727	1.4962
779.102	0.300812
782.477	1.41336
785.852	0.912415
789.226	0.738922
792.601	0.981537
795.976	1.41655
799.351	2.09621
802.726	1.42824
806.101	2.26147
809.475	1.21855
812.85	1.62184
816.225	3.13272
819.6	4.67749
822.975	3.35811
826.349	2.42586
829.724	3.3024
833.099	2.53313
836.474	3.61436
839.849	5.40193
843.223	2.99596
846.598	4.13464
849.973	4.49889
853.348	4.78316
856.723	5.88033
860.098	6.34845
863.472	4.39801
866.847	6.11359
870.222	7.32477
873.597	9.36369
876.972	9.09613
880.346	12.2689
883.721	10.8788
887.096	11.8336
890.471	11.1898
893.846	9.28323
897.221	6.61319
900.595	6.18675
903.97	2.63336
907.345	0.18219
910.72	0.821999
914.095	0.007957
917.47	1.75278
920.844	0.333641
924.219	2.29051
927.594	0.038589
930.969	1.38898
934.344	1.12314
937.718	0.68924
941.093	1.71599
944.468	4.35902
947.843	4.38913
951.218	8.32763
954.592	13.0814
957.967	19.3173
961.342	28.5533
964.717	37.0451
968.092	44.0447
971.467	40.2802
974.841	32.4287
978.216	24.1481
981.591	20.4179
984.966	16.3181
988.341	10.6302
991.716	7.83681
995.09	5.23914
998.465	2.83168
1001.84	1.3887
1005.22	1.72955
1008.59	1.78618
1011.96	0.140022
1015.34	0.7883
1018.71	0.856308
1022.09	2.03267
1025.46	1.21213
1028.84	0.900734
1032.21	3.70887
1035.59	3.61026
1038.96	2.22119
1042.34	1.6907
1045.71	1.4771
1049.09	0.964653
1052.46	0.351654
1055.84	2.17188
1059.21	0.203819
1062.59	0.643448
1065.96	0.690819
1069.34	1.55689
1072.71	1.48325
1076.09	6.06102
1079.46	7.09486
1082.84	9.51611
1086.21	9.06796
1089.59	5.82364
1092.96	7.58404
1096.34	7.35977
1099.71	10.0699
1103.08	12.1545
1106.46	16.9931
1109.83	18.1382
1113.21	23.6892
1116.58	23.5646
1119.96	27.0111
1123.33	28.6761
1126.71	26.5937
1130.08	30.0474
1133.46	31.5494
1136.83	27.4702
1140.21	25.2015
1143.58	22.3166
1146.96	20.8909
1150.33	18.9723
1153.71	15.1117
1157.08	12.4829
1160.46	12.468
1163.83	11.9444
1167.21	10.6368
1170.58	8.82066
1173.96	9.21997
1177.33	8.00809
1180.7	9.76198
1184.08	7.31854
1187.45	7.21126
1190.83	8.02066
1194.2	7.29103
1197.58	5.29384
1200.95	6.04417
1204.33	4.88466
1207.7	3.61383
1211.08	3.33357
1214.45	0.080994
1217.83	1.48921
1221.2	1.18352
1224.58	0.877335
1227.95	1.03784
1231.33	0.120789
1234.7	0.800949
1238.08	1.2991
1241.45	0.747559
1244.83	0.273285
1248.2	2.51442
1251.58	5.7769
1254.95	5.71651
1258.33	5.69487
1261.7	5.52799
1265.08	4.86447
1268.45	3.12669
1271.83	3.00151
1275.2	3.10568
1278.58	0.36525
1281.95	2.15822
1285.33	0.751495
