Measurement: Raman, 532 nm, unoriented, Raman Data Processed
Mineral: Riebeckite
Rruff sample: R060028
Ideal chemistry: [box]Na_2_(Fe^2+^_3_Fe^3+^_2_)Si_8_O_22_(OH)_2_
Locality: Transvaal, South Africa
Source: University of Arizona Mineral Museum
Description: Black to blue fibrous, known as blue asbestos
Measured chemistry: ([box]_0.98_K_0.02_)(Na_0.98_Ca_0.02_)_2_(Fe^2+^_0.85_Mg_0.15_)_3_(Fe^3+^_0.99_[box]_0.01_)_2_Si_8.00_O_22_(OH)_2_
Raman shift (cm-1)	intensity
133.248	0
136.623	1.65653
139.998	12.9016
143.373	32.8115
146.748	32.5492
150.123	4.38484
153.497	3.04961
156.872	7.17148
160.247	15.9162
163.622	32.214
166.997	23.4795
170.371	14.6673
173.746	7.21464
177.121	1.57803
180.496	1.22548
183.871	0.301437
187.245	2.31409
190.62	5.6835
193.995	8.7778
197.37	9.5421
200.745	9.26093
204.119	8.3662
207.494	11.2874
210.869	15.6475
214.244	15.8151
217.619	12.2863
220.994	7.707
224.368	6.72093
227.743	5.7722
231.118	5.60259
234.493	9.1109
237.868	10.0598
241.243	11.0422
244.617	11.0159
247.992	9.59444
251.367	8.08028
254.742	3.53892
258.117	1.2097
261.491	0.977005
264.866	1.18242
268.241	1.52861
271.616	2.54385
274.991	1.96623
278.365	1.08675
281.74	0.412567
285.115	1.69252
288.49	2.73512
291.865	3.48877
295.24	3.51799
298.614	4.27104
301.989	2.04709
305.364	0.610489
308.739	0.103333
312.114	1.39067
315.488	3.70757
318.863	6.63498
322.238	10.214
325.613	13.8548
328.988	18.3538
332.363	17.458
335.737	12.8797
339.112	9.75909
342.487	8.25966
345.862	8.47723
349.237	8.68047
352.611	10.3496
355.986	12.4273
359.361	13.0452
362.736	12.9678
366.111	12.6413
369.486	11.8641
372.86	11.2632
376.235	8.81453
379.61	7.16098
382.985	6.22011
386.36	5.11116
389.734	4.30757
393.109	3.04845
396.484	2.13738
399.859	1.66031
403.234	1.23683
406.608	0.798386
409.983	0.087158
413.358	1.12643
416.733	1.65091
420.108	1.85507
423.483	3.20119
426.857	4.82239
430.232	6.20297
433.607	4.2681
436.982	1.33507
440.357	0.46167
443.731	0.150238
447.106	0.527863
450.481	0.922256
453.856	0.211166
457.231	0.53154
460.606	1.74603
463.98	2.54077
467.355	3.48366
470.73	3.73891
474.105	3.29265
477.48	2.29224
480.854	0.942535
484.229	1.10213
487.604	1.08743
490.979	0.971893
494.354	1.07724
497.728	1.34316
501.103	2.17036
504.478	2.47122
507.853	2.61389
511.228	3.56017
514.603	3.89899
517.977	5.1362
521.352	7.5448
524.727	10.7858
528.102	15.2376
531.477	19.6255
534.851	21.4273
538.226	22.1987
541.601	18.3415
544.976	14.4209
548.351	11.3915
551.726	8.30084
555.1	6.95453
558.475	6.5965
561.85	8.77228
565.225	10.2088
568.6	12.7211
571.975	15.7569
575.349	17.6893
578.724	15.9508
582.099	11.2789
585.474	6.17114
588.848	3.61615
592.223	1.46344
595.598	0.635864
598.973	0.252853
602.348	0.023041
605.723	0.17662
609.097	0.56369
612.472	0.027557
615.847	0.963287
619.222	0.949493
622.597	0.905029
625.971	0.349396
629.346	0.153534
632.721	0.170883
636.096	0.814194
639.471	1.26445
642.846	2.56087
646.22	5.00514
649.595	8.75514
652.97	10.4797
656.345	14.5587
659.72	18.5237
663.095	20.2464
666.469	18.9463
669.844	13.6949
673.219	10.0642
676.594	6.80464
679.969	4.29739
683.343	1.44984
686.718	0.670975
690.093	0.257416
693.468	0.536743
696.843	0.597824
700.217	0.174042
703.592	0.283112
706.967	0.081741
710.342	0.473801
713.717	0.537979
717.092	0.525406
720.466	0.867615
723.841	0.887482
727.216	0.481293
730.591	0.870651
733.966	0.11145
737.341	0.278275
740.715	1.11754
744.09	1.02998
747.465	1.31819
750.84	1.41362
754.215	2.01424
757.589	0.722046
760.964	1.84241
764.339	1.56502
767.714	0.899918
771.089	1.1516
774.463	1.15392
777.838	0.645508
781.213	0.655914
784.588	0.866653
787.963	0.864304
791.337	0.802673
794.712	0.231186
798.087	0.997971
801.462	0.20961
804.837	0.851685
808.212	0.096191
811.586	0.583862
814.961	0.094666
818.336	0.103912
821.711	0.025436
825.086	0.319641
828.46	0.097183
831.835	0.326126
835.21	0.632782
838.585	0.602448
841.96	1.37158
845.335	0.851303
848.709	1.18089
852.084	1.64644
855.459	2.86131
858.834	2.76903
862.209	2.89271
865.583	4.40129
868.958	5.17737
872.333	6.27342
875.708	6.18021
879.083	7.54427
882.457	8.3891
885.832	7.22288
889.207	5.94833
892.582	6.18018
895.957	4.41028
899.332	2.39117
902.706	1.09322
906.081	0.560135
909.456	0.513611
912.831	0.054535
916.206	0.232925
919.581	0.391785
922.955	0.865402
926.33	0.698715
929.705	1.50038
933.08	1.06343
936.455	3.02417
939.829	3.78197
943.204	6.46759
946.579	9.78648
949.954	13.8484
953.329	19.8236
956.703	28.2772
960.078	38.817
963.453	50.3143
966.828	57.6097
970.203	50.3347
973.578	33.9233
976.952	21.6135
980.327	15.6503
983.702	13.3549
987.077	9.13048
990.452	6.10858
993.826	3.0889
997.201	1.31172
1000.58	0.156616
1003.95	0.108459
1007.33	0.093109
1010.7	0.241592
1014.08	0.270462
1017.45	0.20195
1020.83	1.26552
1024.2	1.26408
1027.58	1.3018
1030.95	2.70947
1034.32	3.00424
1037.7	3.75267
1041.07	4.30882
1044.45	4.13098
1047.82	2.10178
1051.2	1.27409
1054.57	0.94136
1057.95	0.467743
1061.32	1.08124
1064.7	0.295547
1068.07	1.05878
1071.45	0.797073
1074.82	2.31432
1078.2	4.00928
1081.57	6.0246
1084.95	6.21536
1088.32	4.57405
1091.7	3.15732
1095.07	2.3853
1098.45	1.24497
1101.82	1.29218
1105.19	0.207825
1108.57	0.727936
1111.94	0.598175
1115.32	0.533783
1118.69	0.682175
1122.07	0.804901
1125.44	0.330292
1128.82	0.277496
1132.19	0.423019
1135.57	0.330124
1138.94	0.468231
1142.32	0.056534
1145.69	0.123276
1149.07	1.05646
1152.44	0.338623
1155.82	0.337891
1159.19	0.655716
1162.57	0.188782
1165.94	0.857819
1169.32	0.596954
1172.69	0.941742
1176.07	0.088776
1179.44	1.05234
1182.82	0.084259
1186.19	0.353683
1189.57	0.502182
1192.94	0.709045
1196.32	0.82579
1199.69	0.416412
1203.07	1.24516
1206.44	0.18042
1209.82	0.3022
1213.19	0.893936
1216.56	0.574753
1219.94	1.05272
1223.31	1.14999
1226.69	0.453949
1230.06	1.04774
1233.44	0.875504
1236.81	0.391006
1240.19	0.382095
1243.56	1.0004
1246.94	0.655701
1250.31	1.04631
1253.69	0.800339
1257.06	0.749588
1260.44	0.593033
1263.81	0.099915
1267.19	0.554504
1270.56	0.701889
1273.94	0.695587
1277.31	0.349808
1280.69	0.461334
1284.06	0.291595
1287.43	0.882965
1290.81	0.129471
1294.18	0.623596
1297.56	0.117767
1300.93	0.407822
