Measurement: Raman, 532 nm, unoriented, Raman Data Processed
Mineral: Ringwoodite
Rruff sample: R090003
Ideal chemistry: Mg_2_SiO_4_
Locality: Synthetic
Source: Hexiong Yang
Description: Colorless crystals
Raman shift (cm-1)	intensity
153.201	0
156.094	5.33093
158.986	0.489075
161.879	4.34656
164.772	3.29739
167.664	0.229126
170.557	3.89053
173.45	0.551361
176.343	4.58832
179.235	3.9357
182.128	3.26953
185.021	8.40411
187.913	6.14468
190.806	2.26135
193.699	6.63046
196.591	4.25494
199.484	5.35849
202.377	7.80304
205.269	0.038788
208.162	2.58295
211.055	0.659882
213.948	2.56448
216.84	2.8045
219.733	4.61191
222.626	1.18393
225.518	3.88351
228.411	3.80679
231.304	3.69095
234.196	1.69287
237.089	2.36481
239.982	0.298798
242.875	2.20837
245.767	3.2045
248.66	1.48526
251.553	1.61295
254.445	4.21533
257.338	3.76657
260.231	3.02829
263.123	1.9054
266.016	3.10461
268.909	4.01935
271.802	0.809662
274.694	2.62479
277.587	5.58392
280.48	2.19699
283.372	7.61508
286.265	7.32544
289.158	9.79532
292.05	7.33731
294.943	9.41342
297.836	11.4476
300.729	14.6964
303.621	14.9006
306.514	8.34943
309.407	5.14236
312.299	2.95468
315.192	0.695679
318.085	0.585266
320.978	1.55249
323.87	1.02866
326.763	0.19397
329.656	0.106659
332.548	1.4837
335.441	0.231659
338.334	1.19714
341.226	3.45453
344.119	2.92551
347.012	4.22516
349.904	6.19394
352.797	6.31619
355.69	11.3097
358.583	9.79935
361.475	11.8608
364.368	14.7657
367.261	13.5177
370.153	16.1243
373.046	22.3635
375.939	20.3338
378.832	9.75943
381.724	4.89236
384.617	5.52206
387.51	2.55231
390.402	1.8067
393.295	5.46808
396.188	1.81909
399.08	1.42813
401.973	2.83844
404.866	1.07446
407.759	2.99503
410.651	1.33356
413.544	1.96802
416.437	2.59186
419.329	1.50781
422.222	1.71011
425.115	5.24902
428.007	2.02042
430.9	3.96091
433.793	2.23447
436.685	0.091339
439.578	4.20725
442.471	2.07532
445.364	2.6712
448.256	4.27609
451.149	0.160736
454.042	2.56162
456.934	1.94159
459.827	0.612885
462.72	2.37122
465.613	5.7374
468.505	2.63669
471.398	1.54468
474.291	6.56024
477.183	5.31229
480.076	5.29083
482.969	9.37164
485.861	7.59854
488.754	3.87006
491.647	5.3295
494.539	3.0387
497.432	4.50382
500.325	5.28647
503.218	3.79034
506.11	3.76096
509.003	3.62054
511.896	2.53009
514.788	2.43457
517.681	0.661041
520.574	2.34595
523.466	2.19076
526.359	1.99072
529.252	2.71878
532.145	0.56366
535.037	0.466492
537.93	2.88477
540.823	0.942169
543.715	5.5694
546.608	0.453125
549.501	2.67117
552.394	2.07742
555.286	1.33627
558.179	0.64621
561.072	3.54364
563.964	5.9433
566.857	5.80429
569.75	7.01337
572.642	8.12295
575.535	9.94604
578.428	9.2601
581.321	12.6918
584.213	14.5244
587.106	16.8691
589.999	19.877
592.891	22.587
595.784	26.0189
598.677	24.9381
601.569	23.7985
604.462	19.0714
607.355	8.74893
610.247	3.54269
613.14	2.58395
616.033	4.15939
618.926	1.67203
621.818	1.66281
624.711	1.31595
627.604	0.521637
630.496	1.56235
633.389	2.33167
636.282	5.01981
639.174	4.73413
642.067	4.60202
644.96	4.39288
647.852	2.16013
650.745	1.86539
653.638	1.87051
656.531	5.79852
659.423	2.52075
662.316	2.15579
665.209	2.70096
668.101	1.91461
670.994	4.33993
673.887	1.23172
676.779	2.57446
679.672	0.508362
682.565	5.47644
685.458	5.94562
688.35	5.39142
691.243	5.87042
694.136	8.25961
697.028	10.8338
699.921	9.30267
702.814	9.70554
705.707	12.4351
708.599	11.7311
711.492	12.0934
714.385	13.0653
717.277	9.99497
720.17	9.20547
723.063	7.57916
725.955	4.60272
728.848	4.39514
731.741	0.00119
734.634	1.69409
737.526	0.07196
740.419	1.32648
743.312	1.29617
746.204	2.56174
749.097	3.75922
751.99	2.79169
754.882	1.55624
757.775	0.625671
760.668	0.936096
763.561	9.30182
766.453	17.1785
769.346	32.3673
772.239	50.7585
775.131	80.3194
778.024	115.508
780.917	172.226
783.809	244.867
786.702	321.883
789.595	415.28
792.487	504.862
795.38	549.93
798.273	503.148
801.166	408.372
804.058	326.34
806.951	276.72
809.844	254.034
812.736	248.236
815.629	259.202
818.522	285.201
821.415	332.239
824.307	386.862
827.2	452.357
830.093	505.757
832.985	537.413
835.878	531.055
838.771	488.563
841.663	423.773
844.556	357.363
847.449	299.123
850.342	248.206
853.234	214.971
856.127	185.454
859.02	157.956
861.912	137.253
864.805	118.148
867.698	96.4399
870.591	77.9439
873.483	63.7222
876.376	48.7394
879.269	37.9231
882.161	27.2013
885.054	16.4956
887.947	12.2365
890.839	6.64523
893.732	0.538544
896.625	0.313873
899.518	1.94992
902.41	1.95151
905.303	1.56796
908.196	4.64285
911.088	2.64426
913.981	4.17734
916.874	0.66214
919.766	0.992889
922.659	2.22928
925.552	0.544159
928.444	2.63248
931.337	0.664215
934.23	1.55548
937.123	1.72058
940.015	3.86185
942.908	3.57031
945.801	5.36484
948.693	4.63431
951.586	3.79764
954.479	7.80698
957.371	9.47183
960.264	13.5339
963.157	16.0748
966.05	14.8712
968.942	14.0307
971.835	14.1685
974.728	17.2301
977.62	16.4139
980.513	18.4679
983.406	19.8531
986.298	17.7546
989.191	17.7902
992.084	15.376
994.977	13.977
997.869	11.6869
1000.76	10.2725
1003.65	7.66629
1006.55	7.586
1009.44	8.07806
1012.33	7.72726
1015.23	9.08826
1018.12	6.37909
1021.01	7.73938
1023.9	6.86026
1026.8	4.83954
1029.69	7.34924
1032.58	2.75998
1035.47	4.47382
1038.37	4.80627
1041.26	6.71774
1044.15	6.82797
1047.05	4.23856
1049.94	4.71866
1052.83	4.43936
1055.72	3.26178
1058.62	1.77441
1061.51	3.78702
1064.4	2.8761
1067.29	1.3165
1070.19	1.45059
1073.08	1.79571
1075.97	1.65247
1078.87	2.95312
1081.76	3.8732
1084.65	2.62878
1087.54	0.165894
1090.44	0.50824
1093.33	2.41577
1096.22	3.01858
1099.11	3.25381
1102.01	3.03168
1104.9	2.00079
1107.79	0.293762
1110.68	4.18457
1113.58	4.09244
1116.47	0.624237
1119.36	1.36176
1122.26	3.72125
1125.15	0.960999
1128.04	1.53784
1130.93	2.23511
1133.83	1.37332
1136.72	3.80624
1139.61	2.79208
1142.5	0.691956
1145.4	2.28583
1148.29	2.93991
1151.18	4.88974
1154.08	4.57745
1156.97	4.05728
1159.86	3.0827
1162.75	6.07724
1165.65	5.41357
1168.54	8.5415
1171.43	6.41592
1174.32	8.51727
1177.22	7.53134
1180.11	10.6088
1183	6.41608
1185.89	8.73373
1188.79	10.2438
1191.68	14.0892
1194.57	12.3004
1197.47	12.1185
1200.36	10.9264
1203.25	11.2536
1206.14	11.1714
1209.04	8.80151
1211.93	7.17856
1214.82	6.50256
1217.71	4.10818
1220.61	3.08179
1223.5	5.72318
1226.39	4.73929
1229.29	2.31976
1232.18	3.31366
1235.07	5.26678
1237.96	2.44113
1240.86	0.747253
1243.75	0.235443
1246.64	1.11563
1249.53	2.59222
1252.43	0.710785
1255.32	2.29755
1258.21	2.07294
1261.11	1.09949
1264	2.146
1266.89	4.16943
1269.78	1.29254
1272.68	5.31366
1275.57	3.28317
1278.46	4.00375
1281.35	3.28595
1284.25	0.507751
1287.14	1.90772
1290.03	0.791473
1292.92	4.04834
1295.82	4.66953
1298.71	1.71732
1301.6	1.46722
