Measurement: Raman, 532 nm, unoriented, Raman Data Processed
Mineral: Ringwoodite
Rruff sample: R070079
Ideal chemistry: Mg_2_SiO_4_
Locality: Tenham meteorite, south Gregory, Queensland, Australia
Source: Michael Scott
Description: Colorless grains associated with kamacite, majorite and troilite, in a polished section embedded in epoxy
Measured chemistry: (Mg_1.50_Fe_0.49_Mn_0.01_)_Î£=2_Si_1.00_O_4_
Raman shift (cm-1)	intensity
172.359	0
175.252	9.31836
178.144	177.666
181.037	228.806
183.93	493.543
186.822	573.196
189.715	702.623
192.608	834.352
195.5	965.966
198.393	1250.13
201.286	1453.31
204.179	1777.21
207.071	2087.59
209.964	2328.77
212.857	2611.96
215.749	2817.2
218.642	2844.4
221.535	2842.02
224.428	2805.93
227.32	2897.19
230.213	2851.98
233.106	2906.5
235.998	2818.8
238.891	2719.34
241.784	2525.55
244.676	2190.95
247.569	1885.53
250.462	1599.55
253.355	1181.59
256.247	947.461
259.14	608.344
262.033	489.69
264.925	448.152
267.818	333.337
270.711	218.294
273.603	77.54
276.496	114.796
279.389	71.3584
282.281	26.0117
285.174	55.206
288.067	32.3633
290.959	16.6299
293.852	38.2617
296.745	108.688
299.638	190.368
302.53	29.3369
305.423	46.4609
308.316	60.6455
311.208	93.6777
314.101	125.675
316.994	183.264
319.887	205.22
322.779	240.339
325.672	191.247
328.565	199.126
331.457	220.635
334.35	253.102
337.243	237.394
340.135	216.385
343.028	247.219
345.921	174.249
348.813	181.505
351.706	194.678
354.599	152.678
357.492	104.86
360.384	134.196
363.277	12.7344
366.17	49.8965
369.062	23.2627
371.955	27.4062
374.848	28.2422
377.74	16.5127
380.633	10.8418
383.526	48.624
386.418	1.22461
389.311	140.56
392.204	103.312
395.097	75.8486
397.989	77.2109
400.882	287.647
403.775	160.673
406.667	43.8877
409.56	1.46191
412.453	22.2783
415.346	18.7686
418.238	85.4434
421.131	52.5478
424.024	68.04
426.916	90.1553
429.809	82.7881
432.702	203.047
435.594	209.144
438.487	152.824
441.38	166.769
444.272	192.742
447.165	160.247
450.058	276.769
452.951	126.608
455.843	154.944
458.736	189.716
461.629	208.846
464.521	182.394
467.414	172.38
470.307	209.445
473.2	204.458
476.092	258.065
478.985	187.902
481.878	133.849
484.77	219.442
487.663	249.382
490.556	208.523
493.448	167.017
496.341	209.199
499.234	105.834
502.127	168.162
505.019	131.975
507.912	91.79
510.805	76.71
513.697	100.67
516.59	48.6631
519.483	68.6562
522.375	59.3613
525.268	62.4004
528.161	9.01172
531.053	3.72949
533.946	43.1963
536.839	40.1182
539.731	25.7979
542.624	73.8828
545.517	97.584
548.41	71.2617
551.302	47.708
554.195	111.12
557.088	103.667
559.98	119.633
562.873	139.197
565.766	151.293
568.659	166.006
571.551	144.223
574.444	201.146
577.337	195.757
580.229	211.09
583.122	213.183
586.015	194.105
588.907	214.138
591.8	202.936
594.693	194.993
597.585	169.647
600.478	186.263
603.371	187.413
606.264	94.3408
609.156	110.749
612.049	62.8037
614.942	67.2139
617.834	24.8511
620.727	20.1753
623.62	17.5303
626.513	72.8989
629.405	38.6797
632.298	2.35596
635.191	142.624
638.083	313.38
640.976	469.753
643.869	187.885
646.761	5.82764
649.654	151.171
652.547	86.9736
655.439	83.7398
658.332	14.5254
661.225	48.126
664.117	84.5884
667.01	53.3916
669.903	94.9976
672.796	100.001
675.688	131.961
678.581	102.143
681.474	128.189
684.366	52.7969
687.259	9.18506
690.152	69.3892
693.044	65.3213
695.937	74.272
698.83	70.9009
701.723	81.6699
704.615	35.0957
707.508	52.794
710.401	23.3794
713.293	77.7056
716.186	53.7505
719.079	37.5796
721.971	27.3633
724.864	3.77978
727.757	2.88477
730.649	13.3823
733.542	18.8696
736.435	55.0547
739.328	46.2549
742.22	14.5532
745.113	19.9492
748.006	15.9536
750.898	30.5532
753.791	14.7129
756.684	8.1123
759.577	80.7676
762.469	80.4731
765.362	123.249
768.255	79.7368
771.147	220.394
774.04	345.655
776.933	475.915
779.825	656.931
782.718	888.383
785.611	1248.46
788.504	1590.52
791.396	2079.62
794.289	2486.78
797.182	2618.41
800.074	2549.17
802.967	2210.04
805.86	1862.82
808.752	1579.62
811.645	1326.67
814.538	1209.88
817.431	999.53
820.323	1019.4
823.216	923.629
826.109	955.415
829.001	999.487
831.894	1197.83
834.787	1427.71
837.679	1723.2
840.572	1936.3
843.465	2124.64
846.357	1933.54
849.25	1614.25
852.143	1147.59
855.036	801.039
857.928	521.007
860.821	291.957
863.714	219.584
866.606	152.21
869.499	180.195
872.392	141.375
875.284	205.788
878.177	176.09
881.07	190.748
883.962	201.041
886.855	232.391
889.748	69.2461
892.641	71.3569
895.533	7.95068
898.426	40.4717
901.319	23.3467
904.211	37.8037
907.104	18.9634
909.997	82.9204
912.889	75.4971
915.782	161.9
918.675	176.722
921.568	154.57
924.46	134.674
927.353	59.5913
930.246	110.693
933.138	90.98
936.031	141.289
938.924	124.006
941.817	104.786
944.709	91.6982
947.602	134.533
950.495	126.73
953.387	118.253
956.28	106.563
959.173	34.2637
962.065	127.593
964.958	120.441
967.851	14.0117
970.744	52.8652
973.636	55.1987
976.529	1.95166
979.422	33.8721
982.314	72.0396
985.207	50.3203
988.1	0.115234
990.992	33.0322
993.885	56.6899
996.778	18.7891
999.67	31.3911
1002.56	74.124
1005.46	65.2515
1008.35	30.3418
1011.24	74.9561
1014.13	80.0278
1017.03	61.1743
1019.92	0.488281
1022.81	67.3603
1025.7	68.5923
1028.6	10.1768
1031.49	28.4395
1034.38	93.8569
1037.28	91.686
1040.17	129.69
1043.06	141.647
1045.95	10.6323
1048.85	75.5703
1051.74	52.0347
1054.63	2.79981
1057.52	33.0107
1060.42	1.25049
1063.31	9.38525
1066.2	77.8867
1069.1	79.1631
1071.99	83.0102
1074.88	103.461
1077.77	68.4297
1080.67	162.087
1083.56	126.968
1086.45	196.69
1089.34	151.829
1092.24	134.88
1095.13	145.384
1098.02	163.6
1100.91	187.131
1103.81	234.904
1106.7	276.945
1109.59	349.36
1112.49	491.875
1115.38	412.076
1118.27	306.281
1121.16	240.222
1124.06	136.102
1126.95	111.576
1129.84	94.1387
1132.73	70.4927
1135.63	65.7534
1138.52	56.8862
1141.41	18.3872
1144.31	74.4536
1147.2	80.7451
1150.09	99.5322
1152.98	79.6304
1155.88	16.5234
1158.77	31.0747
1161.66	67.2349
1164.55	15.6582
1167.45	47.7065
1170.34	56.7847
1173.23	40.0185
1176.12	0.851563
1179.02	202.075
1181.91	245.021
1184.8	249.787
1187.7	253.448
1190.59	243.242
1193.48	45.2944
1196.37	24.7773
1199.27	38.4653
1202.16	8.16748
1205.05	9.44336
1207.94	10.6284
1210.84	2.85352
1213.73	24.8613
1216.62	71.9419
1219.52	96.8682
1222.41	113.205
1225.3	82.0747
1228.19	134.393
1231.09	95.5767
1233.98	80.896
1236.87	80.4849
1239.76	151.46
1242.66	136.209
1245.55	110.3
1248.44	93.7534
1251.34	129.97
1254.23	69.1274
1257.12	91.2192
1260.01	55.5444
1262.91	22.3315
1265.8	45.5288
1268.69	45.1934
1271.58	61.3906
1274.48	25.7207
1277.37	21.3145
1280.26	18.5137
1283.15	18.5039
1286.05	129.606
1288.94	40.1948
1291.83	84.5054
1294.73	107.171
1297.62	62.6406
1300.51	102.74
1303.4	186.68
1306.3	87.0439
1309.19	102.571
1312.08	98.3223
1314.97	93.478
1317.87	0
