Measurement: Raman, 780 nm, unoriented, Raman Data Processed
Mineral: Robertsite
Rruff sample: R130045
Ideal chemistry: Ca_2_Mn^3+^_3_O_2_(PO_4_)_3_3H_2_O
Locality: Tip Top mine, Custer, South Dakota, USA
Source: Thomas A. Loomis
Description: Dark red plates, associated with quartz and apatite
Raman shift (cm-1)	intensity
91.1996	0
94.5744	6.31959
97.9492	3.66133
101.324	0.972504
104.699	3.83785
108.074	2.97166
111.448	0.796928
114.823	5.10402
118.198	7.72891
121.573	11.1326
124.948	9.06816
128.322	8.98748
131.697	7.14644
135.072	4.10081
138.447	1.36803
141.822	1.01169
145.197	0.974297
148.571	0.233627
151.946	4.76663
155.321	8.04815
158.696	12.1366
162.071	12.8624
165.446	14.9926
168.82	14.7144
172.195	13.4646
175.57	11.6447
178.945	11.5213
182.32	11.365
185.694	12.128
189.069	11.3647
192.444	12.0997
195.819	9.87025
199.194	9.29806
202.569	7.25552
205.943	6.14016
209.318	4.83614
212.693	7.79019
216.068	9.52014
219.442	11.1963
222.817	12.7579
226.192	13.3694
229.567	11.6269
232.942	9.38368
236.317	6.33605
239.691	4.48557
243.066	2.01914
246.441	1.67605
249.816	0.315224
253.191	0.23748
256.565	0.682617
259.94	0.421642
263.315	2.42355
266.69	2.75732
270.065	4.42177
273.44	7.25067
276.814	10.4417
280.189	15.3859
283.564	21.9407
286.939	28.4423
290.314	32.8912
293.688	36.7769
297.063	37.6097
300.438	33.7283
303.813	30.5997
307.188	28.9261
310.562	26.4953
313.937	23.947
317.312	23.3626
320.687	20.5452
324.062	18.2624
327.437	16.6374
330.811	13.6729
334.186	11.3201
337.561	9.25102
340.936	6.4465
344.311	2.62865
347.685	1.26051
351.06	0.210381
354.435	0.801945
357.81	0.9879
361.185	0.259178
364.56	1.16307
367.934	1.74637
371.309	4.1749
374.684	6.21946
378.059	9.2697
381.434	12.559
384.808	14.9645
388.183	16.1649
391.558	15.5646
394.933	14.9258
398.308	12.4126
401.683	10.7263
405.057	9.47926
408.432	7.9567
411.807	6.73647
415.182	5.78822
418.557	4.76841
421.931	2.48161
425.306	2.06159
428.681	1.83861
432.056	2.05643
435.431	2.02143
438.805	2.79326
442.18	2.43373
445.555	2.91491
448.93	2.02531
452.305	1.78411
455.68	1.82754
459.054	1.87811
462.429	1.42271
465.804	1.7822
469.179	0.87475
472.554	1.56477
475.928	0.374544
479.303	1.42536
482.678	1.36135
486.053	1.50481
489.428	1.74363
492.803	2.15741
496.177	2.58216
499.552	2.27721
502.927	1.91759
506.302	2.08241
509.677	0.687244
513.051	0.711702
516.426	0.581799
519.801	0.713936
523.176	0.201517
526.551	0.805977
529.926	0.472935
533.3	0.520378
536.675	0.455862
540.05	1.53643
543.425	2.47946
546.799	3.12398
550.174	3.67894
553.549	2.69319
556.924	2.13177
560.299	1.7284
563.674	1.16602
567.048	0.179098
570.423	0.573984
573.798	0.004103
577.173	0.067163
580.548	0.462885
583.923	0.805786
587.297	1.867
590.672	3.29526
594.047	5.56298
597.422	9.33838
600.797	14.2734
604.171	19.2581
607.546	26.9352
610.921	35.4679
614.296	44.3792
617.671	54.1436
621.045	60.5518
624.42	63.8078
627.795	64.3279
631.17	60.0113
634.545	54.9422
637.919	49.6924
641.294	44.627
644.669	37.902
648.044	31.0989
651.419	25.6318
654.794	20.4768
658.168	16.2427
661.543	12.8002
664.918	10.6027
668.293	8.27028
671.668	6.17192
675.043	5.41815
678.417	4.26847
681.792	3.25076
685.167	2.78577
688.542	2.26978
691.917	1.57181
695.291	1.19686
698.666	1.07918
702.041	0.46216
705.416	0.051544
708.791	0.314962
712.165	0.258028
715.54	0.213089
718.915	0.609417
722.29	0.192364
725.665	0.32502
729.039	0.082407
732.414	0.116087
735.789	0.341671
739.164	0.089439
742.539	0.634199
745.914	0.177073
749.288	0.229414
752.663	0.518232
756.038	0.487535
759.413	0.061316
762.788	0.369106
766.163	0.746891
769.537	0.476486
772.912	0.024973
776.287	0.443214
779.662	0.763231
783.037	1.0237
786.411	0.280296
789.786	0.635611
793.161	0.468681
796.536	0.888426
799.911	0.775797
803.285	1.24531
806.66	0.914417
810.035	0.686563
813.41	0.917297
816.785	1.72791
820.159	0.884237
823.534	0.819307
826.909	0.777674
830.284	1.24102
833.659	1.28723
837.034	1.10589
840.408	1.10936
843.783	1.21659
847.158	0.924276
850.533	0.954813
853.908	1.13531
857.283	0.602064
860.657	0.601973
864.032	0.696348
867.407	0.591064
870.782	0.441929
874.157	0.394381
877.531	0.090635
880.906	0.121044
884.281	0.043747
887.656	0.086378
891.031	0.829422
894.405	0.659912
897.78	0.348957
901.155	0.345188
904.53	1.03585
907.905	0.757744
911.279	1.40143
914.654	1.81554
918.029	1.66484
921.404	2.22164
924.779	2.389
928.154	3.69896
931.528	4.13095
934.903	4.82796
938.278	5.073
941.653	5.73297
945.028	5.76376
948.403	6.71687
951.777	5.88176
955.152	5.69439
958.527	3.95874
961.902	3.78801
965.277	3.35455
968.651	2.2936
972.026	1.96601
975.401	2.02968
978.776	1.68847
982.151	1.75258
985.525	1.36379
988.9	1.83128
992.275	0.557213
995.65	0.923078
999.025	0.377234
1002.4	0.118799
1005.77	0.318909
1009.15	1.15934
1012.52	1.35137
1015.9	2.98015
1019.27	3.38672
1022.65	3.291
1026.02	4.18743
1029.4	4.52128
1032.77	4.19176
1036.15	4.27809
1039.52	4.05896
1042.9	3.6469
1046.27	3.01928
1049.65	2.21001
1053.02	1.53867
1056.4	1.14468
1059.77	0.77409
1063.15	0.301746
1066.52	0.814464
1069.9	0.620807
1073.27	0.46163
1076.64	0.896573
1080.02	0.307252
1083.39	0.000841
1086.77	0.065067
1090.14	1.16607
1093.52	2.89132
1096.89	3.76123
1100.27	5.03142
1103.64	5.88969
1107.02	6.24154
1110.39	5.98964
1113.77	5.42442
1117.14	4.64246
1120.52	5.04312
1123.89	5.75834
1127.27	7.28407
1130.64	8.50792
1134.02	11.3554
1137.39	14.2607
1140.77	18.077
1144.14	21.8189
1147.52	24.9964
1150.89	28.3479
1154.27	28.9423
1157.64	29.2387
1161.02	30.6546
1164.39	32.756
1167.77	37.856
1171.14	44.48
1174.52	55.06
1177.89	67.758
1181.27	82.8962
1184.64	100.961
1188.01	121.389
1191.39	136.501
1194.76	127.153
1198.14	97.4581
1201.51	65.049
1204.89	41.9595
1208.26	26.1862
1211.64	16.4155
1215.01	10.4347
1218.39	7.17098
1221.76	3.20771
1225.14	2.15225
1228.51	0.86678
1231.89	0.106881
1235.26	0.402216
1238.64	0.127416
1242.01	0.232886
1245.39	0.207422
1248.76	0.126115
1252.14	0.472329
1255.51	1.15501
1258.88	1.58397
1262.26	1.63745
1265.63	1.12633
1269.01	1.58163
1272.38	0.85409
1275.76	0.305493
1279.13	1.26777
1282.51	0.042105
