Measurement: Raman, 532 nm, unoriented, Raman Data Processed
Mineral: Robertsite
Rruff sample: R130045
Ideal chemistry: Ca_2_Mn^3+^_3_O_2_(PO_4_)_3_3H_2_O
Locality: Tip Top mine, Custer, South Dakota, USA
Source: Thomas A. Loomis
Description: Dark red plates, associated with quartz and apatite
Raman shift (cm-1)	intensity
90.808	0
94.1828	3.74749
97.5576	0.06543
100.932	3.70947
104.307	1.87884
107.682	3.24883
111.057	3.41207
114.432	5.09985
117.806	3.01749
121.181	5.26593
124.556	6.39621
127.931	5.16937
131.306	5.29188
134.681	5.09973
138.055	2.64636
141.43	1.63129
144.805	0.37661
148.18	0.999561
151.555	0.313358
154.929	0.076565
158.304	0.178528
161.679	0.351349
165.054	0.022465
168.429	0.162897
171.804	0.222931
175.178	0.250149
178.553	2.07707
181.928	4.52789
185.303	7.43102
188.678	8.86772
192.053	11.0921
195.427	9.88822
198.802	11.5915
202.177	11.3048
205.552	11.2043
208.927	10.3148
212.301	11.4462
215.676	12.1264
219.051	14.0282
222.426	16.4238
225.801	18.2358
229.175	17.9768
232.55	15.0406
235.925	13.0657
239.3	10.8251
242.675	7.20198
246.05	6.04004
249.424	4.2704
252.799	3.55949
256.174	3.78801
259.549	3.98035
262.924	4.96673
266.298	5.0642
269.673	3.74368
273.048	4.27128
276.423	5.87629
279.798	7.7764
283.173	11.6697
286.547	15.9284
289.922	21.0723
293.297	26.5426
296.672	29.2911
300.047	29.5118
303.421	25.5005
306.796	24.5202
310.171	22.6125
313.546	22.0985
316.921	21.6117
320.296	19.5456
323.67	17.4897
327.045	14.7831
330.42	13.385
333.795	12.548
337.17	10.9135
340.544	9.06937
343.919	5.69062
347.294	3.50187
350.669	1.08683
354.044	0.366976
357.418	0.882999
360.793	0.770182
364.168	0.811752
367.543	1.42343
370.918	0.588554
374.293	1.41203
377.667	2.41002
381.042	4.27416
384.417	6.71903
387.792	8.00421
391.167	8.84525
394.541	9.5399
397.916	8.45404
401.291	6.79196
404.666	5.18642
408.041	5.48238
411.416	4.97088
414.79	4.71786
418.165	3.99797
421.54	2.30773
424.915	1.28075
428.29	0.388149
431.664	0.575209
435.039	0.237597
438.414	0.997505
441.789	1.17349
445.164	1.10048
448.539	1.36573
451.913	1.06233
455.288	2.17551
458.663	2.90789
462.038	2.06715
465.413	2.71787
468.788	2.55348
472.162	2.34994
475.537	2.34713
478.912	2.31807
482.287	3.103
485.662	2.81532
489.036	2.42559
492.411	2.4256
495.786	2.72541
499.161	3.00353
502.536	2.6077
505.911	2.97595
509.285	2.51751
512.66	1.86345
516.035	0.913656
519.41	0.170549
522.784	0.099392
526.159	0.072428
529.534	0.080242
532.909	0.225864
536.284	0.339508
539.659	0.328812
543.033	0.905647
546.408	1.216
549.783	1.6651
553.158	2.10481
556.533	1.79131
559.908	1.02787
563.282	0.615166
566.657	0.491814
570.032	0.350801
573.407	0.273415
576.782	0.303387
580.156	0.118153
583.531	0.970894
586.906	0.993464
590.281	2.88776
593.656	4.10764
597.03	7.21813
600.405	11.0349
603.78	15.5525
607.155	21.2275
610.53	29.4141
613.905	40.4217
617.279	52.2787
620.654	63.4556
624.029	73.2018
627.404	76.0867
630.779	74.1017
634.154	68.5615
637.528	62.3716
640.903	55.2445
644.278	49.1635
647.653	41.5428
651.028	34.2428
654.402	27.9856
657.777	22.0775
661.152	16.6039
664.527	13.0095
667.902	9.88689
671.277	7.87661
674.651	6.04235
678.026	5.04636
681.401	3.87428
684.776	2.7612
688.151	2.18929
691.525	1.95406
694.9	0.810854
698.275	1.2685
701.65	0.725044
705.025	0.697683
708.399	0.514893
711.774	0.489923
715.149	0.115929
718.524	0.197714
721.899	0.088783
725.274	0.25395
728.648	0.31119
732.023	0.432947
735.398	0.352608
738.773	0.013216
742.148	0.078869
745.523	0.355801
748.897	0.727842
752.272	0.709064
755.647	0.674444
759.022	0.497454
762.396	0.481979
765.771	0.715895
769.146	0.730995
772.521	0.744589
775.896	1.40499
779.271	0.820402
782.645	0.150482
786.02	0.742659
789.395	0.771408
792.77	0.533707
796.145	0.832525
799.519	0.38785
802.894	0.613314
806.269	0.389841
809.644	0.278162
813.019	0.609005
816.394	0.76404
819.768	0.875889
823.143	1.43095
826.518	0.910952
829.893	0.644572
833.268	0.359443
836.643	0.846642
840.017	1.37952
843.392	1.14702
846.767	0.887404
850.142	1.11951
853.517	0.831114
856.891	1.08366
860.266	0.848471
863.641	0.393215
867.016	1.14206
870.391	0.52812
873.765	0.093519
877.14	0.015878
880.515	0.260049
883.89	0.060842
887.265	0.360314
890.64	0.070212
894.014	0.082526
897.389	0.202342
900.764	0.135661
904.139	0.022107
907.514	0.639838
910.889	0.465308
914.263	0.132298
917.638	1.23134
921.013	1.46093
924.388	2.3101
927.763	3.24651
931.137	3.82875
934.512	4.51939
937.887	6.33451
941.262	8.5067
944.637	9.81189
948.011	12.1554
951.386	12.7912
954.761	12.868
958.136	11.8769
961.511	10.1387
964.886	7.39834
968.26	5.68235
971.635	3.46086
975.01	2.92525
978.385	1.99529
981.76	1.06055
985.135	0.668087
988.509	0.683206
991.884	0.108202
995.259	0.181093
998.634	0.85647
1002.01	0.026177
1005.38	1.03835
1008.76	0.832965
1012.13	1.43746
1015.51	1.40291
1018.88	2.59285
1022.26	3.37804
1025.63	4.52316
1029.01	5.19369
1032.38	5.49886
1035.76	6.43161
1039.13	5.64022
1042.51	4.13116
1045.88	3.88687
1049.26	3.03222
1052.63	2.57725
1056.01	1.98408
1059.38	0.942807
1062.76	0.420144
1066.13	0.14808
1069.51	0.305549
1072.88	0.288544
1076.26	0.468619
1079.63	0.049446
1083	0.078342
1086.38	0.092775
1089.75	1.10005
1093.13	1.68176
1096.5	2.28968
1099.88	3.10679
1103.25	5.48264
1106.63	6.14804
1110	6.0826
1113.38	6.32157
1116.75	6.10439
1120.13	6.41792
1123.5	6.99879
1126.88	8.82905
1130.25	10.8089
1133.63	13.7891
1137	18.6978
1140.38	23.0674
1143.75	27.6861
1147.13	32.348
1150.5	33.5872
1153.88	33.0226
1157.25	30.8949
1160.62	29.1093
1164	29.3615
1167.38	30.9311
1170.75	36.0614
1174.12	43.2764
1177.5	51.9154
1180.87	66.8547
1184.25	80.7873
1187.62	97.8769
1191	120.911
1194.37	143.445
1197.75	143.823
1201.12	111.668
1204.5	72.7529
1207.87	44.3571
1211.25	28.621
1214.62	18.4931
1218	11.2088
1221.37	6.65814
1224.75	4.72243
1228.12	2.34093
1231.5	0.816653
1234.87	0.249565
1238.25	0.248597
1241.62	0.002789
1244.99	0.755372
1248.37	1.20318
1251.74	0.161206
1255.12	0.336122
1258.49	0.53431
1261.87	0.899405
1265.24	0.82221
1268.62	1.46819
1271.99	1.58663
1275.37	1.16674
1278.74	1.44571
1282.12	1.46549
1285.49	1.44486
1288.87	1.50271
1292.24	0.855062
1295.62	1.11984
1298.99	0.360751
