Measurement: Raman, 780 nm, unoriented, Raman Data Processed
Mineral: Robertsite
Rruff sample: R120040
Ideal chemistry: Ca_2_Mn^3+^_3_O_2_(PO_4_)_3_3H_2_O
Locality: Tip Top mine, Custer Co., South Dakota, USA
Source: Mark N. Feinglos
Description: Dark reddish brown plates on bobdownsite. This sample was used to determine the structure reported in Andrade et al (2012)
Measured chemistry: Ca_1.93_(Mn_2.92_Fe_0.07_)_Σ=2.99_O_1.84_(PO_4_)_3.04_·2.72H_2_O
Raman shift (cm-1)	intensity
106.549	0
109.924	1.70416
113.299	3.15598
116.674	4.68503
120.048	7.52365
123.423	13.6574
126.798	20.5571
130.173	24.1355
133.548	13.7049
136.923	7.2058
140.297	1.33325
143.672	1.33748
147.047	0.843933
150.422	3.56209
153.797	5.23042
157.171	12.8182
160.546	18.6707
163.921	23.8065
167.296	25.2323
170.671	24.8742
174.046	22.354
177.42	22.2405
180.795	22.718
184.17	25.837
187.545	25.2837
190.92	26.3489
194.294	28.1982
197.669	26.0887
201.044	19.524
204.419	15.9217
207.794	13.1013
211.168	15.2231
214.543	21.0339
217.918	28.4362
221.293	30.0519
224.668	30.3962
228.042	25.5925
231.417	21.0394
234.792	11.2226
238.167	5.65077
241.542	0.598114
244.917	0.783386
248.291	0.691864
251.666	1.26239
255.041	4.43178
258.416	11.2063
261.791	16.0807
265.166	18.6506
268.54	21.0567
271.915	27.5508
275.29	31.7529
278.665	41.6854
282.04	50.7174
285.414	63.513
288.789	70.7314
292.164	76.1212
295.539	76.0878
298.914	69.8979
302.288	65.0999
305.663	56.8485
309.038	52.3388
312.413	46.0849
315.788	43.0901
319.163	38.5413
322.537	34.5646
325.912	29.2968
329.287	25.507
332.662	20.2764
336.037	14.0679
339.411	8.7634
342.786	4.00859
346.161	2.82126
349.536	0.983826
352.911	3.08446
356.286	2.72455
359.66	0.715637
363.035	2.26077
366.41	7.34395
369.785	10.9547
373.16	18.3216
376.534	22.0248
379.909	28.1837
383.284	31.4453
386.659	33.3329
390.034	32.9174
393.409	30.4797
396.783	26.4042
400.158	25.224
403.533	22.8361
406.908	21.4377
410.283	18.1666
413.658	13.9127
417.032	10.2694
420.407	9.74414
423.782	9.45187
427.157	9.74374
430.532	7.15741
433.906	10.4039
437.281	9.26505
440.656	8.38996
444.031	8.78827
447.406	7.15598
450.781	6.69772
454.155	6.09642
457.53	4.91473
460.905	4.70672
464.28	3.66661
467.654	3.55712
471.029	3.40613
474.404	2.71615
477.779	2.72459
481.154	1.96421
484.529	5.24223
487.903	3.85751
491.278	4.62608
494.653	5.90151
498.028	5.52394
501.403	3.88957
504.777	3.50449
508.152	1.74631
511.527	0.420929
514.902	1.26376
518.277	1.3263
521.652	0.044861
525.026	1.74876
528.401	1.8205
531.776	0.009514
535.151	1.10714
538.526	3.18339
541.9	3.35239
545.275	5.82586
548.65	8.85986
552.025	10.1857
555.4	7.06825
558.775	7.89563
562.149	4.76153
565.524	3.65354
568.899	4.22492
572.274	1.96837
575.649	3.64934
579.024	2.03991
582.398	2.68208
585.773	3.72652
589.148	6.34747
592.523	12.9147
595.898	16.8086
599.272	25.2965
602.647	36.1264
606.022	48.4351
609.397	62.712
612.772	79.9576
616.146	94.7193
619.521	111.512
622.896	123.451
626.271	126.575
629.646	124.121
633.021	116.305
636.395	103.46
639.77	91.2453
643.145	73.9293
646.52	61.9241
649.895	50.8376
653.269	40.2415
656.644	32.585
660.019	27.3652
663.394	21.2287
666.769	17.7577
670.144	13.3009
673.518	10.604
676.893	7.67379
680.268	6.55053
683.643	5.57838
687.018	3.44762
690.393	1.23717
693.767	1.65084
697.142	0.022354
700.517	1.82205
703.892	0.412376
707.266	0.627136
710.641	0.140892
714.016	1.17
717.391	0.079071
720.766	0.561234
724.141	0.593086
727.515	0.04673
730.89	0.858513
734.265	2.526
737.64	1.25098
741.015	0.072678
744.389	2.58916
747.764	1.92803
751.139	0.301708
754.514	5.10639
757.889	1.88548
761.264	2.30837
764.638	1.49534
768.013	2.5399
771.388	3.24051
774.763	2.26248
778.138	1.60188
781.513	2.29727
784.887	2.60503
788.262	1.7452
791.637	2.82852
795.012	1.30912
798.387	2.37649
801.761	1.44832
805.136	2.00196
808.511	2.11704
811.886	2.58357
815.261	1.49902
818.635	1.14946
822.01	3.60942
825.385	1.15636
828.76	3.21179
832.135	1.80732
835.51	0.696064
838.884	2.32825
842.259	2.02466
845.634	1.27733
849.009	1.94149
852.384	3.31096
855.759	0.594498
859.133	1.00543
862.508	0.321053
865.883	0.103718
869.258	0.439896
872.633	0.598183
876.007	2.16903
879.382	0.045639
882.757	3.10197
886.132	1.70119
889.507	2.38919
892.881	2.32296
896.256	3.18613
899.631	5.13923
903.006	4.34427
906.381	3.86548
909.756	5.93591
913.13	7.27801
916.505	10.1696
919.88	10.1626
923.255	10.745
926.63	12.425
930.005	14.7748
933.379	16.5
936.754	17.3708
940.129	20.2188
943.504	19.6224
946.879	19.7692
950.253	19.3156
953.628	20.7531
957.003	18.7666
960.378	16.1255
963.753	15.0388
967.127	11.8967
970.502	11.4707
973.877	10.4673
977.252	8.40353
980.627	7.44193
984.001	6.1415
987.376	3.53525
990.751	3.12344
994.126	0.211189
997.501	0.29351
1000.88	0.06337
1004.25	0.325966
1007.62	0.41555
1011	1.4859
1014.38	4.57928
1017.75	5.03748
1021.12	9.62107
1024.5	11.2545
1027.87	12.6959
1031.25	15.2929
1034.62	16.7153
1038	13.8316
1041.37	12.2156
1044.75	12.3702
1048.12	9.26785
1051.5	5.87482
1054.87	7.21059
1058.25	4.02314
1061.62	1.91843
1065	1.58691
1068.37	1.56715
1071.75	0.63018
1075.12	1.00497
1078.5	1.58337
1081.87	0.447929
1085.25	0.519638
1088.62	1.0291
1092	1.63199
1095.37	3.58572
1098.74	5.06784
1102.12	7.79481
1105.49	6.32597
1108.87	7.70319
1112.24	5.58849
1115.62	3.87886
1118.99	6.27773
1122.37	5.99955
1125.74	8.1184
1129.12	8.92034
1132.49	10.6698
1135.87	12.9495
1139.24	16.7048
1142.62	21.9561
1145.99	26.1756
1149.37	31.5024
1152.74	36.2217
1156.12	42.2855
1159.49	47.0402
1162.87	53.1468
1166.24	61.7307
1169.62	73.5757
1172.99	89.4427
1176.37	106.107
1179.74	127.302
1183.12	146.22
1186.49	168.552
1189.87	172.108
1193.24	149.396
1196.62	106.928
1199.99	74.1879
1203.37	49.5148
1206.74	32.7386
1210.11	20.9943
1213.49	14.2382
1216.86	10.3005
1220.24	6.53815
1223.61	2.79101
1226.99	3.62314
1230.36	0.984726
1233.74	0.939911
1237.11	0.243408
1240.49	0.315613
1243.86	1.09607
1247.24	0.031837
1250.61	0.420525
1253.99	1.06334
1257.36	1.89254
1260.74	1.08086
1264.11	1.73184
1267.49	3.7627
1270.86	1.54765
1274.24	1.87962
1277.61	3.17658
1280.98	0.845924
1284.36	0.004559
