Measurement: Raman, 785 nm, unoriented, Raman Data Processed
Mineral: Rodalquilarite
Rruff sample: R061063
Ideal chemistry: H_3_Fe^3+^_2_(Te^4+^O_3_)_4_Cl
Locality: Wendy open pit, Tambo mine, El Indio deposit, Elqui Province, Coquimbo Region, Chile
Source: Bob Jenkins
Description: Grass bladed crystals on quartz found with alunite
Raman shift (cm-1)	intensity
133.581	0
136.474	1044.68
139.366	3945.97
142.259	5128.65
145.152	2179.75
148.044	1124.2
150.937	470.732
153.83	97.3457
156.723	-32.8473
159.615	47.2735
162.508	387.805
165.401	1090.83
168.293	2215.59
171.186	3945.58
174.079	5870.47
176.971	7287.49
179.864	6519.31
182.757	5667.99
185.65	5902.24
188.542	6575.67
191.435	6191.64
194.328	5521.12
197.22	5878.99
200.113	6199.93
203.006	4870.13
205.899	3792.06
208.791	3370.41
211.684	2363.58
214.577	1078.83
217.469	457.688
220.362	530.582
223.255	1318.4
226.147	2502.75
229.04	3892.95
231.933	4382.94
234.826	3276.18
237.718	1638.86
240.611	564.533
243.504	44.3931
246.396	35.5547
249.289	431.539
252.182	1511.76
255.074	2852.72
257.967	3623.56
260.86	2591.79
263.752	855.002
266.645	121.66
269.538	-53.5173
272.431	100.181
275.323	527.283
278.216	984.829
281.109	785.014
284.001	233.94
286.894	9.40527
289.787	23.4111
292.68	250.503
295.572	768.579
298.465	1668.65
301.358	3274.12
304.25	5745.21
307.143	9094.89
310.036	12563.4
312.928	14399.1
315.821	14548.2
318.714	14130.1
321.606	12888.3
324.499	10828.2
327.392	8857.49
330.285	8316.5
333.177	9802.96
336.07	13952.4
338.963	19882.3
341.855	24635.8
344.748	22502.7
347.641	14106.6
350.534	7315.46
353.426	3782.98
356.319	1902.76
359.212	800.454
362.104	236.957
364.997	40.9878
367.89	-51.3428
370.782	-32.6173
373.675	109.152
376.568	332.249
379.461	858.137
382.353	1417.65
385.246	2257.54
388.139	3290.45
391.031	4661.77
393.924	6371.46
396.817	8046.67
399.709	9764.32
402.602	11530.1
405.495	13867.8
408.387	16023
411.28	16425.9
414.173	13528.8
417.066	8879.56
419.958	5369.08
422.851	3256.48
425.744	1941.81
428.636	1256.37
431.529	1068.67
434.422	1211.76
437.315	1749.16
440.207	2472.41
443.1	3122.56
445.993	3525.77
448.885	3378.65
451.778	2765.92
454.671	2157.65
457.563	1786.51
460.456	1716.82
463.349	1922.74
466.241	2311.47
469.134	2587.86
472.027	2523.89
474.92	2024.87
477.812	1466.27
480.705	1010.51
483.598	729.009
486.49	508.752
489.383	386.209
492.276	287.916
495.168	167.407
498.061	76.7295
500.954	63.2637
503.847	40.7524
506.739	1.94629
509.632	1.4375
512.525	11.104
515.417	38.8618
518.31	7.44922
521.203	27.6509
524.096	42.9883
526.988	38.9429
529.881	55.2803
532.774	34.9023
535.666	69.0542
538.559	52.0386
541.452	74.1836
544.344	64.7915
547.237	7.39893
550.13	62.5273
553.023	4.67383
555.915	3.98584
558.808	32.1758
561.701	68.6357
564.593	103.597
567.486	149.625
570.379	246.277
573.271	301.986
576.164	425.897
579.057	635.132
581.949	865.587
584.842	1220.06
587.735	1665.13
590.628	2453.07
593.52	3698.56
596.413	5631.78
599.306	9020.85
602.198	14459.7
605.091	22185.7
607.984	29974.6
610.876	32920.6
613.769	26068.3
616.662	17095.1
619.555	11720
622.447	9388.74
625.34	8954.95
628.233	9430.94
631.125	10837.5
634.018	12627.9
636.911	14342.4
639.803	15404.9
642.696	15242.6
645.589	14067.3
648.482	12428.3
651.374	11279.8
654.267	10513.8
657.16	9779.55
660.052	8781.13
662.945	7439.8
665.838	6086.35
668.731	4894.61
671.623	3720.44
674.516	2843.68
677.409	2091.1
680.301	1355.17
683.194	877.729
686.087	426.301
688.979	174.266
691.872	61.3412
694.765	-13.5488
697.658	-42.9862
700.55	-14.9834
703.443	28.744
706.336	110.685
709.228	265.339
712.121	574.917
715.014	871.738
717.906	1218.23
720.799	1576.77
723.692	1868.16
726.585	1926.31
729.477	2112.95
732.37	2176.11
735.263	2332.1
738.155	2536.89
741.048	2853.86
743.941	3099.53
746.833	3512.76
749.726	3683.71
752.619	3945.92
755.511	4019.27
758.404	4126.29
761.297	4271.22
764.19	4473.31
767.082	4820.07
769.975	5366.49
772.868	6047.2
775.76	6700.2
778.653	7066.52
781.546	6925.49
784.438	6199.26
787.331	5053.89
790.224	3865.06
793.117	2876.55
796.009	2130.26
798.902	1542.45
801.795	1109.72
804.687	829.703
807.58	630.424
810.473	436.791
813.365	272.229
816.258	176.16
819.151	82.4744
822.044	23.0835
824.936	37.0767
827.829	30.001
830.722	37.2017
833.614	56.0449
836.507	23.4233
839.4	40.0933
842.293	12.9143
845.185	34.1106
848.078	1.20019
850.971	40.6086
853.863	40.2527
856.756	78.0129
859.649	104.284
862.541	102.897
865.434	105.181
868.327	124.204
871.22	164.316
874.112	180.708
877.005	197.955
879.898	225.374
882.79	250.8
885.683	182.215
888.576	189.222
891.468	196.172
894.361	210.276
897.254	201.385
900.146	146.248
903.039	136.7
905.932	146.862
908.825	123.186
911.717	156.898
914.61	121.651
917.503	123.46
920.395	113.651
923.288	112.467
926.181	100.524
929.073	102.858
931.966	114.13
934.859	126.361
937.751	112.707
940.644	84.7087
943.537	103.439
946.43	93.2839
949.322	46.417
952.215	65.0344
955.108	11.1338
958	45.4456
960.893	17.8721
963.786	14.7872
966.678	36.0221
969.571	5.9209
972.464	40.0629
975.357	41.8886
978.249	26.6916
981.142	6.80664
984.035	2.05347
986.927	45.7938
989.82	10.8385
992.713	10.9034
995.606	18.523
998.498	7.99341
1001.39	25.3147
1004.28	47.0834
1007.18	4.05542
1010.07	6.61633
1012.96	10.1522
1015.85	22.8909
1018.75	10.2424
1021.64	10.5128
1024.53	48.8152
1027.42	27.0897
1030.32	36.5994
1033.21	34.0693
1036.1	7.82678
1039	42.1892
1041.89	13.7014
1044.78	10.7756
1047.67	36.3632
1050.57	21.7106
1053.46	37.8066
1056.35	21.7138
1059.24	11.9038
1062.14	38.5107
1065.03	14.9261
1067.92	4.85388
1070.82	26.9419
1073.71	2.02429
1076.6	23.2593
1079.49	23.1688
1082.39	56.2239
1085.28	20.2955
1088.17	14.3201
1091.07	29.2285
1093.96	22.6716
1096.85	5.02136
1099.74	35.1654
1102.63	29.2961
1105.53	60.0903
1108.42	29.2474
1111.31	53.2281
1114.21	24.8787
1117.1	32.7015
1119.99	46.3007
1122.88	61.8904
1125.78	37.7653
1128.67	20.4568
1131.56	8.65247
1134.45	6.5481
1137.35	4.03015
1140.24	7.85168
1143.13	8.6543
1146.03	20.8383
1148.92	31.6378
1151.81	2.32556
1154.7	48.7473
1157.6	9.729
1160.49	30.4432
1163.38	48.5425
1166.28	59.4755
1169.17	8.27979
1172.06	37.2164
1174.95	45.2513
1177.85	52.8533
1180.74	44.9059
1183.63	55.2123
1186.52	86.2396
1189.42	57.6379
1192.31	89.6499
1195.2	117.825
1198.09	172.074
1200.99	232.59
1203.88	310.92
1206.77	316.523
1209.66	289.476
1212.56	204.303
1215.45	161.255
1218.34	112.311
1221.24	81.1086
1224.13	78.3921
1227.02	49.2032
1229.91	45.0717
1232.81	35.4116
1235.7	20.0431
1238.59	16.809
1241.48	31.0837
1244.38	28.399
1247.27	51.5952
1250.16	44.2408
1253.06	13.4651
1255.95	44.2188
1258.84	7.38208
1261.73	53.9254
1264.63	14.8998
