Measurement: Raman, 532 nm, unoriented, Raman Data Processed
Mineral: Rodalquilarite
Rruff sample: R061063
Ideal chemistry: H_3_Fe^3+^_2_(Te^4+^O_3_)_4_Cl
Locality: Wendy open pit, Tambo mine, El Indio deposit, Elqui Province, Coquimbo Region, Chile
Source: Bob Jenkins
Description: Grass bladed crystals on quartz found with alunite
Raman shift (cm-1)	intensity
124.897	0
128.272	1421.85
131.647	7017.2
135.021	15072.4
138.396	24003.2
141.771	28937.2
145.146	9610.41
148.521	1727.33
151.895	307.876
155.27	108.233
158.645	436.229
162.02	1586.91
165.395	4326.17
168.769	9061.91
172.144	15207.6
175.519	21131.2
178.894	23223.5
182.269	19930.4
185.644	21401.7
189.018	26163.8
192.393	24043.9
195.768	16923.7
199.143	13618.2
202.518	10314.2
205.893	6644.12
209.267	5361.52
212.642	3446.52
216.017	1149.18
219.392	818.271
222.767	2100.94
226.141	4499.27
229.516	6975.13
232.891	7670.23
236.266	4919.3
239.641	1785.15
243.015	216.819
246.39	35.9813
249.765	203.157
253.14	1206.04
256.515	2422.59
259.889	2614.1
263.264	554.45
266.639	23.5813
270.014	172.164
273.389	1154.53
276.764	2690.37
280.138	3294.44
283.513	1927.68
286.888	913.412
290.263	1388.39
293.638	3017.82
297.012	5945.03
300.387	11802.5
303.762	21145.4
307.137	32482.7
310.512	43428.7
313.887	45860.7
317.261	39673.4
320.636	32956.1
324.011	25663
327.386	19098.4
330.761	16281.8
334.135	18794.9
337.51	24403.6
340.885	30610.5
344.26	31838.1
347.635	20585.4
351.01	9105.47
354.384	3373.82
357.759	985.562
361.134	277.76
364.509	27.1058
367.884	92.0614
371.258	504.291
374.633	1475.89
378.008	3678.06
381.383	6999.24
384.758	11934.9
388.132	18998.6
391.507	28004.9
394.882	37717.1
398.257	47438.4
401.632	54892
405.007	58927.6
408.381	61462
411.756	58606.6
415.131	45149.9
418.506	27774.5
421.881	16348.1
425.255	10192.2
428.63	7596.82
432.005	7384.62
435.38	8856.01
438.755	11401.3
442.13	14482.8
445.504	16465.7
448.879	15854.2
452.254	13433.3
455.629	10785.7
459.004	9470.92
462.378	9735.37
465.753	11035.2
469.128	12485.9
472.503	12405.8
475.878	9933.49
479.252	6887.36
482.627	4710.85
486.002	3347.86
489.377	2193.83
492.752	1430.28
496.127	940.841
499.501	557.014
502.876	270.405
506.251	159.375
509.626	37.21
513.001	36.0469
516.375	23.4785
519.75	30.2725
523.125	130.269
526.5	108.961
529.875	205.745
533.25	277.365
536.624	384.046
539.999	274.869
543.374	252.135
546.749	213.9
550.124	183.196
553.498	78.7383
556.873	3.07227
560.248	227.25
563.623	333.607
566.998	553.501
570.372	863.148
573.747	1121.88
577.122	1441.31
580.497	2022.16
583.872	2899.01
587.246	4118.65
590.621	6035.28
593.996	9236.5
597.371	14237
600.746	21179.5
604.121	30608.9
607.495	41650.9
610.87	49137
614.245	43994.4
617.62	34621.4
620.995	32022.6
624.369	35307.7
627.744	42425.3
631.119	52162
634.494	62457.6
637.869	70527.9
641.244	74517.4
644.618	73449.1
647.993	68241.2
651.368	61375.6
654.743	55401.6
658.118	49592.7
661.492	42534.9
664.867	35308.2
668.242	28601.9
671.617	22589
674.992	17198.2
678.366	12487.4
681.741	8877.34
685.116	5858.34
688.491	3587.34
691.866	1774.49
695.241	822.681
698.615	345.005
701.99	110.166
705.365	-23.3964
708.74	-23.9975
712.115	163.692
715.489	505.046
718.864	979.708
722.239	1616.24
725.614	2090.48
728.989	2460.66
732.364	2798.76
735.738	3232.05
739.113	3825.22
742.488	4508.68
745.863	5336.72
749.238	5814.8
752.612	6209.28
755.987	6714.7
759.362	6709.17
762.737	6548.75
766.112	6527.39
769.486	6416.63
772.861	6364.46
776.236	6316.21
779.611	6045.1
782.986	5388.18
786.361	4501.79
789.735	3441.76
793.11	2498.39
796.485	1582.43
799.86	880.477
803.235	441.639
806.609	144.701
809.984	52.7842
813.359	58.7842
816.734	65.4102
820.109	23.8701
823.484	25.2871
826.858	57.9512
830.233	19.749
833.608	32.7178
836.983	9.53125
840.358	90.1816
843.732	37.7412
847.107	93.5166
850.482	87.439
853.857	86.5044
857.232	117.662
860.606	211.889
863.981	231.691
867.356	267.201
870.731	179.06
874.106	194.066
877.481	240.997
880.855	247.899
884.23	242.315
887.605	358.325
890.98	353.033
894.355	362.087
897.729	325.89
901.104	281.231
904.479	287.325
907.854	316.981
911.229	252.586
914.604	257.716
917.978	263.421
921.353	233.963
924.728	233.763
928.103	271.835
931.478	206.351
934.852	204.539
938.227	211.084
941.602	275.445
944.977	161.216
948.352	59.1509
951.726	73.3481
955.101	22.6919
958.476	56.3198
961.851	34.7334
965.226	21.4893
968.601	54.106
971.975	18.8516
975.35	143.614
978.725	43.2954
982.1	113.639
985.475	66.2812
988.849	22.5005
992.224	65.5376
995.599	11.7744
998.974	34.5732
1002.35	80.646
1005.72	37.519
1009.1	4.25293
1012.47	17.9507
1015.85	5.29981
1019.22	27.356
1022.6	51.7075
1025.97	50.2905
1029.35	93.5317
1032.72	67.394
1036.1	71.3955
1039.47	95.522
1042.85	113.276
1046.22	91.9658
1049.6	68.7861
1052.97	93.7871
1056.35	109.063
1059.72	62.4351
1063.1	50.229
1066.47	34.5122
1069.85	47.2798
1073.22	23.0625
1076.6	1.49072
1079.97	34.2915
1083.34	7.83447
1086.72	45.7002
1090.09	10.8467
1093.47	35.6089
1096.84	94.0889
1100.22	59.9966
1103.59	127.341
1106.97	74.1943
1110.34	84.8218
1113.72	117.968
1117.09	71.8877
1120.47	44.3589
1123.84	72.6167
1127.22	142.864
1130.59	147.365
1133.97	134.933
1137.34	95.499
1140.72	107.425
1144.09	100.863
1147.47	84.0474
1150.84	178.902
1154.21	196.397
1157.59	188.44
1160.96	170.579
1164.34	156.504
1167.71	181.539
1171.09	189.377
1174.46	287.42
1177.84	297.369
1181.21	340.81
1184.59	360.676
1187.96	371.698
1191.34	496.757
1194.71	602.71
1198.09	808.88
1201.46	1115.72
1204.84	1202.98
1208.21	1142.1
1211.59	951.646
1214.96	586.319
1218.34	368.166
1221.71	260.352
1225.09	154.788
1228.46	146.882
1231.84	90.3999
1235.21	105.136
1238.59	74.3091
1241.96	70.272
1245.34	50.7026
1248.71	76.5542
1252.09	19.4155
1255.46	67.5161
1258.84	52.3179
1262.21	6.71338
1265.58	21.5518
1268.96	100.409
1272.33	104.498
1275.71	72.7446
1279.08	15.0645
1282.46	95.9307
1285.83	73.9258
