Measurement: Raman, 780 nm, unoriented, Raman Data Processed
Mineral: Roeblingite
Rruff sample: R070713
Ideal chemistry: Pb_2_Ca_6_Mn^2+^(Si_3_O_9_)_2_(SO_4_)_2_(OH)_2_4H_2_O
Locality: Parker Shaft, Franklin mine, Franklin, Franklin Mining District, Sussex Co., New Jersey, USA
Source: Michael Scott
Description: Milky white massive fragment
Raman shift (cm-1)	intensity
105.06	0
108.435	178.124
111.81	264.248
115.184	379.028
118.559	300.801
121.934	460.703
125.309	520.784
128.684	65.0727
132.059	54.8479
135.433	209.718
138.808	139.456
142.183	129.314
145.558	195.658
148.933	280.778
152.307	581.486
155.682	1177.61
159.057	1896.55
162.432	2982.95
165.807	4561.62
169.181	3967.71
172.556	1867.18
175.931	888.809
179.306	836.066
182.681	473.116
186.055	176.007
189.43	58.4999
192.805	38.488
196.18	0.228149
199.555	84.1686
202.93	6.95056
206.304	167.355
209.679	430.562
213.054	694.746
216.429	1141.36
219.804	1469.94
223.179	901.713
226.553	434.636
229.928	325.829
233.303	203.336
236.678	62.7654
240.053	60.3117
243.427	138.304
246.802	219.417
250.177	125.909
253.552	40.3171
256.927	1.76782
260.301	17.4586
263.676	52.1969
267.051	125.63
270.426	283.904
273.801	457.069
277.176	517.215
280.55	505.633
283.925	682.049
287.3	968.435
290.675	1371.1
294.05	1556.04
297.425	1097.08
300.799	619.267
304.174	330.147
307.549	130.912
310.924	13.2827
314.299	25.4557
317.673	39.9153
321.048	186.311
324.423	311.112
327.798	379.3
331.173	383.359
334.548	418.934
337.922	252.179
341.297	55.2293
344.672	51.3737
348.047	53.0894
351.421	229.33
354.796	425.052
358.171	723.185
361.546	1045.49
364.921	1267.86
368.296	1200.12
371.67	1159.25
375.045	1397.75
378.42	1981.64
381.795	2843.17
385.17	3586.86
388.545	3858.99
391.919	3833.65
395.294	3592.04
398.669	2412.62
402.044	1111.49
405.419	358.383
408.793	27.4546
412.168	34.9102
415.543	58.7696
418.918	368.194
422.293	874.168
425.668	1245.32
429.042	916.948
432.417	387.686
435.792	226.235
439.167	400.276
442.542	515.448
445.916	555.014
449.291	384.313
452.666	209.008
456.041	188.858
459.416	403.456
462.791	550.2
466.165	604.029
469.54	608.048
472.915	470.516
476.29	221.555
479.665	61.6875
483.039	20.6912
486.414	115.065
489.789	257.351
493.164	252.441
496.539	153.461
499.913	70.7124
503.288	116.392
506.663	203.958
510.038	349.056
513.413	450.78
516.788	361.759
520.162	147.816
523.537	45.6998
526.912	25.0426
530.287	9.44604
533.662	22.4467
537.036	32.6725
540.411	25.6453
543.786	53.1428
547.161	88.77
550.536	186.11
553.91	267.702
557.285	277.307
560.66	214.81
564.035	174.085
567.41	122.541
570.785	82.3785
574.159	77.2721
577.534	97.2594
580.909	180.582
584.284	254.181
587.659	402.248
591.034	572.718
594.408	747.235
597.783	673.55
601.158	505.971
604.533	365.115
607.908	238.918
611.282	134.035
614.657	4.81177
618.032	28.6317
621.407	13.4598
624.782	117.836
628.157	276.006
631.531	363.086
634.906	177.375
638.281	8.01392
641.656	5.2558
645.031	72.8223
648.405	270.498
651.78	587.564
655.155	921.839
658.53	1393.46
661.905	2047.5
665.279	2812.45
668.654	2814.09
672.029	2296.08
675.404	2034.98
678.779	2252.12
682.154	3084.09
685.528	4861.83
688.903	7982.08
692.278	11758.9
695.653	11986.6
699.028	8381.82
702.403	4787.09
705.777	2480.39
709.152	1250.59
712.527	688.115
715.902	435.467
719.277	241.734
722.651	136.619
726.026	47.3162
729.401	7.7572
732.776	5.47156
736.151	22.4225
739.525	39.2867
742.9	83.9061
746.275	94.3109
749.65	135.881
753.025	162.784
756.399	229.231
759.774	193.805
763.149	162.954
766.524	133.937
769.899	60.023
773.274	32.6545
776.648	3.16559
780.023	6.50549
783.398	28.3537
786.773	6.75238
790.148	22.7543
793.523	7.64941
796.897	7.24927
800.272	3.14893
803.647	4.70703
807.022	7.20685
810.397	13.6237
813.771	62.6542
817.146	79.1556
820.521	142.98
823.896	255.725
827.271	344.393
830.645	398.751
834.02	287.332
837.395	195.556
840.77	149.598
844.145	76.2126
847.519	70.255
850.894	43.1464
854.269	88.9807
857.644	91.6028
861.019	290.741
864.394	161.977
867.768	104.52
871.143	85.6601
874.518	106.281
877.893	167.615
881.268	248.091
884.643	228.071
888.017	219.47
891.392	272.997
894.767	262.771
898.142	263.209
901.517	258.168
904.891	273.18
908.266	459.707
911.641	786.133
915.016	1124.84
918.391	1256.65
921.765	1059.2
925.14	728.183
928.515	423.891
931.89	247.78
935.265	130.885
938.64	41.7426
942.014	9.21155
945.389	40.0493
948.764	33.5247
952.139	11.2863
955.514	43.7796
958.889	18.8527
962.263	85.7964
965.638	258.875
969.013	603.181
972.388	1053.76
975.763	1256.16
979.137	1167.86
982.512	1320.62
985.887	1415.67
989.262	1239
992.637	1171.58
996.011	1760.29
999.386	3604.32
1002.76	5564.62
1006.14	3559.05
1009.51	1072.92
1012.89	289.786
1016.26	78.5364
1019.63	10.1132
1023.01	37.4675
1026.38	36.1203
1029.76	142.267
1033.13	253.168
1036.51	275.381
1039.88	236.121
1043.26	216.062
1046.63	391.384
1050.01	727.836
1053.38	755.628
1056.76	505.146
1060.13	333.912
1063.51	379.624
1066.88	610.432
1070.26	1032.66
1073.63	1644.2
1077.01	2111.5
1080.38	1817.19
1083.76	1155.47
1087.13	664.929
1090.51	345.791
1093.88	159.055
1097.26	114.871
1100.63	31.827
1104.01	44.1143
1107.38	67.4072
1110.76	111.973
1114.13	90.8847
1117.51	78.6332
1120.88	13.9083
1124.26	12.3239
1127.63	14.4523
1131	13.7833
1134.38	4.95691
1137.75	12.5119
1141.13	69.5666
1144.5	68.6812
1147.88	128.815
1151.25	217.952
1154.63	338.265
1158	517.494
1161.38	768.219
1164.75	1118.01
1168.13	1403.43
1171.5	1345.19
1174.88	1209.95
1178.25	1026.84
1181.63	781.193
1185	526.528
1188.38	389.009
1191.75	263.868
1195.13	195.65
1198.5	176.631
1201.88	175.267
1205.25	151.761
1208.62	104.805
1212	80.1184
1215.38	60.8384
1218.75	42.5394
1222.12	36.878
1225.5	13.5989
1228.87	27.957
1232.25	13.1569
1235.62	34.4266
1239	10.956
1242.37	31.9055
1245.75	18.7631
1249.12	7.47992
1252.5	0.655518
1255.87	18.2296
1259.25	15.6078
1262.62	2.16968
1266	6.90961
1269.37	16.0618
1272.75	14.0305
1276.12	0.583435
1279.5	3.13739
