Measurement: Raman, 780 nm, unoriented, Raman Data Processed
Mineral: Roeblingite
Rruff sample: R140328
Ideal chemistry: Pb_2_Ca_6_Mn^2+^(Si_3_O_9_)_2_(SO_4_)_2_(OH)_2_4H_2_O
Locality: LÃ¥ngban, Varmland, Sweden
Source: Benjamin N. Schumer
Description: Tabular, colorless crystals. Note that the label shows that this sample was misidentified as margarosanite
Raman shift (cm-1)	intensity
90.2353	0
93.6102	9.97311
96.985	1.30905
100.36	4.16007
103.735	33.7767
107.109	78.5384
110.484	145.693
113.859	94.5319
117.234	64.592
120.609	109.845
123.984	148.8
127.358	67.5045
130.733	47.8346
134.108	72.1238
137.483	137.397
140.858	226.423
144.232	243.329
147.607	338.77
150.982	202.772
154.357	86.755
157.732	70.3209
161.107	59.2612
164.481	16.0736
167.856	2.89566
171.231	1.2951
174.606	14.4653
177.981	26.0244
181.355	42.6091
184.73	60.7451
188.105	47.499
191.48	13.3121
194.855	3.92366
198.229	11.1476
201.604	4.52827
204.979	11.4954
208.354	29.5329
211.729	27.1204
215.103	6.90898
218.478	2.94791
221.853	15.5878
225.228	42.6231
228.603	52.2644
231.978	51.8224
235.352	67.2541
238.727	101.586
242.102	156.092
245.477	188.606
248.852	125.397
252.226	67.0667
255.601	51.1528
258.976	59.5487
262.351	89.413
265.726	126.608
269.101	175.804
272.475	227.608
275.85	217.179
279.225	166.216
282.6	147.231
285.975	159.983
289.349	192.604
292.724	233.988
296.099	240.939
299.474	189.733
302.849	120.734
306.224	60.1067
309.598	34.8533
312.973	39.6224
316.348	62.4647
319.723	91.8468
323.098	108.696
326.472	85.7957
329.847	53.3796
333.222	43.1525
336.597	35.0506
339.972	4.70406
343.346	15.3492
346.721	17.2391
350.096	7.76639
353.471	2.82314
356.846	11.1299
360.221	22.5519
363.595	53.6036
366.97	104.826
370.345	172.44
373.72	223.551
377.095	262.738
380.469	365.032
383.844	420.898
387.219	320.195
390.594	240.264
393.969	255.642
397.344	272.912
400.718	193.834
404.093	111.676
407.468	104.056
410.843	145.351
414.217	215.406
417.592	338.406
420.967	538.136
424.342	769.554
427.717	735.949
431.092	413.182
434.466	197.607
437.841	111.921
441.216	87.7463
444.591	92.7385
447.966	87.4956
451.341	79.228
454.715	101.184
458.09	147.972
461.465	211.737
464.84	261.434
468.215	311.228
471.589	244.319
474.964	107.186
478.339	35.0019
481.714	4.92038
485.089	8.40283
488.463	11.2734
491.838	6.21889
495.213	9.53783
498.588	32.0987
501.963	60.0581
505.337	107.382
508.712	171.623
512.087	246.076
515.462	199.43
518.837	77.6537
522.212	33.5111
525.586	17.3615
528.961	13.1178
532.336	10.4319
535.711	9.5699
539.086	8.24925
542.46	6.27182
545.835	2.15593
549.21	1.24941
552.585	0.248016
555.96	1.37973
559.335	2.30063
562.709	5.41063
566.084	6.5043
569.459	6.63889
572.834	4.03319
576.209	3.11191
579.583	1.32814
582.958	1.28123
586.333	1.69289
589.708	1.23262
593.083	2.61195
596.457	11.3805
599.832	25.642
603.207	45.0528
606.582	61.1089
609.957	56.6837
613.332	35.7342
616.706	21.0133
620.081	17.8965
623.456	26.6547
626.831	46.5953
630.206	63.1045
633.58	44.1917
636.955	15.4181
640.33	9.23915
643.705	19.0349
647.08	49.5796
650.455	110.055
653.829	181.318
657.204	297.351
660.579	496.596
663.954	732.497
667.329	638.277
670.703	314.687
674.078	153.827
677.453	73.9484
680.828	33.9892
684.203	15.4892
687.577	5.93495
690.952	1.66428
694.327	0.420151
697.702	2.19687
701.077	0.532944
704.452	0.990051
707.826	2.02846
711.201	5.11389
714.576	4.76521
717.951	4.64725
721.326	4.99994
724.7	5.49962
728.075	5.56947
731.45	7.41165
734.825	9.34061
738.2	14.2029
741.574	20.8903
744.949	34.8817
748.324	50.7705
751.699	56.0431
755.074	48.6024
758.449	41.1153
761.823	18.8069
765.198	6.27828
768.573	0.785965
771.948	0.592453
775.323	0.28949
778.697	0.212967
782.072	0.594093
785.447	1.10486
788.822	0.047462
792.197	0.38987
795.572	0.113342
798.946	0.165588
802.321	0.433907
805.696	1.69196
809.071	1.75388
812.446	2.86903
815.82	3.16806
819.195	5.08834
822.57	5.63734
825.945	6.06795
829.32	7.68118
832.694	9.04343
836.069	11.2006
839.444	14.7156
842.819	17.773
846.194	21.9142
849.569	26.9843
852.943	34.3686
856.318	32.8531
859.693	32.1189
863.068	26.8733
866.443	20.4762
869.817	15.778
873.192	14.5437
876.567	14.4312
879.942	17.1926
883.317	21.3509
886.692	26.0452
890.066	34.7931
893.441	42.5515
896.816	51.3374
900.191	37.2195
903.566	23.9375
906.94	27.9648
910.315	36.456
913.69	26.095
917.065	10.4887
920.44	3.58777
923.814	0.329865
927.189	1.00896
930.564	2.99535
933.939	3.61595
937.314	2.5211
940.689	0.329559
944.063	5.64668
947.438	15.054
950.813	25.5791
954.188	27.4054
957.563	25.4433
960.937	48.5832
964.312	86.2111
967.687	153.548
971.062	291.245
974.437	458.662
977.812	232.884
981.186	102.491
984.561	101.053
987.936	169.842
991.311	264.91
994.686	382.035
998.06	683.699
1001.43	1350.03
1004.81	1126.1
1008.18	265.029
1011.56	70.9958
1014.93	24.7545
1018.31	14.6193
1021.68	24.4328
1025.06	50.6758
1028.43	96.9863
1031.81	186.733
1035.18	246.405
1038.56	128.078
1041.93	88.6291
1045.31	107.264
1048.68	180.058
1052.06	244.157
1055.43	115.342
1058.81	32.0099
1062.18	4.7279
1065.56	3.67053
1068.93	3.46997
1072.31	0.284485
1075.68	10.0915
1079.06	24.4773
1082.43	46.8966
1085.81	84.0411
1089.18	77.1204
1092.56	55.3128
1095.93	30.4303
1099.31	16.3984
1102.68	13.3559
1106.05	14.1538
1109.43	15.8469
1112.8	11.6211
1116.18	6.51439
1119.55	0.937134
1122.93	0.768906
1126.3	0.594925
1129.68	2.81168
1133.05	0.062683
1136.43	2.04063
1139.8	5.34421
1143.18	7.46782
1146.55	12.7369
1149.93	17.4082
1153.3	26.3984
1156.68	40.8289
1160.05	57.1749
1163.43	79.2974
1166.8	99.9506
1170.18	77.4566
1173.55	43.3097
1176.93	25.9297
1180.3	15.7887
1183.67	10.2952
1187.05	6.70764
1190.42	5.7108
1193.8	2.79921
1197.17	2.57063
1200.55	7.06842
1203.92	1.36543
1207.3	2.2728
1210.67	0.556595
1214.05	1.88495
1217.42	1.35289
1220.8	1.33621
1224.17	1.86871
1227.55	0.705078
1230.92	0.280289
1234.3	0.356445
1237.67	0.074768
1241.05	1.63377
1244.42	0.532883
1247.8	3.10191
1251.17	0.973831
1254.55	0.953857
1257.92	1.10359
1261.3	1.44121
1264.67	1.17331
1268.05	1.78426
1271.42	0.184402
1274.8	0.130524
1278.17	1.72002
1281.55	0.499985
