Measurement: Raman, 532 nm, unoriented, Raman Data Processed
Mineral: Roeblingite
Rruff sample: R070713
Ideal chemistry: Pb_2_Ca_6_Mn^2+^(Si_3_O_9_)_2_(SO_4_)_2_(OH)_2_4H_2_O
Locality: Parker Shaft, Franklin mine, Franklin, Franklin Mining District, Sussex Co., New Jersey, USA
Source: Michael Scott
Description: Milky white massive fragment
Raman shift (cm-1)	intensity
141.822	0
144.715	12.1832
147.608	4.11316
150.501	14.3652
153.393	69.2882
156.286	129.787
159.179	244.046
162.071	359.23
164.964	594.466
167.857	500.546
170.75	196.496
173.642	126.308
176.535	196.588
179.428	258.549
182.32	139.111
185.213	72.2825
188.106	55.7521
190.998	135.066
193.891	110.52
196.784	4.90295
199.677	17.3475
202.569	3.41663
205.462	58.0626
208.355	122.758
211.247	177.385
214.14	214.273
217.033	356.026
219.925	303.95
222.818	171.736
225.711	85.0853
228.603	83.0061
231.496	75.7692
234.389	51.2073
237.282	20.9791
240.174	56.4012
243.067	108.22
245.96	80.4089
248.852	65.5819
251.745	31.3232
254.638	3.2207
257.531	10.7384
260.423	37.179
263.316	2.32886
266.209	57.2804
269.101	97.4518
271.994	127.173
274.887	154.86
277.779	178.738
280.672	193.268
283.565	264.346
286.457	373.891
289.35	564.768
292.243	660.15
295.136	495.187
298.028	296.587
300.921	214.555
303.814	130.819
306.706	64.358
309.599	34.6704
312.492	18.6287
315.385	14.3606
318.277	49.7687
321.17	94.728
324.063	110.389
326.955	175.03
329.848	198.833
332.741	217.003
335.633	141.55
338.526	53.4712
341.419	0.325073
344.312	2.17163
347.204	32.599
350.097	17.3016
352.99	55.4554
355.882	72.7035
358.775	130.449
361.668	130.35
364.56	189.46
367.453	218.984
370.346	265.795
373.238	431.128
376.131	604.517
379.024	796.015
381.917	963.815
384.809	1153.06
387.702	1231.51
390.595	1115.23
393.487	1040.93
396.38	826.116
399.273	469.188
402.166	225.693
405.058	77.243
407.951	22.5227
410.844	28.6143
413.736	73.2253
416.629	116.497
419.522	262.219
422.414	420.982
425.307	480.139
428.2	334.437
431.092	185.719
433.985	114.547
436.878	174.907
439.771	200.658
442.663	261.513
445.556	260.373
448.449	248.077
451.341	206.523
454.234	318.772
457.127	471.856
460.019	485.12
462.912	406.68
465.805	378.685
468.697	342.32
471.59	320.884
474.483	155.295
477.376	62.8027
480.268	2.18164
483.161	6.73291
486.054	7.5354
488.946	9.08594
491.839	61.1853
494.732	15.1626
497.625	14.1348
500.517	54.8762
503.41	55.4197
506.303	116.385
509.195	148.445
512.088	234.284
514.981	204.318
517.873	140.649
520.766	51.2842
523.659	2.41455
526.552	2.86572
529.444	13.2598
532.337	29.5525
535.23	30.1738
538.122	22.1213
541.015	67.2488
543.908	35.407
546.8	52.5938
549.693	91.1047
552.586	142.671
555.479	157.771
558.371	140.435
561.264	109.818
564.157	73.9734
567.049	63.9683
569.942	17.4231
572.835	0.453125
575.727	22.866
578.62	79.4651
581.513	56.2835
584.405	48.6687
587.298	78.2871
590.191	136.061
593.084	141.541
595.976	203.134
598.869	131.774
601.762	134.837
604.654	67.1274
607.547	49.0249
610.44	44.7725
613.332	40.845
616.225	10.0505
619.118	44.8589
622.011	61.2856
624.903	99.8474
627.796	159.654
630.689	144.866
633.581	141.974
636.474	34.2649
639.367	12.7529
642.26	19.2827
645.152	5.84106
648.045	83.8828
650.938	138.659
653.83	269.06
656.723	360
659.616	502.194
662.508	817.697
665.401	921.231
668.294	775.556
671.187	545.402
674.079	401.342
676.972	350.215
679.865	444.078
682.757	608.35
685.65	906.418
688.543	1462.27
691.435	2244.75
694.328	2308.1
697.221	1595.98
700.114	1000.48
703.006	540.807
705.899	330.5
708.792	198.144
711.684	152.387
714.577	107.645
717.47	96.4941
720.362	93.1177
723.255	42.4853
726.148	54.9956
729.04	16.0571
731.933	40.0366
734.826	3.85547
737.719	17.9302
740.611	18.2681
743.504	15.0591
746.397	75.3838
749.289	60.4233
752.182	222.037
755.075	112.902
757.967	105.666
760.86	21.5347
763.753	28.4556
766.646	48.2612
769.538	62.8232
772.431	1.91064
775.324	2.06201
778.216	43.9204
781.109	0.597168
784.002	58.4458
786.894	47.6641
789.787	48.2627
792.68	2.17676
795.573	20.4575
798.465	84.7803
801.358	81.9556
804.251	46.8603
807.143	100.505
810.036	11.8843
812.929	15.3213
815.822	31.4927
818.714	56.7534
821.607	13.4961
824.5	51.8765
827.392	60.769
830.285	64.7676
833.178	47.3599
836.07	3.63769
838.963	50.3852
841.856	71.5449
844.748	38.4585
847.641	60.5981
850.534	36.1274
853.427	44.1167
856.319	1.25049
859.212	42.4873
862.105	61.0786
864.997	66.7114
867.89	60.4927
870.783	53.022
873.675	5.03711
876.568	57.2222
879.461	90.9394
882.354	131.878
885.246	189.996
888.139	115.506
891.032	209.498
893.924	145.698
896.817	199.7
899.71	168.766
902.602	126.876
905.495	109.767
908.388	154.843
911.28	262.661
914.173	277.375
917.066	297.205
919.959	285.502
922.851	235.699
925.744	116.02
928.637	144.456
931.529	48.105
934.422	89.2393
937.315	14.374
940.207	21.5171
943.1	61.8828
945.993	34.6895
948.886	33.3516
951.778	53.3867
954.671	105.343
957.564	72.8838
960.456	90.4375
963.349	109.307
966.242	258.345
969.135	343.881
972.027	461.194
974.92	414.473
977.813	335.664
980.705	416.606
983.598	422.567
986.491	480.796
989.383	449.656
992.276	545.035
995.169	813.023
998.062	1501.15
1000.95	2392.25
1003.85	2224.39
1006.74	939.1
1009.63	268.618
1012.52	156.205
1015.42	71.9443
1018.31	36.6895
1021.2	12.3623
1024.1	12.2656
1026.99	10.5586
1029.88	43.8867
1032.77	148.968
1035.67	136.024
1038.56	122.558
1041.45	231.461
1044.35	100.67
1047.24	231.137
1050.13	321.724
1053.02	266.603
1055.92	175.683
1058.81	85.7647
1061.7	76.5
1064.59	92.5625
1067.49	193.723
1070.38	347.381
1073.27	437.761
1076.16	504.36
1079.06	478.427
1081.95	290.734
1084.84	202.512
1087.73	95.0303
1090.63	124.6
1093.52	16.5977
1096.41	29.5732
1099.31	26.8955
1102.2	35.834
1105.09	48.1338
1107.98	16.6406
1110.88	148.478
1113.77	142.644
1116.66	73.3193
1119.56	22.8564
1122.45	9.52539
1125.34	21.6191
1128.23	102.225
1131.13	44.085
1134.02	86.2998
1136.91	69.9863
1139.8	15.5078
1142.7	134.346
1145.59	29.5186
1148.48	166.753
1151.38	129.511
1154.27	227.549
1157.16	160.394
1160.05	333.217
1162.94	353.22
1165.84	501.381
1168.73	479.157
1171.62	430.885
1174.52	300.009
1177.41	262.578
1180.3	211.116
1183.19	156.575
1186.09	136.09
1188.98	145.717
1191.87	203.339
1194.77	64.9023
1197.66	75.1436
1200.55	184.254
1203.44	103.877
1206.34	34.0381
1209.23	105.243
1212.12	111.056
1215.01	49.1592
1217.91	10.2441
1220.8	79.3272
1223.69	85.2519
1226.59	25.5889
1229.48	66.5147
1232.37	17.334
1235.26	16.1582
1238.16	111.295
1241.05	169.859
1243.94	131.428
1246.83	106.836
1249.73	56.7852
1252.62	152.281
1255.51	117.269
1258.4	133.99
1261.3	208.539
1264.19	142.412
1267.08	134.387
1269.97	121.969
1272.87	150.488
1275.76	143.147
1278.65	0.464844
1281.55	41.9629
1284.44	95.2109
1287.33	96.4238
1290.22	106.08
1293.12	26.002
1296.01	89.75
