Measurement: Raman, 532 nm, unoriented, Raman Data Processed
Mineral: Roeblingite
Rruff sample: R140328
Ideal chemistry: Pb_2_Ca_6_Mn^2+^(Si_3_O_9_)_2_(SO_4_)_2_(OH)_2_4H_2_O
Locality: LÃ¥ngban, Varmland, Sweden
Source: Benjamin N. Schumer
Description: Tabular, colorless crystals. Note that the label shows that this sample was misidentified as margarosanite
Raman shift (cm-1)	intensity
189.16	0
192.053	30.9954
194.945	17.6803
197.838	2.42685
200.731	18.8218
203.623	68.4816
206.516	116.452
209.409	135.666
212.301	117.382
215.194	79.8578
218.087	69.34
220.98	83.2111
223.872	110.954
226.765	142.808
229.658	135.325
232.55	105.413
235.443	88.9506
238.336	99.3129
241.228	119.878
244.121	144.582
247.014	148.963
249.906	97.1846
252.799	56.272
255.692	32.8137
258.585	26.2304
261.477	27.3978
264.37	35.0382
267.263	51.2169
270.155	78.1562
273.048	109.226
275.941	125.786
278.834	134.501
281.726	153.739
284.619	190.72
287.512	259.232
290.404	328.694
293.297	412.705
296.19	434.507
299.082	312.74
301.975	174.817
304.868	86.7158
307.76	32.3644
310.653	18.488
313.546	23.4056
316.439	41.6938
319.331	74.3029
322.224	104.927
325.117	114.155
328.009	95.0031
330.902	73.4008
333.795	76.9039
336.688	82.683
339.58	43.9076
342.473	2.32013
345.366	21.47
348.258	16.9473
351.151	7.09094
354.044	5.95483
356.936	22.7374
359.829	40.6977
362.722	89.1299
365.615	183.718
368.507	333.573
371.4	514.211
374.293	668.88
377.185	796.079
380.078	1029.32
382.971	1251.67
385.863	1130.88
388.756	689.923
391.649	369.152
394.541	235.869
397.434	187.434
400.327	124.865
403.22	52.1456
406.112	11.5802
409.005	6.75134
411.898	27.3635
414.79	64.2809
417.683	121.29
420.576	209.101
423.469	337.585
426.361	422.599
429.254	356.192
432.147	188.853
435.039	94.3007
437.932	55.2205
440.825	48.7949
443.717	57.9731
446.61	71.9356
449.503	78.0987
452.396	86.7744
455.288	123.021
458.181	194.035
461.074	270.645
463.966	308.505
466.859	305.035
469.752	301.689
472.644	221.967
475.537	117.213
478.43	57.8135
481.322	21.1711
484.215	0.280884
487.108	7.38623
490.001	10.485
492.893	6.34729
495.786	2.75977
498.679	7.49963
501.571	25.2817
504.464	45.5381
507.357	79.7441
510.25	121.967
513.142	153.18
516.035	131.754
518.928	65.2899
521.82	46.267
524.713	38.8627
527.606	37.9629
530.498	35.9503
533.391	39.9949
536.284	43.7495
539.177	43.5818
542.069	38.197
544.962	26.3395
547.855	24.7487
550.747	16.2122
553.64	21.2505
556.533	17.2377
559.425	26.0696
562.318	27.5747
565.211	29.3077
568.104	32.2413
570.996	37.7119
573.889	29.6995
576.782	24.9303
579.674	17.0276
582.567	20.1553
585.46	17.4852
588.352	14.1556
591.245	17.3685
594.138	27.2681
597.03	38.7599
599.923	56.8965
602.816	71.9167
605.709	91.2227
608.601	89.8157
611.494	62.8601
614.387	31.0454
617.279	14.074
620.172	9.29834
623.065	3.36108
625.957	6.50732
628.85	15.2449
631.743	16.8838
634.636	9.31885
637.528	4.23999
640.421	13.0403
643.314	7.9126
646.206	9.14111
649.099	39.1355
651.992	85.5559
654.885	165.256
657.777	256.525
660.67	410.187
663.563	613.772
666.455	706.238
669.348	491.762
672.241	258.082
675.133	143.091
678.026	76.0303
680.919	46.168
683.812	22.2905
686.704	15.7346
689.597	18.45
692.49	22.3142
695.382	11.6299
698.275	9.26392
701.168	0.237061
704.06	2.7478
706.953	10.9836
709.846	12.637
712.739	12.4526
715.631	14.0002
718.524	15.2354
721.417	18.5947
724.309	18.3555
727.202	15.418
730.095	13.4438
732.987	18.2539
735.88	26.3193
738.773	27.6064
741.665	36.0076
744.558	61.385
747.451	90.4717
750.344	108.141
753.236	107.069
756.129	95.0305
759.022	90.1067
761.914	49.6208
764.807	22.5593
767.7	10.9917
770.592	8.58643
773.485	13.7537
776.378	9.40601
779.271	10.3027
782.163	5.54126
785.056	2.95679
787.949	8.46338
790.841	4.20361
793.734	8.54443
796.627	7.47266
799.519	5.29858
802.412	4.98755
805.305	2.12695
808.198	11.3916
811.09	1.70044
813.983	9.73852
816.876	3.71973
819.768	11.7515
822.661	22.3955
825.554	18.7825
828.447	16.7183
831.339	3.35693
834.232	10.0022
837.125	9.65845
840.017	22.9219
842.91	21.2876
845.803	25.148
848.695	20.6062
851.588	8.20361
854.481	18.8801
857.374	25.4268
860.266	25.0093
863.159	23.2695
866.052	20.0269
868.944	11.8184
871.837	8.08008
874.73	6.22754
877.622	6.30225
880.515	2.84033
883.408	7.18066
886.301	24.7148
889.193	46.9668
892.086	62.082
894.979	81.6055
897.871	97.7803
900.764	81.9595
903.657	58.5449
906.549	57.7402
909.442	80.9121
912.335	88.6133
915.227	59.9355
918.12	36.6572
921.013	22.8374
923.906	21.1055
926.798	11.0093
929.691	6.89209
932.584	1.18652
935.476	10.4731
938.369	2.29346
941.262	12.7998
944.154	8.86768
947.047	31.2251
949.94	52.2105
952.833	47.7754
955.725	16.4365
958.618	2.98877
961.511	19.6562
964.403	66.1865
967.296	89.2974
970.189	166.642
973.082	294.112
975.974	374.118
978.867	193.859
981.76	115.317
984.652	123.16
987.545	211.226
990.438	276.044
993.33	389.182
996.223	580.964
999.116	969.292
1002.01	1750.1
1004.9	1888.57
1007.79	630.524
1010.69	197.182
1013.58	74.3638
1016.47	36.1001
1019.37	22.6396
1022.26	15.7021
1025.15	29.8569
1028.04	78.8047
1030.94	110.987
1033.83	178.707
1036.72	197.062
1039.61	123.851
1042.51	147.908
1045.4	230.996
1048.29	350.084
1051.18	513.384
1054.08	487.825
1056.97	212.205
1059.86	51.9595
1062.76	34.1006
1065.65	3.09326
1068.54	13.1313
1071.43	2.08057
1074.33	8.76318
1077.22	5.68652
1080.11	14.1445
1083	53.6143
1085.9	107.561
1088.79	96.2085
1091.68	74.2656
1094.58	55.4453
1097.47	31.8203
1100.36	42.4683
1103.25	35.8154
1106.15	58.5781
1109.04	31.7602
1111.93	56.2778
1114.82	32.6089
1117.72	19.0146
1120.61	22.1328
1123.5	12.4131
1126.39	12.6079
1129.29	4.44922
1132.18	10.1309
1135.07	22.6895
1137.96	30.0615
1140.86	2.79053
1143.75	5.60938
1146.64	25.0957
1149.54	45.332
1152.43	39.419
1155.32	41.1455
1158.21	41.6797
1161.11	59.5752
1164	93.6963
1166.89	110.7
1169.79	92.7705
1172.68	83.1797
1175.57	66.2871
1178.46	47.8496
1181.36	49.3408
1184.25	26.3398
1187.14	5.06543
1190.03	21.2305
1192.93	5.89356
1195.82	34.166
1198.71	46.4697
1201.61	27.3086
1204.5	35.5654
1207.39	36.2529
1210.28	40.0527
1213.18	50.7783
1216.07	20.8086
1218.96	10.2256
1221.85	21.5713
1224.75	33.0322
1227.64	29.5586
1230.53	30.2988
1233.42	21.0898
1236.32	4.66309
1239.21	5.31934
1242.1	15.6934
1244.99	18.7803
1247.89	35.8818
1250.78	24.0898
1253.67	10.0928
1256.57	1.10547
1259.46	37.833
1262.35	68.7481
1265.24	29.0967
1268.14	51.7559
1271.03	35.8975
1273.92	25.6172
1276.82	10.1641
1279.71	16.9883
1282.6	27.8926
1285.49	24.3896
1288.39	17.7715
1291.28	13.3965
1294.17	22.6855
1297.06	7.77246
1299.96	0.046875
