Measurement: Raman, 780 nm, unoriented, Raman Data Processed
Mineral: Romeite
Rruff sample: R060323
Ideal chemistry: (Ca,Fe^2+^,Mn^2+^,Na)_2_(Sb^5+^,Ti^4+^)_2_O_6_(O,OH,F)
Locality: Praborna mine, Aosta Valley, St. Marcel, Italy
Source: Michael Scott
Description: Yellowish-brown octahedra, associated with red piemontite, R060905. Note that this is a fluorine rich phase.
Measured chemistry: dark: (Ca_1.44_[box]_0.25_Na_0.24_Fe^2+^_0.05_Mn^2+^_0.02_)_Σ=2_(Sb^5+^_1.74_Ti^4+^_0.26_)_Σ=2_O_6_(F_0.65_(OH)_0.35_)_Σ=1_ ; light: (Ca_1.33_[box]_0.32_Na_0.26_Fe^2+^_0.06_Mn^2+^_0.03_)_Σ=2_(Sb^5+^_1.90_Ti^4+^_0.10_)_Σ=2_O_6_(F_0.56_(OH)_0.44_)_Σ=1
Raman shift (cm-1)	intensity
108.407	0
111.782	0.665894
115.157	4.36407
118.532	10.0498
121.907	9.57196
125.281	14.4298
128.656	14.5189
132.031	8.22473
135.406	0.147766
138.781	0.829346
142.155	2.64215
145.53	2.57495
148.905	9.31964
152.28	13.7658
155.655	24.3857
159.03	33.3499
162.404	40.2802
165.779	49.8151
169.154	62.3486
172.529	77.7082
175.904	85.6536
179.278	92.6171
182.653	103.971
186.028	115.893
189.403	124.489
192.778	125.139
196.153	118.2
199.527	110.769
202.902	102.984
206.277	91.0462
209.652	77.3732
213.027	62.007
216.401	46.6521
219.776	35.0164
223.151	20.8431
226.526	17.1593
229.901	8.69662
233.275	3.1958
236.65	3.3169
240.025	7.17078
243.4	3.19901
246.775	0.194916
250.15	5.23392
253.524	23.2298
256.899	43.2645
260.274	75.1532
263.649	107.414
267.024	138.093
270.399	176.551
273.773	210.55
277.148	248.1
280.523	276.162
283.898	300.019
287.273	314.735
290.647	328.185
294.022	322.772
297.397	303.878
300.772	274.795
304.147	249
307.522	209.088
310.896	166.879
314.271	131.1
317.646	104.289
321.021	82.1113
324.396	71.1344
327.77	74.3646
331.145	71.7724
334.52	73.3259
337.895	78.6295
341.27	81.3396
344.644	83.0416
348.019	86.3385
351.394	83.4659
354.769	79.5583
358.144	71.1153
361.519	58.8389
364.893	42.974
368.268	25.2676
371.643	10.1484
375.018	0.291351
378.393	7.27322
381.767	6.18921
385.142	3.29565
388.517	0.401306
391.892	2.332
395.267	11.2549
398.642	12.5876
402.016	19.314
405.391	21.564
408.766	21.6547
412.141	19.3423
415.516	16.8339
418.89	14.5124
422.265	6.55548
425.64	9.5098
429.015	6.08661
432.39	1.55261
435.765	0.443634
439.139	2.83102
442.514	4.61209
445.889	4.31677
449.264	15.0234
452.639	29.0193
456.014	40.2669
459.388	51.4568
462.763	63.9454
466.138	77.8996
469.513	92.5482
472.887	99.7906
476.262	119.191
479.637	140.679
483.012	186.656
486.387	268.152
489.762	404.21
493.136	629.218
496.511	965.718
499.886	1429.37
503.261	1963.35
506.636	2470.89
510.01	2983.15
513.385	3426.44
516.76	3609.37
520.135	3117.36
523.51	2120.72
526.885	1305.81
530.259	849.009
533.634	571.573
537.009	376.938
540.384	233.373
543.759	130.131
547.134	68.3187
550.508	31.4028
553.883	10.035
557.258	0.859833
560.633	5.7962
564.008	10.4465
567.382	4.81116
570.757	0.611908
574.132	6.07767
577.507	20.8226
580.882	32.5649
584.256	46.5653
587.631	60.873
591.006	75.529
594.381	82.6843
597.756	88.6957
601.131	88.4227
604.505	83.0897
607.88	80.9658
611.255	75.5323
614.63	69.7687
618.005	60.1501
621.38	50.9759
624.754	37.7125
628.129	32.3907
631.504	28.7176
634.879	25.4134
638.254	24.0649
641.628	23.4201
645.003	21.8571
648.378	18.4254
651.753	19.0758
655.128	15.0412
658.503	16.4475
661.877	13.9125
665.252	9.14523
668.627	9.14832
672.002	6.45938
675.377	4.73633
678.751	4.49207
682.126	3.04059
685.501	0.745056
688.876	0.081146
692.251	1.09262
695.625	2.09958
699	1.60657
702.375	0.321808
705.75	1.05167
709.125	2.52963
712.5	1.51636
715.874	2.64075
719.249	2.19537
722.624	3.28571
725.999	1.96008
729.374	0.880066
732.749	0.456909
736.123	0.634888
739.498	0.431213
742.873	1.2045
746.248	1.50333
749.623	0.133057
752.997	0.851379
756.372	4.18201
759.747	3.15237
763.122	10.6558
766.497	15.6129
769.871	18.7943
773.246	23.6636
776.621	30.3143
779.996	37.4975
783.371	41.091
786.745	45.7834
790.12	48.9559
793.495	53.2762
796.87	60.8226
800.245	69.2561
803.62	77.6315
806.994	94.3924
810.369	107.737
813.744	114.113
817.119	121.962
820.494	113.46
823.869	105.18
827.243	87.1446
830.618	77.8474
833.993	62.9743
837.368	56.0944
840.743	47.9083
844.117	41.9588
847.492	40.8982
850.867	38.0655
854.242	37.6654
857.617	35.2701
860.991	28.1747
864.366	19.9282
867.741	11.561
871.116	6.28954
874.491	5.35754
877.866	2.23555
881.24	1.2829
884.615	3.26517
887.99	0.63681
891.365	0.335495
894.74	2.21295
898.115	1.61293
901.489	1.16879
904.864	3.90323
908.239	0.374496
911.614	3.06867
914.989	2.70283
918.363	1.12518
921.738	1.27567
925.113	0.918518
928.488	0.33847
931.863	0.383484
935.237	2.13048
938.612	2.92278
941.987	0.826447
945.362	1.31216
948.737	1.42935
952.112	3.09006
955.486	1.62091
958.861	3.86883
962.236	2.09604
965.611	1.20952
968.986	1.80254
972.361	4.6736
975.735	0.629395
979.11	1.25578
982.485	3.36534
985.86	3.33543
989.235	4.51028
992.609	6.0851
995.984	6.14893
999.359	9.93321
1002.73	9.31131
1006.11	11.458
1009.48	12.0175
1012.86	10.7657
1016.23	11.5091
1019.61	11.1556
1022.98	10.2164
1026.36	8.83287
1029.73	11.1361
1033.11	15.5747
1036.48	9.328
1039.86	7.50626
1043.23	7.48367
1046.61	5.0916
1049.98	5.80707
1053.36	1.29865
1056.73	0.256271
1060.11	0.684067
1063.48	2.78256
1066.86	1.37402
1070.23	0.455475
1073.61	0.570572
1076.98	1.97595
1080.36	0.415619
1083.73	0.458923
1087.1	1.92534
1090.48	5.60547
1093.85	4.45776
1097.23	2.73564
1100.6	6.54352
1103.98	6.71304
1107.35	7.22328
1110.73	8.44319
1114.1	7.87294
1117.48	6.8539
1120.85	6.60603
1124.23	5.94928
1127.6	2.0443
1130.98	2.83134
1134.35	1.68768
1137.73	3.43143
1141.1	3.36554
1144.48	4.43701
1147.85	5.00604
1151.23	6.9613
1154.6	8.48084
1157.97	5.54404
1161.35	5.11967
1164.72	6.22493
1168.1	4.04939
1171.47	5.37318
1174.85	3.82869
1178.22	3.22967
1181.6	0.958023
1184.97	2.44566
1188.35	0.38324
1191.72	0.41954
1195.1	1.41914
1198.47	1.79916
1201.85	1.72047
1205.22	0.667664
1208.6	2.15801
1211.97	0.386642
1215.35	4.26134
1218.72	0.558975
1222.1	2.03624
1225.47	5.24696
1228.85	0.990814
1232.22	1.57169
1235.6	2.92337
1238.97	2.91579
1242.35	3.09598
1245.72	3.92253
1249.1	1.30565
1252.47	1.82638
1255.85	1.3792
1259.22	4.36281
1262.6	5.36681
1265.97	1.0248
1269.34	3.53864
1272.72	3.96062
1276.09	1.06367
1279.47	2.02254
1282.84	2.00343
