Measurement: Raman, 532 nm, unoriented, Raman Data Processed
Mineral: Romeite
Rruff sample: R060323
Ideal chemistry: (Ca,Fe^2+^,Mn^2+^,Na)_2_(Sb^5+^,Ti^4+^)_2_O_6_(O,OH,F)
Locality: Praborna mine, Aosta Valley, St. Marcel, Italy
Source: Michael Scott
Description: Yellowish-brown octahedra, associated with red piemontite, R060905. Note that this is a fluorine rich phase.
Measured chemistry: dark: (Ca_1.44_[box]_0.25_Na_0.24_Fe^2+^_0.05_Mn^2+^_0.02_)_Σ=2_(Sb^5+^_1.74_Ti^4+^_0.26_)_Σ=2_O_6_(F_0.65_(OH)_0.35_)_Σ=1_ ; light: (Ca_1.33_[box]_0.32_Na_0.26_Fe^2+^_0.06_Mn^2+^_0.03_)_Σ=2_(Sb^5+^_1.90_Ti^4+^_0.10_)_Σ=2_O_6_(F_0.56_(OH)_0.44_)_Σ=1
Raman shift (cm-1)	intensity
172.452	0
175.345	5.52759
178.237	20.8112
181.13	44.3376
184.023	63.795
186.916	88.9019
189.808	103.302
192.701	111.593
195.594	114.146
198.486	119.399
201.379	119.333
204.272	114.581
207.164	103.562
210.057	97.3059
212.95	88.9907
215.843	73.5804
218.735	65.0983
221.628	52.6852
224.521	36.1497
227.413	33.5354
230.306	30.3533
233.199	23.6697
236.091	11.329
238.984	0.324219
241.877	5.0802
244.769	7.20117
247.662	9.11987
250.555	6.39954
253.448	10.2831
256.34	20.5079
259.233	37.4175
262.126	56.3535
265.018	75.4863
267.911	105.133
270.804	128.048
273.697	144.372
276.589	163.332
279.482	187.597
282.375	200.315
285.267	215.085
288.16	232.299
291.053	235.998
293.945	245.188
296.838	230.209
299.731	225.327
302.623	203.184
305.516	183.723
308.409	161.426
311.302	127.922
314.194	117.774
317.087	99.068
319.98	88.09
322.872	83.6238
325.765	77.1011
328.658	79.1912
331.55	81.7416
334.443	85.8784
337.336	97.4003
340.229	104.84
343.121	103.018
346.014	102.372
348.907	108.01
351.799	104.565
354.692	98.3049
357.585	85.7454
360.478	86.6533
363.37	60.9923
366.263	45.5527
369.156	27.5215
372.048	9.67786
374.941	2.02075
377.834	4.73413
380.726	5.34888
383.619	4.71021
386.512	0.164307
389.404	1.50977
392.297	2.9613
395.19	6.65991
398.083	15.2736
400.975	11.6686
403.868	16.9623
406.761	21.1461
409.653	22.8364
412.546	13.2096
415.439	17.1831
418.332	18.2052
421.224	5.05005
424.117	3.62219
427.01	1.78394
429.902	1.67432
432.795	2.99121
435.688	0.31543
438.58	0.940552
441.473	4.65857
444.366	7.41296
447.259	5.38916
450.151	14.8263
453.044	21.3013
455.937	33.173
458.829	47.1271
461.722	59.1105
464.615	74.5521
467.507	87.1561
470.4	99.5945
473.293	110.784
476.185	121.791
479.078	142.499
481.971	188.887
484.864	256.282
487.756	350.797
490.649	507.359
493.542	753.808
496.434	1101.51
499.327	1599.31
502.22	2221.43
505.113	2939.03
508.005	3688.01
510.898	4476.28
513.791	5203.68
516.683	5545.15
519.576	5062.09
522.469	3828.51
525.361	2595.58
528.254	1760.09
531.147	1234.03
534.04	892.348
536.932	639.11
539.825	437.732
542.718	282.92
545.61	174.067
548.503	108.356
551.396	62.251
554.288	31.4808
557.181	13.5795
560.074	5.96606
562.967	3.64307
565.859	8.67041
568.752	2.39673
571.645	3.6709
574.537	1.85181
577.43	5.32935
580.323	11.1945
583.216	22.1553
586.108	35.9804
589.001	51.3773
591.894	52.3156
594.786	56.2139
597.679	66.3585
600.572	66.1766
603.464	56.8969
606.357	61.3386
609.25	58.0184
612.142	57.6959
615.035	49.6317
617.928	39.9303
620.821	33.2325
623.713	29.7436
626.606	24.4999
629.499	21.6998
632.391	17.3041
635.284	18.5675
638.177	11.858
641.069	9.94934
643.962	6.99939
646.855	14.0793
649.747	14.0092
652.64	13.0627
655.533	18.6799
658.426	10.9999
661.318	10.7358
664.211	6.9447
667.104	0.147949
669.996	3.43799
672.889	7.17639
675.782	2.7135
678.674	1.0011
681.567	5.49646
684.46	8.39087
687.353	1.91419
690.245	1.84485
693.138	0.349854
696.031	0.958984
698.923	1.97839
701.816	5.44971
704.709	0.998291
707.601	6.05994
710.494	6.38953
713.387	11.0101
716.28	3.76721
719.172	3.51794
722.065	1.5592
724.958	2.07764
727.85	6.95764
730.743	0.447021
733.636	3.71924
736.529	1.41748
739.421	2.72009
742.314	6.21997
745.207	1.26562
748.099	1.71228
750.992	2.20361
753.885	8.23657
756.777	8.30603
759.67	13.9081
762.563	12.5045
765.456	22.9072
768.348	32.1614
771.241	37.4214
774.134	50.4793
777.026	53.1105
779.919	62.7931
782.812	65.8166
785.704	64.6593
788.597	65.6796
791.49	74.068
794.383	71.536
797.275	72.7507
800.168	83.8195
803.061	89.6762
805.953	103.704
808.846	113.153
811.739	127.919
814.631	129.002
817.524	131.247
820.417	126.31
823.309	122.164
826.202	104.803
829.095	86.4255
831.988	89.6769
834.88	66.3409
837.773	58.9425
840.666	47.7627
843.558	42.1538
846.451	43.9965
849.344	37.7776
852.236	35.4801
855.129	37.0464
858.022	39.2828
860.915	29.4646
863.807	15.244
866.7	11.2721
869.593	2.51868
872.485	5.13257
875.378	6.77808
878.271	8.57788
881.163	9.75183
884.056	1.07214
886.949	1.08997
889.842	0.214966
892.734	1.79639
895.627	0.865601
898.52	3.77954
901.412	1.12561
904.305	2.27637
907.198	2.86084
910.091	4.04004
912.983	5.44336
915.876	3.27917
918.769	2.9154
921.661	8.90808
924.554	5.49597
927.447	2.26575
930.339	2.6958
933.232	2.65405
936.125	0.45752
939.018	1.94702
941.91	4.12036
944.803	2.44812
947.696	3.57397
950.588	4.40613
953.481	5.42676
956.374	0.895752
959.266	6.76416
962.159	1.57312
965.052	0.683472
967.944	0.227905
970.837	0.394897
973.73	3.70764
976.623	6.95325
979.515	11.522
982.408	9.37158
985.301	10.6425
988.193	8.95618
991.086	14.0153
993.979	11.5316
996.871	10.9783
999.764	9.72217
1002.66	13.0604
1005.55	16.8564
1008.44	17.9003
1011.34	20.0712
1014.23	20.6401
1017.12	15.6096
1020.01	19.0194
1022.91	16.4416
1025.8	16.3517
1028.69	18.052
1031.58	13.9791
1034.48	18.0227
1037.37	11.2318
1040.26	10.5862
1043.15	6.74744
1046.05	7.32605
1048.94	8.42957
1051.83	7.80103
1054.73	3.13769
1057.62	12.4177
1060.51	5.83807
1063.4	0.380127
1066.3	0.170959
1069.19	1.71429
1072.08	1.20752
1074.97	0.197327
1077.87	0.699097
1080.76	4.0105
1083.65	3.15021
1086.55	4.03455
1089.44	0.731812
1092.33	5.45209
1095.22	8.83655
1098.12	5.31818
1101.01	9.9527
1103.9	7.86231
1106.79	14.6007
1109.69	12.2153
1112.58	13.2867
1115.47	15.0389
1118.37	10.2292
1121.26	8.85413
1124.15	7.01331
1127.04	0.383118
1129.94	8.5589
1132.83	4.10254
1135.72	4.30896
1138.61	7.16467
1141.51	6.57666
1144.4	8.81317
1147.29	6.99548
1150.18	10.4407
1153.08	9.48865
1155.97	7.1098
1158.86	8.57916
1161.76	8.78931
1164.65	7.93597
1167.54	7.55182
1170.43	5.15918
1173.33	6.41974
1176.22	5.6814
1179.11	16.6502
1182	2.75568
1184.9	4.02698
1187.79	3.44324
1190.68	1.23346
1193.58	1.89203
1196.47	0.984253
1199.36	5.20782
1202.25	3.30005
1205.15	0.289917
1208.04	2.77606
1210.93	8.7348
1213.82	3.33044
1216.72	2.74499
1219.61	2.04706
1222.5	2.2168
1225.39	6.20532
1228.29	4.02954
1231.18	8.71466
1234.07	7.51325
1236.97	2.68707
1239.86	9.57037
1242.75	5.68457
1245.64	8.70453
1248.54	6.47803
1251.43	17.2118
1254.32	11.3466
1257.21	9.17426
1260.11	5.18207
1263	6.56439
1265.89	4.25391
1268.79	10.4359
1271.68	6.8396
1274.57	5.60779
1277.46	5.18585
1280.36	3.94421
1283.25	1.21314
1286.14	2.68298
1289.03	1.68872
1291.93	0.871399
1294.82	1.70105
1297.71	3.48718
1300.61	5.34943
