Measurement: Raman, 532 nm, unoriented, Raman Data Processed
Mineral: Romeite
Rruff sample: R060736
Ideal chemistry: (Ca,Fe^2+^,Mn^2+^,Na)_2_(Sb^5+^,Ti^4+^)_2_O_6_(O,OH,F)
Locality: Le Cetine di Cotorniano, Chiusdino, Siena Province, Tuscany, Italy
Source: Michael Scott
Description: Brown octahedra associated with brizziite, R060611
Measured chemistry: dark core: (Ca_1.06_Na_0.70_Fe^2+^_0.18_Mg_0.06_)_Σ=2_Sb^5+^_2.00_O_6_((OH)_0.70_O_0.30_)_Σ=1_; trace amounts of F; OH estimated by charge balance; rim: (Na_1.10_Sb^3+^_0.64_Fe^3+^_0.10_Mg_0.07_Ca_0.06_Mn_0.02_Pb_0.01_)_Σ=2_Sb^5+^_2.00_O_6_(OH);
Raman shift (cm-1)	intensity
132.13	0
135.504	150.676
138.879	441.249
142.254	328.356
145.629	208.706
149.004	90.201
152.378	6.229
155.753	22.186
159.128	90.831
162.503	88.652
165.878	86.859
169.253	54.215
172.627	10.915
176.002	110.335
179.377	160.057
182.752	265.182
186.127	406.222
189.501	519.854
192.876	601.416
196.251	672.671
199.626	695.818
203.001	767.99
206.376	779.06
209.75	782.474
213.125	803.888
216.5	835.886
219.875	831.704
223.25	790.234
226.624	659.877
229.999	628.41
233.374	664.098
236.749	707.317
240.124	846.996
243.498	1029.54
246.873	1229.19
250.248	1428.31
253.623	1514.94
256.998	1633.31
260.372	1768.45
263.747	1892.05
267.122	1927.75
270.497	2042.94
273.872	2043.33
277.247	2159.56
280.621	2221.02
283.996	2388.97
287.371	2425.85
290.746	2484.36
294.121	2349.54
297.496	2268.66
300.87	2203.63
304.245	2143
307.62	2079.07
310.995	1965.73
314.37	1853.2
317.744	1657.3
321.119	1542.06
324.494	1310.93
327.869	1159.46
331.244	1015.66
334.618	770.764
337.993	545.58
341.368	429.049
344.743	226.519
348.118	74.988
351.492	-3.00194
354.867	5.04484
358.242	16.3836
361.617	34.1724
364.992	5.86418
368.366	23.9932
371.741	31.0149
375.116	-4.50951
378.491	10.5054
381.866	222.729
385.241	506.941
388.615	873.783
391.99	1171.16
395.365	1552.86
398.74	1897.12
402.115	2205.87
405.49	2570.68
408.864	2732.64
412.239	2844.41
415.614	2911.1
418.989	2846.3
422.364	2792.84
425.738	2642.04
429.113	2414.08
432.488	2331.84
435.863	2249.95
439.238	2239.07
442.612	2276.89
445.987	2418.51
449.362	2539
452.737	2808.29
456.112	2945.75
459.487	2994.56
462.861	2695.57
466.236	2725.01
469.611	2606.68
472.986	2724.52
476.361	3076.12
479.735	3728.71
483.11	4552.47
486.485	5997.73
489.86	7892.39
493.235	10433.1
496.609	13532.4
499.984	16659.4
503.359	19192.9
506.734	20317.9
510.109	19171.8
513.484	16789.8
516.858	14423.1
520.233	12533.8
523.608	10805.2
526.983	9475.97
530.358	8572.04
533.732	7935.11
537.107	7446.13
540.482	7044.82
543.857	6572.1
547.232	5896.12
550.606	5001.94
553.981	4117.51
557.356	3208.77
560.731	2525.8
564.106	1818.76
567.481	1253.86
570.855	857.038
574.23	499.362
577.605	199
580.98	30.753
584.355	8.36372
587.729	22.3628
591.104	19.6661
594.479	46.9808
597.854	46.5493
601.229	42.7217
604.604	56.1146
607.978	45.2643
611.353	45.4391
614.728	58.2982
618.103	142.814
621.477	312.747
624.852	482.203
628.227	593.155
631.602	749.216
634.977	907.905
638.352	1078.04
641.726	1192.03
645.101	1423.38
648.476	1636.57
651.851	1830.31
655.226	2019.22
658.601	2146.51
661.975	2267.04
665.35	2386.56
668.725	2535.86
672.1	2753.47
675.474	2841.58
678.849	3000.34
682.224	3343.93
685.599	3555.71
688.974	3703.98
692.349	3849.03
695.723	3917.51
699.098	3923.78
702.473	3742.22
705.848	3537.39
709.223	3334.17
712.597	3082.76
715.972	2912.27
719.347	2728.22
722.722	2685.17
726.097	2445.76
729.472	2311.21
732.846	2188.9
736.221	1967.41
739.596	1798.87
742.971	1750.43
746.346	1711.17
749.721	1591.97
753.095	1523.03
756.47	1476.79
759.845	1394.58
763.22	1244.31
766.594	1222.18
769.969	1254.52
773.344	1341.55
776.719	1412.3
780.094	1552.63
783.469	1691.94
786.843	1814.93
790.218	1935.09
793.593	2035.09
796.968	1938.34
800.343	1888.33
803.718	1911.78
807.092	2000.07
810.467	2217.44
813.842	2326.75
817.217	2525.42
820.592	2578.38
823.966	2625.85
827.341	2510.61
830.716	2291.34
834.091	1985.97
837.466	1702.82
840.841	1394.39
844.215	1134.34
847.59	800.144
850.965	649.365
854.34	374.101
857.714	333.514
861.089	296.203
864.464	265.343
867.839	188.385
871.214	157.865
874.589	185.92
877.963	193.392
881.338	168.143
884.713	175.087
888.088	159.391
891.463	167.636
894.838	153.267
898.212	149.488
901.587	97.727
904.962	83.255
908.337	94.155
911.711	60.689
915.086	68.349
918.461	88.455
921.836	48.01
925.211	29.434
928.586	113.135
931.96	27.874
935.335	3.101
938.71	3.146
942.085	50.117
945.46	17.952
948.834	7.74
952.209	2.751
955.584	4.17
958.959	20.876
962.334	34.707
965.709	8.417
969.083	4.839
972.458	5.088
975.833	42.727
979.208	47.123
982.583	66.956
985.957	53.226
989.332	76.132
992.707	65.757
996.082	63.221
999.457	71.769
1002.83	86.113
1006.21	49.645
1009.58	59.339
1012.96	76.471
1016.33	35.928
1019.71	46.984
1023.08	57.572
1026.45	70.213
1029.83	38.159
1033.2	46.719
1036.58	80.257
1039.95	62.352
1043.33	95.852
1046.7	59.621
1050.08	75.105
1053.45	75.769
1056.83	67.564
1060.2	74.154
1063.58	87.656
1066.95	92.295
1070.33	58.786
1073.7	70.614
1077.08	54.926
1080.45	60.388
1083.83	55.318
1087.2	60.083
1090.58	85.566
1093.95	51.253
1097.33	30.746
1100.7	61.172
1104.08	80.561
1107.45	34.599
1110.83	57.682
1114.2	36.366
1117.58	54.312
1120.95	41.202
1124.33	21.796
1127.7	8.102
1131.07	14.527
1134.45	0.055
1137.82	48.869
1141.2	3.739
1144.57	21.606
1147.95	26.239
1151.32	4.632
1154.7	18.943
1158.07	20.992
1161.45	14.685
1164.82	13.651
1168.2	19.392
1171.57	8.146
1174.95	8.257
1178.32	17.963
1181.7	7.447
1185.07	3.178
1188.45	1.61
1191.82	1.033
1195.2	5.289
1198.57	13.931
1201.94	54.201
1205.32	6.317
1208.69	8.604
1212.07	1.545
1215.44	19.89
1218.82	9.229
1222.19	17.892
1225.57	27.702
1228.94	16.679
1232.32	36.538
1235.69	28.039
1239.07	23.688
1242.44	19.942
1245.82	26.044
1249.19	29.925
1252.57	32.183
1255.94	48.91
1259.32	30.416
1262.69	9.937
1266.07	7.76
1269.44	8.377
1272.82	16.36
1276.19	36.077
1279.57	33.86
1282.94	21.402
1286.32	27.686
1289.69	27.201
1293.07	17.793
1296.44	31.387
1299.82	3.359
