Measurement: Raman, 532 nm, unoriented, Raman Data Processed
Mineral: Romerite
Rruff sample: R060820
Ideal chemistry: Fe^2+^Fe^3+^_2_(SO_4_)_4_14H_2_O
Locality: Alcaparrosa mine, Tierra Amarilla, Chile
Source: Bob Jenkins
Description: Reddish-brown isolated grains associated with copiapite, R060821
Raman shift (cm-1)	intensity
126.826	0
130.201	1519.9
133.576	3563.68
136.951	4818.61
140.325	4903.99
143.7	5075.68
147.075	3713.64
150.45	1753.96
153.824	269.919
157.199	198.881
160.574	330.802
163.949	1482.07
167.324	3567.65
170.699	5615.22
174.073	6401.17
177.448	4848
180.823	1926.71
184.198	25.1279
187.573	499.043
190.947	117.851
194.322	487.771
197.697	1070.89
201.072	1086.59
204.447	684.985
207.822	610.981
211.196	1318.23
214.571	2523.29
217.946	3752.08
221.321	4493.13
224.696	5156.18
228.07	5743.89
231.445	5978.27
234.82	5560.99
238.195	4889.96
241.57	4501.67
244.945	4691.48
248.319	5493.78
251.694	6496.74
255.069	7380.83
258.444	7840.24
261.819	7684.51
265.193	7328.64
268.568	6891.12
271.943	6984.25
275.318	6890.23
278.693	6593.36
282.068	6053.44
285.442	5376.07
288.817	4880.14
292.192	4684.14
295.567	4227.3
298.942	3649.97
302.316	3002.25
305.691	2381.09
309.066	1650.62
312.441	1143.48
315.816	672.452
319.19	363.631
322.565	154.355
325.94	39.8613
329.315	32.1348
332.69	131.325
336.065	214.581
339.439	165.976
342.814	168.235
346.189	172.155
349.564	131.625
352.939	14.2354
356.313	28.9224
359.688	175.523
363.063	254.426
366.438	378.87
369.813	567.552
373.188	707.21
376.562	853.335
379.937	1026.03
383.312	1218.57
386.687	1530.88
390.062	1852.77
393.436	2138.22
396.811	2247.87
400.186	2062.26
403.561	1689.08
406.936	1106.43
410.31	836.562
413.685	899.537
417.06	1212.66
420.435	1661.45
423.81	2297.2
427.185	2722.7
430.559	3108.91
433.934	3705.74
437.309	4877.31
440.684	6332.73
444.059	8513.03
447.433	11040.3
450.808	13500.3
454.183	15736.3
457.558	17557.6
460.933	18386.2
464.307	17807
467.682	17360.5
471.057	17050.8
474.432	16357
477.807	14958.6
481.181	13165.6
484.556	11387.9
487.931	9291.32
491.306	7105.31
494.681	5229.34
498.056	3786.94
501.43	2772.16
504.805	1960.3
508.18	1382.09
511.555	903.624
514.93	547.405
518.305	298.048
521.679	193.921
525.054	39.7685
528.429	63.1841
531.804	69.4316
535.179	166.278
538.553	182.251
541.928	129.122
545.303	72.9565
548.678	70.7217
552.053	53.0471
555.427	3.79883
558.802	25.1218
562.177	104.306
565.552	193.843
568.927	336.837
572.302	346.219
575.676	482.19
579.051	572.233
582.426	756.173
585.801	955.108
589.176	1243.9
592.55	1665.81
595.925	2082.45
599.3	2586.1
602.675	3084.42
606.05	3361.87
609.424	3091.94
612.799	2549.97
616.174	1919.43
619.549	1360.38
622.924	910.744
626.299	558.028
629.673	300.606
633.048	200.72
636.423	247.909
639.798	399.723
643.173	642.154
646.547	986.808
649.922	1410.22
653.297	1835.76
656.672	2188.32
660.047	2440.77
663.422	2433.56
666.796	2270.39
670.171	1976.04
673.546	1505.33
676.921	1071.45
680.296	836.453
683.67	633.229
687.045	436.809
690.42	268.921
693.795	179.488
697.17	142.2
700.544	76.5598
703.919	41.8201
707.294	35.8577
710.669	27.604
714.044	13.218
717.419	24.9517
720.793	57.4644
724.168	126.429
727.543	146.475
730.918	223.594
734.293	192.208
737.667	233.439
741.042	282.139
744.417	265.441
747.792	267.125
751.167	175.155
754.542	144.283
757.916	88.9619
761.291	75.5452
764.666	45.0989
768.041	8.97241
771.416	5.30273
774.79	41.7721
778.165	31.502
781.54	55.3959
784.915	11.41
788.29	21.2878
791.664	17.2079
795.039	2.27698
798.414	8.0332
801.789	56.584
805.164	90.6661
808.539	87.3423
811.913	114.522
815.288	115.156
818.663	165.589
822.038	163.4
825.413	179.382
828.787	174.185
832.162	186.574
835.537	133.77
838.912	135.868
842.287	106.868
845.661	105.633
849.036	106.079
852.411	123.935
855.786	165.694
859.161	201.979
862.536	215.798
865.91	217.209
869.285	265.679
872.66	262.471
876.035	305.464
879.41	299.042
882.784	304.533
886.159	345.309
889.534	350.652
892.909	347.696
896.284	423.869
899.659	433.808
903.033	451.346
906.408	506.824
909.783	502.727
913.158	533.102
916.533	538.431
919.907	477.655
923.282	422.441
926.657	409.166
930.032	321.827
933.407	280.087
936.781	232.689
940.156	201.019
943.531	155.46
946.906	142.563
950.281	49.3782
953.656	6.21094
957.03	4.5459
960.405	68.9033
963.78	71.1064
967.155	81.4546
970.53	75.7417
973.904	65.262
977.279	44.0832
980.654	192.751
984.029	494.303
987.404	879.613
990.779	1653.11
994.153	2843.35
997.528	5026.81
1000.9	9141.93
1004.28	16459.9
1007.65	28736.8
1011.03	43328.1
1014.4	37741.3
1017.78	18495.5
1021.15	9743.27
1024.53	6660.24
1027.9	6058.21
1031.28	6567.21
1034.65	7729.4
1038.03	8206.95
1041.4	8285.67
1044.78	9668.52
1048.15	12662.2
1051.53	17028.3
1054.9	21690.7
1058.28	24035.4
1061.65	21686
1065.02	15965.8
1068.4	10345.5
1071.77	6149.4
1075.15	3466.28
1078.52	1690.86
1081.9	627.146
1085.27	111.796
1088.65	120.975
1092.02	42.6606
1095.4	85.9087
1098.77	460.765
1102.15	1045.06
1105.52	1650.94
1108.9	2378.08
1112.27	2949.08
1115.65	3409.46
1119.02	3616.89
1122.4	3305.88
1125.77	2606.26
1129.15	1793.72
1132.52	977.729
1135.9	369.019
1139.27	6.53271
1142.64	145.606
1146.02	158.561
1149.39	40.1865
1152.77	257.207
1156.14	699.97
1159.52	1144.22
1162.89	1579.29
1166.27	1965.76
1169.64	2246.09
1173.02	2605.29
1176.39	3115.55
1179.77	3823.44
1183.14	5006.8
1186.52	6236.36
1189.89	7423.66
1193.27	8180.76
1196.64	8181.8
1200.02	7154.9
1203.39	5726.6
1206.77	4219.47
1210.14	3061.58
1213.52	2175.31
1216.89	1495.44
1220.27	1020.06
1223.64	633.144
1227.02	383.859
1230.39	239.663
1233.77	108.075
1237.14	18.3198
1240.52	10.4058
1243.89	45.0994
1247.26	11.2272
1250.64	13.7455
1254.01	61.7451
1257.39	100.579
1260.76	165.898
1264.14	241.084
1267.51	269.486
1270.89	214.491
1274.26	163.629
1277.64	153.787
1281.01	105.05
1284.39	54.8801
1287.76	38.3105
1291.14	30.2933
1294.51	0
