Measurement: Raman, 785 nm, unoriented, Raman Data Processed
Mineral: Romerite
Rruff sample: R060820
Ideal chemistry: Fe^2+^Fe^3+^_2_(SO_4_)_4_14H_2_O
Locality: Alcaparrosa mine, Tierra Amarilla, Chile
Source: Bob Jenkins
Description: Reddish-brown isolated grains associated with copiapite, R060821
Raman shift (cm-1)	intensity
123.938	0
126.831	303.263
129.724	847.147
132.616	952.294
135.509	321.704
138.402	29.22
141.294	159.969
144.187	822.802
147.08	1674.83
149.973	2042.86
152.865	1964.65
155.758	1291.96
158.651	456.685
161.543	247.164
164.436	483.767
167.329	1007.67
170.221	1390.89
173.114	1536.69
176.007	1288.51
178.9	872.138
181.792	460.673
184.685	179.3
187.578	35.169
190.47	87.251
193.363	107.565
196.256	12.3289
199.148	180.89
202.041	202.959
204.934	267.465
207.827	388.149
210.719	952.708
213.612	1931.77
216.505	2628.01
219.397	2931.55
222.29	3267.47
225.183	3740.17
228.076	4248.36
230.968	4570.77
233.861	4375.59
236.754	3725.85
239.646	3213.93
242.539	3024.1
245.432	3153.32
248.324	3610.37
251.217	4072.3
254.11	4348.91
257.003	4424.18
259.895	4317.29
262.788	4081.17
265.681	3857.53
268.573	3934.09
271.466	4044.96
274.359	4069.33
277.251	3970.51
280.144	3668.53
283.037	3086.96
285.93	2449.96
288.822	1862.9
291.715	1411.47
294.608	1209.67
297.5	933.999
300.393	766.992
303.286	596.904
306.178	391.965
309.071	242.352
311.964	140.253
314.857	0.203247
317.749	7.21997
320.642	83.9825
323.535	88.7125
326.427	48.8296
329.32	47.286
332.213	62.717
335.105	26.1108
337.998	19.2561
340.891	2.79578
343.784	45.4563
346.676	103.25
349.569	180.264
352.462	231.432
355.354	315.994
358.247	381.769
361.14	384.16
364.033	454.692
366.925	541.153
369.818	585.738
372.711	570.774
375.603	577.173
378.496	523.946
381.389	455.311
384.281	382.743
387.174	414.178
390.067	463.748
392.96	526.16
395.852	673.042
398.745	675.226
401.638	643.272
404.53	572.477
407.423	379.551
410.316	331.679
413.208	352.353
416.101	460.042
418.994	736.159
421.887	958.625
424.779	1147.87
427.672	1210.69
430.565	1076.71
433.457	900.338
436.35	904.727
439.243	1029.01
442.135	1350.13
445.028	1862.88
447.921	2265.87
450.814	2686.12
453.706	3000.28
456.599	3531.72
459.492	3986.25
462.384	4102.95
465.277	4061.27
468.17	3995.47
471.062	4098.25
473.955	4060.62
476.848	3732.41
479.741	3542.64
482.633	3514.62
485.526	3275.41
488.419	2843.07
491.311	2310.89
494.204	1725.5
497.097	1219.88
499.989	846.854
502.882	589.422
505.775	392.274
508.668	214.033
511.56	116.246
514.453	43.5341
517.346	11.8822
520.238	15.6398
523.131	71.4285
526.024	48.9676
528.916	58.4404
531.809	78.4137
534.702	83.0157
537.594	45.3635
540.487	35.5961
543.38	73.8558
546.273	81.6041
549.165	139.142
552.058	141.296
554.951	220.39
557.843	281.607
560.736	309.481
563.629	408.845
566.521	425.741
569.414	480.212
572.307	567.735
575.2	668.036
578.092	698.384
580.985	729.177
583.878	788.796
586.77	867.42
589.663	957.86
592.556	1053.86
595.448	1223.15
598.341	1512.53
601.234	1836.65
604.127	2156.85
607.019	2291.68
609.912	2228.05
612.805	1932.68
615.697	1553.66
618.59	1154
621.483	852.152
624.375	580.319
627.268	407.876
630.161	243.865
633.054	185.372
635.946	147.381
638.839	226.65
641.732	304.06
644.625	435.682
647.517	548.985
650.41	706.132
653.303	879.659
656.195	1005.48
659.088	1135.48
661.981	1216.95
664.873	1124.48
667.766	1027.11
670.659	837.632
673.552	648.882
676.444	463.575
679.337	310.929
682.23	200.987
685.122	120.437
688.015	90.8318
690.908	33.1627
693.8	21.8823
696.693	26.5403
699.586	5.05139
702.479	30.4933
705.371	9.33179
708.264	7.07361
711.157	34.1268
714.049	7.15064
716.942	24.9905
719.835	54.6281
722.727	34.3363
725.62	57.5382
728.513	44.8161
731.406	69.1591
734.298	96.8448
737.191	165.52
740.084	106.443
742.976	96.9443
745.869	32.2868
748.762	114.391
751.654	71.6128
754.547	81.7463
757.44	38.1706
760.333	31.3568
763.225	24.9784
766.118	23.0023
769.011	21.855
771.903	20.9879
774.796	7.62848
777.689	7.96258
780.581	12.6331
783.474	7.2934
786.367	19.8581
789.26	34.3058
792.152	37.4848
795.045	32.8671
797.938	20.1186
800.83	19.0044
803.723	3.71173
806.616	64.9062
809.508	97.8193
812.401	96.4271
815.294	101.905
818.187	105.165
821.079	119.191
823.972	107.949
826.865	111.578
829.757	76.8276
832.65	59.6638
835.543	66.7178
838.435	38.9439
841.328	42.7518
844.221	30.9002
847.114	23.8514
850.006	32.3445
852.899	27.6986
855.792	23.0189
858.684	53.4088
861.577	56.6444
864.47	61.6984
867.362	70.0139
870.255	52.9179
873.148	95.4205
876.041	99.7961
878.933	84.3577
881.826	67.4689
884.719	105.357
887.611	110.493
890.504	114.453
893.397	148.335
896.289	163.885
899.182	168.499
902.075	193.925
904.968	218.357
907.86	229.196
910.753	258.373
913.646	264.597
916.538	246.413
919.431	268.219
922.324	289.336
925.216	264.091
928.109	241.669
931.002	209.283
933.894	223.713
936.787	163.382
939.68	186.94
942.573	168.615
945.465	142.779
948.358	101.855
951.251	71.7651
954.143	32.5067
957.036	28.7549
959.929	5.2677
962.821	33.7246
965.714	50.4933
968.607	40.9998
971.5	57.2022
974.392	73.3957
977.285	64.867
980.178	38.3729
983.07	24.3628
985.963	30.4224
988.856	154.561
991.748	342.53
994.641	602.606
997.534	1143.9
1000.43	2143.86
1003.32	4036.01
1006.21	7793.33
1009.11	14382.8
1012	20806.1
1014.89	17398
1017.78	9870.36
1020.68	5872.71
1023.57	4161.09
1026.46	3559.58
1029.35	3551.76
1032.25	4038.12
1035.14	4636.9
1038.03	4850.73
1040.92	5030.66
1043.82	5666.21
1046.71	7005.7
1049.6	9018.42
1052.49	11631.8
1055.39	14457.8
1058.28	16296
1061.17	15645.4
1064.07	12648.6
1066.96	9175.88
1069.85	6204.56
1072.74	4138.35
1075.64	2718.34
1078.53	1705.01
1081.42	1033.78
1084.32	653.932
1087.21	407.111
1090.1	335.96
1092.99	318.418
1095.89	347.971
1098.78	480.23
1101.67	629.69
1104.56	789.325
1107.46	953.418
1110.35	1089.69
1113.24	1215.07
1116.13	1200.29
1119.03	1162.89
1121.92	1030.84
1124.81	853.329
1127.7	601.991
1130.6	386.897
1133.49	221.192
1136.38	70.4772
1139.28	1.35998
1142.17	109.228
1145.06	121.894
1147.95	98.7012
1150.85	87.3648
1153.74	43.6616
1156.63	38.7071
1159.53	81.0347
1162.42	147.924
1165.31	239.95
1168.2	302.203
1171.1	346.85
1173.99	402.005
1176.88	519.837
1179.77	662.687
1182.67	841.696
1185.56	1080.94
1188.45	1389.73
1191.35	1571.68
1194.24	1783.24
1197.13	1762.34
1200.02	1619.19
1202.92	1370.67
1205.81	1085.98
1208.7	832.162
1211.59	660.543
1214.49	518.414
1217.38	447.46
1220.27	368.13
1223.16	307.565
1226.06	279.321
1228.95	225.315
1231.84	143.934
1234.73	104.871
1237.63	14.8063
1240.52	44.3345
1243.41	45.7509
1246.31	19.1249
1249.2	13.2497
1252.09	16.5799
1254.98	5.57214
1257.88	3.53168
1260.77	13.6871
1263.66	6.44238
1266.56	12.238
