Measurement: Raman, 785 nm, unoriented, Raman Data Processed
Mineral: Romeite
Rruff sample: R060736
Ideal chemistry: (Ca,Fe^2+^,Mn^2+^,Na)_2_(Sb^5+^,Ti^4+^)_2_O_6_(O,OH,F)
Locality: Le Cetine di Cotorniano, Chiusdino, Siena Province, Tuscany, Italy
Source: Michael Scott
Description: Brown octahedra associated with brizziite, R060611
Measured chemistry: dark core: (Ca_1.06_Na_0.70_Fe^2+^_0.18_Mg_0.06_)_Σ=2_Sb^5+^_2.00_O_6_((OH)_0.70_O_0.30_)_Σ=1_; trace amounts of F; OH estimated by charge balance; rim: (Na_1.10_Sb^3+^_0.64_Fe^3+^_0.10_Mg_0.07_Ca_0.06_Mn_0.02_Pb_0.01_)_Σ=2_Sb^5+^_2.00_O_6_(OH);
Raman shift (cm-1)	intensity
143.705	0
146.598	1031.05
149.49	1537.35
152.383	1048.65
155.276	258.568
158.169	38.8301
161.061	21.3799
163.954	473.26
166.847	850.292
169.739	957.711
172.632	813.586
175.525	624.812
178.417	443.408
181.31	497.49
184.203	553.834
187.096	773.457
189.988	862.524
192.881	927.283
195.774	1074.04
198.666	1132.06
201.559	1163.04
204.452	965.012
207.345	760.539
210.237	650.299
213.13	626.252
216.023	596.778
218.915	500.135
221.808	486.909
224.701	248.961
227.593	88.8301
230.486	2.62535
233.379	10.2927
236.272	19.1619
239.164	96.8525
242.057	256.211
244.95	417.835
247.842	586.899
250.735	723.083
253.628	804.187
256.52	959.9
259.413	1100.72
262.306	1208.43
265.199	1270.5
268.091	1355.97
270.984	1376.33
273.877	1469.54
276.769	1651.66
279.662	1908.25
282.555	2131.86
285.447	2289.71
288.34	2353.18
291.233	2375.61
294.125	2403.32
297.018	2348.01
299.911	2501.85
302.804	2615.16
305.696	2751.89
308.589	2904.5
311.482	2932.45
314.374	2931.46
317.267	2957.01
320.16	2843.63
323.053	2697.71
325.945	2535.45
328.838	2372.72
331.731	2117.04
334.623	1811.67
337.516	1415.71
340.409	1120
343.301	1010.65
346.194	862.67
349.087	772.335
351.979	594.694
354.872	390.441
357.765	213.019
360.658	33.7848
363.55	11.4773
366.443	25.2127
369.336	5.26123
372.228	-5.91915
375.121	-2.18831
378.014	39.5645
380.906	178.209
383.799	385.893
386.692	584.037
389.585	833.959
392.477	1229.88
395.37	1570.13
398.263	1964.6
401.155	2205.53
404.048	2378.09
406.941	2617.58
409.834	2700.63
412.726	2706.58
415.619	2714.72
418.512	2394.61
421.404	2077.39
424.297	1681.83
427.19	1279.38
430.082	790.795
432.975	463.289
435.868	215.08
438.76	159.863
441.653	250.461
444.546	493.56
447.439	768.276
450.331	1073.61
453.224	1475.84
456.117	1622.24
459.009	1471.99
461.902	1271.46
464.795	877.385
467.687	566.769
470.58	316.998
473.473	335.09
476.365	681.774
479.258	1284.7
482.151	2430.99
485.044	4173.13
487.936	6598.83
490.829	10101.2
493.722	14453.8
496.614	19673.4
499.507	24863
502.4	29136.7
505.293	31432
508.185	30563
511.078	26995.2
513.971	22746.9
516.863	18855
519.756	15821.4
522.649	13332.1
525.541	11203.8
528.434	9639.16
531.327	8470.87
534.22	7709.17
537.112	7122.01
540.005	6731.57
542.898	6111.99
545.79	5483.78
548.683	4690.08
551.576	3847.76
554.468	3018.62
557.361	2289.53
560.254	1592.21
563.146	1036.85
566.039	526.418
568.932	223.347
571.825	110.065
574.717	9.8832
577.61	7.20904
580.503	2.96275
583.395	1.46133
586.288	9.68177
589.181	3.34508
592.073	-4.45982
594.966	8.40519
597.859	-2.59728
600.752	65.5039
603.644	156.703
606.537	234.353
609.43	394.365
612.322	585.309
615.215	767.567
618.108	1041.1
621	1173.36
623.893	1358.16
626.786	1590.91
629.679	1776.38
632.571	2043.44
635.464	2178.59
638.357	2363.06
641.25	2387.62
644.142	2560.51
647.035	2625.84
649.928	2745.03
652.82	2905.22
655.713	2954.95
658.606	3045.58
661.498	3189.18
664.391	3124.37
667.284	3301.6
670.177	3347.51
673.069	3564.34
675.962	3631.36
678.855	3936.61
681.747	3999.34
684.64	4244.3
687.533	4524.26
690.425	4695.28
693.318	4808.83
696.211	4896.86
699.104	4897.94
701.996	4703.4
704.889	4369.08
707.782	4098.43
710.674	3890.14
713.567	3658.85
716.46	3431.74
719.352	3253.03
722.245	3061.9
725.138	2839.34
728.03	2598.41
730.923	2296.61
733.816	1895.57
736.709	1646.91
739.601	1347.74
742.494	1002.72
745.387	583.318
748.279	547.601
751.172	381.437
754.065	149.279
756.957	9.71832
759.85	8.95629
762.743	20.7309
765.636	20.7884
768.528	23.8968
771.421	152.577
774.314	276.869
777.206	415.065
780.099	680.444
782.992	929.493
785.885	1179.69
788.777	1325.89
791.67	1392.08
794.563	1395.52
797.455	1258.81
800.348	1019.98
803.241	966.631
806.133	1048.82
809.026	1190.29
811.919	1252.17
814.812	1438.17
817.704	1494.43
820.597	1645.46
823.49	1627.88
826.382	1623.31
829.275	1566.27
832.168	1399.41
835.06	1277.56
837.953	1038.14
840.846	836.231
843.738	746.739
846.631	552.601
849.524	449.789
852.417	309.096
855.309	239.321
858.202	128.314
861.095	72.8049
863.987	40.4614
866.88	5.40308
869.773	55.1162
872.665	29.7837
875.558	22.0376
878.451	19.4123
881.343	33.6785
884.236	70.2273
887.129	84.3933
890.022	122.612
892.914	162.298
895.807	178.003
898.7	213.809
901.592	234.23
904.485	264.262
907.378	272.589
910.27	282.267
913.163	315.843
916.056	292.069
918.949	327.877
921.841	336.33
924.734	306.865
927.627	306.358
930.519	265.642
933.412	274.619
936.305	248.931
939.197	181.957
942.09	198.699
944.983	144.726
947.876	105.006
950.768	133.003
953.661	118.807
956.554	157.616
959.446	118.359
962.339	117.817
965.232	184.424
968.125	150.53
971.017	122.313
973.91	148.298
976.803	131.06
979.695	148.489
982.588	117.586
985.481	157.045
988.373	216.101
991.266	408.171
994.159	701.051
997.052	682.754
999.944	355.846
1002.84	219.995
1005.73	145.055
1008.62	177.779
1011.51	117.008
1014.41	92.6433
1017.3	101.511
1020.19	51.8953
1023.09	26.9465
1025.98	59.4565
1028.87	28.0779
1031.76	6.99829
1034.66	10.0095
1037.55	59.3074
1040.44	44.9019
1043.34	40.4727
1046.23	28.6355
1049.12	35.9131
1052.01	31.6958
1054.91	25.2998
1057.8	33.7466
1060.69	18.2402
1063.58	11.5832
1066.48	51.8313
1069.37	94.9898
1072.26	61.2234
1075.15	82.9485
1078.05	93.7998
1080.94	110.823
1083.83	103.635
1086.72	67.5337
1089.62	88.4487
1092.51	116.079
1095.4	94.2319
1098.3	115.584
1101.19	140.623
1104.08	147.644
1106.97	155.244
1109.87	190.937
1112.76	229.126
1115.65	251.719
1118.55	201.439
1121.44	241.49
1124.33	248.028
1127.22	229.259
1130.12	265.34
1133.01	220.435
1135.9	187.308
1138.79	182.209
1141.69	123.097
1144.58	140.799
1147.47	81.2473
1150.37	89.3085
1153.26	104.67
1156.15	71.9703
1159.04	85.6901
1161.93	35.3823
1164.83	31.1107
1167.72	12.7461
1170.61	24.9286
1173.51	12.9055
1176.4	11.7371
1179.29	1.09241
1182.18	1.41064
1185.08	37.2319
1187.97	73.8102
1190.86	78.3652
1193.76	85.1283
1196.65	127.888
1199.54	174.078
1202.43	142.983
1205.33	93.4777
1208.22	6.31531
1211.11	122.948
1214	119.997
1216.9	89.7537
1219.79	100.968
1222.68	36.4407
1225.58	60.0859
1228.47	28.4746
1231.36	12.5386
1234.25	6.72778
