Measurement: Raman, 532 nm, unoriented, Raman Data Processed
Mineral: Romerite
Rruff sample: R060238
Ideal chemistry: Fe^2+^Fe^3+^_2_(SO_4_)_4_14H_2_O
Locality: Dexter no. 7 mine, Calf Mesa, San Rafael Swell, Emery County, Utah, USA
Source: University of Arizona Mineral Museum
Description: Orange color massive blebs associated with voltaite and coquimbite
Raman shift (cm-1)	intensity
150.832	0
153.725	12.4167
156.618	49.9854
159.51	116.68
162.403	271.232
165.296	484.199
168.189	757.818
171.081	971.692
173.974	982.982
176.867	771.908
179.759	453.896
182.652	202.19
185.545	54.3204
188.437	7.89439
191.33	1.1185
194.223	2.68587
197.115	50.0811
200.008	63.9788
202.901	26.8166
205.794	18.054
208.686	0.905888
211.579	14.8741
214.472	65.0224
217.364	145.526
220.257	198.163
223.15	232.192
226.042	264.443
228.935	307.15
231.828	342.804
234.721	356.999
237.613	367.848
240.506	408.278
243.399	517.625
246.291	697.221
249.184	933.458
252.077	1224.31
254.97	1527.82
257.862	1840.16
260.755	2053.62
263.648	2108.44
266.54	1970.4
269.433	1704.19
272.326	1437.28
275.218	1206.15
278.111	1035.01
281.004	914.943
283.897	813.661
286.789	735.922
289.682	674.122
292.575	627.884
295.467	579.479
298.36	515.469
301.253	431.945
304.145	343.484
307.038	255.534
309.931	180.373
312.824	120.264
315.716	72.0255
318.609	43.0115
321.502	16.9778
324.394	1.01075
327.287	11.7738
330.18	6.52154
333.072	1.07096
335.965	8.33641
338.858	3.03452
341.75	6.6635
344.643	1.50838
347.536	2.70627
350.429	7.35372
353.321	3.77201
356.214	11.5339
359.107	22.7616
361.999	32.4833
364.892	45.5507
367.785	61.1079
370.678	75.7978
373.57	90.1825
376.463	105.811
379.356	129.592
382.248	138.977
385.141	151.364
388.034	169.33
390.926	180.535
393.819	183.702
396.712	182.284
399.604	156.801
402.497	115.058
405.39	64.6361
408.283	20.4476
411.175	8.14467
414.068	16.3444
416.961	2.56564
419.853	34.5849
422.746	75.3154
425.639	118.114
428.531	155.734
431.424	202.619
434.317	267.461
437.21	359.942
440.102	484.055
442.995	651.154
445.888	828.385
448.78	957.667
451.673	1044.89
454.566	1147.54
457.459	1280.04
460.351	1383.04
463.244	1416.72
466.137	1369.76
469.029	1306.6
471.922	1280.01
474.815	1263.52
477.707	1265.28
480.6	1243.93
483.493	1189.45
486.385	1091.83
489.278	918.614
492.171	719.971
495.064	542.912
497.956	399.758
500.849	291.732
503.742	210.166
506.634	144.286
509.527	105.269
512.42	68.7472
515.313	42.4366
518.205	19.4607
521.098	8.07737
523.991	1.68275
526.883	8.38182
529.776	4.37293
532.669	0.27057
535.562	0.922492
538.454	4.56157
541.347	0.163993
544.24	4.80752
547.132	0.810194
550.025	2.63594
552.918	3.01251
555.81	4.25525
558.703	1.57446
561.596	9.62452
564.489	10.8332
567.381	13.4318
570.274	24.6425
573.167	29.1399
576.059	36.9384
578.952	49.3798
581.845	56.8264
584.737	68.1203
587.63	78.8658
590.523	98.2913
593.415	122.799
596.308	150.195
599.201	174.568
602.093	204.077
604.986	218.628
607.879	223.462
610.772	213.967
613.664	190.336
616.557	173.991
619.45	148.687
622.342	129.417
625.235	116.073
628.128	113.192
631.02	122.812
633.913	150.588
636.806	190.463
639.699	245.367
642.591	309.716
645.484	368.006
648.377	414.354
651.269	424.993
654.162	402.565
657.055	347.669
659.947	301.216
662.84	246.636
665.733	198.883
668.626	156.238
671.518	117.309
674.411	83.3836
677.304	58.2291
680.196	33.878
683.089	19.898
685.982	7.20279
688.875	0.872836
691.767	4.60042
694.66	2.4395
697.553	3.61875
700.445	0.709926
703.338	0.915944
706.231	1.72524
709.123	0.93228
712.016	4.47556
714.909	9.57566
717.802	9.05846
720.694	13.7149
723.587	13.5073
726.48	22.3429
729.372	22.5038
732.265	30.6708
735.158	37.9928
738.05	37.1429
740.943	42.9355
743.836	38.0751
746.729	39.1708
749.621	34.9373
752.514	26.226
755.407	24.5767
758.299	21.492
761.192	15.7464
764.085	10.6624
766.977	7.27089
769.87	4.96657
772.763	0.830474
775.655	0.121373
778.548	1.05337
781.441	1.2613
784.334	0.468394
787.226	1.59967
790.119	1.74672
793.012	1.25704
795.904	1.75029
798.797	0.457382
801.69	1.69592
804.582	3.14979
807.475	2.92862
810.368	5.43789
813.261	7.47509
816.153	7.89308
819.046	8.08125
821.939	10.0222
824.831	6.53036
827.724	12.6043
830.617	7.79289
833.51	7.61585
836.402	7.96445
839.295	9.60816
842.188	10.592
845.08	8.5464
847.973	10.7721
850.866	11.97
853.758	17.1526
856.651	18.1635
859.544	20.8917
862.437	26.4938
865.329	33.1542
868.222	38.1217
871.115	42.235
874.007	51.3787
876.9	58.5605
879.793	68.413
882.685	69.6205
885.578	79.5031
888.471	83.1844
891.364	82.2704
894.256	83.5297
897.149	81.1071
900.042	80.8176
902.934	80.7734
905.827	73.1378
908.72	61.6312
911.612	55.6861
914.505	46.0488
917.398	38.0045
920.29	30.0075
923.183	21.1963
926.076	21.7052
928.969	7.06684
931.861	2.38125
934.754	0.506827
937.647	2.79402
940.539	5.74107
943.432	3.03615
946.325	4.22714
949.217	2.89274
952.11	3.38895
955.003	10.8039
957.896	15.0395
960.788	11.5458
963.681	5.01504
966.574	8.37002
969.466	20.4618
972.359	48.043
975.252	76.1836
978.144	122.698
981.037	183.195
983.93	270.031
986.823	398.539
989.715	575.243
992.608	813.048
995.501	1099.09
998.393	1385.79
1001.29	1586.39
1004.18	1742.48
1007.07	2154.41
1009.96	3007.15
1012.86	3510.13
1015.75	2475.11
1018.64	1469.51
1021.53	1173.09
1024.43	1346.8
1027.32	1899.2
1030.21	2765.76
1033.11	3779.31
1036	4276.58
1038.89	3503.66
1041.78	2345.51
1044.68	1660.81
1047.57	1401.77
1050.46	1379.89
1053.36	1469.5
1056.25	1577.47
1059.14	1573.79
1062.03	1375.88
1064.93	1046.16
1067.82	719.66
1070.71	467.61
1073.6	294.77
1076.5	169.339
1079.39	88.8112
1082.28	36.0366
1085.17	1.67512
1088.07	20.5193
1090.96	9.18115
1093.85	1.0215
1096.74	2.42567
1099.64	0.07408
1102.53	11.1907
1105.42	6.11135
1108.32	12.4393
1111.21	31.009
1114.1	46.8143
1116.99	62.4221
1119.89	63.4095
1122.78	60.7749
1125.67	47.0823
1128.57	31.5178
1131.46	19.1578
1134.35	10.4264
1137.24	3.51865
1140.14	5.32405
1143.03	16.4915
1145.92	23.848
1148.81	33.0203
1151.71	42.2535
1154.6	67.6413
1157.49	89.7924
1160.38	112.527
1163.28	130.895
1166.17	148.925
1169.06	148.755
1171.95	145.132
1174.85	147.256
1177.74	148.285
1180.63	162.398
1183.53	191.615
1186.42	220.404
1189.31	255.286
1192.2	283.461
1195.1	290.59
1197.99	277.074
1200.88	235.273
1203.78	190.235
1206.67	144.635
1209.56	99.7455
1212.45	76.9652
1215.35	51.1458
1218.24	34.3233
1221.13	22.6705
1224.02	7.74481
1226.92	5.45098
1229.81	0.714614
1232.7	3.03594
1235.6	1.12808
1238.49	2.76666
1241.38	2.80731
1244.27	1.21858
1247.17	1.14666
1250.06	0.068971
1252.95	0.854934
1255.84	6.6589
1258.74	10.7336
1261.63	15.7416
1264.52	16.7725
1267.41	20.2662
1270.31	21.567
1273.2	17.4139
1276.09	14.2666
1278.98	11.5573
1281.88	11.8535
1284.77	10.4531
1287.66	6.71162
1290.56	6.92695
1293.45	5.4998
1296.34	3.35323
1299.23	0.219241
1302.13	0
