Measurement: Raman, 780 nm, unoriented, Raman Data Processed
Mineral: Romerite
Rruff sample: R060238
Ideal chemistry: Fe^2+^Fe^3+^_2_(SO_4_)_4_14H_2_O
Locality: Dexter no. 7 mine, Calf Mesa, San Rafael Swell, Emery County, Utah, USA
Source: University of Arizona Mineral Museum
Description: Orange color massive blebs associated with voltaite and coquimbite
Raman shift (cm-1)	intensity
153.374	0
156.267	0.804124
159.159	30.3461
162.052	89.3688
164.945	187.253
167.838	266.06
170.73	340.901
173.623	356.471
176.516	264.736
179.408	143.421
182.301	49.9286
185.194	0.718357
188.086	1.72011
190.979	0.633124
193.872	2.78625
196.764	3.22267
199.657	2.55578
202.55	4.5376
205.443	0.001704
208.335	1.72356
211.228	32.9195
214.121	75.7072
217.013	121.986
219.906	149.311
222.799	179.421
225.691	207.973
228.584	230.209
231.477	243.565
234.37	244.274
237.262	254.773
240.155	294.374
243.048	342.415
245.94	418.168
248.833	518.834
251.726	616.77
254.619	733.021
257.511	833.395
260.404	903.385
263.297	891.967
266.189	820.194
269.082	703.083
271.975	594.291
274.867	497.318
277.76	426.37
280.653	368.162
283.546	320.234
286.438	275.969
289.331	243.776
292.224	217.718
295.116	187.982
298.009	151.153
300.902	117.963
303.794	84.729
306.687	56.8585
309.58	34.3528
312.473	13.8324
315.365	7.73178
318.258	1.87229
321.151	3.20661
324.043	2.7496
326.936	0.48267
329.829	1.72073
332.721	0.107454
335.614	0.351401
338.507	1.04719
341.399	0.003567
344.292	0.089385
347.185	0.77622
350.078	0.679491
352.97	1.3459
355.863	7.47981
358.756	11.9846
361.648	13.3166
364.541	21.4474
367.434	24.189
370.327	31.6661
373.219	36.0228
376.112	39.868
379.005	40.71
381.897	40.7333
384.79	40.5283
387.683	43.9763
390.575	40.4697
393.468	40.8974
396.361	33.1987
399.253	22.4779
402.146	8.18847
405.039	2.05865
407.932	2.19342
410.824	0.147685
413.717	0.893483
416.61	7.44187
419.502	20.0029
422.395	35.5762
425.288	58.5381
428.18	77.95
431.073	96.1318
433.966	122.769
436.859	158.2
439.751	209.21
442.644	268.379
445.537	322.526
448.429	358.339
451.322	379.41
454.215	411.299
457.108	445.024
460	468.858
462.893	453.823
465.786	424.203
468.678	388.695
471.571	369.882
474.464	357.993
477.356	354.637
480.249	336.841
483.142	316.088
486.034	275.968
488.927	224.388
491.82	169.001
494.713	126.394
497.605	84.484
500.498	57.0594
503.391	37.8542
506.283	17.241
509.176	12.5735
512.069	0.705509
514.962	1.2083
517.854	0.342172
520.747	0.09887
523.64	1.00652
526.532	0.862791
529.425	0.783658
532.318	1.58346
535.21	0.948261
538.103	0.543439
540.996	0.298647
543.889	0.683051
546.781	0.16132
549.674	0.139557
552.567	0.135428
555.459	1.00469
558.352	4.22815
561.245	6.01228
564.138	5.26532
567.03	7.71794
569.923	15.5842
572.816	14.7124
575.708	18.8
578.601	20.2133
581.494	23.3932
584.386	29.7714
587.279	34.178
590.172	44.1302
593.064	52.5002
595.957	68.1039
598.85	75.1977
601.743	87.4333
604.635	90.4975
607.528	91.133
610.421	89.499
613.313	75.5915
616.206	66.4974
619.099	55.7944
621.991	48.1034
624.884	40.7032
627.777	40.8922
630.67	42.7059
633.562	56.8546
636.455	72.0468
639.348	90.7664
642.24	112.38
645.133	126.073
648.026	141.089
650.918	134.839
653.811	119.189
656.704	91.3723
659.597	74.8598
662.489	55.0613
665.382	40.5209
668.275	30.6523
671.167	19.2765
674.06	9.14556
676.953	4.004
679.846	0.353645
682.738	1.17068
685.631	1.04266
688.524	1.07333
691.416	0.50899
694.309	0.169743
697.202	0.425892
700.094	0.31042
702.987	0.111921
705.88	0.147756
708.773	4.28346
711.665	4.08056
714.558	5.33668
717.451	7.77133
720.343	6.38774
723.236	11.0984
726.129	8.72809
729.021	13.747
731.914	16.1307
734.807	17.2174
737.699	19.0248
740.592	16.405
743.485	17.9871
746.378	17.7526
749.27	2.77897
752.163	10.9577
755.056	7.79033
757.948	5.85524
760.841	3.84973
763.734	3.69033
766.626	1.74087
769.519	0.178918
772.412	0.916846
775.305	0.601375
778.197	2.47603
781.09	0.154849
783.983	0.140489
786.875	0.463041
789.768	0.032556
792.661	0.007249
795.553	0.66447
798.446	0.38654
801.339	0.129698
804.232	0.425938
807.124	1.41585
810.017	1.95021
812.91	0.357164
815.802	0.967712
818.695	2.51424
821.588	3.06175
824.481	1.16731
827.373	2.91635
830.266	1.99831
833.159	0.445264
836.051	1.19095
838.944	1.74938
841.837	4.3337
844.729	1.06173
847.622	6.51457
850.515	4.82115
853.408	5.67151
856.3	8.41947
859.193	11.3123
862.086	8.57406
864.978	11.2301
867.871	11.5181
870.764	14.2246
873.656	19.8747
876.549	20.6757
879.442	23.8111
882.335	20.8361
885.227	24.6741
888.12	28.112
891.013	30.4033
893.905	31.0051
896.798	28.4946
899.691	29.5635
902.583	27.5676
905.476	26.157
908.369	25.3866
911.261	19.3302
914.154	18.053
917.047	13.4157
919.94	14.7181
922.832	5.62167
925.725	5.348
928.618	4.19671
931.51	0.993709
934.403	1.14623
937.296	0.0238
940.188	0.039426
943.081	0.546655
945.974	0.982083
948.867	0.60062
951.759	1.65538
954.652	1.91015
957.545	0.199317
960.437	1.26859
963.33	2.11125
966.223	0.236411
969.115	6.60507
972.008	14.3039
974.901	26.5573
977.794	44.9051
980.686	75.0505
983.579	116.786
986.472	180.692
989.364	259.585
992.257	352.387
995.15	456.204
998.043	573.886
1000.93	682.533
1003.83	749.615
1006.72	899.914
1009.61	1144.34
1012.51	1139.66
1015.4	748.016
1018.29	479.52
1021.18	434.522
1024.08	544.762
1026.97	751.641
1029.86	1000.48
1032.76	1231.03
1035.65	1225.43
1038.54	919.464
1041.43	618.23
1044.33	461.088
1047.22	400.37
1050.11	393.498
1053	409.897
1055.9	419.543
1058.79	395.309
1061.68	325.084
1064.58	228.865
1067.47	143.227
1070.36	84.665
1073.25	45.682
1076.14	13.6775
1079.04	1.83134
1081.93	0.72234
1084.82	3.38056
1087.72	2.21732
1090.61	0.661856
1093.5	0.952852
1096.39	1.05581
1099.29	0.808543
1102.18	0.527896
1105.07	2.29454
1107.96	5.8932
1110.86	15.9016
1113.75	20.8403
1116.64	26.1125
1119.54	23.9545
1122.43	23.2201
1125.32	16.3537
1128.21	7.73541
1131.11	8.71599
1134	6.52676
1136.89	2.9083
1139.79	0.643062
1142.68	8.5278
1145.57	10.0427
1148.46	14.4074
1151.36	22.1096
1154.25	29.6744
1157.14	35.8875
1160.03	45.4202
1162.93	49.7961
1165.82	50.044
1168.71	46.8793
1171.6	40.3598
1174.5	38.981
1177.39	36.5061
1180.28	38.622
1183.17	40.945
1186.07	46.2657
1188.96	50.4857
1191.85	53.4431
1194.75	54.1015
1197.64	46.9055
1200.53	37.9243
1203.42	30.3916
1206.32	19.7951
1209.21	6.47605
1212.1	7.00845
1214.99	2.54033
1217.89	0.509116
1220.78	0.205442
1223.67	0.448552
1226.57	0.598623
1229.46	0.264212
1232.35	0.480242
1235.24	0.037875
1238.14	2.35307
1241.03	0.792634
1243.92	4.0635
1246.82	4.55626
1249.71	6.21135
1252.6	5.68825
1255.49	6.55987
1258.38	7.65745
1261.28	4.71165
1264.17	3.56509
1267.06	7.19649
1269.96	4.71727
1272.85	2.28572
1275.74	1.13536
1278.63	1.08261
1281.53	2.52298
1284.42	2.66916
