Measurement: Raman, 532 nm, unoriented, Raman Data Processed
Mineral: Rooseveltite
Rruff sample: R060804
Ideal chemistry: Bi^3+^As^5+^O_4_
Locality: Josef mine, Moldava, Czech. Republic
Source: Michael Scott
Description: Blue-gray ill-formed grains, somewhat in spherical shapes
Raman shift (cm-1)	intensity
132.129	0
135.504	86.4053
138.879	1097.27
142.254	2519.3
145.629	4115.15
149.003	5423.1
152.378	5980.5
155.753	6534.21
159.128	7138.91
162.503	6781.92
165.877	5867.39
169.252	4648.37
172.627	3314.81
176.002	1794.95
179.377	617.141
182.751	416.891
186.126	1026.6
189.501	2072.23
192.876	3687.08
196.251	5420.29
199.626	7467.81
203	9486.18
206.375	11220.9
209.75	11962.5
213.125	12047.6
216.5	11432.5
219.875	9667.84
223.249	7207.4
226.624	5244.8
229.999	4064.2
233.374	3288.3
236.749	2635.92
240.123	1883.23
243.498	1159.93
246.873	832.094
250.248	494.552
253.623	218.409
256.997	1.39062
260.372	26.0938
263.747	104.9
267.122	283.382
270.497	518.043
273.872	639.761
277.246	578.53
280.621	290.789
283.996	75.0957
287.371	297.586
290.746	345.768
294.12	178.214
297.495	272.92
300.87	983.512
304.245	1925.62
307.62	2652.96
310.994	2733.43
314.369	2692.04
317.744	2991.53
321.119	3654.47
324.494	4206.91
327.868	4591.95
331.243	4883.6
334.618	5131.86
337.993	5004.69
341.368	4918.51
344.743	4277.67
348.117	3587.99
351.492	2882.63
354.867	2362.52
358.242	1868.45
361.617	1392.09
364.991	949.392
368.366	743.125
371.741	693.971
375.116	641.041
378.491	746.447
381.866	862.217
385.24	1116.03
388.615	1507.5
391.99	1944.12
395.365	2119.34
398.74	1758.94
402.114	1222.47
405.489	937.792
408.864	675.902
412.239	418.429
415.614	162.421
418.988	82.8369
422.363	58.2344
425.738	104.029
429.113	168.69
432.488	328.258
435.863	466.271
439.237	560.879
442.612	932.549
445.987	1094.09
449.362	1200.15
452.737	1040.94
456.111	1019.85
459.486	1015.27
462.861	1238.52
466.236	1450.76
469.611	1685.57
472.986	1740.5
476.36	1701.34
479.735	1615.65
483.11	1454.26
486.485	1141.09
489.86	713.932
493.234	267.803
496.609	59.9722
499.984	78.7861
503.359	86.6357
506.734	112.234
510.108	53.5645
513.483	94.5396
516.858	11.7349
520.233	10.8467
523.608	115.825
526.983	92.7729
530.357	164.315
533.732	224.158
537.107	259.896
540.482	392.916
543.857	410.385
547.231	440.801
550.606	461.904
553.981	541.102
557.356	576.18
560.731	556.386
564.106	580.654
567.48	494.599
570.855	469.923
574.23	504.944
577.605	374.418
580.98	426.506
584.354	383.014
587.729	453.903
591.104	447.466
594.479	452.976
597.854	470.471
601.229	466.511
604.603	579.295
607.978	516.396
611.353	622.704
614.728	583.156
618.103	622.118
621.477	666.267
624.852	637.952
628.227	669.748
631.602	616.994
634.977	643.745
638.351	634.992
641.726	701.058
645.101	746.652
648.476	764.29
651.851	820.354
655.226	789.34
658.6	860.115
661.975	833.428
665.35	748.206
668.725	711.665
672.1	654.813
675.474	576.521
678.849	524.427
682.224	450.188
685.599	404.548
688.974	297.597
692.348	169.3
695.723	166.877
699.098	133.887
702.473	36.4785
705.848	23.8213
709.222	15.1162
712.597	77.9512
715.972	152.745
719.347	164.467
722.722	135.293
726.097	111.708
729.471	115.419
732.846	13.2363
736.221	30.1729
739.596	137.489
742.971	346.363
746.346	488.283
749.72	610.448
753.095	763.515
756.47	1240.24
759.845	1691.89
763.22	2504.09
766.594	3558.26
769.969	4809.23
773.344	6000.16
776.719	6902.95
780.094	7680.52
783.468	8155.76
786.843	8525.46
790.218	8755.16
793.593	8252.64
796.968	7125.67
800.342	6019.1
803.717	5143.68
807.092	4632.14
810.467	4478.27
813.842	4852.55
817.217	5747.92
820.591	7182.79
823.966	9777.24
827.341	13036.3
830.716	17016.2
834.091	20533.2
837.466	22588.2
840.84	22563.5
844.215	21710.4
847.59	20213.2
850.965	16754.6
854.34	11923.7
857.714	8145.03
861.089	5512.86
864.464	3725.76
867.839	2574.66
871.214	1786.36
874.588	1241.67
877.963	828.286
881.338	613.413
884.713	289.361
888.088	156.389
891.462	63.8115
894.837	3.58935
898.212	104.926
901.587	118.915
904.962	118.73
908.337	149
911.711	111.094
915.086	101.888
918.461	6.05273
921.836	52.3442
925.211	96.75
928.586	150.663
931.96	189.986
935.335	218.595
938.71	310.976
942.085	298.168
945.46	421.422
948.834	498.176
952.209	521.444
955.584	577.552
958.959	621.757
962.334	700.572
965.708	822.866
969.083	862.329
972.458	918.687
975.833	928.943
979.208	812.03
982.582	570.123
985.957	393.025
989.332	328.628
992.707	232.85
996.082	200.63
999.457	162.339
1002.83	137.73
1006.21	184.705
1009.58	85.0644
1012.96	89.3525
1016.33	59.4673
1019.71	73.5923
1023.08	66.9336
1026.45	108.176
1029.83	129.659
1033.2	122.249
1036.58	106.162
1039.95	118.169
1043.33	131.916
1046.7	99.7222
1050.08	67.3608
1053.45	166.189
1056.83	160.674
1060.2	166.793
1063.58	158.009
1066.95	169.365
1070.33	167.451
1073.7	203.341
1077.08	156.436
1080.45	101.31
1083.83	77.188
1087.2	138.737
1090.58	188.482
1093.95	115.191
1097.33	26.2485
1100.7	78.7632
1104.08	27.7217
1107.45	23.4434
1110.83	0.375977
1114.2	74.2759
1117.58	29.4585
1120.95	20.5508
1124.33	52.5625
1127.7	105.652
1131.07	143.584
1134.45	115.385
1137.82	51.2422
1141.2	60.543
1144.57	3.10303
1147.95	10.6846
1151.32	26.3936
1154.7	29.3423
1158.07	7.95508
1161.45	48.1426
1164.82	34.7217
1168.2	0.219727
1171.57	7.2251
1174.95	40.7378
1178.32	99.3315
1181.7	30.3579
1185.07	18.6265
1188.45	61.148
1191.82	33.5776
1195.2	38.6367
1198.57	33.4263
1201.94	23.478
1205.32	68.9702
1208.69	81.083
1212.07	33.8906
1215.44	123.77
1218.82	60.5068
1222.19	53.1714
1225.57	86.1411
1228.94	51.3618
1232.32	72.542
1235.69	91.6797
1239.07	101.99
1242.44	261.152
1245.82	74.207
1249.19	100.065
1252.57	74.1074
1255.94	104.279
1259.32	85.4502
1262.69	57.8662
1266.07	33.9116
1269.44	80.0737
1272.82	89.04
1276.19	135.76
1279.57	110.607
1282.94	78.4273
1286.32	51.0308
1289.69	87.5171
1293.07	47.4145
