Measurement: Raman, 532 nm, unoriented, Raman Data Processed
Mineral: Rosasite
Rruff sample: R100077
Ideal chemistry: CuZnCO_3_(OH)_2_
Locality: 79 mine, Hayden, Gila County, Arizona, USA
Source: Mark Ascher
Description: Elongated, prismatic but curved, aqua blue crystals, associated with colorless hemimorphite and white granular smithsonite
Raman shift (cm-1)	intensity
90.9743	0
94.3491	3.65209
97.7239	6.25193
101.099	9.4254
104.474	12.7054
107.848	20.2129
111.223	21.9545
114.598	14.1506
117.973	11.348
121.348	1.19941
124.722	4.97621
128.097	6.36846
131.472	0.234432
134.847	24.0451
138.222	78.3762
141.597	183.996
144.971	274.155
148.346	350.378
151.721	424.887
155.096	394.556
158.471	322.828
161.845	273.368
165.22	249.827
168.595	258.336
171.97	295.583
175.345	341.648
178.72	393.68
182.094	465.624
185.469	595.751
188.844	749.209
192.219	754.781
195.594	535.597
198.968	373.323
202.343	294.192
205.718	263.996
209.093	241.644
212.468	214.588
215.843	200.555
219.217	191.021
222.592	179.871
225.967	173.645
229.342	174.229
232.717	156.924
236.091	124.11
239.466	94.0441
242.841	76.1035
246.216	64.8107
249.591	51.8344
252.965	35.3359
256.34	14.3151
259.715	5.58829
263.09	3.69128
266.465	4.99316
269.84	5.27116
273.214	8.87183
276.589	1.5794
279.964	4.20485
283.339	10.7923
286.714	22.914
290.089	38.1543
293.463	55.76
296.838	77.2776
300.213	104.976
303.588	127.976
306.963	162.236
310.337	202.974
313.712	247.86
317.087	295.88
320.462	337.439
323.837	391.252
327.212	429.815
330.586	442.207
333.961	398.953
337.336	309.761
340.711	214.493
344.086	138.002
347.46	85.4156
350.835	52.0243
354.21	26.0514
357.585	11.1193
360.96	1.99219
364.334	1.0425
367.709	2.4544
371.084	0.290237
374.459	6.3386
377.834	15.6024
381.209	26.4217
384.583	44.5336
387.958	60.4163
391.333	80.0854
394.708	97.7166
398.083	124.509
401.457	167.692
404.832	224.553
408.207	245.454
411.582	211.427
414.957	164.97
418.332	132.01
421.706	110.405
425.081	96.3225
428.456	84.3874
431.831	72.3558
435.206	54.9295
438.58	42.8475
441.955	26.1918
445.33	14.0227
448.705	7.73493
452.08	1.18819
455.454	1.93523
458.829	0.53331
462.204	2.554
465.579	8.76799
468.954	19.2673
472.329	30.0055
475.703	42.9109
479.078	50.7256
482.453	59.9388
485.828	68.5659
489.203	87.2592
492.577	111.677
495.952	149.009
499.327	197.128
502.702	253.902
506.077	291.654
509.452	268.113
512.826	195.325
516.201	139.969
519.576	111.21
522.951	88.1348
526.326	63.1012
529.701	38.7964
533.075	24.943
536.45	13.4627
539.825	7.0187
543.2	2.37533
546.575	0.609241
549.949	0.441074
553.324	0.090641
556.699	1.24708
560.074	1.44256
563.449	1.75853
566.823	3.63043
570.198	3.05165
573.573	0.632187
576.948	1.10956
580.323	0.21143
583.697	0.776806
587.072	1.16309
590.447	0.461933
593.822	0.350456
597.197	0.422001
600.572	1.44589
603.946	2.81597
607.321	1.23414
610.696	0.154076
614.071	2.77869
617.446	2.09327
620.821	3.73035
624.195	4.09788
627.57	3.64772
630.945	4.12519
634.32	2.56727
637.695	1.39638
641.069	1.8303
644.444	1.09106
647.819	0.986225
651.194	1.622
654.569	2.48779
657.943	1.8507
661.318	4.30783
664.693	2.49822
668.068	6.40529
671.443	9.11912
674.818	12.1373
678.192	18.6612
681.567	28.3792
684.942	50.7314
688.317	83.3029
691.692	127.528
695.067	189.776
698.441	276.984
701.816	311.532
705.191	174.306
708.566	74.8254
711.941	38.832
715.315	21.8466
718.69	14.3217
722.065	11.4679
725.44	13.9161
728.815	11.5307
732.189	16.1504
735.564	17.1497
738.939	15.7599
742.314	11.284
745.689	6.86735
749.063	5.69998
752.438	4.497
755.813	5.69943
759.188	4.52664
762.563	2.67433
765.938	1.52232
769.312	0.764511
772.687	0.790497
776.062	0.097046
779.437	0.902782
782.812	1.56859
786.187	1.21415
789.561	0.696472
792.936	0.855713
796.311	0.099308
799.686	0.123344
803.061	0.92728
806.435	0.707275
809.81	0.969002
813.185	1.33986
816.56	1.06129
819.935	0.951584
823.309	6.10326
826.684	12.2936
830.059	22.608
833.434	19.4103
836.809	9.52454
840.184	6.08858
843.558	5.87108
846.933	6.48623
850.308	7.59265
853.683	10.156
857.058	12.7462
860.433	15.1793
863.807	19.4632
867.182	24.5764
870.557	28.1088
873.932	33.0865
877.307	34.3129
880.681	39.0679
884.056	44.1285
887.431	47.2205
890.806	53.8449
894.181	60.9266
897.556	68.5445
900.93	76.2878
904.305	80.8494
907.68	81.9165
911.055	82.7156
914.43	77.9595
917.804	70.227
921.179	63.4205
924.554	55.7255
927.929	48.115
931.304	41.9294
934.678	33.7963
938.053	28.3852
941.428	23.9497
944.803	20.3694
948.178	15.6843
951.553	11.3332
954.927	11.1512
958.302	7.62479
961.677	3.57594
965.052	2.77932
968.427	1.48315
971.802	0.729877
975.176	0.137512
978.551	1.07827
981.926	1.11767
985.301	1.47182
988.676	0.410305
992.05	2.1411
995.425	0.53791
998.8	1.04149
1002.17	1.29481
1005.55	2.77784
1008.92	4.07048
1012.3	5.10945
1015.67	8.21146
1019.05	8.62094
1022.42	13.0339
1025.8	15.0962
1029.17	17.8948
1032.55	21.9354
1035.92	25.2079
1039.3	30.9258
1042.67	34.7944
1046.05	38.7859
1049.42	42.541
1052.8	44.9049
1056.17	46.9493
1059.55	51.4706
1062.92	62.2103
1066.3	83.3826
1069.67	131.369
1073.05	218.322
1076.42	350.969
1079.8	544.035
1083.17	744.858
1086.55	728.391
1089.92	474.063
1093.3	275.537
1096.67	160.621
1100.04	95.7109
1103.42	61.2645
1106.79	40.1906
1110.17	25.8569
1113.54	18.2918
1116.92	11.2278
1120.29	9.57101
1123.67	6.2263
1127.04	3.8764
1130.42	2.47439
1133.79	2.75078
1137.17	2.0603
1140.54	0.970642
1143.92	0.199709
1147.29	0.388365
1150.67	0.761295
1154.04	0.308964
1157.42	0.560749
1160.79	1.55608
1164.17	0.761471
1167.54	0.61636
1170.92	0.032137
1174.29	1.02384
1177.66	1.85011
1181.04	1.11196
1184.41	1.51996
1187.79	1.43742
1191.16	1.58959
1194.54	2.05729
1197.91	1.72972
1201.29	1.74755
1204.66	2.46819
1208.04	2.10797
1211.41	2.95915
1214.79	1.0023
1218.16	3.54312
1221.54	2.17721
1224.91	2.08279
1228.29	1.75102
1231.66	2.17062
1235.04	1.95331
1238.41	1.37712
1241.79	1.87869
1245.16	1.72018
1248.54	0.544431
1251.91	1.69947
1255.29	1.87406
1258.66	1.76526
1262.04	2.55183
1265.41	2.0453
1268.79	1.3092
1272.16	0.396471
1275.54	1.55354
1278.91	1.10584
1282.29	0.959569
1285.66	0.609243
1289.03	0.208697
1292.41	0.913086
1295.78	1.47832
1299.16	1.7245
1302.53	0.007137
