Measurement: Raman, 780 nm, unoriented, Raman Data Processed
Mineral: Rosasite
Rruff sample: R050294
Ideal chemistry: CuZnCO_3_(OH)_2_
Locality: 79 mine, 4th level, Hayden, Gila County, Arizona, USA
Source: George Godas, John Callahan
Description: Green botryoidal crust associated with intergrown smithsonite
Measured chemistry: (Cu_1.24_Zn_0.76_)_Î£=2_(CO_3_)(OH)_2_
Raman shift (cm-1)	intensity
113.737	0
117.111	1.20194
120.486	1.11755
123.861	2.37104
127.236	3.10168
130.611	3.9352
133.986	6.54904
137.36	9.28888
140.735	12.0592
144.11	13.2916
147.485	13.9109
150.859	14.9011
154.234	12.8163
157.609	12.6503
160.984	14.2611
164.359	16.8659
167.734	22.5894
171.108	35.9218
174.483	48.6206
177.858	59.3288
181.233	72.0713
184.608	85.7943
187.982	97.1067
191.357	103.056
194.732	85.1665
198.107	50.5289
201.482	25.0275
204.857	11.9755
208.231	5.5152
211.606	1.70981
214.981	0.212469
218.356	0.101799
221.731	0.554632
225.106	0.334452
228.48	0.113813
231.855	0.179483
235.23	0.466118
238.605	0.413816
241.98	0.414128
245.354	1.97758
248.729	2.50606
252.104	3.38754
255.479	3.75223
258.854	5.6019
262.228	7.50015
265.603	9.72817
268.978	12.3756
272.353	16.2265
275.728	20.9739
279.103	27.5141
282.477	36.9732
285.852	46.811
289.227	56.6632
292.602	69.2492
295.977	79.1822
299.351	83.4659
302.726	73.6682
306.101	53.9657
309.476	34.7523
312.851	22.9557
316.226	14.3685
319.6	9.56801
322.975	6.52756
326.35	4.21936
329.725	2.95767
333.1	2.08623
336.474	0.960435
339.849	0.891911
343.224	0.695062
346.599	0.034556
349.974	0.173802
353.349	0.052972
356.723	0.523203
360.098	0.136523
363.473	0.125157
366.848	0.275959
370.223	0.099312
373.597	0.116701
376.972	0.0675
380.347	0.226323
383.722	0.534193
387.097	1.06877
390.471	1.22254
393.846	1.97623
397.221	2.6158
400.596	3.17474
403.971	3.24996
407.346	2.94306
410.72	2.4298
414.095	1.7244
417.47	1.72966
420.845	1.36932
424.22	1.53508
427.594	1.09682
430.969	0.813396
434.344	0.5214
437.719	0.438014
441.094	0.531189
444.469	0.166063
447.843	0.162445
451.218	0.182363
454.593	0.361454
457.968	0.088467
461.343	0.164922
464.717	0.55622
468.092	0.474677
471.467	0.583835
474.842	0.603511
478.217	0.444552
481.591	0.913802
484.966	0.957673
488.341	0.997618
491.716	0.999541
495.091	1.44224
498.466	1.71372
501.84	1.88453
505.215	2.33331
508.59	1.49029
511.965	1.34436
515.34	1.0242
518.715	0.7237
522.089	0.282492
525.464	0.651891
528.839	0.138126
532.214	0.251756
535.589	0.252896
538.963	0.166245
542.338	0.205073
545.713	0.12752
549.088	0.037452
552.463	0.140926
555.837	0.58559
559.212	0.068667
562.587	0.248113
565.962	0.090941
569.337	0.108914
572.712	0.158047
576.086	0.44674
579.461	0.253158
582.836	0.285089
586.211	0.173383
589.586	0.231658
592.96	0.013585
596.335	0.340268
599.71	0.41413
603.085	0.582194
606.46	0.416957
609.835	0.325988
613.209	0.237259
616.584	0.079274
619.959	0.181851
623.334	0.202919
626.709	0.341594
630.083	0.217043
633.458	0.154512
636.833	0.106579
640.208	0.106682
643.583	0.359036
646.957	0.092973
650.332	0.216586
653.707	0.35346
657.082	0.094575
660.457	0.209684
663.832	0.272093
667.206	0.308085
670.581	0.303859
673.956	0.294883
677.331	0.33407
680.706	0.187095
684.081	0.546077
687.455	0.55396
690.83	0.495896
694.205	1.01938
697.58	1.039
700.955	1.25286
704.329	1.37277
707.704	1.55949
711.079	2.60226
714.454	5.00034
717.829	7.98847
721.203	11.4765
724.578	17.028
727.953	27.7964
731.328	28.3224
734.703	10.2296
738.077	4.25077
741.452	2.23364
744.827	1.16915
748.202	0.788725
751.577	0.528782
754.952	0.09323
758.326	0.254273
761.701	0.019539
765.076	0.224093
768.451	0.055849
771.826	0.066933
775.201	0.048654
778.575	0.072137
781.95	0.069817
785.325	0.032233
788.7	0.05434
792.075	0.0618
795.449	0.316441
798.824	0.045445
802.199	0.062215
805.574	0.215598
808.949	0.20151
812.323	0.037381
815.698	0.184703
819.073	0.255605
822.448	0.261801
825.823	0.482345
829.198	0.488354
832.572	0.343546
835.947	0.613934
839.322	0.668661
842.697	0.323475
846.072	0.681196
849.447	0.491939
852.821	0.551848
856.196	0.503259
859.571	0.445823
862.946	0.39654
866.321	0.505018
869.695	0.579062
873.07	0.42375
876.445	0.301853
879.82	0.502139
883.195	0.349877
886.569	0.452465
889.944	0.474432
893.319	0.799269
896.694	0.398355
900.069	0.344095
903.443	0.304476
906.818	0.241746
910.193	0.479083
913.568	0.399875
916.943	0.122903
920.318	0.537956
923.692	0.439306
927.067	0.256247
930.442	0.409025
933.817	0.038955
937.192	0.366874
940.567	0.268335
943.941	0.223677
947.316	0.267581
950.691	0.153208
954.066	0.364724
957.441	0.443047
960.815	0.107865
964.19	0.24314
967.565	0.401125
970.94	0.074959
974.315	0.084614
977.689	0.003389
981.064	0.069842
984.439	0.113165
987.814	0.196338
991.189	0.092702
994.563	0.060292
997.938	0.057036
1001.31	0.024241
1004.69	0.069533
1008.06	0.013359
1011.44	0.064169
1014.81	0.408463
1018.19	0.576849
1021.56	0.88839
1024.94	1.14459
1028.31	1.58594
1031.69	2.02862
1035.06	2.72614
1038.44	3.53734
1041.81	4.43281
1045.19	5.11861
1048.56	5.78464
1051.93	6.79471
1055.31	8.3773
1058.68	9.68222
1062.06	13.2582
1065.43	17.3553
1068.81	24.2852
1072.18	36.7691
1075.56	57.6242
1078.93	97.5169
1082.31	147.848
1085.68	208.17
1089.06	284.581
1092.43	308.789
1095.81	185.146
1099.18	81.1809
1102.56	38.8457
1105.93	20.8445
1109.31	12.0591
1112.68	7.25904
1116.06	4.93465
1119.43	3.47154
1122.81	1.89627
1126.18	1.19919
1129.56	0.736785
1132.93	0.677068
1136.31	0.213182
1139.68	0.10449
1143.06	0.096255
1146.43	0.217113
1149.81	0.004791
1153.18	0.068116
1156.56	0.233659
1159.93	0.015573
1163.3	0.063402
1166.68	0.036355
1170.05	0.203615
1173.43	0.166398
1176.8	0.2978
1180.18	0.316636
1183.55	0.32503
1186.93	0.347001
1190.3	0.341011
1193.68	0.548015
1197.05	0.412952
1200.43	0.592615
1203.8	0.256103
1207.18	0.579727
1210.55	0.401151
1213.93	0.272463
1217.3	0.449918
1220.68	0.198845
1224.05	0.16057
1227.43	0.052594
1230.8	0.119545
1234.18	0.300844
1237.55	0.293639
1240.92	0.201339
1244.3	0.168478
1247.67	0.059621
1251.05	0.01431
1254.42	0.087641
1257.8	0.17378
1261.17	0.113191
1264.55	0.133844
1267.92	0.274164
1271.3	0.26824
1274.67	0.025706
1278.05	0.101552
1281.42	0.014128
1284.8	0.185157
