Measurement: Raman, 514 nm, unoriented, Raman Data Processed
Mineral: Rosasite
Rruff sample: R050294
Ideal chemistry: CuZnCO_3_(OH)_2_
Locality: 79 mine, 4th level, Hayden, Gila County, Arizona, USA
Source: George Godas, John Callahan
Description: Green botryoidal crust associated with intergrown smithsonite
Measured chemistry: (Cu_1.24_Zn_0.76_)_Î£=2_(CO_3_)(OH)_2_
Raman shift (cm-1)	intensity
86.404	0
90.587	116.059
94.768	36.017
98.947	378.907
103.124	951.018
107.3	1084.64
111.473	865.762
115.644	1403.38
119.813	2236.25
123.981	2368.2
128.146	2439.39
132.309	2799.47
136.47	4408.24
140.63	5891.11
144.787	5682.55
148.942	5536.18
153.096	4412.69
157.247	2946.71
161.396	2172.25
165.544	1694.38
169.689	1576.21
173.833	1792.69
177.974	2276.98
182.114	3309.38
186.251	5223.96
190.387	7103.86
194.52	7667.01
198.652	5711.77
202.782	3140.8
206.909	1940.2
211.035	1162.94
215.159	739.982
219.281	735.276
223.4	834.286
227.518	1291.14
231.634	1384.59
235.748	913.161
239.86	593.535
243.97	333.06
248.079	182.894
252.185	103.901
256.289	3.999
260.391	97.869
264.492	4.729
268.59	66.525
272.687	181.359
276.781	454.399
280.874	664.449
284.964	1005.32
289.053	1758.85
293.14	3271.94
297.225	5879.41
301.308	8970.19
305.389	9446.23
309.468	6268.53
313.545	3535.08
317.62	2162.84
321.693	1527.68
325.765	1259.5
329.834	1351.26
333.902	1227.95
337.967	946.583
342.031	625.025
346.093	280.427
350.153	116.795
354.21	15.905
358.267	65.828
362.321	135.102
366.373	183.907
370.423	123.289
374.471	62.148
378.518	30.616
382.563	233.178
386.605	414.395
390.646	625.648
394.685	833.024
398.722	1295.79
402.757	2150.51
406.79	2658.11
410.821	2324.13
414.851	1695.08
418.878	1280.24
422.904	1060.23
426.927	972.235
430.949	825.049
434.969	679.874
438.987	663.279
443.003	346.316
447.018	368.845
451.03	364.767
455.041	276.195
459.049	325.39
463.056	441.648
467.061	503.569
471.064	672.733
475.065	804.762
479.064	918.646
483.062	956.671
487.057	956.908
491.051	961.231
495.043	1225.25
499.032	1619.1
503.02	2230.98
507.007	2807.1
510.991	2563.34
514.973	2067.18
518.954	1645.46
522.933	1343.88
526.91	907.982
530.885	765.421
534.858	484.03
538.829	286.758
542.799	342.474
546.766	245.949
550.732	98.191
554.696	140.208
558.658	193.013
562.618	190.602
566.576	142.977
570.533	120.126
574.488	78.051
578.44	27.698
582.391	38.091
586.341	34.094
590.288	113.757
594.233	20.141
598.177	29.781
602.119	12.104
606.059	76.787
609.997	38.743
613.933	116.666
617.868	83.474
621.801	0.075
625.731	104.538
629.66	34.98
633.588	8.217
637.513	108.241
641.437	127.998
645.358	114.45
649.278	56.562
653.196	140.791
657.113	10.196
661.027	99.176
664.94	33.396
668.851	88.321
672.76	95.105
676.667	93.936
680.572	158.915
684.476	228.228
688.378	157.83
692.278	450.617
696.176	789.46
700.072	1384.19
703.967	1053.79
707.86	609.095
711.751	404.436
715.64	413.625
719.527	406.641
723.413	562.561
727.297	1581.82
731.179	3223.58
735.059	1195.31
738.937	582.541
742.814	346.148
746.689	222.893
750.562	151.766
754.433	89.834
758.303	40.218
762.17	56.242
766.036	22.142
769.901	42.014
773.763	102.63
777.624	27.292
781.482	19.311
785.339	88.906
789.195	72.399
793.048	62.154
796.9	54.416
800.75	27.166
804.598	85.355
808.445	14.558
812.289	64.914
816.132	3.096
819.973	86.161
823.813	71.105
827.65	232.811
831.486	406.574
835.32	131.582
839.152	70.467
842.983	133.419
846.812	76.411
850.639	48.115
854.464	87.599
858.288	97.795
862.11	191.069
865.93	125.429
869.748	206.88
873.564	253.431
877.379	212.073
881.192	199.833
885.004	226.73
888.813	319.786
892.621	434.018
896.427	288.437
900.232	406.061
904.034	448.823
907.835	520.77
911.634	465.924
915.432	348.582
919.227	403.261
923.021	300.281
926.813	268.155
930.604	267.62
934.393	219.614
938.18	201.182
941.965	219.42
945.749	180.052
949.53	113.83
953.311	135.995
957.089	7.376
960.866	93.199
964.641	13.998
968.414	47.903
972.185	2.909
975.955	113.46
979.723	122.01
983.49	169.812
987.254	106.866
991.017	90.718
994.779	128.498
998.538	224.1
1002.3	181.919
1006.05	159.209
1009.81	185.56
1013.56	257.48
1017.31	247.493
1021.06	265.448
1024.81	405.552
1028.55	372.843
1032.3	506.554
1036.04	595.237
1039.78	771.348
1043.52	986.377
1047.26	1194.56
1050.99	1309.89
1054.73	1451.36
1058.46	1613.95
1062.19	1769.68
1065.92	2033.42
1069.65	2279.93
1073.37	2918.02
1077.1	4553.4
1080.82	7818.83
1084.54	12831.6
1088.26	19886.6
1091.97	33863.4
1095.69	29714.7
1099.4	12782.9
1103.12	5481.45
1106.83	2677.35
1110.54	1581.17
1114.24	951.662
1117.95	750.582
1121.65	661.503
1125.35	786.595
1129.06	293.951
1132.75	245.955
1136.45	223.666
1140.15	76.262
1143.84	133.21
1147.53	90.381
1151.22	9.183
1154.91	31.047
1158.6	68.357
1162.28	5.24
1165.97	65.055
1169.65	72.39
1173.33	54.17
1177.01	78.891
1180.69	59.349
1184.36	145.037
1188.04	125.757
1191.71	162.979
1195.38	62.562
1199.05	86.447
1202.71	178.203
1206.38	105.688
1210.04	25.667
1213.71	81.486
1217.37	133.107
1221.03	42.509
1224.68	46.656
1228.34	4.517
1231.99	34.066
1235.65	98.281
1239.3	24.151
1242.95	114.708
1246.59	33.117
1250.24	95.762
1253.88	21.458
1257.53	50.623
1261.17	11.919
1264.81	45.159
1268.45	59.142
1272.08	47.65
1275.72	17.204
1279.35	61.85
1282.98	64.751
1286.61	35.69
1290.24	6.221
1293.87	15.231
1297.49	70.666
1301.11	4.634
1304.73	22.662
1308.36	5.169
1311.97	45.28
1315.59	50.51
1319.2	30.947
1322.82	5.209
1326.43	97.813
1330.04	34.589
1333.65	12.609
1337.26	111.376
1340.86	124.25
1344.47	182.747
1348.07	235.614
1351.67	132.666
1355.27	354.55
1358.87	388.603
1362.46	370.383
1366.06	359.765
1369.65	360.677
1373.24	285.877
1376.83	359.457
1380.42	544.673
1384	500.524
1387.59	638.947
1391.17	778.09
1394.75	944.975
1398.33	1118.04
1401.91	1623.76
1405.49	3218.36
1409.06	4720.36
1412.64	2575.46
1416.21	999.524
1419.78	337.192
1423.35	170.32
1426.91	194.814
1430.48	47.725
1434.05	9.663
1437.61	25.424
1441.17	111.537
1444.73	143.685
1448.29	163.604
1451.84	398.69
1455.4	612.304
1458.95	395.067
1462.5	267.935
1466.05	193.194
1469.6	124.539
1473.15	18.142
1476.69	44.674
1480.24	4.019
1483.78	25.7
1487.32	44.807
1490.86	110.775
1494.39	360.947
1497.93	481.922
1501.46	792.636
1505	926.927
1508.53	1083.74
1512.06	1323.29
1515.59	1192.43
1519.11	897.795
1522.64	382.261
1526.16	0
