Measurement: Raman, 532 nm, unoriented, Raman Data Processed
Mineral: Rosasite
Rruff sample: R050294
Ideal chemistry: CuZnCO_3_(OH)_2_
Locality: 79 mine, 4th level, Hayden, Gila County, Arizona, USA
Source: George Godas, John Callahan
Description: Green botryoidal crust associated with intergrown smithsonite
Measured chemistry: (Cu_1.24_Zn_0.76_)_Î£=2_(CO_3_)(OH)_2_
Raman shift (cm-1)	intensity
114.049	0
117.424	3.50648
120.798	25.5196
124.173	40.6836
127.548	46.3627
130.923	63.6713
134.298	89.8053
137.673	124.567
141.047	138.732
144.422	128.33
147.797	125.827
151.172	106.759
154.547	81.4806
157.921	55.5472
161.296	42.7729
164.671	39.066
168.046	40.7047
171.421	51.6632
174.796	72.9592
178.17	100.915
181.545	130.223
184.92	163.705
188.295	204.366
191.67	234.422
195.044	230.564
198.419	157.728
201.794	79.1277
205.169	37.2289
208.544	17.7076
211.918	3.97793
215.293	1.66409
218.668	0.455856
222.043	2.28513
225.418	4.98571
228.792	11.8124
232.167	11.5097
235.542	5.41531
238.917	0.149849
242.292	1.7868
245.667	3.18844
249.041	1.81445
252.416	0.978683
255.791	1.22761
259.166	5.09375
262.541	10.3345
265.916	16.6169
269.29	26.2153
272.665	39.9252
276.04	57.7671
279.415	82.8448
282.79	123.832
286.164	177.981
289.539	245.2
292.914	331.569
296.289	436.749
299.664	544.818
303.038	574.667
306.413	451.608
309.788	284.879
313.163	171.519
316.538	109.98
319.913	76.8598
323.287	56.8875
326.662	47.0303
330.037	40.3012
333.412	34.7602
336.787	26.5765
340.161	19.4387
343.536	13.5876
346.911	8.39442
350.286	5.92641
353.661	3.01025
357.036	0.329548
360.41	0.11446
363.785	0.62706
367.16	1.35315
370.535	0.047691
373.91	1.39319
377.284	1.96149
380.659	4.47833
384.034	8.01296
387.409	13.214
390.784	17.8127
394.159	24.8558
397.533	35.829
400.908	47.7738
404.283	60.6794
407.658	62.0482
411.033	50.6874
414.407	39.7625
417.782	31.462
421.157	28.5157
424.532	24.445
427.907	19.3391
431.281	15.4703
434.656	10.2454
438.031	6.17452
441.406	2.78108
444.781	0.581059
448.156	1.37761
451.53	0.013111
454.905	0.028063
458.28	0.292355
461.655	0.443699
465.03	0.835716
468.404	2.34722
471.779	3.43999
475.154	5.96018
478.529	7.79521
481.904	9.35342
485.279	11.2384
488.653	12.9812
492.028	17.4057
495.403	24.0548
498.778	31.1744
502.153	42.3659
505.527	49.5144
508.902	47.5715
512.277	39.0422
515.652	30.541
519.027	24.4063
522.402	18.6637
525.776	14.9325
529.151	10.0793
532.526	6.3725
535.901	4.07997
539.276	1.94568
542.65	1.54885
546.025	0.190039
549.4	0.157557
552.775	0.393444
556.15	0.245132
559.525	0.261417
562.899	0.875411
566.274	0.347608
569.649	0.441417
573.024	0.281802
576.399	0.577442
579.774	0.110031
583.148	0.29382
586.523	0.248118
589.898	0.047981
593.273	0.458146
596.648	0.520313
600.022	0.876207
603.397	0.585719
606.772	0.72721
610.147	0.398194
613.522	0.681929
616.896	0.506598
620.271	0.718541
623.646	0.805855
627.021	0.992487
630.396	1.10685
633.77	1.29477
637.145	0.820352
640.52	1.12337
643.895	0.62556
647.27	0.377355
650.645	0.510175
654.019	0.227201
657.394	0.914954
660.769	0.122228
664.144	0.710661
667.519	0.823236
670.894	0.7739
674.268	1.29678
677.643	1.86788
681.018	2.55112
684.393	2.90544
687.768	5.32883
691.142	8.01701
694.517	13.4459
697.892	19.2317
701.267	23.5603
704.642	17.257
708.016	9.89629
711.391	7.59388
714.766	10.6164
718.141	16.6755
721.516	24.7491
724.891	43.3601
728.265	73.432
731.64	80.4775
735.015	27.3549
738.39	14.4537
741.765	8.85055
745.139	4.75118
748.514	3.0377
751.889	1.73938
755.264	0.800873
758.639	0.944607
762.014	0.129632
765.388	0.092161
768.763	0.09254
772.138	0.067771
775.513	0.030849
778.888	0.254075
782.263	0.057793
785.637	0.272586
789.012	0.136427
792.387	0.029456
795.762	0.374068
799.136	0.138041
802.511	0.725446
805.886	0.575356
809.261	0.382268
812.636	0.850319
816.011	1.37771
819.385	0.666218
822.76	1.59397
826.135	0.957099
829.51	1.07844
832.885	0.821264
836.26	1.00976
839.634	1.50028
843.009	0.485497
846.384	1.79312
849.759	0.755863
853.134	0.852089
856.508	1.52668
859.883	1.30952
863.258	2.11026
866.633	2.18527
870.008	1.57255
873.383	2.00898
876.757	1.53353
880.132	2.07548
883.507	1.42969
886.882	2.20542
890.257	2.64846
893.631	2.89689
897.006	3.2048
900.381	3.19898
903.756	3.78755
907.131	3.94444
910.505	3.48904
913.88	3.21477
917.255	3.60798
920.63	2.99375
924.005	2.7371
927.38	2.63965
930.754	1.89291
934.129	1.73958
937.504	1.90227
940.879	1.76002
944.254	1.47055
947.629	1.59815
951.003	1.08009
954.378	1.227
957.753	1.23364
961.128	0.850779
964.503	0.727709
967.877	0.418745
971.252	0.106399
974.627	0.326089
978.002	0.102693
981.377	0.115296
984.751	0.041508
988.126	0.441728
991.501	0.749532
994.876	0.706785
998.251	0.191115
1001.63	0.236291
1005	0.360105
1008.38	0.55709
1011.75	0.572055
1015.12	2.0026
1018.5	2.48627
1021.87	3.60012
1025.25	5.26448
1028.62	7.30471
1032	9.33713
1035.37	11.93
1038.75	15.7092
1042.12	19.0726
1045.5	23.6691
1048.87	28.301
1052.25	31.3166
1055.62	36.8141
1059	41.2647
1062.37	47.1717
1065.75	58.2434
1069.12	77.1306
1072.5	109.303
1075.87	168.49
1079.25	284.689
1082.62	470.009
1086	704.321
1089.37	1030.15
1092.75	1310.42
1096.12	869.25
1099.49	363.152
1102.87	164.812
1106.24	85.1732
1109.62	48.8079
1112.99	29.8638
1116.37	19.1618
1119.74	11.8326
1123.12	8.64635
1126.49	4.67262
1129.87	2.92815
1133.24	1.66596
1136.62	1.10862
1139.99	0.078792
1143.37	0.258775
1146.74	0.294893
1150.12	0.59616
1153.49	0.652718
1156.87	0.498465
1160.24	0.048868
1163.62	0.165431
1166.99	0.131797
1170.37	0.581945
1173.74	0.614271
1177.12	1.01035
1180.49	1.12638
1183.87	1.41505
1187.24	1.26734
1190.62	1.86104
1193.99	1.63042
1197.37	1.72782
1200.74	1.70572
1204.12	1.70325
1207.49	1.8244
1210.86	1.6099
1214.24	1.17355
1217.61	1.17338
1220.99	0.55179
1224.36	1.19266
1227.74	0.553712
1231.11	0.234035
1234.49	0.604505
1237.86	0.403047
1241.24	0.149011
1244.61	0.53783
1247.99	0.285348
1251.36	0.510189
1254.74	0.457615
1258.11	0.648277
1261.49	0.637338
1264.86	0.917192
1268.24	0.642694
1271.61	0.841478
1274.99	1.10859
1278.36	0.727614
1281.73	0.550861
1285.11	0.484418
1288.48	0.181992
1291.86	0.219762
1295.23	0.616905
1298.61	0.329569
1301.98	0.019976
