Measurement: Raman, 780 nm, unoriented, Raman Data Processed
Mineral: Roscherite
Rruff sample: R130054
Ideal chemistry: Ca_2_Mn^2+^_5_Be_4_(PO_4_)_6_(OH)_4_6H_2_O
Locality: Tip Top mine, Custer, South Dakota, USA
Source: Thomas A. Loomis
Description: Yellowish-brown spheroidal aggregates, associated with R130055 whiteite-(CaMnMg)
Measured chemistry: (Ca_1.95_K_0.04_Sr_0.02_Ba_0.01_)_1.02_(Mn_2.77_Fe_0.78_Mg_0.63_Al_0.16_Zn_0.07_)_4.41_Be_4_(P_1.03_O4)_6_(OH)_4_Â·6H_2_O ; Middle part. Be content assumed ideal.
Raman shift (cm-1)	intensity
91.6817	0
95.0565	2.39199
98.4313	0.460869
101.806	1.06287
105.181	3.65816
108.556	2.73708
111.931	0.581543
115.305	0.380753
118.68	0.505898
122.055	1.27851
125.43	2.11117
128.805	4.32667
132.179	4.92005
135.554	3.76288
138.929	3.06185
142.304	1.56411
145.679	1.83302
149.054	1.45362
152.428	1.57475
155.803	1.72615
159.178	3.59175
162.553	7.089
165.928	10.5697
169.302	14.9683
172.677	17.4858
176.052	15.6684
179.427	12.5746
182.802	8.71891
186.177	4.89482
189.551	5.24995
192.926	4.09353
196.301	4.37909
199.676	4.90115
203.051	5.60692
206.425	4.16271
209.8	4.02687
213.175	3.23454
216.55	0.844036
219.925	1.3926
223.299	0.564312
226.674	0.956165
230.049	0.105244
233.424	0.619297
236.799	0.313168
240.173	0.961647
243.548	2.47326
246.923	2.37163
250.298	2.51106
253.673	2.56896
257.048	4.10326
260.422	3.93823
263.797	3.96329
267.172	3.66179
270.547	2.51151
273.922	2.49773
277.296	1.93142
280.671	1.71928
284.046	2.76341
287.421	2.30006
290.796	3.09905
294.171	3.97315
297.545	4.2634
300.92	3.36739
304.295	2.89015
307.67	2.93238
311.045	2.65852
314.42	2.42712
317.794	2.50014
321.169	2.86778
324.544	2.99587
327.919	3.63457
331.293	3.25424
334.668	3.95296
338.043	4.60409
341.418	3.0728
344.793	1.29277
348.168	0.147232
351.542	0.614679
354.917	0.43783
358.292	0.924774
361.667	2.99866
365.042	6.29053
368.416	9.9303
371.791	14.602
375.166	16.9301
378.541	17.6102
381.916	16.1965
385.291	12.1628
388.665	9.09269
392.04	4.42629
395.415	3.06509
398.79	1.50464
402.165	1.45528
405.539	1.85746
408.914	0.990105
412.289	0.121969
415.664	0.54755
419.039	0.166546
422.413	1.28228
425.788	3.2858
429.163	7.22679
432.538	12.8337
435.913	17.1153
439.288	19.1495
442.662	18.4702
446.037	16.8642
449.412	15.1434
452.787	13.8395
456.162	10.5179
459.536	9.71072
462.911	8.26617
466.286	6.20246
469.661	5.30471
473.036	5.08946
476.411	2.74309
479.785	1.86084
483.16	1.55851
486.535	2.56594
489.91	4.66056
493.285	8.48942
496.659	11.6338
500.034	12.263
503.409	11.0187
506.784	8.76196
510.159	7.65297
513.534	6.23946
516.908	5.03075
520.283	4.11731
523.658	3.75361
527.033	2.41405
530.408	1.21154
533.782	0.435865
537.157	0.442112
540.532	0.41856
543.907	0.577776
547.282	0.340534
550.656	0.790279
554.031	1.86565
557.406	3.6386
560.781	4.06925
564.156	4.42298
567.53	3.63277
570.905	3.1649
574.28	3.84928
577.655	3.6557
581.03	3.58516
584.405	3.82007
587.779	3.3786
591.154	3.47588
594.529	3.47973
597.904	4.56994
601.279	4.8837
604.654	3.96554
608.028	2.4405
611.403	1.1541
614.778	0.54442
618.153	0.270142
621.528	0.31498
624.902	1.16592
628.277	3.29062
631.652	5.22602
635.027	6.78707
638.402	6.68103
641.776	5.47109
645.151	3.40829
648.526	3.33255
651.901	2.25085
655.276	1.49694
658.65	2.21145
662.025	1.34548
665.4	1.58631
668.775	1.36857
672.15	1.6213
675.525	1.36793
678.899	1.63932
682.274	0.825899
685.649	0.791306
689.024	0.694885
692.399	0.523021
695.774	0.530769
699.148	0.839486
702.523	0.254007
705.898	0.751822
709.273	0.625787
712.648	0.048677
716.022	0.424437
719.397	0.510569
722.772	0.246378
726.147	0.278554
729.522	0.272305
732.896	0.174393
736.271	0.225684
739.646	0.342798
743.021	0.154884
746.396	0.127992
749.77	0.769168
753.145	0.462222
756.52	0.4908
759.895	1.37352
763.27	1.72921
766.645	2.04987
770.019	2.21656
773.394	2.20979
776.769	1.81768
780.144	1.9779
783.519	1.89362
786.894	1.77723
790.268	1.24888
793.643	1.31729
797.018	1.16629
800.393	1.15229
803.768	1.19706
807.142	1.39742
810.517	1.04516
813.892	1.10556
817.267	1.43087
820.642	1.50494
824.016	1.80732
827.391	1.46215
830.766	1.68506
834.141	1.92017
837.516	1.35481
840.89	1.42052
844.265	1.6699
847.64	1.60676
851.015	1.6319
854.39	1.13572
857.765	1.38562
861.139	1.02099
864.514	1.50956
867.889	1.07654
871.264	0.970999
874.639	0.953877
878.013	0.654569
881.388	0.468425
884.763	0.304725
888.138	0.554992
891.513	0.118647
894.888	0.261032
898.262	0.201159
901.637	0.381162
905.012	0.06958
908.387	0.716242
911.762	0.055275
915.136	0.523304
918.511	0.268564
921.886	0.462522
925.261	0.114951
928.636	0.987721
932.01	1.8105
935.385	3.45504
938.76	5.28841
942.135	7.89972
945.51	9.97842
948.885	12.6622
952.259	15.2956
955.634	17.9718
959.009	21.4717
962.384	26.7505
965.759	31.2968
969.133	34.9375
972.508	40.335
975.883	44.9797
979.258	50.5257
982.633	54.1865
986.008	53.8407
989.382	51.5947
992.757	48.0187
996.132	42.1155
999.507	37.6532
1002.88	31.3768
1006.26	25.8344
1009.63	22.0365
1013.01	17.6527
1016.38	15.0454
1019.76	12.224
1023.13	9.39339
1026.51	7.95046
1029.88	6.82737
1033.26	4.22305
1036.63	2.57188
1040.01	1.43851
1043.38	0.755335
1046.75	0.609003
1050.13	0.013725
1053.5	0.323315
1056.88	0.411173
1060.25	0.185928
1063.63	0.011053
1067	0.217712
1070.38	0.840504
1073.75	0.765034
1077.13	1.13093
1080.5	1.05921
1083.88	1.30333
1087.25	0.892206
1090.63	0.753855
1094	0.223215
1097.38	0.002407
1100.75	0.129631
1104.13	0.531267
1107.5	0.707708
1110.88	0.02313
1114.25	0.13184
1117.62	0.107439
1121	0.176579
1124.38	0.518996
1127.75	0.715773
1131.12	0.433023
1134.5	0.608603
1137.87	0.63548
1141.25	0.918566
1144.62	1.26701
1148	0.520897
1151.37	0.997426
1154.75	0.638095
1158.12	0.602232
1161.5	0.734969
1164.87	0.478158
1168.25	0.295444
1171.62	0.471947
1175	0.137774
1178.37	0.190452
1181.75	0.18994
1185.12	0.099081
1188.5	0.084696
1191.87	0.300482
1195.25	0.530899
1198.62	0.94745
1202	0.923546
1205.37	0.675144
1208.74	0.835782
1212.12	0.74356
1215.49	1.17952
1218.87	1.27035
1222.24	0.546718
1225.62	1.12939
1228.99	1.23534
1232.37	0.495673
1235.74	0.633598
1239.12	0.97544
1242.49	0.914981
1245.87	0.424187
1249.24	0.588539
1252.62	0.529386
1255.99	0.747221
1259.37	1.29262
1262.74	0.666597
1266.12	0.205501
1269.49	0.262493
1272.87	0.222369
1276.24	0.199286
1279.62	0.416638
1282.99	0.250455
