Measurement: Raman, 532 nm, unoriented, Raman Data Processed
Mineral: Roscherite
Rruff sample: R130054
Ideal chemistry: Ca_2_Mn^2+^_5_Be_4_(PO_4_)_6_(OH)_4_6H_2_O
Locality: Tip Top mine, Custer, South Dakota, USA
Source: Thomas A. Loomis
Description: Yellowish-brown spheroidal aggregates, associated with R130055 whiteite-(CaMnMg)
Measured chemistry: (Ca_1.95_K_0.04_Sr_0.02_Ba_0.01_)_1.02_(Mn_2.77_Fe_0.78_Mg_0.63_Al_0.16_Zn_0.07_)_4.41_Be_4_(P_1.03_O4)_6_(OH)_4_Â·6H_2_O ; Middle part. Be content assumed ideal.
Raman shift (cm-1)	intensity
90.808	0
94.1828	0.452568
97.5576	0.848495
100.932	2.64138
104.307	1.31158
107.682	1.38637
111.057	0.956299
114.432	2.89636
117.806	2.16022
121.181	3.37397
124.556	3.43275
127.931	5.27841
131.306	4.59824
134.681	4.0727
138.055	3.25003
141.43	2.37586
144.805	1.31425
148.18	0.498035
151.555	0.225893
154.929	0.768673
158.304	0.321079
161.679	0.700111
165.054	0.289963
168.429	0.157255
171.804	0.293659
175.178	0.186142
178.553	2.74626
181.928	5.23416
185.303	6.39338
188.678	7.3093
192.053	8.6092
195.427	10.2646
198.802	9.90048
202.177	10.4637
205.552	10.1626
208.927	9.15765
212.301	8.70367
215.676	6.65161
219.051	5.54922
222.426	3.82029
225.801	3.38888
229.175	2.69763
232.55	1.42668
235.925	0.342398
239.3	0.076561
242.675	0.166224
246.05	0.944393
249.424	0.415842
252.799	1.95972
256.174	2.29104
259.549	2.77634
262.924	3.90102
266.298	4.01559
269.673	3.45168
273.048	2.70252
276.423	1.79542
279.798	1.04396
283.173	1.13289
286.547	2.16037
289.922	1.89663
293.297	3.09444
296.672	3.21773
300.047	1.96854
303.421	1.37559
306.796	1.10067
310.171	1.08162
313.546	1.62311
316.921	1.73704
320.296	2.73624
323.67	3.27629
327.045	3.33771
330.42	3.87735
333.795	4.84057
337.17	5.40368
340.544	5.25716
343.919	3.40563
347.294	2.40877
350.669	0.569328
354.044	0.792023
357.418	3.24379
360.793	5.41588
364.168	8.88092
367.543	13.4985
370.918	19.0091
374.293	23.1004
377.667	23.1839
381.042	21.379
384.417	15.4966
387.792	10.172
391.167	4.7559
394.541	1.60357
397.916	0.309439
401.291	0.828928
404.666	0.573811
408.041	0.027134
411.416	0.646042
414.79	0.507244
418.165	2.31029
421.54	3.53633
424.915	6.75375
428.29	11.5747
431.664	16.8719
435.039	22.7952
438.414	24.7049
441.789	23.6322
445.164	20.2864
448.539	16.9105
451.913	14.275
455.288	12.3877
458.663	10.778
462.038	8.34152
465.413	6.72506
468.788	6.15017
472.162	5.20755
475.537	4.94691
478.912	3.45454
482.287	3.23724
485.662	3.74726
489.036	6.47753
492.411	10.414
495.786	13.5541
499.161	15.6875
502.536	13.864
505.911	11.1793
509.285	8.92624
512.66	7.26705
516.035	6.40979
519.41	5.28719
522.784	4.18504
526.159	3.16447
529.534	2.20613
532.909	0.618454
536.284	0.40711
539.659	0.071585
543.033	0.762093
546.408	0.220858
549.783	1.02944
553.158	2.29196
556.533	4.02026
559.908	5.3934
563.282	5.36336
566.657	4.84853
570.032	4.64644
573.407	3.8692
576.782	3.98271
580.156	4.31662
583.531	4.04939
586.906	2.72858
590.281	2.02122
593.656	2.23193
597.03	1.84685
600.405	1.97777
603.78	2.26374
607.155	1.4367
610.53	1.21533
613.905	0.693188
617.279	0.307119
620.654	0.022722
624.029	0.526474
627.404	0.007917
630.779	1.62758
634.154	3.17443
637.528	3.55401
640.903	2.85459
644.278	2.74727
647.653	2.02898
651.028	2.23101
654.402	2.95643
657.777	2.36273
661.152	2.75348
664.527	2.83773
667.902	2.86156
671.277	2.58869
674.651	3.16454
678.026	2.5263
681.401	2.47183
684.776	2.51469
688.151	2.09119
691.525	1.43474
694.9	1.39409
698.275	0.92771
701.65	1.3593
705.025	0.974728
708.399	0.849062
711.774	0.974154
715.149	0.916815
718.524	0.34766
721.899	0.130344
725.274	0.724501
728.648	0.024881
732.023	0.636705
735.398	0.47484
738.773	0.163733
742.148	0.061822
745.523	0.032708
748.897	0.062526
752.272	0.016272
755.647	0.698405
759.022	1.26862
762.396	1.42481
765.771	1.92162
769.146	2.19902
772.521	2.84709
775.896	3.1059
779.271	2.82713
782.645	1.92885
786.02	1.61806
789.395	1.81128
792.77	1.69838
796.145	1.88372
799.519	1.31749
802.894	1.5665
806.269	1.49741
809.644	1.58628
813.019	1.96058
816.394	1.37792
819.768	2.08859
823.143	1.8201
826.518	1.88588
829.893	2.45598
833.268	2.20277
836.643	1.99037
840.017	1.7774
843.392	1.77936
846.767	1.97378
850.142	1.68623
853.517	1.93787
856.891	1.761
860.266	1.50261
863.641	1.64327
867.016	1.62068
870.391	1.29185
873.765	1.02913
877.14	1.16978
880.515	1.33558
883.89	0.922343
887.265	0.103577
890.64	0.618459
894.014	0.383158
897.389	0.104411
900.764	0.125197
904.139	0.029207
907.514	0.340743
910.889	0.417584
914.263	0.069615
917.638	0.076311
921.013	0.014007
924.388	0.274986
927.763	0.838162
931.137	1.82393
934.512	3.21834
937.887	5.54589
941.262	8.67734
944.637	11.2564
948.011	14.5686
951.386	17.7496
954.761	20.6789
958.136	24.3112
961.511	29.8304
964.886	34.5345
968.26	40.2119
971.635	46.902
975.01	54.1508
978.385	63.8375
981.76	70.6041
985.135	70.9429
988.509	67.3043
991.884	60.5841
995.259	52.4224
998.634	44.5204
1002.01	38.5959
1005.38	31.8617
1008.76	26.9155
1012.13	22.254
1015.51	17.6936
1018.88	13.4155
1022.26	10.4347
1025.63	7.91108
1029.01	5.32625
1032.38	2.72433
1035.76	1.6985
1039.13	0.878576
1042.51	0.333803
1045.88	0.186134
1049.26	0.095646
1052.63	0.005651
1056.01	0.348003
1059.38	0.085518
1062.76	0.063236
1066.13	0.668671
1069.51	0.755028
1072.88	1.32347
1076.26	1.64367
1079.63	1.74036
1083	2.65404
1086.38	2.04245
1089.75	1.57449
1093.13	1.12066
1096.5	1.51944
1099.88	1.68682
1103.25	1.68791
1106.63	1.80509
1110	1.84166
1113.38	2.43797
1116.75	1.97777
1120.13	1.85858
1123.5	0.572424
1126.88	0.576527
1130.25	0.060215
1133.63	0.206993
1137	0.779295
1140.38	0.242878
1143.75	0.111725
1147.13	0.944107
1150.5	0.711479
1153.88	0.99872
1157.25	0.703033
1160.62	0.586756
1164	0.524508
1167.38	0.026706
1170.75	0.017741
1174.12	0.134827
1177.5	0.200683
1180.87	0.107272
1184.25	0.402037
1187.62	0.168906
1191	0.501365
1194.37	0.985274
1197.75	0.796545
1201.12	1.08561
1204.5	1.09262
1207.87	1.01538
1211.25	1.65638
1214.62	1.87208
1218	2.18661
1221.37	1.60256
1224.75	1.93711
1228.12	1.75371
1231.5	1.46684
1234.87	1.80397
1238.25	0.95608
1241.62	1.1406
1244.99	1.04142
1248.37	1.12874
1251.74	1.12777
1255.12	1.23648
1258.49	1.74613
1261.87	1.04043
1265.24	1.3291
1268.62	1.37588
1271.99	0.815504
1275.37	0.955607
1278.74	0.832851
1282.12	0.519524
1285.49	0.636555
1288.87	0.04239
1292.24	0.625429
1295.62	0.641851
1298.99	0.015939
