Measurement: Raman, 780 nm, unoriented, Raman Data Processed
Mineral: Roselite
Rruff sample: R150066
Ideal chemistry: Ca_2_Co^2+^(As^5+^O_4_)_2_2H_2_O
Locality: Bou Azzer, Morocco
Source: William Pinch
Description: Dark rose-pink elongated or thick tabular crystals, associated with quartz and calcite.
Measured chemistry: Ca_1.96_(Co_0.63_Mg_0.26_Zn_0.04_Fe_0.02_Mn_0.01_)_Ʃ=0.96_(As_1.02_O_4_)_2_·2H_2_O
Raman shift (cm-1)	intensity
99.7559	0
103.131	28.1571
106.505	50.4723
109.88	4.4054
113.255	2.1076
116.63	19.9623
120.005	60.7291
123.38	252.493
126.754	465.141
130.129	20.0837
133.504	6.09366
136.879	0.496506
140.254	19.6522
143.629	27.2055
147.003	38.5452
150.378	67.7077
153.753	119.492
157.128	209.387
160.503	297.32
163.877	282.352
167.252	267.576
170.627	313.518
174.002	418.805
177.377	600.566
180.751	890.369
184.126	1243.46
187.501	1447.47
190.876	1605
194.251	1380.54
197.625	757.396
201	425.281
204.375	312.368
207.75	286.155
211.125	229.366
214.5	154.492
217.874	99.0688
221.249	68.4369
224.624	54.4513
227.999	46.3441
231.374	45.0474
234.749	47.9007
238.123	47.9711
241.498	37.1754
244.873	40.1245
248.248	30.9306
251.623	8.80844
254.997	3.18127
258.372	7.12869
261.747	7.8723
265.122	5.38408
268.497	1.54222
271.872	1.33594
275.246	7.57031
278.621	29.8736
281.996	68.1955
285.371	98.7246
288.745	67.9139
292.12	59.7573
295.495	87.7923
298.87	177.286
302.245	368.882
305.62	579.614
308.994	499.95
312.369	345.535
315.744	256.971
319.119	219.421
322.494	237.643
325.868	304.223
329.243	440.911
332.618	694.789
335.993	1013.2
339.368	1001.23
342.743	726.717
346.117	625.491
349.492	754.146
352.867	1022.49
356.242	1271.19
359.617	1208.82
362.991	907.593
366.366	596.369
369.741	378.03
373.116	261.474
376.491	181.175
379.865	110.334
383.24	57.6332
386.615	20.4255
389.99	0.587967
393.365	11.7949
396.74	10.8021
400.114	3.35582
403.489	15.3268
406.864	38.3742
410.239	71.7541
413.614	147.978
416.988	266.531
420.363	334.382
423.738	261.257
427.113	170.687
430.488	105.626
433.863	64.9678
437.237	49.5997
440.612	54.8255
443.987	94.7607
447.362	177.17
450.737	319.741
454.111	352.942
457.486	205.621
460.861	96.3658
464.236	48.6427
467.611	28.8968
470.986	22.2672
474.36	25.5849
477.735	21.1435
481.11	17.8134
484.485	13.7987
487.86	8.17433
491.234	3.24844
494.609	1.07581
497.984	2.5525
501.359	0.799431
504.734	2.36143
508.108	1.8199
511.483	0.417999
514.858	1.39901
518.233	2.50676
521.608	2.12855
524.982	4.3316
528.357	6.69517
531.732	6.06594
535.107	8.60537
538.482	8.47111
541.857	10.5441
545.231	10.9351
548.606	11.5834
551.981	13.432
555.356	12.1011
558.731	11.7801
562.106	9.60925
565.48	6.51888
568.855	5.44438
572.23	5.24609
575.605	2.77293
578.98	1.87336
582.354	1.32465
585.729	0.187637
589.104	1.12641
592.479	0.428772
595.854	0.346504
599.229	0.898186
602.603	1.13827
605.978	1.83972
609.353	2.35258
612.728	3.6144
616.102	4.56598
619.477	7.18848
622.852	9.78074
626.227	11.5818
629.602	15.3658
632.977	22.2984
636.351	26.9523
639.726	31.1616
643.101	36.2065
646.476	41.4209
649.851	48.534
653.226	50.3816
656.6	52.3072
659.975	54.1372
663.35	46.9647
666.725	42.063
670.1	38.5374
673.474	31.7677
676.849	26.6166
680.224	22.4565
683.599	22.2464
686.974	21.5413
690.348	27.2967
693.723	25.9678
697.098	28.6753
700.473	43.6158
703.848	38.4785
707.222	39.2863
710.597	38.4274
713.972	33.6084
717.347	28.2901
720.722	20.5738
724.097	16.9448
727.471	8.71277
730.846	5.53783
734.221	0.309273
737.596	1.84094
740.971	5.07502
744.346	6.89896
747.72	7.11718
751.095	9.57637
754.47	7.38612
757.845	1.75185
761.22	3.89233
764.594	16.5296
767.969	37.3875
771.344	66.0862
774.719	105.667
778.094	147.424
781.468	184.791
784.843	202.583
788.218	217.321
791.593	246.451
794.968	287.578
798.342	360.942
801.717	486.438
805.092	705.203
808.467	1074.69
811.842	1719.12
815.217	2742.89
818.591	3818.82
821.966	3990.42
825.341	3168.5
828.716	2254.59
832.091	1744.69
835.466	1599.55
838.84	1638.17
842.215	1606.8
845.59	1310.85
848.965	927.85
852.34	650.683
855.714	502.373
859.089	441.449
862.464	433.978
865.839	454.849
869.214	435.003
872.588	359.499
875.963	248.514
879.338	157.66
882.713	97.9999
886.088	65.9192
889.462	35.7106
892.837	16.6567
896.212	4.23638
899.587	1.37158
902.962	7.02229
906.337	6.25882
909.711	8.48257
913.086	6.98924
916.461	5.41618
919.836	2.81065
923.211	1.78878
926.585	2.92225
929.96	5.45754
933.335	8.05259
936.71	10.6948
940.085	12.7673
943.46	15.2896
946.834	18.5045
950.209	22.4781
953.584	26.9902
956.959	30.155
960.334	33.5485
963.708	35.9078
967.083	39.3707
970.458	41.1608
973.833	42.4964
977.208	43.1978
980.582	40.2301
983.957	33.3699
987.332	26.6061
990.707	22.1557
994.082	19.1032
997.457	14.6975
1000.83	14.3092
1004.21	12.549
1007.58	10.2203
1010.96	7.56394
1014.33	7.6927
1017.71	4.82692
1021.08	3.95853
1024.45	2.89915
1027.83	1.71294
1031.2	0.678181
1034.58	2.26336
1037.95	1.82327
1041.33	5.3205
1044.7	1.81156
1048.08	2.15363
1051.45	5.15103
1054.83	1.6714
1058.2	2.17252
1061.58	2.05719
1064.95	1.9549
1068.33	3.30489
1071.7	3.29576
1075.08	4.75579
1078.45	3.2936
1081.83	3.95135
1085.2	1.86615
1088.58	1.0684
1091.95	1.04983
1095.33	0.891905
1098.7	0.10211
1102.08	0.775068
1105.45	0.292772
1108.83	0.734419
1112.2	0.506884
1115.58	0.509146
1118.95	1.65652
1122.33	1.10463
1125.7	0.150309
1129.07	0.113298
1132.45	0.974669
1135.82	4.82445
1139.2	0.38689
1142.57	0.121355
1145.95	1.88275
1149.32	0.066025
1152.7	0.582003
1156.07	3.93275
1159.45	0.524279
1162.82	1.03937
1166.2	0.598141
1169.57	2.85042
1172.95	1.54012
1176.32	1.65404
1179.7	1.52668
1183.07	1.04024
1186.45	1.14128
1189.82	1.07947
1193.2	1.03511
1196.57	1.34487
1199.94	2.02394
1203.32	7.56978
1206.69	1.43044
1210.07	1.75222
1213.44	1.35397
1216.82	0.415421
1220.19	0.268734
1223.57	0.973175
1226.94	1.32308
1230.32	1.684
1233.69	0.900482
1237.07	1.49336
1240.44	1.26139
1243.82	0.375988
1247.19	1.40858
1250.57	0.726971
1253.94	0.204336
1257.32	0.179928
1260.69	0.156853
1264.07	0.922234
1267.44	1.26225
1270.82	1.52561
1274.19	0.667482
1277.57	0.416647
1280.94	0.933777
1284.32	0.451759
