Measurement: Raman, 532 nm, unoriented, Raman Data Processed
Mineral: Roselite-beta
Rruff sample: R150065
Ideal chemistry: Ca_2_Co^2+^(As^5+^O_4_)_2_2H_2_O
Locality: Bou Azzer, Morocco
Source: Bob Jenkins
Description: Rose-red granular aggregates
Raman shift (cm-1)	intensity
90.7474	0
94.1222	28.5379
97.4971	69.1384
100.872	109.459
104.247	135.716
107.621	299.738
110.996	739.935
114.371	223.481
117.746	127.256
121.121	157.652
124.496	66.9
127.87	18.981
131.245	8.15429
134.62	0.764786
137.995	6.64046
141.37	4.2823
144.744	8.22279
148.119	3.34665
151.494	5.14004
154.869	25.932
158.244	71.1594
161.619	123.656
164.993	47.4941
168.368	11.1547
171.743	25.2486
175.118	76.7416
178.493	150.988
181.868	118.087
185.242	84.7074
188.617	120.291
191.992	227.553
195.367	335.602
198.742	257.06
202.116	111.686
205.491	61.2703
208.866	75.9894
212.241	162.46
215.616	267.003
218.99	144.355
222.365	37.9551
225.74	8.42053
229.115	16.5835
232.49	41.2063
235.865	82.8203
239.239	144.643
242.614	202.087
245.989	271.098
249.364	423.839
252.739	682.2
256.113	823.028
259.488	550.19
262.863	260.429
266.238	132.063
269.613	89.797
272.988	87.366
276.362	70.2731
279.737	20.2466
283.112	5.7531
286.487	22.8719
289.862	1.91632
293.236	47.7653
296.611	104.935
299.986	211.197
303.361	379.199
306.736	506.041
310.111	325.243
313.485	116.957
316.86	39.4176
320.235	11.4064
323.61	8.61623
326.985	20.8043
330.359	49.7486
333.734	100.726
337.109	185.987
340.484	313.962
343.859	498.375
347.233	761.847
350.608	1089.26
353.983	1383.72
357.358	1545.41
360.733	1570.53
364.108	1228.54
367.482	669.202
370.857	364.691
374.232	260.663
377.607	249.995
380.982	280.193
384.356	352.946
387.731	412.486
391.106	320.468
394.481	150.895
397.856	58.5617
401.231	18.8653
404.605	2.42746
407.98	1.60121
411.355	8.06439
414.73	5.80319
418.105	2.00142
421.479	1.47249
424.854	6.89371
428.229	24.8715
431.604	38.5972
434.979	70.7247
438.354	123.466
441.728	212.54
445.103	354.958
448.478	558.826
451.853	702.842
455.228	715.415
458.603	789.898
461.977	832.354
465.352	691.168
468.727	467.899
472.102	277.709
475.477	176.037
478.851	116.68
482.226	90.7233
485.601	51.7609
488.976	34.8512
492.351	24.2675
495.726	16.1807
499.1	10.9617
502.475	5.8719
505.85	1.01596
509.225	0.127419
512.6	0.457924
515.974	2.40096
519.349	0.777542
522.724	2.22293
526.099	2.35204
529.474	2.16678
532.848	0.837395
536.223	0.584213
539.598	16.9127
542.973	2.89315
546.348	15.5157
549.722	6.19772
553.097	7.30182
556.472	8.69154
559.847	9.14823
563.222	11.5327
566.597	11.843
569.971	10.6494
573.346	11.5572
576.721	10.6568
580.096	12.4422
583.471	14.3537
586.846	15.3151
590.22	15.3818
593.595	20.5622
596.97	16.5674
600.345	18.1071
603.72	17.5001
607.094	22.2888
610.469	24.6241
613.844	26.2944
617.219	29.0732
620.594	30.6297
623.968	34.9767
627.343	35.6271
630.718	37.0846
634.093	38.5796
637.468	40.2478
640.843	41.3271
644.217	41.6027
647.592	43.6292
650.967	45.7285
654.342	49.6212
657.717	53.6077
661.091	58.4939
664.466	62.7655
667.841	67.3549
671.216	68.6233
674.591	65.8195
677.966	61.3815
681.34	56.5942
684.715	49.6501
688.09	44.9674
691.465	38.3135
694.84	29.6324
698.215	23.0819
701.589	14.9962
704.964	7.7191
708.339	0.962631
711.714	7.91969
715.089	14.5894
718.463	19.341
721.838	22.8746
725.213	22.0282
728.588	17.2826
731.963	6.93634
735.337	13.2646
738.712	45.1839
742.087	84.7229
745.462	134.035
748.837	172.853
752.212	186.671
755.586	179.753
758.961	179.345
762.336	190.11
765.711	188.178
769.086	165.774
772.46	154.337
775.835	173.656
779.21	250.766
782.585	404.83
785.96	674.89
789.335	1138.26
792.709	1892.42
796.084	3055.52
799.459	4605.68
802.834	6025.13
806.209	6209.32
809.583	5048.84
812.958	3722.81
816.333	2787.21
819.708	2334.4
823.083	2521.31
826.457	3478.53
829.832	5762.48
833.207	7158.57
836.582	8032.95
839.957	5991.25
843.332	2456.05
846.706	1148.67
850.081	605.763
853.456	345.27
856.831	211.322
860.206	140.83
863.581	126.758
866.955	128.709
870.33	195.162
873.705	324.412
877.08	472.561
880.455	400.95
883.829	170.936
887.204	41.0414
890.579	12.1678
893.954	29.8776
897.329	30.0362
900.703	25.1582
904.078	18.2172
907.453	8.38767
910.828	0.05722
914.203	9.57237
917.578	19.8217
920.952	28.1427
924.327	42.2317
927.702	44.9288
931.077	52.1951
934.452	57.2836
937.827	56.59
941.201	57.3804
944.576	61.3747
947.951	64.9467
951.326	63.9535
954.701	55.7492
958.075	46.8956
961.45	37.5218
964.825	31.1942
968.2	32.0836
971.575	31.3734
974.949	37.3852
978.324	46.2457
981.699	48.6773
985.074	53.9705
988.449	46.1149
991.823	30.8169
995.198	24.1423
998.573	19.1273
1001.95	16.5892
1005.32	13.7112
1008.7	11.5014
1012.07	8.4589
1015.45	6.87743
1018.82	5.46536
1022.2	5.16505
1025.57	3.2268
1028.95	2.27756
1032.32	2.49451
1035.7	1.33487
1039.07	1.71382
1042.45	1.85817
1045.82	3.0135
1049.19	2.43873
1052.57	4.01632
1055.94	1.7711
1059.32	0.818008
1062.69	0.552483
1066.07	0.34166
1069.44	0.976624
1072.82	0.647827
1076.19	0.425102
1079.57	0.681023
1082.94	0.447868
1086.32	0.350189
1089.69	0.256401
1093.07	0.166687
1096.44	0.285019
1099.82	0.031532
1103.19	0.684677
1106.57	0.012497
1109.94	0.690399
1113.32	0.898643
1116.69	0.008369
1120.07	0.978638
1123.44	1.02503
1126.82	1.79824
1130.19	0.219467
1133.57	0.566719
1136.94	0.769005
1140.32	0.997475
1143.69	0.745628
1147.07	1.4732
1150.44	0.108559
1153.82	1.36115
1157.19	1.21712
1160.56	0.798767
1163.94	1.55301
1167.31	0.258148
1170.69	1.47795
1174.06	3.16127
1177.44	1.64299
1180.81	1.81081
1184.19	7.83926
1187.56	2.13625
1190.94	3.00256
1194.31	1.82197
1197.69	8.96171
1201.06	7.498
1204.44	2.80852
1207.81	2.39993
1211.19	3.60675
1214.56	3.47274
1217.94	1.8442
1221.31	3.20174
1224.69	4.03699
1228.06	3.19721
1231.44	4.18193
1234.81	3.74685
1238.18	4.36443
1241.56	3.74214
1244.93	3.60326
1248.31	2.53212
1251.68	4.38536
1255.06	4.24609
1258.43	3.58752
1261.81	3.00412
1265.18	2.03972
1268.56	1.13045
1271.93	1.23628
1275.31	1.326
1278.68	0.807632
1282.06	1.90157
1285.43	0.480415
1288.81	0.046783
1292.18	2.0466
1295.56	0.431458
1298.93	13.9437
