Measurement: Raman, 780 nm, unoriented, Raman Data Processed
Mineral: Roselite-beta
Rruff sample: R150065
Ideal chemistry: Ca_2_Co^2+^(As^5+^O_4_)_2_2H_2_O
Locality: Bou Azzer, Morocco
Source: Bob Jenkins
Description: Rose-red granular aggregates
Raman shift (cm-1)	intensity
94.4526	0
97.8274	8.49454
101.202	33.8632
104.577	77.2223
107.952	226.758
111.327	323.423
114.701	59.9592
118.076	46.124
121.451	69.0259
124.826	20.9801
128.201	6.80342
131.576	2.77922
134.95	1.57855
138.325	1.24835
141.7	1.932
145.075	2.46148
148.45	1.29063
151.825	2.12692
155.199	16.8618
158.574	51.6004
161.949	71.512
165.324	23.7835
168.698	11.9819
172.073	22.4401
175.448	51.8126
178.823	83.5135
182.198	52.1827
185.573	37.0196
188.947	56.0498
192.322	119.691
195.697	205.132
199.072	166.109
202.447	74.1888
205.821	37.3831
209.196	34.6928
212.571	59.4671
215.946	74.1697
219.321	33.6696
222.696	9.32626
226.07	4.49612
229.445	7.24424
232.82	18.0178
236.195	35.3642
239.57	52.2156
242.945	56.8238
246.319	63.5636
249.694	97.8803
253.069	163.78
256.444	187.784
259.818	112.651
263.193	55.5191
266.568	39.1367
269.943	49.9589
273.318	69.6644
276.693	65.6083
280.067	33.0603
283.442	5.8571
286.817	6.13004
290.192	6.5975
293.567	1.09026
296.942	15.5926
300.316	46.76
303.691	104.183
307.066	152.511
310.441	92.6967
313.816	35.9084
317.19	14.7646
320.565	9.65775
323.94	8.30396
327.315	10.7726
330.69	19.26
334.065	33.9645
337.439	58.3398
340.814	98.3342
344.189	163.288
347.564	264.413
350.938	391.414
354.313	490.528
357.688	507.084
361.063	476.837
364.438	344.393
367.813	175.348
371.187	91.5767
374.562	58.3487
377.937	52.3589
381.312	67.1299
384.687	103.597
388.062	138.841
391.436	100.883
394.811	42.928
398.186	14.6714
401.561	5.15995
404.935	0.006626
408.31	2.01038
411.685	2.20016
415.06	0.867661
418.435	0.174751
421.81	1.75059
425.184	3.78011
428.559	7.67394
431.934	15.4312
435.309	23.6845
438.684	42.732
442.058	78.2146
445.433	148.059
448.808	248.23
452.183	281.11
455.558	231.336
458.933	236.099
462.307	240.517
465.682	181.623
469.057	110.957
472.432	67.0528
475.807	41.3769
479.182	27.1375
482.556	17.6827
485.931	12.6788
489.306	8.13132
492.681	5.29654
496.055	4.08283
499.43	3.3852
502.805	2.18855
506.18	1.0347
509.555	0.587517
512.93	0.032745
516.304	0.23064
519.679	0.727264
523.054	0.400833
526.429	0.359388
529.804	0.304565
533.178	0.503902
536.553	0.501854
539.928	0.557119
543.303	0.271122
546.678	0.835196
550.053	0.806057
553.427	1.36723
556.802	1.81315
560.177	1.71797
563.552	2.06913
566.927	2.57925
570.302	2.15531
573.676	2.60863
577.051	2.66423
580.426	2.74541
583.801	2.5281
587.176	1.67249
590.55	2.63992
593.925	2.97502
597.3	3.27801
600.675	3.00724
604.05	3.74902
607.424	3.35175
610.799	3.09379
614.174	3.8168
617.549	4.55868
620.924	5.28234
624.298	5.81669
627.673	6.61633
631.048	5.74222
634.423	6.45768
637.798	6.53628
641.173	6.19456
644.547	6.38382
647.922	6.8643
651.297	7.42827
654.672	7.25325
658.047	8.22754
661.421	8.7677
664.796	9.91865
668.171	10.6325
671.546	11.1427
674.921	11.6674
678.295	10.8929
681.67	9.93584
685.045	9.53525
688.42	8.95094
691.795	7.55937
695.17	5.63742
698.544	4.32255
701.919	3.66995
705.294	2.38919
708.669	1.07408
712.044	0.481995
715.418	1.38549
718.793	2.69611
722.168	3.36853
725.543	3.90734
728.918	2.85162
732.293	1.30003
735.667	0.894341
739.042	6.08539
742.417	12.5442
745.792	20.59
749.167	27.4635
752.541	26.7842
755.916	21.108
759.291	16.4369
762.666	17.0784
766.041	15.2344
769.415	12.6263
772.79	6.33156
776.165	9.32237
779.54	17.574
782.915	32.8745
786.29	61.4721
789.664	108.351
793.039	187.926
796.414	333.637
799.789	567.337
803.164	808.335
806.538	857.325
809.913	710.184
813.288	533.891
816.663	403.473
820.038	314.149
823.413	289.426
826.787	373.77
830.162	715.093
833.537	1476.54
836.912	1701.56
840.287	855.78
843.661	340.987
847.036	158.926
850.411	87.6386
853.786	53.3204
857.161	42.3847
860.535	36.2962
863.91	38.0804
867.285	46.5255
870.66	70.6575
874.035	127.962
877.409	192.667
880.784	148.488
884.159	68.2762
887.534	25.6391
890.909	6.73375
894.284	0.212696
897.658	2.8932
901.033	3.71139
904.408	3.34049
907.783	1.55888
911.158	1.95267
914.533	0.906654
917.907	0.416302
921.282	0.434456
924.657	1.77802
928.032	4.50832
931.407	5.26498
934.781	5.9896
938.156	6.07812
941.531	6.64726
944.906	6.97518
948.281	8.08279
951.655	8.54603
955.03	9.75834
958.405	9.49393
961.78	8.49103
965.155	8.70829
968.529	8.32296
971.904	8.16273
975.279	9.38486
978.654	9.898
982.029	9.60431
985.404	11.3379
988.778	9.87216
992.153	6.99413
995.528	5.26905
998.903	5.11721
1002.28	4.28853
1005.65	4.27969
1009.03	3.36798
1012.4	3.27924
1015.78	3.07663
1019.15	2.73614
1022.53	2.37651
1025.9	1.36152
1029.28	1.27152
1032.65	1.58431
1036.03	1.87181
1039.4	1.55163
1042.78	1.08932
1046.15	1.8867
1049.53	0.996952
1052.9	0.885172
1056.28	0.767008
1059.65	0.765738
1063.02	0.719049
1066.4	0.273968
1069.77	1.02019
1073.15	1.24248
1076.52	0.41473
1079.9	0.321245
1083.27	0.031858
1086.65	0.858807
1090.02	0.674492
1093.4	0.573381
1096.77	0.201829
1100.15	0.079365
1103.52	0.001095
1106.9	0.964336
1110.27	0.086811
1113.65	0.546242
1117.02	0.172001
1120.4	0.102554
1123.77	0.06216
1127.15	0.387839
1130.52	0.266665
1133.9	0.317145
1137.27	0.078629
1140.64	2.63338
1144.02	0.73241
1147.39	0.573351
1150.77	0.666637
1154.14	0.358243
1157.52	0.123631
1160.89	0.402471
1164.27	0.735336
1167.64	1.49039
1171.02	0.549243
1174.39	0.597405
1177.77	0.735193
1181.14	0.487636
1184.52	0.335595
1187.89	1.31319
1191.27	0.745903
1194.64	0.33078
1198.02	0.765917
1201.39	0.270262
1204.77	1.09744
1208.14	0.996639
1211.52	0.843372
1214.89	0.794277
1218.27	0.026663
1221.64	0.714899
1225.02	0.615423
1228.39	0.335226
1231.77	0.091505
1235.14	0.995129
1238.52	1.55352
1241.89	0.315811
1245.26	0.973463
1248.64	0.818289
1252.01	0.442728
1255.39	0.859032
1258.76	0.670502
1262.14	0.612638
1265.51	1.0244
1268.89	0.089403
1272.26	0.004744
1275.64	0.406218
1279.01	0.721401
1282.39	0.608267
