Measurement: Raman, 532 nm, unoriented, Raman Data Processed
Mineral: Roselite
Rruff sample: R100191
Ideal chemistry: Ca_2_Co^2+^(As^5+^O_4_)_2_2H_2_O
Locality: Schneeberg District, Erzgebirge, Saxony, Germany
Source: University of Arizona Mineral Museum
Description: Druses of dark pink prismatic crystals
Measured chemistry: Ca_1.989_(Co_0.774_Mg_0.184_Mn_0.029_Ni_0.004_Zn_0.002_)_Σ=0.993_(As_1.004_O_4_)_2_·2H_2_O
Raman shift (cm-1)	intensity
164.799	0
167.692	1.02826
170.584	28.7429
173.477	67.0036
176.37	103.196
179.263	153.948
182.155	168.63
185.048	190.341
187.941	198.697
190.833	180.264
193.726	133.153
196.619	102.399
199.512	91.1439
202.404	106.478
205.297	106.856
208.19	74.5148
211.082	59.816
213.975	44.6029
216.868	43.1973
219.761	39.4319
222.653	64.1494
225.546	75.6907
228.439	79.5527
231.331	92.028
234.224	102.69
237.117	104.452
240.009	87.1055
242.902	85.6561
245.795	49.2757
248.688	9.98456
251.58	12.9344
254.473	18.6609
257.366	11.3817
260.258	5.80872
263.151	9.32993
266.044	29.2144
268.936	57.989
271.829	78.7512
274.722	112.337
277.615	152.229
280.507	214.837
283.4	265.833
286.293	194.966
289.185	133.054
292.078	108.838
294.971	125.704
297.863	172.563
300.756	224.477
303.649	273.118
306.541	262.12
309.434	215.378
312.327	181.229
315.22	196.319
318.112	270.172
321.005	381.383
323.898	513.177
326.791	679.109
329.683	908.498
332.576	1173.2
335.469	1348.91
338.361	1229.79
341.254	882.3
344.147	590.467
347.039	442.057
349.932	382.93
352.825	349.947
355.717	334.185
358.61	284.062
361.503	219.507
364.396	165.535
367.288	139.571
370.181	113.242
373.074	116.303
375.966	89.5955
378.859	54.9749
381.752	20.023
384.644	10.881
387.537	1.89191
390.43	7.18133
393.323	9.74527
396.215	6.50644
399.108	3.23871
402.001	1.13696
404.894	2.32773
407.786	4.05298
410.679	2.00098
413.572	10.3141
416.464	19.0293
419.357	20.8101
422.25	22.2931
425.142	24.6591
428.035	27.3838
430.928	30.2154
433.82	47.1694
436.713	68.9197
439.606	105.801
442.499	146.006
445.391	197.634
448.284	259.724
451.177	278.967
454.069	243.699
456.962	168.204
459.855	138.835
462.748	143.21
465.64	157.26
468.533	182.697
471.426	199.6
474.318	208.511
477.211	189.578
480.104	147.947
482.996	108.873
485.889	82.7886
488.782	61.5222
491.675	41.976
494.567	26.6838
497.46	20.3697
500.353	11.2487
503.245	7.49802
506.138	5.43219
509.031	1.71954
511.923	5.24261
514.816	1.27356
517.709	6.65518
520.602	0.694611
523.494	0.677185
526.387	1.79596
529.28	1.65918
532.172	5.57236
535.065	4.55402
537.958	3.74936
540.851	3.66998
543.743	2.56924
546.636	2.96277
549.529	5.04688
552.421	4.90472
555.314	8.18967
558.207	8.54947
561.099	7.14514
563.992	8.08777
566.885	8.16586
569.778	12.8279
572.67	6.44601
575.563	9.78308
578.456	1.99676
581.348	6.04593
584.241	4.50867
587.134	9.24655
590.027	1.76923
592.919	2.54193
595.812	5.1517
598.705	4.10342
601.597	1.09018
604.49	0.345428
607.383	0.845947
610.275	0.952576
613.168	10.1737
616.061	0.459839
618.953	0.04129
621.846	2.19217
624.739	5.06726
627.632	2.3696
630.524	7.25177
633.417	7.45685
636.31	8.49554
639.202	14.5235
642.095	12.3025
644.988	16.4439
647.881	16.6438
650.773	17.7377
653.666	20.845
656.559	22.9178
659.451	23.1209
662.344	19.0048
665.237	16.3917
668.13	13.5801
671.022	18.697
673.915	18.4893
676.808	17.6744
679.7	26.2697
682.593	24.8777
685.486	39.3346
688.378	52.8835
691.271	72.8781
694.164	85.2451
697.057	112.016
699.949	130.637
702.842	148.512
705.735	158.311
708.627	154.726
711.52	149.281
714.413	131.625
717.305	111.205
720.198	94.0771
723.091	78.8445
725.984	62.9579
728.876	45.6226
731.769	31.8685
734.662	21.5074
737.554	10.6777
740.447	7.02197
743.34	2.88586
746.232	14.1987
749.125	12.7873
752.018	15.1105
754.91	11.9255
757.803	6.20532
760.696	1.30383
763.589	12.3516
766.481	29.6324
769.374	51.7601
772.267	60.6934
775.159	74.3888
778.052	79.1652
780.945	78.5709
783.838	71.513
786.73	86.5393
789.623	93.5947
792.516	128.599
795.408	195.386
798.301	280.195
801.194	426.065
804.087	638.109
806.979	963.457
809.872	1412.59
812.765	1990.62
815.657	2591.36
818.55	3016.41
821.443	3084.85
824.335	2792.88
827.228	2224.79
830.121	1879.56
833.014	1768.61
835.906	1797.01
838.799	1794.48
841.692	1678.4
844.584	1385.66
847.477	1095.47
850.37	905.499
853.263	828.042
856.155	833.767
859.048	902.561
861.941	1005.19
864.833	1085.81
867.726	1104.32
870.619	994.31
873.511	809.898
876.404	600.107
879.297	429.929
882.189	313.322
885.082	245.481
887.975	186.955
890.868	116.873
893.76	65.2541
896.653	32.1901
899.546	14.0682
902.438	1.2821
905.331	7.84204
908.224	12.9728
911.116	10.9542
914.009	13.3403
916.902	12.0419
919.795	6.68396
922.687	0.591309
925.58	0.457458
928.473	7.96033
931.365	4.10321
934.258	4.51123
937.151	10.1902
940.044	12.5618
942.936	7.81586
945.829	22.2908
948.722	18.3171
951.614	32.8467
954.507	31.1961
957.4	36.1263
960.293	44.7601
963.185	47.856
966.078	44.9936
968.971	50.7812
971.863	42.0295
974.756	35.8806
977.649	25.7878
980.541	24.2463
983.434	15.4133
986.327	16.7997
989.22	14.8298
992.112	12.7192
995.005	15.0285
997.898	2.78998
1000.79	8.729
1003.68	11.6386
1006.58	5.15222
1009.47	9.3371
1012.36	4.59674
1015.25	11.8227
1018.15	3.52631
1021.04	10.0723
1023.93	5.65216
1026.83	2.77551
1029.72	2.64795
1032.61	6.26245
1035.5	8.03229
1038.4	6.87988
1041.29	8.44989
1044.18	2.0235
1047.07	6.59747
1049.97	0.445251
1052.86	6.79144
1055.75	2.74756
1058.64	5.75342
1061.54	0.25238
1064.43	11.8604
1067.32	7.58411
1070.21	6.52765
1073.11	4.45258
1076	9.24737
1078.89	4.37274
1081.79	1.7301
1084.68	9.15808
1087.57	4.62115
1090.46	3.26428
1093.36	0.24939
1096.25	1.87073
1099.14	2.4314
1102.04	5.98047
1104.93	1.3775
1107.82	1.20923
1110.71	0.064026
1113.61	2.26727
1116.5	1.99799
1119.39	7.005
1122.28	1.71918
1125.18	7.45117
1128.07	3.03711
1130.96	4.84869
1133.86	1.48273
1136.75	3.5343
1139.64	3.66504
1142.53	4.36774
1145.43	1.40478
1148.32	5.98987
1151.21	5.09235
1154.1	3.40314
1157	1.77228
1159.89	3.35168
1162.78	5.18829
1165.67	3.948
1168.57	2.70209
1171.46	0.798157
1174.35	5.8407
1177.24	3.90076
1180.14	12.1467
1183.03	2.80127
1185.92	2.72894
1188.82	1.60352
1191.71	4.32648
1194.6	3.81488
1197.49	4.02588
1200.39	6.51654
1203.28	1.75244
1206.17	4.85016
1209.07	3.07373
1211.96	8.19116
1214.85	9.53229
1217.74	6.11688
1220.64	4.23669
1223.53	4.17047
1226.42	5.12824
1229.31	4.47217
1232.21	5.32611
1235.1	4.57721
1237.99	2.08826
1240.88	3.61768
1243.78	6.7699
1246.67	1.02594
1249.56	4.11414
1252.45	2.11841
1255.35	3.11444
1258.24	0.50824
1261.13	4.92657
1264.03	8.1554
1266.92	4.00317
1269.81	6.0777
1272.7	11.9317
1275.6	9.50763
1278.49	13.0236
1281.38	5.62237
1284.28	4.64941
1287.17	3.88117
1290.06	4.77472
1292.95	2.52026
1295.85	1.09729
1298.74	10.586
1301.63	1.96826
