Measurement: Raman, 780 nm, unoriented, Raman Data Processed
Mineral: Roselite
Rruff sample: R100191
Ideal chemistry: Ca_2_Co^2+^(As^5+^O_4_)_2_2H_2_O
Locality: Schneeberg District, Erzgebirge, Saxony, Germany
Source: University of Arizona Mineral Museum
Description: Druses of dark pink prismatic crystals
Measured chemistry: Ca_1.989_(Co_0.774_Mg_0.184_Mn_0.029_Ni_0.004_Zn_0.002_)_Σ=0.993_(As_1.004_O_4_)_2_·2H_2_O
Raman shift (cm-1)	intensity
144.12	0
147.013	1.10489
149.906	0.633423
152.798	21.7101
155.691	50.2528
158.584	82.3993
161.477	100.755
164.369	130.807
167.262	187.35
170.155	263.531
173.047	339.503
175.94	412.281
178.833	505.722
181.726	592.653
184.618	650.174
187.511	662.5
190.404	619.291
193.296	471.906
196.189	304.418
199.082	216.168
201.974	186.468
204.867	157.587
207.76	121.738
210.652	91.8954
213.545	69.4182
216.438	50.5659
219.331	46.0019
222.223	51.8301
225.116	61.0208
228.009	62.1357
230.901	73.0668
233.794	83.7985
236.687	93.0703
239.579	79.2449
242.472	63.5949
245.365	50.5865
248.257	23.4864
251.15	2.01718
254.043	9.60544
256.936	14.8841
259.828	12.1214
262.721	4.4176
265.614	6.77396
268.506	14.8472
271.399	21.6211
274.292	36.3109
277.185	54.7902
280.077	79.9908
282.97	106.174
285.863	104.27
288.755	93.8384
291.648	101.581
294.541	128.767
297.433	175.151
300.326	242.685
303.219	302.377
306.111	307.33
309.004	287.668
311.897	287.54
314.79	351.388
317.682	477.242
320.575	611.161
323.468	757.293
326.36	908.536
329.253	1115.47
332.146	1332.76
335.038	1486.76
337.931	1385.51
340.824	1071.86
343.717	794.813
346.609	643.521
349.502	579.138
352.395	544.576
355.287	496.343
358.18	395.449
361.073	283.053
363.965	185.85
366.858	121.413
369.751	85.4585
372.644	60.6824
375.536	34.5356
378.429	9.85388
381.322	3.82538
384.214	13.2471
387.107	8.6218
390	5.39951
392.892	5.953
395.785	25.8071
398.678	49.397
401.57	76.9873
404.463	85.6452
407.356	83.816
410.249	94.6726
413.141	124.708
416.034	159.225
418.927	178.776
421.819	178.955
424.712	158.177
427.605	127.762
430.498	88.2535
433.39	65.7562
436.283	58.2857
439.176	53.4501
442.068	63.1793
444.961	82.7546
447.854	115.854
450.746	132.004
453.639	116.805
456.532	93.5588
459.425	85.1274
462.317	92.0929
465.21	106.074
468.103	122.725
470.995	136.493
473.888	140.42
476.781	128.079
479.673	105.587
482.566	84.0468
485.459	64.0904
488.351	38.6584
491.244	24.4658
494.137	13.7274
497.029	6.18005
499.922	1.59528
502.815	2.0762
505.708	0.124817
508.6	3.40774
511.493	0.72702
514.386	0.172882
517.278	1.91946
520.171	0.663116
523.064	1.03671
525.957	0.879944
528.849	1.04611
531.742	0.080688
534.635	2.78845
537.527	2.88153
540.42	4.09085
543.313	4.75479
546.205	6.05618
549.098	9.60321
551.991	9.47043
554.884	9.81552
557.776	14.1183
560.669	11.8462
563.562	11.53
566.454	7.05508
569.347	10.6852
572.24	11.0541
575.132	8.16028
578.025	6.11084
580.918	7.81342
583.811	2.39154
586.703	1.69778
589.596	3.33798
592.489	0.008331
595.381	3.1701
598.274	0.482056
601.167	0.033051
604.059	1.36706
606.952	1.90808
609.845	0.449097
612.737	2.2048
615.63	0.914856
618.523	1.31735
621.416	3.32385
624.308	4.39172
627.201	4.12216
630.094	6.71555
632.986	6.13907
635.879	11.6308
638.772	17.0151
641.664	19.1776
644.557	17.7779
647.45	23.5927
650.342	21.3357
653.235	26.3131
656.128	21.958
659.021	21.7997
661.913	17.941
664.806	12.2996
667.699	13.1443
670.591	8.6181
673.484	2.03528
676.377	6.9288
679.269	6.45935
682.162	18.3438
685.055	26.3642
687.948	37.2663
690.84	47.2543
693.733	50.2333
696.626	60.0961
699.518	64.7119
702.411	68.069
705.304	70.5039
708.197	67.2408
711.089	63.2874
713.982	57.377
716.875	49.4378
719.767	44.5057
722.66	37.1126
725.553	25.1792
728.445	14.8996
731.338	4.50882
734.231	6.16122
737.124	11.3654
740.016	20.1447
742.909	19.0072
745.802	16.1218
748.694	13.028
751.587	1.99994
754.48	14.2005
757.372	36.1512
760.265	76.5912
763.158	120.68
766.051	175.926
768.943	239.918
771.836	299.95
774.729	341.131
777.621	344.011
780.514	320.623
783.407	280.347
786.299	249.315
789.192	239.351
792.085	264.932
794.977	321.947
797.87	430.83
800.763	628.085
803.655	934.035
806.548	1362.98
809.441	1915.19
812.334	2583.96
815.226	3257.76
818.119	3657.91
821.012	3572.94
823.904	3162.76
826.797	2628.4
829.69	2306.53
832.582	2192.64
835.475	2186.98
838.368	2142.56
841.261	1931.72
844.153	1559.64
847.046	1168.28
849.939	875.788
852.831	709.854
855.724	619.377
858.617	578.716
861.51	553.703
864.402	529.25
867.295	478.64
870.188	396.118
873.08	300.316
875.973	214.941
878.866	152.502
881.758	111.732
884.651	95.0582
887.544	70.9981
890.437	33.7316
893.329	12.1364
896.222	4.67816
899.115	11.6547
902.007	16.4145
904.9	14.5023
907.793	14.549
910.685	12.3636
913.578	6.72755
916.471	3.79755
919.364	4.98181
922.256	9.48137
925.149	19.7484
928.042	23.7575
930.934	21.6684
933.827	20.539
936.72	22.1506
939.612	23.208
942.505	26.9872
945.398	27.9405
948.29	35.3534
951.183	37.1727
954.076	39.4213
956.968	42.3812
959.861	41.0416
962.754	39.1846
965.647	36.3401
968.539	34.403
971.432	31.1783
974.325	25.254
977.217	22.2926
980.11	19.4447
983.003	19.8845
985.895	16.1045
988.788	15.9127
991.681	16.3292
994.574	14.1449
997.466	12.2769
1000.36	12.8106
1003.25	8.71251
1006.14	8.69263
1009.04	7.47163
1011.93	6.63583
1014.82	5.72354
1017.72	3.98856
1020.61	3.92921
1023.5	0.458145
1026.39	0.559601
1029.29	0.618744
1032.18	3.47569
1035.07	0.482986
1037.96	5.0152
1040.86	0.133087
1043.75	1.32404
1046.64	2.14209
1049.54	3.65883
1052.43	2.30252
1055.32	3.14844
1058.21	2.60315
1061.11	5.19585
1064	9.35539
1066.89	9.15756
1069.78	7.18745
1072.68	6.22049
1075.57	4.57124
1078.46	2.0313
1081.35	2.31296
1084.25	0.024429
1087.14	0.022476
1090.03	1.21048
1092.92	2.62796
1095.82	0.752319
1098.71	0.77861
1101.6	0.559753
1104.5	0.34726
1107.39	3.26315
1110.28	2.82315
1113.17	2.26134
1116.07	0.886017
1118.96	1.72661
1121.85	1.86841
1124.74	1.67159
1127.64	0.955688
1130.53	0.915161
1133.42	0.200714
1136.32	1.20795
1139.21	2.30281
1142.1	2.54149
1144.99	2.0164
1147.89	1.5087
1150.78	1.68062
1153.67	2.28892
1156.57	3.49226
1159.46	0.467972
1162.35	5.12354
1165.24	1.37549
1168.13	3.19116
1171.03	1.35419
1173.92	2.1105
1176.81	3.69728
1179.71	2.93114
1182.6	1.77881
1185.49	2.25133
1188.38	1.60327
1191.28	2.40236
1194.17	0.635376
1197.06	3.62817
1199.95	0.993164
1202.85	2.23554
1205.74	2.73363
1208.63	4.74464
1211.53	2.5636
1214.42	4.60438
1217.31	5.32901
1220.2	3.87875
1223.1	4.21779
1225.99	0.467743
1228.88	1.56957
1231.78	1.75578
1234.67	2.31163
1237.56	3.05296
1240.45	2.42752
1243.35	3.79579
1246.24	1.67013
1249.13	2.06249
1252.02	1.5728
1254.92	1.07718
1257.81	2.96845
1260.7	3.65526
1263.59	1.08978
1266.49	5.58084
1269.38	0.70723
1272.27	2.19133
1275.16	1.58711
1278.06	2.03699
1280.95	0.506149
1283.84	0.541061
