Measurement: Raman, 532 nm, unoriented, Raman Data Processed
Mineral: Roselite
Rruff sample: R150066
Ideal chemistry: Ca_2_Co^2+^(As^5+^O_4_)_2_2H_2_O
Locality: Bou Azzer, Morocco
Source: William Pinch
Description: Dark rose-pink elongated or thick tabular crystals, associated with quartz and calcite.
Measured chemistry: Ca_1.96_(Co_0.63_Mg_0.26_Zn_0.04_Fe_0.02_Mn_0.01_)_Ʃ=0.96_(As_1.02_O_4_)_2_·2H_2_O
Raman shift (cm-1)	intensity
99.4255	0
102.8	4.97516
106.175	89.0333
109.55	35.7921
112.925	7.46314
116.3	46.2143
119.674	120.566
123.049	289.464
126.424	1014.71
129.799	106.534
133.174	4.37384
136.548	13.0629
139.923	20.7061
143.298	52.2418
146.673	44.0144
150.048	70.641
153.423	114.936
156.797	179.601
160.172	249.644
163.547	286.534
166.922	319.334
170.297	412.419
173.672	584.497
177.046	866.566
180.421	1296.62
183.796	1829.47
187.171	2178.31
190.546	2172.01
193.92	1911.83
197.295	1166
200.67	663.004
204.045	471.305
207.42	424.92
210.794	363.815
214.169	256.817
217.544	165.444
220.919	105.15
224.294	81.0879
227.669	69.2876
231.043	61.4093
234.418	69.1757
237.793	79.2281
241.168	88.0832
244.543	130.157
247.917	114.79
251.292	54.8236
254.667	16.9475
258.042	2.34192
261.417	12.748
264.792	15.3496
268.166	14.3148
271.541	11.1261
274.916	1.92572
278.291	18.7632
281.666	57.6129
285.041	107.64
288.415	102.434
291.79	104.789
295.165	175.688
298.54	353.885
301.915	707.709
305.289	1159.52
308.664	1088.38
312.039	788.714
315.414	594.15
318.789	511.69
322.163	533.158
325.538	646.815
328.913	892.985
332.288	1305.48
335.663	1852.98
339.038	2094.77
342.412	1818.4
345.787	1784.3
349.162	2248.84
352.537	3075.38
355.912	3835.65
359.286	3855.7
362.661	3068.98
366.036	2111.94
369.411	1386.3
372.786	950.059
376.161	666.509
379.535	427.293
382.91	236.206
386.285	113.6
389.66	40.1827
393.035	8.58252
396.409	21.6027
399.784	25.3233
403.159	4.35379
406.534	19.6314
409.909	40.5893
413.284	106.533
416.658	228.706
420.033	328.721
423.408	313.769
426.783	246.155
430.158	198.182
433.532	186.986
436.907	230.681
440.282	361.592
443.657	632.281
447.032	1160.37
450.406	2018.44
453.781	2547.01
457.156	1765.93
460.531	902.785
463.906	480.533
467.281	294.62
470.655	219.957
474.03	191.758
477.405	177.091
480.78	152.637
484.155	116.534
487.529	81.7905
490.904	51.8851
494.279	28.3272
497.654	12.9018
501.029	4.05898
504.404	2.33635
507.778	5.42145
511.153	4.5575
514.528	3.05188
517.903	1.28584
521.278	0.356873
524.653	1.85263
528.027	4.27228
531.402	7.47707
534.777	9.82104
538.152	12.3436
541.527	15.7861
544.901	19.8362
548.276	20.8974
551.651	24.9823
555.026	26.3474
558.401	27.6747
561.775	40.112
565.15	27.4939
568.525	21.1666
571.9	16.1826
575.275	11.4122
578.649	9.87926
582.024	5.17076
585.399	2.75853
588.774	0.727188
592.149	1.377
595.524	4.7224
598.898	1.85805
602.273	2.29541
605.648	0.698196
609.023	0.068344
612.398	0.735016
615.773	2.01067
619.147	4.45137
622.522	7.84849
625.897	10.0508
629.272	14.679
632.647	20.063
636.021	26.581
639.396	36.4781
642.771	42.0615
646.146	52.3753
649.521	58.1847
652.895	69.2062
656.27	71.907
659.645	73.2904
663.02	73.1942
666.395	70.0272
669.77	61.6683
673.144	57.9327
676.519	49.6826
679.894	46.9092
683.269	62.2817
686.644	57.4655
690.019	71.6949
693.393	93.1165
696.768	117.761
700.143	145.405
703.518	175.022
706.893	193.567
710.267	195.546
713.642	183.228
717.017	154.358
720.392	125.25
723.767	95.1341
727.141	67.6666
730.516	45.0153
733.891	27.6934
737.266	12.3185
740.641	0.92334
744.016	12.907
747.39	22.0583
750.765	27.1233
754.14	32.9539
757.515	29.0939
760.89	21.5471
764.264	1.53214
767.639	45.2416
771.014	106.241
774.389	193.661
777.764	289.44
781.139	337.656
784.513	336.128
787.888	307.665
791.263	292.895
794.638	314.733
798.013	399.056
801.388	552.464
804.762	833.826
808.137	1357.54
811.512	2315.63
814.887	3964.84
818.261	6211.04
821.636	7810.02
825.011	7738.02
828.386	6901.29
831.761	6665.15
835.136	7584.61
838.51	9406.05
841.885	10943.6
845.26	10134.5
848.635	7617.25
852.01	5421.45
855.385	4091.63
858.759	3463
862.134	3269.53
865.509	3261.09
868.884	3136.18
872.259	2634.32
875.633	1905.74
879.008	1282.7
882.383	851.044
885.758	563.386
889.133	380.165
892.508	230.918
895.882	134.718
899.257	68.9611
902.632	26.9294
906.007	3.32846
909.382	17.6843
912.756	26.3555
916.131	29.9158
919.506	28.3258
922.881	20.6125
926.256	12.2913
929.63	0.664703
933.005	6.37231
936.38	10.7177
939.755	21.7951
943.13	31.3096
946.505	40.4988
949.879	56.6941
953.254	80.8091
956.629	101.001
960.004	120.952
963.379	145.533
966.754	172.177
970.128	193.035
973.503	208.876
976.878	210.902
980.253	199.553
983.628	175.264
987.002	144.969
990.377	117.696
993.752	95.2766
997.127	77.1148
1000.5	65.7331
1003.88	58.1302
1007.25	48.777
1010.63	41.3077
1014	33.6413
1017.38	25.5729
1020.75	20.7046
1024.12	15.614
1027.5	11.6102
1030.88	9.57208
1034.25	13.193
1037.62	6.57103
1041	5.17892
1044.37	5.63947
1047.75	5.58345
1051.12	6.25655
1054.5	5.06248
1057.87	6.54524
1061.25	6.17053
1064.62	8.17251
1068	11.0353
1071.37	12.6151
1074.75	14.0984
1078.12	13.9175
1081.5	9.31592
1084.87	7.68958
1088.25	7.73555
1091.62	6.03456
1095	4.21114
1098.37	1.7928
1101.75	4.10519
1105.12	3.91049
1108.5	2.77459
1111.87	0.443451
1115.24	0.587479
1118.62	0.178085
1121.99	0.704399
1125.37	0.680588
1128.74	0.672867
1132.12	1.35109
1135.49	1.09851
1138.87	0.61969
1142.24	0.286987
1145.62	0.096718
1148.99	0.672562
1152.37	1.10123
1155.74	0.72599
1159.12	1.10609
1162.49	1.47284
1165.87	1.54765
1169.24	2.49657
1172.62	3.14829
1175.99	2.8177
1179.37	3.64304
1182.74	3.74149
1186.12	5.23272
1189.49	4.51303
1192.87	4.20226
1196.24	5.51495
1199.62	2.8841
1202.99	4.35982
1206.37	3.96816
1209.74	3.67211
1213.12	3.53564
1216.49	3.98946
1219.87	3.84877
1223.24	2.91777
1226.61	3.03304
1229.99	2.40147
1233.36	2.08837
1236.74	0.723061
1240.11	0.809189
1243.49	0.250862
1246.86	0.135361
1250.24	0.442017
1253.61	1.1297
1256.99	1.4333
1260.36	0.379944
1263.74	0.832199
1267.11	4.51923
1270.49	1.2039
1273.86	33.7726
1277.24	1.20367
1280.61	1.4291
1283.99	2.52969
1287.36	2.26078
1290.74	0.42952
1294.11	0.949921
1297.49	0.2024
1300.86	0.006393
