Measurement: Raman, 532 nm, unoriented, Raman Data Processed
Mineral: Rosiaite
Rruff sample: R070384
Ideal chemistry: PbSb_2_O_6_
Locality: Le Cetine di Cotorniano Mine (Le Cetine Mine; Cetine Mine; Rosia), Chiusdino, Siena Province, Tuscany, Italy
Source: Michael Scott
Description: Pale yellow thin hexagonal tablets associated with valentinite, clinocervantite, R070385 and tripuhyite, R070383
Measured chemistry: Pb_1.00_Sb_2.00_O_6_
Raman shift (cm-1)	intensity
118.806	0
122.181	7.11444
125.556	38.1424
128.931	108.358
132.306	191.352
135.68	298.91
139.055	455.343
142.43	434.845
145.805	260.414
149.18	143.381
152.554	64.7822
155.929	43.1229
159.304	13.5219
162.679	1.3797
166.054	13.3984
169.429	8.27753
172.803	37.1495
176.178	159.021
179.553	226.343
182.928	337.912
186.303	612.68
189.678	1067.57
193.052	408.851
196.427	347.377
199.802	459.348
203.177	780.863
206.552	1450.3
209.926	2502.36
213.301	717.664
216.676	285.081
220.051	189.927
223.426	113.212
226.8	59.9549
230.175	12.4167
233.55	31.94
236.925	21.9231
240.3	240.941
243.675	406.523
247.049	744.598
250.424	1380.8
253.799	2383.42
257.174	1162.76
260.549	230.624
263.923	145.04
267.298	140.668
270.673	184.259
274.048	259.331
277.423	374.116
280.798	527.105
284.173	696.493
287.547	823.623
290.922	949.093
294.297	1063.93
297.672	907.499
301.046	679.163
304.421	625.451
307.796	793.768
311.171	931.782
314.546	1203.25
317.921	330.361
321.295	72.5382
324.67	41.5959
328.045	13.0385
331.42	11.3982
334.795	8.66754
338.17	4.36096
341.544	2.27277
344.919	6.85644
348.294	0.094757
351.669	8.30118
355.044	24.9563
358.418	35.3505
361.793	48.3105
365.168	71.1243
368.543	132.372
371.918	209.27
375.293	192.75
378.667	54.3238
382.042	25.9247
385.417	8.46612
388.792	1.37802
392.167	2.24643
395.541	4.45929
398.916	11.0194
402.291	2.21442
405.666	6.57883
409.041	8.15219
412.416	0.695709
415.79	8.56784
419.165	32.2587
422.54	42.441
425.915	60.9033
429.29	103.943
432.664	149.034
436.039	205.353
439.414	293.881
442.789	415.925
446.164	533.116
449.538	653.764
452.913	573.558
456.288	266.291
459.663	171.986
463.038	111.232
466.413	101.237
469.787	119.188
473.162	118.091
476.537	157.087
479.912	206.031
483.287	278.033
486.661	375.706
490.036	464.906
493.411	595.269
496.786	758.587
500.161	976.779
503.536	1054.06
506.911	955.827
510.285	565.624
513.66	389.929
517.035	331.313
520.41	355.935
523.784	372.898
527.159	318.975
530.534	196.277
533.909	123.953
537.284	31.4996
540.659	20.4535
544.033	0.624268
547.408	18.9643
550.783	20.6184
554.158	23.7964
557.533	11.4407
560.908	1.81726
564.282	1.59906
567.657	0.946289
571.032	3.41071
574.407	5.95325
577.782	29.2098
581.156	61.3076
584.531	65.7342
587.906	110.09
591.281	130.725
594.656	163.469
598.031	183.17
601.405	148.701
604.78	144.893
608.155	128.962
611.53	109.513
614.905	120.587
618.279	121.753
621.654	172.316
625.029	240.676
628.404	338.718
631.779	549.812
635.154	824.811
638.528	1435.48
641.903	2904.25
645.278	7209.6
648.653	12710.9
652.028	18677.2
655.403	26833.8
658.777	18493.2
662.152	7184.48
665.527	3270.2
668.902	1421.34
672.277	708.921
675.651	392.474
679.026	236.976
682.401	135.25
685.776	95.9451
689.151	32.3721
692.525	5.46747
695.9	13.1738
699.275	6.53925
702.65	8.22961
706.025	43.7843
709.399	81.7365
712.774	81.2548
716.149	95.2953
719.524	82.3159
722.899	95.4178
726.274	132.458
729.648	140.223
733.023	95.0143
736.398	57.4321
739.773	16.5659
743.148	10.3545
746.523	11.5618
749.897	3.90033
753.272	3.25061
756.647	2.15869
760.022	4.83014
763.397	5.94177
766.771	1.89929
770.146	0.325256
773.521	20.7768
776.896	20.537
780.271	52.8106
783.646	66.2821
787.02	43.3353
790.395	50.4261
793.77	66.5143
797.145	69.6626
800.52	70.0585
803.894	78.7863
807.269	96.9382
810.644	84.3337
814.019	94.2447
817.394	66.4943
820.769	65.667
824.143	63.2496
827.518	37.6622
830.893	53.0686
834.268	43.3742
837.643	35.787
841.018	34.8373
844.392	45.2563
847.767	32.4145
851.142	31.2882
854.517	26.2707
857.891	14.6658
861.266	36.5264
864.641	24.6668
868.016	26.339
871.391	15.1698
874.766	5.48163
878.14	16.9107
881.515	2.83283
884.89	10.6939
888.265	12.7061
891.64	2.55951
895.015	13.3568
898.389	2.14487
901.764	1.57523
905.139	14.1985
908.514	12.8038
911.889	21.9248
915.264	14.2314
918.638	24.9607
922.013	16.8235
925.388	28.9449
928.763	20.8543
932.138	20.992
935.512	39.4941
938.887	38.3542
942.262	41.9031
945.637	45.2784
949.012	31.7665
952.386	16.9964
955.761	49.9832
959.136	32.6101
962.511	51.4648
965.886	25.6393
969.261	49.8416
972.635	58.1043
976.01	59.2582
979.385	51.2234
982.76	47.9579
986.135	55.1457
989.51	54.9192
992.884	38.0853
996.259	37.5164
999.634	53.0104
1003.01	10.7097
1006.38	21.5261
1009.76	37.0722
1013.13	20.5881
1016.51	36.7513
1019.88	30.5035
1023.26	12.4722
1026.63	16.5079
1030.01	25.6148
1033.38	6.29077
1036.76	12.6516
1040.13	1.95343
1043.51	8.23248
1046.88	3.97095
1050.26	3.72839
1053.63	4.48016
1057.01	2.11127
1060.38	1.62054
1063.76	0.31604
1067.13	10.3234
1070.51	20.8167
1073.88	9.99469
1077.26	5.70166
1080.63	14.0319
1084	8.09674
1087.38	14.742
1090.75	30.6242
1094.13	24.9662
1097.5	20.3225
1100.88	23.838
1104.25	28.3255
1107.63	37.4366
1111	36.9923
1114.38	49.0853
1117.75	28.4742
1121.13	31.954
1124.5	41.5672
1127.88	41.244
1131.25	39.3798
1134.63	59.095
1138	58.0945
1141.38	62.3353
1144.75	57.5184
1148.13	54.107
1151.5	81.5679
1154.88	42.3456
1158.25	49.1581
1161.62	39.6038
1165	16.3441
1168.38	55.6064
1171.75	50.8432
1175.12	51.7614
1178.5	15.5721
1181.87	26.1909
1185.25	22.9291
1188.62	28.6542
1192	33.7997
1195.37	24.4844
1198.75	20.9215
1202.12	11.0503
1205.5	22.1441
1208.87	25.4199
1212.25	32.1354
1215.62	23.9739
1219	14.2168
1222.37	11.6741
1225.75	17.4523
1229.12	19.465
1232.5	6.05487
1235.87	1.43286
1239.25	1.58734
1242.62	4.74536
1246	1.37091
1249.37	7.26739
1252.74	26.7
1256.12	16.7368
1259.49	21.6701
1262.87	18.0574
1266.24	13.719
1269.62	11.468
1272.99	38.0832
1276.37	18.3955
1279.74	18.4302
1283.12	28.5114
1286.49	45.7342
1289.87	15.8006
1293.24	0.973022
1296.62	0.152039
