Measurement: Raman, 785 nm, unoriented, Raman Data Processed
Mineral: Rosiaite
Rruff sample: R070384
Ideal chemistry: PbSb_2_O_6_
Locality: Le Cetine di Cotorniano Mine (Le Cetine Mine; Cetine Mine; Rosia), Chiusdino, Siena Province, Tuscany, Italy
Source: Michael Scott
Description: Pale yellow thin hexagonal tablets associated with valentinite, clinocervantite, R070385 and tripuhyite, R070383
Measured chemistry: Pb_1.00_Sb_2.00_O_6_
Raman shift (cm-1)	intensity
128.251	0
131.144	16.0782
134.037	21.8795
136.929	42.7863
139.822	70.7412
142.715	97.9635
145.607	87.5806
148.5	82.2292
151.393	44.6729
154.286	20.3944
157.178	6.38155
160.071	5.09023
162.964	0.714569
165.856	8.17497
168.749	8.31268
171.642	16.2513
174.534	27.9062
177.427	63.4208
180.32	74.5894
183.212	109.916
186.105	150.452
188.998	253.55
191.891	259.998
194.783	150.739
197.676	187.724
200.569	200.496
203.461	271.099
206.354	429.678
209.247	859.846
212.139	816.675
215.032	236.319
217.925	139.455
220.818	101.332
223.71	69.8249
226.603	39.277
229.496	7.6257
232.388	5.68079
235.281	8.12283
238.174	4.19138
241.066	44.4435
243.959	84.5662
246.852	121.656
249.745	200.136
252.637	392.96
255.53	569.158
258.423	240.487
261.315	69.5454
264.208	48.4376
267.101	49.8852
269.993	82.3695
272.886	103.947
275.779	147.251
278.672	188.918
281.564	281.74
284.457	337.212
287.35	350.185
290.242	413.639
293.135	454.514
296.028	496.334
298.921	395.658
301.813	319.648
304.706	305.377
307.599	272.65
310.491	326.301
313.384	464.951
316.277	407.137
319.169	143.785
322.062	54.0603
324.955	39.0554
327.847	14.3843
330.74	4.58784
333.633	4.85712
336.526	2.28316
339.418	1.76623
342.311	5.2691
345.204	2.93229
348.096	5.53117
350.989	1.7873
353.882	4.30478
356.774	0.952332
359.667	1.22849
362.56	3.67654
365.452	7.90128
368.345	6.87283
371.238	29.7232
374.131	37.4961
377.023	17.7181
379.916	12.707
382.809	0.614708
385.701	4.15846
388.594	3.31933
391.487	7.04914
394.38	2.8166
397.272	7.9778
400.165	12.2504
403.058	4.79083
405.95	4.96569
408.843	1.34135
411.736	2.51444
414.628	5.17814
417.521	2.199
420.414	8.49407
423.307	5.76694
426.199	19.5709
429.092	30.4913
431.985	33.5778
434.877	48.7728
437.77	74.0827
440.663	92.7901
443.555	110.702
446.448	127.029
449.341	154.304
452.234	168.296
455.126	99.9031
458.019	57.1976
460.912	34.3355
463.804	32.0041
466.697	22.8841
469.59	25.8511
472.483	24.4005
475.375	42.0538
478.268	44.4943
481.161	65.7281
484.053	79.7742
486.946	121.557
489.839	154.992
492.731	216.894
495.624	263.771
498.517	315.522
501.409	381.909
504.302	460.488
507.195	437.377
510.088	359.822
512.98	290.142
515.873	305.047
518.766	335.381
521.658	396.199
524.551	445.939
527.444	401.441
530.337	274.17
533.229	167.05
536.122	85.4277
539.015	52.3343
541.907	33.5227
544.8	12.1551
547.693	0.285614
550.585	2.63707
553.478	5.36466
556.371	0.083633
559.263	1.02168
562.156	2.17169
565.049	4.22852
567.942	0.123947
570.834	1.02199
573.727	2.48097
576.62	0.879974
579.512	4.04234
582.405	15.7686
585.298	15.2572
588.19	26.9337
591.083	33.4747
593.976	45.7485
596.869	65.0731
599.761	68.6308
602.654	67.8556
605.547	54.1525
608.439	46.1536
611.332	35.7308
614.225	31.5414
617.117	29.2842
620.01	39.8895
622.903	51.3129
625.795	61.3408
628.688	98.9574
631.581	126.749
634.474	181.62
637.366	281.629
640.259	492.181
643.152	916.225
646.044	1955.45
648.937	3196.36
651.83	5020.25
654.722	7824.77
657.615	8852.68
660.508	4930.72
663.401	2295.56
666.293	1172.64
669.186	583.805
672.079	344.714
674.971	195.93
677.864	125.025
680.757	92.0331
683.649	60.6319
686.542	39.6634
689.435	38.3452
692.328	18.6621
695.22	9.30507
698.113	4.24352
701.006	10.775
703.898	0.484406
706.791	20.3689
709.684	19.7034
712.577	43.7967
715.469	60.0627
718.362	84.2194
721.255	104.947
724.147	154.33
727.04	193.649
729.933	207.613
732.825	174.542
735.718	104.23
738.611	60.4316
741.504	34.9784
744.396	17.3388
747.289	4.10394
750.182	2.16367
753.074	11.1644
755.967	2.19852
758.86	1.33347
761.752	1.06793
764.645	4.84506
767.538	5.00521
770.431	1.75607
773.323	4.10014
776.216	3.81419
779.109	5.7065
782.001	12.4249
784.894	2.09249
787.787	8.45091
790.679	9.47525
793.572	15.3804
796.465	18.1962
799.357	15.6035
802.25	21.1504
805.143	23.7146
808.036	24.1023
810.928	23.4629
813.821	25.663
816.714	23.1413
819.606	19.5786
822.499	14.7831
825.392	15.596
828.284	4.73517
831.177	19.3538
834.07	11.7231
836.963	10.5803
839.855	12.6954
842.748	7.59926
845.641	5.32761
848.533	10.552
851.426	10.837
854.319	8.89503
857.212	7.21134
860.104	9.12476
862.997	4.77449
865.89	0.060867
868.782	5.55881
871.675	2.53571
874.568	15.8548
877.46	4.00988
880.353	9.42223
883.246	8.64686
886.139	0.826504
889.031	7.282
891.924	1.87785
894.817	3.42432
897.709	3.68565
900.602	1.33747
903.495	2.27771
906.388	8.89242
909.28	8.30497
912.173	4.8512
915.066	9.84481
917.958	2.32405
920.851	7.46849
923.744	13.9656
926.636	9.9182
929.529	2.77251
932.422	4.76183
935.314	2.61733
938.207	4.03917
941.1	8.71738
943.993	5.93047
946.885	12.2376
949.778	6.02194
952.671	6.22976
955.563	8.44129
958.456	6.43352
961.349	10.6901
964.241	0.098522
967.134	3.67836
970.027	8.01017
972.92	2.17393
975.812	4.55433
978.705	4.17505
981.598	4.88175
984.49	4.07594
987.383	7.40913
990.276	8.15022
993.168	12.5442
996.061	12.0454
998.954	7.93205
1001.85	13.5398
1004.74	10.3184
1007.63	9.71933
1010.52	4.74052
1013.42	6.58068
1016.31	6.00131
1019.2	7.01947
1022.1	16.9553
1024.99	15.712
1027.88	11.4662
1030.77	6.14348
1033.67	14.8296
1036.56	15.9049
1039.45	9.61622
1042.34	11.9756
1045.24	5.47942
1048.13	9.46895
1051.02	7.93044
1053.91	2.06422
1056.81	9.71054
1059.7	3.44868
1062.59	9.77021
1065.49	1.42868
1068.38	10.8627
1071.27	3.3398
1074.16	5.10388
1077.06	3.31023
1079.95	4.3578
1082.84	1.38495
1085.73	1.3741
1088.63	1.66638
1091.52	2.90689
1094.41	0.09848
1097.31	8.15916
1100.2	8.43759
1103.09	11.1321
1105.98	9.18929
1108.88	7.73807
1111.77	4.49846
1114.66	5.15502
1117.56	6.63585
1120.45	2.3237
1123.34	3.65385
1126.23	1.55998
1129.12	1.77153
1132.02	1.68578
1134.91	9.45094
1137.8	1.85206
1140.7	11.2519
1143.59	10.9435
1146.48	7.17179
1149.37	8.95834
1152.27	10.7795
1155.16	7.83676
1158.05	8.91806
1160.94	3.70833
1163.84	7.8093
1166.73	7.44285
1169.62	4.42465
1172.52	7.13856
1175.41	5.38474
1178.3	9.83356
1181.19	20.5423
1184.09	6.3613
1186.98	11.658
1189.87	8.04914
1192.77	14.575
1195.66	8.38308
1198.55	14.1891
1201.44	6.6028
1204.34	1.45481
1207.23	10.4433
1210.12	0.03727
1213.01	9.84536
1215.91	4.77221
1218.8	12.1178
1221.69	1.44518
1224.58	0
