Measurement: Raman, 532 nm, unoriented, Raman Data Processed
Mineral: Rossmanite
Rruff sample: R070680
Ideal chemistry: [box](LiAl_2_)Al_6_(Si_6_O_18_)(BO_3_)_3_(OH)_3_OH
Locality: Rožná pegmatite, Žďár nad Sázavou, Vysočina Region, Moravia (Mähren; Maehren), Czech Republic
Source: Michael Scott
Description: Light pink striated prismatic crystals associated with quartz
Raman shift (cm-1)	intensity
126.793	0
130.168	182.556
133.542	165.518
136.917	158.076
140.292	310.15
143.667	253.321
147.042	291.395
150.417	247.01
153.791	183.669
157.166	97.7966
160.541	46.2424
163.916	16.2407
167.291	39.3196
170.665	45.1624
174.04	20.2676
177.415	75.2068
180.79	19.0752
184.165	20.2864
187.54	51.5647
190.914	114.782
194.289	251.134
197.664	396.475
201.039	725.999
204.414	1168.01
207.788	1925.42
211.163	3004.52
214.538	4048.4
217.913	5034.6
221.288	6089.51
224.662	6630.07
228.037	6016.48
231.412	4692.71
234.787	3733.51
238.162	3234.15
241.537	3009.05
244.911	3063.33
248.286	2982.41
251.661	2841.19
255.036	2684.43
258.411	2585.4
261.786	2682.69
265.16	2706.12
268.535	2632.72
271.91	2380.52
275.285	2039.97
278.659	1420.46
282.034	796.52
285.409	392.512
288.784	98.3023
292.159	14.9863
295.534	89.833
298.908	51.8105
302.283	17.5825
305.658	162.389
309.033	202.371
312.408	414.671
315.783	454.115
319.157	284.015
322.532	114.339
325.907	39.9888
329.282	52.3198
332.657	59.9902
336.031	58.7876
339.406	112.759
342.781	243.087
346.156	456.973
349.531	703.638
352.906	1095.95
356.28	1714.49
359.655	2533.89
363.03	3718.18
366.405	4763.8
369.78	5780.31
373.154	6499.58
376.529	6362.85
379.904	5305.02
383.279	3939.32
386.654	3050.58
390.028	2412.57
393.403	2124.04
396.778	1977.98
400.153	1781.61
403.528	1683.67
406.902	1474.46
410.277	1263.54
413.652	1082.97
417.027	791.607
420.402	466.895
423.777	280.201
427.151	94.2593
430.526	78.9019
433.901	1.9292
437.276	81.1782
440.651	31.3789
444.026	77.6587
447.4	122.504
450.775	29.4985
454.15	50.5952
457.525	10.8442
460.9	34.3091
464.274	11.335
467.649	70.4946
471.024	65.8994
474.399	13.6035
477.774	48.3037
481.149	80.3184
484.523	148.955
487.898	225.683
491.273	309.152
494.648	404.954
498.023	505.367
501.397	545.69
504.772	791.871
508.147	891.085
511.522	1029.22
514.897	1167.51
518.271	1207.91
521.646	1311.34
525.021	1094.98
528.396	896.366
531.771	700.379
535.145	604.723
538.52	619.264
541.895	589.067
545.27	451.743
548.645	398.85
552.02	330.552
555.394	235.89
558.769	157.471
562.144	107.7
565.519	102.831
568.894	50.6885
572.269	95.8042
575.643	60.5508
579.018	79.562
582.393	137.813
585.768	56.7046
589.143	127.475
592.517	54.3413
595.892	49.8193
599.267	22.7197
602.642	64.8848
606.017	33.0508
609.391	22.2515
612.766	1.79834
616.141	57.6177
619.516	114.471
622.891	263.144
626.266	360.104
629.64	620.713
633.015	799.895
636.39	1099.55
639.765	1337.87
643.14	1577.73
646.514	1572.96
649.889	1336.81
653.264	1172.37
656.639	877.159
660.014	631.199
663.389	365.004
666.763	212.466
670.138	101.035
673.513	13.7139
676.888	23.8325
680.263	9.53711
683.637	16.4688
687.012	184.59
690.387	267.418
693.762	468.411
697.137	897.052
700.511	1370.81
703.886	1844.52
707.261	2294.59
710.636	2549.33
714.011	2500.52
717.386	2035.87
720.76	1530.35
724.135	1188.59
727.51	931.976
730.885	778.201
734.26	696.293
737.635	671.967
741.009	729.389
744.384	809.207
747.759	713.606
751.134	695.771
754.509	555.227
757.883	442.245
761.258	212.484
764.633	120.8
768.008	73.7124
771.383	49.1245
774.757	23.3896
778.132	17.7305
781.507	35.7812
784.882	42.5073
788.257	28.0669
791.631	5.83643
795.006	2.38574
798.381	31.8225
801.756	6.33179
805.131	2.6831
808.506	33.8779
811.88	19.4898
815.255	8.28369
818.63	2.46655
822.005	26.4392
825.38	0.895996
828.755	46.856
832.129	67.8191
835.504	47.8623
838.879	39.353
842.254	44.123
845.629	90.667
849.003	120.866
852.378	120.945
855.753	98.3054
859.128	167.956
862.503	124.763
865.877	124.11
869.252	141.442
872.627	148.694
876.002	164.086
879.377	139.207
882.751	105.619
886.126	145.036
889.501	175.2
892.876	119.693
896.251	87.8276
899.626	96.8652
903	60.4741
906.375	47.3281
909.75	77.0264
913.125	7.90723
916.5	4.37598
919.875	21.311
923.249	17.727
926.624	6.94727
929.999	35.6728
933.374	48.7217
936.749	7.58447
940.123	22.1519
943.498	66.1045
946.873	48.2803
950.248	133.94
953.623	178.616
956.997	224.08
960.372	287.945
963.747	347.284
967.122	410.267
970.497	508.305
973.872	535.448
977.246	502.839
980.621	490.335
983.996	500.297
987.371	436.724
990.746	452.902
994.12	404.252
997.495	329.157
1000.87	304
1004.25	302.818
1007.62	227.018
1011	154.721
1014.37	82.6748
1017.74	99.4922
1021.12	50.5488
1024.49	68.6773
1027.87	0.598145
1031.24	34.3286
1034.62	7.87402
1037.99	1.76221
1041.37	31.4028
1044.74	53.7134
1048.12	45.1367
1051.49	119.661
1054.87	181.596
1058.24	203.106
1061.62	235.362
1064.99	336.679
1068.37	352.228
1071.74	382.848
1075.12	400.558
1078.49	414.672
1081.87	402.366
1085.24	391.873
1088.62	379.101
1091.99	374.318
1095.37	356.368
1098.74	313.356
1102.12	220.088
1105.49	214.911
1108.86	201.763
1112.24	149.763
1115.61	147.536
1118.99	159.651
1122.36	117.202
1125.74	93.3975
1129.11	49.9087
1132.49	81.9922
1135.86	78.1352
1139.24	110.863
1142.61	48.1138
1145.99	107.01
1149.36	95.2192
1152.74	30.8413
1156.11	18.8355
1159.49	34.4141
1162.86	20.7944
1166.24	45.6616
1169.61	25.9565
1172.99	25.6748
1176.36	35.2764
1179.73	45.5093
1183.11	35.2886
1186.48	30.5234
1189.86	39.0591
1193.23	19.2876
1196.61	94.0571
1199.98	74.6191
1203.36	106.727
1206.73	65.6953
1210.11	56.7349
1213.48	87.3315
1216.86	97.3018
1220.23	61.1431
1223.61	96.582
1226.98	89.418
1230.36	84.4048
1233.73	54.353
1237.11	49.8472
1240.48	50.9824
1243.86	74.2759
1247.23	99.8442
1250.61	102.488
1253.98	115.312
1257.36	75.1265
1260.73	79.0142
1264.11	64.8613
1267.48	39.2422
1270.86	50.5356
1274.23	37.1572
1277.61	74.8359
1280.98	99.6709
1284.36	105.637
1287.73	80.5303
1291.1	7.97656
1294.48	8.08447
