Measurement: Raman, 780 nm, unoriented, Raman Data Processed
Mineral: Rossmanite
Rruff sample: R070702
Ideal chemistry: [box](LiAl_2_)Al_6_(Si_6_O_18_)(BO_3_)_3_(OH)_3_OH
Locality: Tanco Mine (Bernic Lake Mine), Bernic Lake, Lac-du-Bonnet area, Manitoba, Canada
Source: Michael Scott
Description: Light pink prismatic crystals associated with pollucite
Raman shift (cm-1)	intensity
186.982	0
189.875	47.1097
192.768	31.6102
195.66	23.2063
198.553	21.276
201.446	9.73883
204.339	6.74219
207.231	49.3321
210.124	97.3688
213.017	191.556
215.909	246.898
218.802	411.819
221.695	454.294
224.587	475.307
227.48	369.215
230.373	298.818
233.266	173.306
236.158	176.221
239.051	167.954
241.944	189.142
244.836	221.852
247.729	222.108
250.622	219.899
253.514	203.865
256.407	164.387
259.3	173.185
262.193	136.84
265.085	161.433
267.978	157.141
270.871	195.107
273.763	134.239
276.656	173.661
279.549	93.3837
282.442	64.7829
285.334	4.69391
288.227	28.1516
291.12	7.94659
294.012	3.0415
296.905	14.0872
299.798	5.71295
302.69	16.4156
305.583	10.7654
308.476	30.7059
311.368	5.53918
314.261	20.0467
317.154	17.831
320.047	29.6816
322.939	48.9966
325.832	42.4644
328.725	73.83
331.617	84.5886
334.51	75.5012
337.403	64.0112
340.296	56.5048
343.188	87.0276
346.081	91.3632
348.974	79.9161
351.866	116.11
354.759	88.6929
357.652	176.355
360.544	214.506
363.437	251.518
366.33	334.327
369.223	511.99
372.115	637.236
375.008	640.904
377.901	534.172
380.793	398.042
383.686	295.423
386.579	242.524
389.471	191.717
392.364	141.275
395.257	172.255
398.149	177.274
401.042	179.7
403.935	181.002
406.828	171.316
409.72	101.404
412.613	171.861
415.506	125.221
418.398	55.5575
421.291	65.1848
424.184	25.2748
427.077	21.9447
429.969	5.62961
432.862	11.2952
435.755	12.5908
438.647	16.2066
441.54	14.5874
444.433	31.6996
447.325	27.4923
450.218	25.0415
453.111	15.2849
456.004	2.45212
458.896	5.72003
461.789	3.54569
464.682	4.85516
467.574	26.9
470.467	4.16019
473.36	35.7415
476.252	9.57931
479.145	43.0561
482.038	6.87293
484.931	43.4741
487.823	44.0388
490.716	49.12
493.609	30.4905
496.501	78.8883
499.394	44.4622
502.287	78.6089
505.18	67.127
508.072	96.614
510.965	144.085
513.858	118.965
516.75	104.108
519.643	118.627
522.536	113.36
525.428	90.2568
528.321	86.1827
531.214	83.2109
534.106	45.2784
536.999	53.3263
539.892	62.3804
542.785	79.6184
545.677	42.6924
548.57	68.7878
551.463	57.7459
554.355	60.7707
557.248	60.72
560.141	40.3218
563.034	15.0551
565.926	15.2957
568.819	4.61142
571.712	9.4726
574.604	7.396
577.497	14.7779
580.39	10.491
583.282	18.4606
586.175	42.0738
589.068	10.521
591.961	35.6987
594.853	0.930023
597.746	29.3281
600.639	1.97311
603.531	1.54239
606.424	2.00043
609.317	21.2879
612.209	0.894043
615.102	19.848
617.995	27.0497
620.888	2.1192
623.78	19.2805
626.673	49.7521
629.566	25.7153
632.458	60.3329
635.351	56.1378
638.244	83.9998
641.136	84.5846
644.029	119.401
646.922	127.317
649.814	100.412
652.707	115.842
655.6	59.3319
658.493	45.2563
661.385	14.9023
664.278	56.0538
667.171	10.4722
670.063	6.64572
672.956	7.69119
675.849	7.79858
678.742	1.88187
681.634	20.178
684.527	0.242706
687.42	33.0025
690.312	37.1534
693.205	21.6306
696.098	72.5006
698.99	106.051
701.883	174.604
704.776	218.334
707.669	244.326
710.561	248.639
713.454	201.133
716.347	182.393
719.239	163.374
722.132	113.659
725.025	87.7613
727.918	77.6145
730.81	86.7033
733.703	86.4582
736.596	110.256
739.488	98.6961
742.381	114.268
745.274	116.957
748.166	138.486
751.059	131.747
753.952	91.3482
756.845	92.5239
759.737	74.895
762.63	63.1625
765.523	35.7106
768.415	58.5654
771.308	46.0261
774.201	51.4982
777.093	51.2529
779.986	21.9613
782.879	33.7762
785.771	23.8943
788.664	8.57111
791.557	8.86545
794.45	5.90903
797.342	0.188873
800.235	7.90332
803.128	3.992
806.02	3.03253
808.913	1.26712
811.806	32.5498
814.698	23.4631
817.591	22.2189
820.484	10.6447
823.377	0.603149
826.269	25.1153
829.162	0.769684
832.055	37.2104
834.947	33.3826
837.84	13.9333
840.733	17.2307
843.625	49.8306
846.518	41.0201
849.411	24.6139
852.304	27.961
855.196	49.9423
858.089	42.0972
860.982	27.9066
863.875	41.3648
866.767	23.2966
869.66	54.2331
872.553	33.4837
875.445	32.5664
878.338	52.4363
881.231	22.9231
884.123	25.6976
887.016	33.3145
889.909	36.751
892.802	32.5918
895.694	9.28604
898.587	8.75351
901.48	21.7801
904.372	24.3285
907.265	15.1596
910.158	8.1763
913.05	20.1652
915.943	24.3902
918.836	18.0658
921.729	19.1634
924.621	15.1281
927.514	31.1534
930.407	10.5401
933.299	30.3018
936.192	13.6871
939.085	2.55926
941.977	16.9058
944.87	16.1828
947.763	34.6475
950.655	20.5219
953.548	26.0595
956.441	8.85239
959.334	45.9001
962.226	26.0396
965.119	31.1319
968.012	47.922
970.904	40.721
973.797	36.7147
976.69	27.7047
979.582	48.8528
982.475	20.6437
985.368	29.2193
988.261	32.4641
991.153	12.2465
994.046	10.6255
996.939	32.7527
999.831	4.4307
1002.72	37.2737
1005.62	9.2796
1008.51	2.9137
1011.4	7.42212
1014.29	15.8994
1017.19	8.12308
1020.08	6.6651
1022.97	20.768
1025.87	4.0864
1028.76	20.9569
1031.65	35.2176
1034.54	21.7729
1037.44	16.3787
1040.33	11.2967
1043.22	39.254
1046.12	26.6453
1049.01	40.4917
1051.9	54.4878
1054.79	58.4753
1057.68	102.631
1060.58	62.9787
1063.47	97.0777
1066.36	67.7383
1069.26	71.0653
1072.15	82.4528
1075.04	62.669
1077.93	77.7489
1080.83	59.4399
1083.72	44.6125
1086.61	57.0562
1089.51	66.1532
1092.4	32.9145
1095.29	19.439
1098.18	16.9053
1101.08	23.648
1103.97	18.7429
1106.86	12.9119
1109.75	43.7076
1112.65	31.185
1115.54	25.2331
1118.43	4.09726
1121.33	3.59445
1124.22	12.2125
1127.11	0.517639
1130	11.4694
1132.9	4.83594
1135.79	9.89792
1138.68	19.6791
1141.57	14.6087
1144.47	2.14212
1147.36	21.7045
1150.25	3.73126
1153.14	11.9763
1156.04	16.842
1158.93	24.8132
1161.82	7.82733
1164.71	5.73044
1167.61	7.6709
1170.5	9.80496
1173.39	5.56052
1176.29	9.4173
1179.18	14.9382
1182.07	20.1663
1184.96	24.9667
1187.86	37.6665
1190.75	35.5174
1193.64	35.8188
1196.54	17.6633
1199.43	11.1567
1202.32	32.4226
1205.21	19.815
1208.11	12.2794
1211	31.6359
1213.89	21.9235
1216.78	31.8677
1219.68	20.2112
1222.57	32.4921
1225.46	14.8167
1228.36	36.2189
1231.25	9.32794
1234.14	10.4311
1237.03	5.34848
1239.93	6.04843
1242.82	18.6645
1245.71	17.5428
1248.6	28.6743
1251.5	22.1229
1254.39	16.0395
1257.28	17.1365
1260.17	41.1389
1263.07	9.61105
1265.96	3.3385
1268.85	13.7975
