Measurement: Raman, 780 nm, unoriented, Raman Data Processed
Mineral: Rossmanite
Rruff sample: R070680
Ideal chemistry: [box](LiAl_2_)Al_6_(Si_6_O_18_)(BO_3_)_3_(OH)_3_OH
Locality: Rožná pegmatite, Žďár nad Sázavou, Vysočina Region, Moravia (Mähren; Maehren), Czech Republic
Source: Michael Scott
Description: Light pink striated prismatic crystals associated with quartz
Raman shift (cm-1)	intensity
161.43	0
164.323	30.8175
167.215	3.37427
170.108	82.0084
173.001	41.3259
175.894	90.3641
178.786	60.4786
181.679	40.7734
184.572	2.17957
187.464	13.8477
190.357	19.9587
193.25	72.0898
196.143	149.073
199.035	203.023
201.928	258.042
204.821	439.645
207.713	708.478
210.606	1054.85
213.499	1608.52
216.392	2214.68
219.284	2921.04
222.177	3599.01
225.07	3733.68
227.962	3233.7
230.855	2581.88
233.748	2023.92
236.64	1710.34
239.533	1607.09
242.426	1587.08
245.319	1538.92
248.211	1537.51
251.104	1483.82
253.997	1393.14
256.889	1248.88
259.782	1258.31
262.675	1376.39
265.567	1453.77
268.46	1453.37
271.353	1418.97
274.245	1287.88
277.138	1035.56
280.031	661.967
282.924	417.791
285.816	196.839
288.709	102.623
291.602	0.684448
294.494	44.6183
297.387	18.6565
300.28	33.8236
303.173	0.668945
306.065	46.45
308.958	88.1064
311.851	208.82
314.743	256.685
317.636	180.66
320.529	85.055
323.421	82.7929
326.314	48.8126
329.207	79.3119
332.099	94.7192
334.992	90.9374
337.885	123.511
340.778	92.0819
343.67	198.638
346.563	243.742
349.456	297.965
352.348	491.59
355.241	590.771
358.134	868.063
361.026	1243.41
363.919	1677.33
366.812	2329.97
369.705	2859.7
372.597	3385.27
375.49	3439.58
378.383	2945.98
381.276	2230.5
384.168	1699.24
387.061	1329.46
389.954	1124.54
392.846	986.854
395.739	934.161
398.632	851.709
401.524	845.875
404.417	734.294
407.31	715.025
410.202	612.085
413.095	471.143
415.988	329.527
418.881	242.132
421.773	104.347
424.666	31.1299
427.559	15.4786
430.451	11.541
433.344	32.078
436.237	1.31628
439.13	43.7477
442.022	14.2828
444.915	72.8146
447.808	75.8803
450.7	71.9894
453.593	37.2154
456.486	22.7224
459.378	12.4193
462.271	10.6065
465.164	13.2841
468.057	20.3208
470.949	4.27856
473.842	19.3151
476.735	15.7941
479.627	37.422
482.52	91.3419
485.413	112.554
488.305	112.021
491.198	136.623
494.091	198.866
496.983	263.955
499.876	285.638
502.769	362.476
505.662	403.719
508.554	443.356
511.447	508.762
514.34	627.408
517.232	672.429
520.125	748.909
523.018	754.323
525.91	604.248
528.803	501.103
531.696	443.965
534.589	425.661
537.481	414.043
540.374	435.236
543.267	410.885
546.159	380.313
549.052	279.119
551.945	266.378
554.837	208.329
557.73	152.254
560.623	102.831
563.516	100.972
566.408	95.9346
569.301	70.2983
572.194	68.1436
575.086	73.8201
577.979	75.0493
580.872	69.1643
583.764	89.1213
586.657	75.5305
589.55	40.904
592.443	43.4028
595.335	26.3681
598.228	0.685791
601.121	15.4527
604.013	13.0389
606.906	2.79553
609.799	5.35706
612.692	13.1407
615.584	15.454
618.477	30.3321
621.37	67.5494
624.262	67.9383
627.155	139.908
630.048	211.569
632.94	334.798
635.833	385.095
638.726	494.606
641.619	611.837
644.511	644.724
647.404	595.19
650.297	558.829
653.189	440.323
656.082	349.834
658.975	276.199
661.867	157.549
664.76	80.9462
667.653	52.7876
670.546	18.5881
673.438	7.61627
676.331	9.21063
679.224	12.9251
682.116	18.0535
685.009	7.83893
687.902	36.3601
690.794	108.661
693.687	166.653
696.58	273.346
699.473	476.538
702.365	685.76
705.258	921.764
708.151	1117.11
711.043	1189.87
713.936	1147.41
716.829	966.173
719.721	729.567
722.614	586.335
725.507	440.03
728.4	393.769
731.292	364.308
734.185	341.615
737.078	360.72
739.97	362.195
742.863	442.716
745.756	545.771
748.649	522.035
751.541	465.54
754.434	372.644
757.327	274.062
760.219	211.442
763.112	157.125
766.005	131.421
768.897	84.6116
771.79	101.159
774.683	65.1502
777.576	54.874
780.468	43.3493
783.361	30.6375
786.254	14.4042
789.146	22.1321
792.039	22.4392
794.932	11.0981
797.824	27.3836
800.717	2.83752
803.61	14.4336
806.503	2.93454
809.395	8.91898
812.288	1.31711
815.181	4.58856
818.073	6.46756
820.966	7.34418
823.859	1.59192
826.751	2.53772
829.644	10.3096
832.537	16.1708
835.43	31.5532
838.322	48.0678
841.215	24.2444
844.108	62.8656
847	43.3845
849.893	60.7774
852.786	54.8894
855.678	69.2522
858.571	73.872
861.464	83.9068
864.357	103.315
867.249	93.1864
870.142	113.626
873.035	118.953
875.927	80.4279
878.82	122.909
881.713	124.478
884.606	88.1086
887.498	84.9341
890.391	91.4097
893.284	54.9895
896.176	33.7107
899.069	47.8928
901.962	45.7
904.854	20.5998
907.747	19.6103
910.64	3.67517
913.533	18.3239
916.425	2.18793
919.318	11.0792
922.211	1.58295
925.103	7.16483
927.996	7.26688
930.889	5.16769
933.781	5.39456
936.674	6.33368
939.567	9.17139
942.46	1.6853
945.352	56.3627
948.245	5.74399
951.138	31.5193
954.03	50.3119
956.923	85.1967
959.816	73.814
962.708	89.7554
965.601	118.095
968.494	124.089
971.386	174.239
974.279	170.851
977.172	180.873
980.065	197.347
982.957	139.377
985.85	153.339
988.743	167.382
991.635	141.542
994.528	133.745
997.421	126.68
1000.31	119.824
1003.21	80.3931
1006.1	56.3693
1008.99	59.3021
1011.88	26.4287
1014.78	16.7147
1017.67	26.0344
1020.56	24.9484
1023.46	10.0151
1026.35	22.8198
1029.24	22.3298
1032.13	36.4282
1035.03	24.4421
1037.92	5.41217
1040.81	36.4421
1043.7	12.2972
1046.6	40.8505
1049.49	91.6924
1052.38	113.991
1055.28	125.084
1058.17	191.419
1061.06	204.54
1063.95	236.644
1066.85	258.591
1069.74	286.951
1072.63	253.371
1075.52	211.208
1078.42	197.873
1081.31	171.697
1084.2	159.117
1087.1	152.361
1089.99	148.153
1092.88	160.625
1095.77	122.107
1098.66	86.0837
1101.56	65.1093
1104.45	59.6454
1107.34	55.8242
1110.24	24.2402
1113.13	25.9626
1116.02	37.6526
1118.91	18.2717
1121.81	10.1499
1124.7	14.277
1127.59	13.6047
1130.48	10.9996
1133.38	3.53561
1136.27	11.6458
1139.16	7.11792
1142.06	2.92764
1144.95	14.4436
1147.84	6.97366
1150.73	8.24484
1153.63	1.68237
1156.52	6.77753
1159.41	6.54062
1162.31	0.851471
1165.2	9.50153
1168.09	4.29263
1170.98	10.1223
1173.88	17.0323
1176.77	23.1617
1179.66	22.1219
1182.55	35.3479
1185.45	24.2402
1188.34	41.6741
1191.23	32.1594
1194.12	29.0514
1197.02	35.3119
1199.91	53.5548
1202.8	53.5425
1205.69	54.4562
1208.59	15.5033
1211.48	52.1302
1214.37	48.5928
1217.27	17.2068
1220.16	37.4533
1223.05	29.0173
1225.94	24.0239
1228.84	17.4487
1231.73	11.6966
1234.62	16.5707
1237.52	25.4012
1240.41	14.6185
1243.3	35.6686
1246.19	20.7246
1249.09	13.9073
1251.98	41.4772
1254.87	3.04941
1257.76	41.5763
1260.66	40.7914
1263.55	5.65869
1266.44	11.3626
1269.34	0.953217
1272.23	1.60181
