Measurement: Raman, 532 nm, unoriented, Raman Data Processed
Mineral: Rossmanite
Rruff sample: R070702
Ideal chemistry: [box](LiAl_2_)Al_6_(Si_6_O_18_)(BO_3_)_3_(OH)_3_OH
Locality: Tanco Mine (Bernic Lake Mine), Bernic Lake, Lac-du-Bonnet area, Manitoba, Canada
Source: Michael Scott
Description: Light pink prismatic crystals associated with pollucite
Raman shift (cm-1)	intensity
163.916	0
166.809	51.6416
169.701	3.80566
172.594	100.26
175.487	105.696
178.379	102.644
181.272	21.7642
184.165	19.6221
187.057	12.6435
189.95	42.2832
192.843	142.667
195.736	219.764
198.628	356.939
201.521	476.425
204.414	713.726
207.306	1050.26
210.199	1502.35
213.092	2075.34
215.984	2645.26
218.877	3523.22
221.77	4082.19
224.662	4296.24
227.555	3537.98
230.448	2791.73
233.341	2281.01
236.233	1952.84
239.126	1991.53
242.019	2087.62
244.911	2190.57
247.804	2176.9
250.697	1859.91
253.589	1650.45
256.482	1410.19
259.375	1307.72
262.268	1291.03
265.16	1291.18
268.053	1336.28
270.946	1415.05
273.838	1299.69
276.731	1169.2
279.624	909.648
282.517	681.581
285.409	445.994
288.302	281.753
291.195	161.923
294.087	12.0747
296.98	102.693
299.873	58.8052
302.765	77.4175
305.658	36.2012
308.551	89.2832
311.443	178.067
314.336	290.361
317.229	354.771
320.122	344.554
323.014	462.987
325.907	654.294
328.8	680.5
331.692	707.106
334.585	779.269
337.478	758.489
340.37	710.399
343.263	689.35
346.156	787.125
349.049	948.296
351.941	1099.93
354.834	1283.23
357.727	1583.43
360.619	2047.17
363.512	2725.09
366.405	3471.84
369.298	4463.2
372.19	5306.99
375.083	5721.29
377.976	4871.53
380.868	3746.63
383.761	2696.75
386.654	1986.8
389.546	1559.31
392.439	1466.87
395.332	1388.47
398.224	1510.82
401.117	1570.92
404.01	1525.92
406.902	1525.39
409.795	1356.03
412.688	1167.13
415.581	887.069
418.473	544.45
421.366	316.596
424.259	116.951
427.151	22.3169
430.044	9.59521
432.937	37.5742
435.829	21.792
438.722	73.1074
441.615	127.45
444.508	124.658
447.4	162.305
450.293	83.3643
453.186	77.9951
456.078	89.7754
458.971	53.1187
461.864	15.7539
464.757	19.227
467.649	35.668
470.542	84.249
473.435	7.98535
476.327	24.5947
479.22	74.6846
482.113	125.544
485.005	185.192
487.898	259.457
490.791	326.072
493.683	362.334
496.576	404.853
499.469	512.927
502.362	643.25
505.254	783.197
508.147	924.24
511.04	1070.58
513.932	1074.97
516.825	1189.76
519.718	1089.75
522.611	978.627
525.503	830.992
528.396	765.422
531.289	673.931
534.181	672.306
537.074	796.769
539.967	729.131
542.859	727.525
545.752	602.86
548.645	528.095
551.538	444.251
554.43	374.134
557.323	373.543
560.216	281.626
563.108	142.399
566.001	187.603
568.894	136.979
571.786	185.247
574.679	121.679
577.572	44.8618
580.465	104.284
583.357	126.294
586.25	125.865
589.143	76.9214
592.035	59.9194
594.928	116.39
597.821	21.9097
600.713	18.7056
603.606	14.4282
606.499	18.5542
609.391	43.1973
612.284	64.7505
615.177	19.4331
618.07	2.17529
620.962	30.3047
623.855	95.021
626.748	127.513
629.64	252.833
632.533	377.642
635.426	559.845
638.318	666.672
641.211	828.22
644.104	934.757
646.997	775.259
649.889	731.758
652.782	519.106
655.675	384.616
658.567	178.586
661.46	201.069
664.353	138.266
667.245	40.8208
670.138	15.8413
673.031	1.81592
675.923	24.8809
678.816	1.88184
681.709	24.8755
684.602	7.08545
687.494	59.4165
690.387	283.535
693.28	476.558
696.172	710.994
699.065	983.132
701.958	1434.58
704.851	1814.02
707.743	2150.08
710.636	2148.49
713.529	2121.31
716.421	1568.55
719.314	1252.71
722.207	1013.34
725.099	819.512
727.992	695.929
730.885	622.258
733.778	687.911
736.67	800.814
739.563	951.085
742.456	1172.47
745.348	1433.21
748.241	1561.48
751.134	1663.06
754.026	1359.66
756.919	1068.91
759.812	902.948
762.705	659.954
765.597	497.022
768.49	471.417
771.383	368.981
774.275	378.346
777.168	398.068
780.061	320.911
782.953	238.74
785.846	160.453
788.739	103.072
791.631	65.9668
794.524	74.7949
797.417	70.0977
800.31	18.7383
803.202	16.1289
806.095	48.9302
808.988	12.6362
811.88	38.8935
814.773	21.1494
817.666	27.7554
820.558	7.28076
823.451	47.9673
826.344	94.9443
829.237	66.1211
832.129	123.135
835.022	166.872
837.915	108.045
840.807	117.665
843.7	119.265
846.593	88.0068
849.486	135.927
852.378	161.58
855.271	231.609
858.164	288.181
861.056	193.254
863.949	236.333
866.842	299.324
869.734	278.469
872.627	302.606
875.52	286.014
878.413	224.961
881.305	232.253
884.198	227.654
887.091	180.972
889.983	127.865
892.876	183.458
895.769	124.953
898.661	52.3955
901.554	11.4878
904.447	36.3286
907.34	21.4297
910.232	0.199707
913.125	24.6919
916.018	5.94385
918.91	14.4609
921.803	39.8735
924.696	19.1426
927.588	8.41065
930.481	42.7383
933.374	37.0742
936.266	16.9702
939.159	47.7305
942.052	73.1816
944.945	5.18652
947.837	53.0781
950.73	86.5938
953.623	119.369
956.515	119.838
959.408	116.582
962.301	173.759
965.193	153.402
968.086	243.502
970.979	253.316
973.872	242.754
976.764	279.117
979.657	218.513
982.55	263.174
985.442	174.381
988.335	187.348
991.228	169.043
994.12	95.0596
997.013	92.6284
999.906	102.993
1002.8	17.4087
1005.69	27.6196
1008.58	38.0176
1011.48	13.1704
1014.37	29.9761
1017.26	42.9927
1020.15	48.187
1023.05	91.4751
1025.94	136.26
1028.83	140.87
1031.73	89.521
1034.62	177.477
1037.51	199.129
1040.4	232.949
1043.3	347.863
1046.19	458.931
1049.08	631.521
1051.97	751.736
1054.87	883.574
1057.76	1039.75
1060.65	1107.01
1063.55	1165.12
1066.44	1079.36
1069.33	1016.99
1072.22	960.617
1075.12	896.105
1078.01	853.119
1080.9	708.975
1083.79	645.856
1086.69	606.954
1089.58	532.852
1092.47	434.493
1095.37	320.664
1098.26	293.418
1101.15	287.137
1104.04	215.725
1106.94	117.116
1109.83	119.839
1112.72	74.2222
1115.61	60.106
1118.51	38.9849
1121.4	55.0518
1124.29	28.2651
1127.18	30.9497
1130.08	33.6807
1132.97	0.539063
1135.86	34.7002
1138.76	23.2227
1141.65	7.63086
1144.54	6.9668
1147.43	8.93799
1150.33	17.8516
1153.22	13.4263
1156.11	1.03711
1159	3.16455
1161.9	32.2676
1164.79	76.7437
1167.68	21.9658
1170.58	53.8496
1173.47	21.4678
1176.36	121.918
1179.25	37.4409
1182.15	126.423
1185.04	117.339
1187.93	92.8203
1190.82	166.857
1193.72	152.141
1196.61	101.853
1199.5	109.149
1202.39	131.491
1205.29	104.494
1208.18	151.605
1211.07	81.5049
1213.97	92.6094
1216.86	49.5855
1219.75	78.1069
1222.64	6.46533
1225.54	70.9268
1228.43	52.7012
1231.32	0.143066
1234.21	30.8433
1237.11	9.4707
1240	105.869
1242.89	61.8193
1245.79	28.1719
1248.68	45.3682
1251.57	81.3359
1254.46	33.3525
1257.36	35.6616
1260.25	30.5278
1263.14	73.9741
1266.03	60.9219
1268.93	45.0205
1271.82	15.3169
1274.71	7.0791
1277.61	38.2422
1280.5	51.8032
1283.39	14.8237
1286.28	74.7153
1289.18	47.1924
1292.07	21.8852
