Measurement: Raman, 532 nm, unoriented, Raman Data Processed
Mineral: Rostite
Rruff sample: R061001
Ideal chemistry: AlSO_4_(OH)5H_2_O
Locality: Kladno, Bohmen, Czech Republic
Source: Michael Scott
Description: Chalky white nodular aggregates
Raman shift (cm-1)	intensity
177.93	0
180.822	0.553711
183.715	35.7324
186.608	16.0591
189.501	158.614
192.393	141.682
195.286	124.666
198.179	119.595
201.071	107.096
203.964	132.494
206.857	89.4414
209.75	28.0947
212.642	5.07764
215.535	1.35596
218.428	7.22266
221.32	37.668
224.213	1.52783
227.106	52.3262
229.998	110.66
232.891	47.2891
235.784	95.3257
238.676	13.831
241.569	75.1543
244.462	61.9141
247.355	58.7231
250.247	47.4463
253.14	59.3169
256.033	10.9639
258.925	67.6099
261.818	29.7988
264.711	69.7681
267.603	30.3491
270.496	40.3887
273.389	0.844238
276.281	104.398
279.174	26.6782
282.067	80.2051
284.96	1.73779
287.852	5.17383
290.745	76.7085
293.638	33.502
296.53	3.42285
299.423	86.7954
302.316	154.677
305.209	130.875
308.101	197.356
310.994	178.825
313.887	138.061
316.779	158.67
319.672	79.9097
322.565	163.715
325.457	123.173
328.35	192.527
331.243	161.131
334.135	165.83
337.028	152.537
339.921	70.8755
342.814	200.848
345.706	19.0684
348.599	96.5752
351.492	44.3735
354.384	62.2524
357.277	62.4844
360.17	59.5435
363.062	16.957
365.955	81.2886
368.848	1.02002
371.741	65.5747
374.633	44.7944
377.526	43.9106
380.419	17.0005
383.311	7.06201
386.204	36.1133
389.097	69.5376
391.99	3.56934
394.882	28.9819
397.775	48.0098
400.668	53.0884
403.56	23.6191
406.453	79.5327
409.346	44.2827
412.238	89.6675
415.131	79.1309
418.024	167.905
420.916	142.174
423.809	196.792
426.702	231.256
429.594	246.72
432.487	337.023
435.38	387.699
438.273	375.238
441.165	397.896
444.058	354.446
446.951	364.969
449.843	328.918
452.736	262.935
455.629	244.405
458.522	294.142
461.414	269.676
464.307	228.508
467.2	230.974
470.092	287.164
472.985	302.517
475.878	126.615
478.77	75.1182
481.663	122.965
484.556	50.5576
487.449	83.3086
490.341	102.413
493.234	21.4072
496.127	2.85449
499.019	67.4258
501.912	41.9619
504.805	33.2353
507.697	87.1279
510.59	79.6406
513.483	57.5928
516.375	31.5645
519.268	100.019
522.161	68.0195
525.054	56.2822
527.946	88.6123
530.839	53.6172
533.732	2.09863
536.624	19.832
539.517	25.4561
542.41	50.7383
545.303	108.417
548.195	21.333
551.088	38.3174
553.981	58.7422
556.873	23.4033
559.766	27.1211
562.659	104.974
565.551	73.5606
568.444	76.4902
571.337	110.51
574.23	70.2637
577.122	64.2363
580.015	155.39
582.908	78.8838
585.8	176.142
588.693	262.302
591.586	215.403
594.478	356.534
597.371	362.202
600.264	481.998
603.157	590.401
606.049	712.119
608.942	793.685
611.835	758.235
614.727	787.39
617.62	747.52
620.513	832.615
623.405	751.547
626.298	648.928
629.191	602.675
632.083	503.978
634.976	531.021
637.869	427.137
640.761	448.863
643.654	388.663
646.547	333.558
649.44	262.367
652.332	376.753
655.225	296.735
658.118	252.069
661.01	190.663
663.903	119.953
666.796	196.696
669.688	124.508
672.581	119.149
675.474	67.8252
678.367	66.2734
681.259	156.075
684.152	104.064
687.045	140.602
689.937	1.10938
692.83	67.2891
695.723	92.7031
698.615	20.2061
701.508	1.20898
704.401	35.3281
707.294	17.1611
710.186	42.9971
713.079	22.2842
715.972	46.2295
718.864	43.5088
721.757	63.2734
724.65	37.085
727.543	64.5664
730.435	54.9541
733.328	24.541
736.221	4.25098
739.113	51.4111
742.006	73.4873
744.899	125.637
747.791	0.353516
750.684	44.6934
753.577	107.379
756.47	73.1924
759.362	64.4473
762.255	89.3389
765.148	107.732
768.04	151.443
770.933	186.528
773.826	135.407
776.718	127.594
779.611	220.378
782.504	245.674
785.396	273.731
788.289	204.332
791.182	330.779
794.075	299.367
796.967	272.454
799.86	474.723
802.753	353.37
805.645	409.357
808.538	385.964
811.431	377.032
814.323	387.947
817.216	421.549
820.109	399.804
823.002	403.565
825.894	379.332
828.787	459.789
831.68	456.393
834.572	383.793
837.465	295.118
840.358	284.753
843.25	290.644
846.143	273.854
849.036	100.515
851.929	79.4834
854.821	43.7168
857.714	103.264
860.607	79.4717
863.499	1.45606
866.392	86.1416
869.285	12.0859
872.178	7.80762
875.07	17.7432
877.963	25.8301
880.856	59.0527
883.748	1.57812
886.641	105.341
889.534	158.101
892.426	101.417
895.319	88.3603
898.212	179.352
901.104	60.3359
903.997	63.0488
906.89	17.8936
909.783	16.8672
912.675	52.0664
915.568	12.1484
918.461	64.4404
921.353	12.8984
924.246	61.4336
927.139	165.384
930.031	163.097
932.924	49.4492
935.817	9.27734
938.71	126.902
941.602	122.015
944.495	24.1611
947.388	3.82324
950.28	20.0117
953.173	149.641
956.066	125.259
958.958	122.782
961.851	230.189
964.744	405.011
967.636	473.015
970.529	1029.56
973.422	1629.42
976.315	2605.05
979.207	4108.77
982.1	5017.25
984.993	3817.18
987.885	3595.34
990.778	3844.66
993.671	2376.69
996.563	892.693
999.456	469.588
1002.35	295.633
1005.24	136.38
1008.13	100.734
1011.03	231.19
1013.92	62.3623
1016.81	76.0967
1019.71	55.6494
1022.6	61.1289
1025.49	116.404
1028.38	9.30762
1031.28	51.7363
1034.17	28.8594
1037.06	96.8467
1039.95	4.7334
1042.85	40.3779
1045.74	10.6602
1048.63	32.5127
1051.53	115.832
1054.42	202.44
1057.31	97.9277
1060.2	151.815
1063.1	94.0215
1065.99	21.7129
1068.88	60.2051
1071.77	160.233
1074.67	157.935
1077.56	228.693
1080.45	147.115
1083.34	263.091
1086.24	386.065
1089.13	322.87
1092.02	334.366
1094.91	276.688
1097.81	319.506
1100.7	276.316
1103.59	244.075
1106.49	178.486
1109.38	167.394
1112.27	146.439
1115.16	102.291
1118.06	129.514
1120.95	148.866
1123.84	230.734
1126.73	335.094
1129.63	423.943
1132.52	388.309
1135.41	329.846
1138.31	353.769
1141.2	276.816
1144.09	115.314
1146.98	88.4394
1149.88	153.281
1152.77	131.586
1155.66	129.131
1158.56	207.14
1161.45	56.7988
1164.34	74.8672
1167.23	62.915
1170.12	45.7158
1173.02	74.793
1175.91	51.8848
1178.8	101.106
1181.7	80.7461
1184.59	76.9785
1187.48	95.0088
1190.37	66.4209
1193.27	11.5723
1196.16	33.1728
1199.05	156.744
1201.94	93.6172
1204.84	73.6397
1207.73	4.81543
1210.62	148.745
1213.52	136.462
1216.41	128.806
1219.3	101.648
1222.19	139.901
1225.09	104.967
1227.98	68.0772
1230.87	148.496
1233.77	170.14
1236.66	178.158
1239.55	86.8633
1242.44	99.1426
1245.34	152.348
1248.23	201.153
1251.12	101.397
1254.01	71.8272
1256.91	164.239
1259.8	137.567
1262.69	68.2412
1265.58	43.9844
1268.48	39.7793
1271.37	210.717
1274.26	130.916
1277.15	102.116
1280.05	126.416
1282.94	73.6504
1285.83	137.007
1288.73	125.061
1291.62	95.918
1294.51	58.6133
1297.4	89.8369
1300.3	0
