Measurement: Raman, 532 nm, unoriented, Raman Data Processed
Mineral: Rouaite
Rruff sample: R080086
Ideal chemistry: Cu_2_NO_3_(OH)_3_
Locality: Jachymov, Erzgebirge (Bohemia), Czech Republic
Source: William W. Pinch
Description: Green sharp thin plates, it should be noted that gerhardtite is dimorphous with Rouaite and may be confused with it.
Raman shift (cm-1)	intensity
151.172	0
154.065	58.4254
156.957	211.416
159.85	365.544
162.743	457.507
165.635	422.054
168.528	285.785
171.421	180.964
174.313	150.408
177.206	165.782
180.099	217.198
182.992	270.847
185.884	187.92
188.777	58.5418
191.67	9.22378
194.562	5.15491
197.455	10.954
200.348	9.50388
203.24	9.11383
206.133	5.46484
209.026	2.96497
211.918	17.3728
214.811	36.7473
217.704	57.4916
220.597	75.7838
223.489	99.0455
226.382	118.262
229.275	136.727
232.167	157.806
235.06	182.766
237.953	207.762
240.845	235.094
243.738	258.684
246.631	281.12
249.524	296.366
252.416	306.429
255.309	286.412
258.202	256.194
261.094	210.545
263.987	173.403
266.88	151.361
269.772	144.37
272.665	143.826
275.558	134.07
278.451	107.282
281.343	79.7049
284.236	59.1381
287.129	44.8335
290.021	35.8365
292.914	29.4897
295.807	24.5019
298.7	22.6706
301.592	21.0246
304.485	20.674
307.378	21.999
310.27	25.7478
313.163	29.9111
316.056	35.1313
318.948	41.175
321.841	45.4148
324.734	53.0517
327.627	58.3557
330.519	61.113
333.412	57.3468
336.305	47.6401
339.197	36.4173
342.09	27.0645
344.983	19.5392
347.875	10.8772
350.768	6.68477
353.661	1.47371
356.553	1.87763
359.446	4.40865
362.339	6.47681
365.232	6.14365
368.124	7.49139
371.017	6.88994
373.91	2.6938
376.802	1.51939
379.695	11.2513
382.588	26.9535
385.481	49.7026
388.373	80.0607
391.266	118.823
394.159	162.134
397.051	212.3
399.944	272.171
402.837	328.788
405.729	345.131
408.622	299.811
411.515	222.626
414.408	165.335
417.3	108.406
420.193	76.3832
423.086	55.6062
425.978	45.1391
428.871	42.4763
431.764	47.9435
434.656	63.5535
437.549	87.6289
440.442	117.702
443.334	155.929
446.227	199.174
449.12	247.621
452.013	285.301
454.905	288.041
457.798	242.959
460.691	182.072
463.583	134.928
466.476	105.932
469.369	86.2081
472.262	70.6351
475.154	58.7464
478.047	49.6431
480.94	50.0167
483.832	57.4364
486.725	70.422
489.618	85.5278
492.51	108.541
495.403	122.281
498.296	131.642
501.188	130.779
504.081	117.478
506.974	97.1108
509.867	74.8336
512.759	52.8172
515.652	36.3347
518.545	23.9011
521.437	13.7848
524.33	7.17561
527.223	2.98923
530.115	0.463989
533.008	0.991768
535.901	2.08195
538.794	0.614067
541.686	2.91877
544.579	3.35056
547.472	1.69478
550.364	1.12651
553.257	0.756302
556.15	0.560974
559.043	1.26391
561.935	0.172501
564.828	0.498817
567.721	2.51202
570.613	0.973351
573.506	0.869217
576.399	1.85918
579.291	3.10545
582.184	3.27631
585.077	4.03301
587.97	5.66004
590.862	7.57467
593.755	5.7735
596.648	6.82974
599.54	7.7744
602.433	7.00263
605.326	6.59302
608.218	7.32394
611.111	6.31348
614.004	5.82612
616.896	7.29878
619.789	6.13681
622.682	5.21088
625.575	5.82415
628.467	6.57605
631.36	6.43305
634.253	6.92223
637.145	8.01859
640.038	9.78213
642.931	12.0912
645.823	12.2659
648.716	15.8933
651.609	17.535
654.502	20.8683
657.394	22.3641
660.287	24.6722
663.18	24.7139
666.072	24.4712
668.965	23.015
671.858	19.9709
674.75	17.6119
677.643	14.9695
680.536	13.25
683.429	11.2661
686.321	9.32505
689.214	10.327
692.107	13.9686
694.999	25.2285
697.892	33.7607
700.785	55.7804
703.678	86.1346
706.57	132.557
709.463	148.13
712.356	98.049
715.248	89.094
718.141	105.881
721.034	82.8507
723.926	27.074
726.819	7.67287
729.712	1.85754
732.605	0.724373
735.497	1.51938
738.39	4.1931
741.283	1.14971
744.175	3.88355
747.068	0.380142
749.961	0.242271
752.853	0.503784
755.746	0.596313
758.639	0.513489
761.532	0.591019
764.424	1.35148
767.317	0.815979
770.21	2.45594
773.102	0.76635
775.995	0.707855
778.888	0.978737
781.78	1.35872
784.673	2.58146
787.566	3.45278
790.458	2.30012
793.351	3.46127
796.244	5.05184
799.137	6.26434
802.029	7.97082
804.922	10.6176
807.815	12.5696
810.707	12.9797
813.6	8.3559
816.493	3.27988
819.385	1.46481
822.278	0.340851
825.171	0.056877
828.064	0.456528
830.956	1.56955
833.849	3.99806
836.742	6.26443
839.634	8.30729
842.527	9.09255
845.42	12.389
848.312	14.3462
851.205	15.7734
854.098	18.4647
856.991	20.0189
859.883	20.9884
862.776	22.6444
865.669	26.2088
868.561	25.2735
871.454	24.5721
874.347	24.4509
877.24	24.3208
880.132	23.4834
883.025	22.7858
885.918	22.2631
888.81	21.7352
891.703	20.5775
894.596	18.3211
897.488	16.9177
900.381	15.1068
903.274	12.1453
906.167	11.6036
909.059	9.1907
911.952	8.24074
914.845	11.0694
917.737	5.72242
920.63	3.91186
923.523	3.25343
926.415	6.88468
929.308	0.983925
932.201	0.466354
935.093	0.611702
937.986	0.275887
940.879	0.843613
943.772	0.130478
946.664	0.02211
949.557	0.30883
952.45	0.597099
955.342	3.68338
958.235	1.9821
961.128	2.87037
964.02	3.75659
966.913	4.62889
969.806	4.67118
972.699	3.7075
975.591	3.71973
978.484	1.62722
981.377	1.4818
984.269	0.451027
987.162	0.226456
990.055	0.921234
992.947	0.157494
995.84	0.163353
998.733	0.52668
1001.63	3.74967
1004.52	1.79176
1007.41	2.99293
1010.3	4.53775
1013.2	7.67824
1016.09	12.2932
1018.98	19.3761
1021.88	29.7869
1024.77	53.561
1027.66	80.0004
1030.55	143.043
1033.44	293.821
1036.34	506.385
1039.23	764.348
1042.12	1237.3
1045.02	1936.09
1047.91	1666.65
1050.8	624.2
1053.69	238.783
1056.59	121.102
1059.48	64.3556
1062.37	38.926
1065.27	27.289
1068.16	17.9104
1071.05	12.8278
1073.94	9.33678
1076.84	6.59633
1079.73	5.51489
1082.62	3.96372
1085.51	4.07798
1088.41	2.77306
1091.3	2.10877
1094.19	1.13134
1097.09	0.557945
1099.98	0.455147
1102.87	0.76215
1105.76	0.777969
1108.66	0.331848
1111.55	0.375637
1114.44	0.732258
1117.33	0.014019
1120.23	0.336864
1123.12	0.411736
1126.01	0.220272
1128.9	1.37755
1131.8	0.066856
1134.69	1.50229
1137.58	1.26741
1140.47	1.74394
1143.37	1.40693
1146.26	2.24095
1149.15	2.64199
1152.05	1.72161
1154.94	2.76166
1157.83	2.85422
1160.72	3.34741
1163.62	3.12422
1166.51	2.91389
1169.4	3.26627
1172.3	3.98485
1175.19	2.9954
1178.08	3.33466
1180.97	3.57209
1183.87	3.22609
1186.76	3.0462
1189.65	3.81485
1192.54	3.80167
1195.44	3.75535
1198.33	4.50018
1201.22	4.68107
1204.12	4.98952
1207.01	5.40389
1209.9	5.55011
1212.79	6.44018
1215.68	6.23989
1218.58	6.38142
1221.47	6.20011
1224.36	6.2066
1227.26	6.22611
1230.15	5.37734
1233.04	5.51565
1235.93	4.72223
1238.83	3.53838
1241.72	1.87837
1244.61	1.47572
1247.51	0.047871
1250.4	0.79451
1253.29	0.679512
1256.18	0.479565
1259.08	1.10929
1261.97	0.61784
1264.86	0.957584
1267.75	0.379925
1270.65	0.280827
1273.54	0.169857
1276.43	0.198059
1279.33	0.177269
1282.22	0.429131
1285.11	1.52851
1288	2.61247
1290.9	2.44746
1293.79	6.57893
1296.68	4.6368
1299.57	2.48384
1302.47	0.089653
