Measurement: Raman, 780 nm, unoriented, Raman Data Processed
Mineral: Roubaultite
Rruff sample: R080131
Ideal chemistry: Cu_2_O_2_(UO_2_)_3_(CO_3_)_2_(OH)_2_4H_2_O
Locality: KOV mine, Kamoto, Shaba, Democratic Republic of Congo
Source: William W. Pinch
Description: Lime green, granular, associated with pale yellow acicular uranophane
Raman shift (cm-1)	intensity
145.852	0
148.744	1.66766
151.637	0.789333
154.53	1.69716
157.423	4.28755
160.315	3.98703
163.208	1.95801
166.101	0.12429
168.994	0.080494
171.886	0.108349
174.779	1.32506
177.672	1.5884
180.564	4.33901
183.457	5.82616
186.35	7.7949
189.242	11.6684
192.135	14.1566
195.028	17.6884
197.921	21.3604
200.813	23.051
203.706	25.7754
206.599	29.5473
209.491	33.0304
212.384	34.3201
215.277	33.803
218.169	31.9475
221.062	27.6464
223.955	24.9293
226.847	23.9438
229.74	23.4869
232.633	23.5422
235.526	22.6326
238.418	19.0855
241.311	14.9873
244.204	11.9119
247.096	9.3867
249.989	7.93272
252.882	7.63767
255.774	7.13442
258.667	6.67442
261.56	7.45343
264.453	6.87526
267.345	7.61478
270.238	6.98447
273.131	6.66527
276.023	5.74655
278.916	4.90672
281.809	5.13306
284.702	4.24713
287.594	3.56832
290.487	3.23003
293.38	3.0765
296.272	3.1047
299.165	3.71296
302.058	3.87067
304.95	3.67222
307.843	2.91937
310.736	2.36812
313.628	1.48537
316.521	1.20959
319.414	0.871965
322.307	1.0445
325.199	0.293028
328.092	0.485104
330.985	0.208235
333.877	0.419527
336.77	0.164112
339.663	0.511879
342.556	0.17874
345.448	0.241259
348.341	0.186022
351.234	0.021063
354.126	0.186077
357.019	0.503084
359.912	0.204582
362.805	0.086491
365.697	0.415987
368.59	1.29735
371.483	1.62643
374.375	2.87838
377.268	2.87337
380.161	3.84235
383.053	4.75872
385.946	4.64454
388.839	4.61156
391.731	4.42239
394.624	4.31828
397.517	3.81396
400.41	3.5662
403.302	5.24073
406.195	4.94791
409.088	6.29021
411.98	8.2652
414.873	11.6943
417.766	17.9824
420.659	25.7482
423.551	35.5859
426.444	48.1086
429.337	60.2261
432.229	71.4407
435.122	80.9853
438.015	82.7138
440.907	73.1234
443.8	53.8252
446.693	33.7833
449.586	19.3774
452.478	12.2745
455.371	7.65997
458.264	6.19546
461.156	5.10056
464.049	5.27671
466.942	5.20378
469.834	5.24613
472.727	5.88052
475.62	6.40836
478.513	7.3522
481.405	6.96024
484.298	5.31133
487.191	4.46084
490.083	2.963
492.976	1.53845
495.869	1.21397
498.762	0.310225
501.654	0.232128
504.547	0.078634
507.44	0.812845
510.332	0.114567
513.225	0.520985
516.118	0.2327
519.01	0.064266
521.903	0.310362
524.796	0.2216
527.688	1.24519
530.581	1.07004
533.474	1.6727
536.367	1.89147
539.259	1.62639
542.152	2.86606
545.045	2.66517
547.937	2.65116
550.83	1.88719
553.723	3.05873
556.615	3.47015
559.508	3.06125
562.401	2.93398
565.294	2.86424
568.186	2.7264
571.079	2.71154
573.972	3.04181
576.864	2.9305
579.757	3.26483
582.65	2.94309
585.543	3.08148
588.435	2.95354
591.328	3.2671
594.221	2.96128
597.113	2.78424
600.006	2.80611
602.899	2.15556
605.791	2.00027
608.684	2.01973
611.577	1.42982
614.47	1.21637
617.362	1.03322
620.255	0.370358
623.148	0.523911
626.04	0.342913
628.933	0.400919
631.826	0.216587
634.718	0.833755
637.611	0.243225
640.504	0.156335
643.397	0.459936
646.289	0.086249
649.182	0.469998
652.075	0.193941
654.967	0.332202
657.86	0.007533
660.753	0.750025
663.645	0.597118
666.538	0.877923
669.431	0.364239
672.324	0.615927
675.216	0.942997
678.109	0.275069
681.002	0.924109
683.894	0.70681
686.787	0.383008
689.68	0.685472
692.572	0.981888
695.465	0.665027
698.358	0.460194
701.251	1.11866
704.143	1.07809
707.036	1.36512
709.929	1.21926
712.821	0.418518
715.714	0.293782
718.607	0.400816
721.5	0.331527
724.392	0.155008
727.285	0.079892
730.178	0.440069
733.07	1.52963
735.963	0.783995
738.856	0.160323
741.749	0.171878
744.641	0.211884
747.534	0.1562
750.427	0.506424
753.319	0.690827
756.212	0.562062
759.105	1.75168
761.997	1.91016
764.89	3.08338
767.783	5.15853
770.676	7.23731
773.568	9.91212
776.461	15.6471
779.354	22.9716
782.246	33.0782
785.139	43.8489
788.032	57.2083
790.924	69.9992
793.817	77.3253
796.71	76.5101
799.602	74.4908
802.495	78.4648
805.388	87.7407
808.281	104.069
811.173	116.913
814.066	107.4
816.959	73.4353
819.851	42.5448
822.744	26.172
825.637	18.2101
828.529	12.1658
831.422	8.29174
834.315	5.72116
837.208	3.6953
840.1	2.16346
842.993	1.92943
845.886	1.45802
848.778	0.993888
851.671	1.17356
854.564	1.04277
857.457	0.618363
860.349	0.861007
863.242	0.791947
866.135	1.61242
869.027	1.30169
871.92	1.37032
874.813	1.96649
877.705	1.28227
880.598	0.474786
883.491	0.492316
886.384	0.267372
889.276	0.068475
892.169	0.398211
895.062	0.056487
897.954	0.346003
900.847	0.122719
903.74	0.034868
906.632	0.02129
909.525	0.232794
912.418	0.06742
915.311	0.068074
918.203	0.165213
921.096	0.22085
923.989	0.443626
926.881	0.251341
929.774	0.485892
932.667	0.842142
935.559	0.693173
938.452	0.789077
941.345	0.904158
944.238	0.794521
947.13	0.730145
950.023	0.986652
952.916	0.944268
955.808	0.945606
958.701	0.491891
961.594	0.888987
964.486	1.11265
967.379	1.25296
970.272	0.400211
973.165	0.80221
976.057	0.774
978.95	0.385797
981.843	0.666962
984.735	0.095254
987.628	0.695894
990.521	0.401741
993.413	0.448879
996.306	0.524541
999.199	0.919952
1002.09	0.514301
1004.98	0.59041
1007.88	0.786817
1010.77	0.640061
1013.66	0.964398
1016.55	0.758751
1019.45	0.523847
1022.34	0.97144
1025.23	0.640509
1028.13	0.508647
1031.02	0.078072
1033.91	0.352201
1036.8	0.070939
1039.7	0.396636
1042.59	0.173554
1045.48	0.210577
1048.38	0.51331
1051.27	0.008964
1054.16	0.117181
1057.05	0.103483
1059.95	0.08043
1062.84	0.033712
1065.73	0.021593
1068.62	0.269204
1071.52	0.11903
1074.41	0.768505
1077.3	0.164314
1080.19	0.025223
1083.09	0.042764
1085.98	0.5767
1088.87	0.049239
1091.77	0.547224
1094.66	0.728704
1097.55	0.087281
1100.44	1.70381
1103.34	1.33556
1106.23	1.81109
1109.12	3.15061
1112.01	5.41708
1114.91	9.24438
1117.8	12.4391
1120.69	16.0571
1123.59	16.7745
1126.48	12.4814
1129.37	5.83249
1132.26	3.25187
1135.16	1.98717
1138.05	1.04076
1140.94	1.07073
1143.83	0.685764
1146.73	0.532629
1149.62	0.186684
1152.51	0.198157
1155.4	0.003501
1158.3	0.121082
1161.19	0.408236
1164.08	0.112924
1166.98	0.245301
1169.87	0.441329
1172.76	0.450099
1175.65	0.089721
1178.55	0.204974
1181.44	0.396915
1184.33	0.045647
1187.22	0.342509
1190.12	0.350515
1193.01	0.278607
1195.9	0.394145
1198.8	0.215323
1201.69	0.181924
1204.58	0.529231
1207.47	0.205355
1210.37	0.38665
1213.26	0.662494
1216.15	0.418732
1219.04	0.901512
1221.94	0.488837
1224.83	0.729405
1227.72	0.296971
1230.62	0.526563
1233.51	0.255409
1236.4	0.720951
1239.29	0.55705
1242.19	0.97245
1245.08	0.702695
1247.97	0.094691
1250.86	0.535144
1253.76	0.900491
1256.65	0.113197
1259.54	0.691048
1262.43	0.169307
1265.33	0.556103
1268.22	0.264568
1271.11	0.573378
1274.01	0.362687
1276.9	0.323052
1279.79	0.473192
1282.68	0.331724
1285.58	0.233931
