Measurement: Raman, 532 nm, unoriented, Raman Data Processed
Mineral: Roubaultite
Rruff sample: R080131
Ideal chemistry: Cu_2_O_2_(UO_2_)_3_(CO_3_)_2_(OH)_2_4H_2_O
Locality: KOV mine, Kamoto, Shaba, Democratic Republic of Congo
Source: William W. Pinch
Description: Lime green, granular, associated with pale yellow acicular uranophane
Raman shift (cm-1)	intensity
145.969	0
149.344	38.1724
152.719	8.75098
156.094	53.082
159.468	99.4028
162.843	94.8262
166.218	47.5107
169.593	13.333
172.968	14.4497
176.343	13.5649
179.717	22.6943
183.092	51.334
186.467	105.504
189.842	159.438
193.217	241.213
196.591	291.144
199.966	355.347
203.341	424.214
206.716	519.236
210.091	601.665
213.465	692.343
216.84	771.33
220.215	719.627
223.59	611.054
226.965	545.114
230.339	543.2
233.714	575.785
237.089	598.02
240.464	497.694
243.839	337.155
247.214	227.812
250.588	200.566
253.963	195.473
257.338	195.296
260.713	221.577
264.088	272.244
267.462	323.713
270.837	348.206
274.212	330.334
277.587	287.483
280.962	243.352
284.337	196.499
287.711	157.876
291.086	134.137
294.461	117.575
297.836	114.6
301.211	104.082
304.586	143.727
307.96	148.002
311.335	132.487
314.71	81.3521
318.085	53.9048
321.46	14.2148
324.834	3.11572
328.209	2.79932
331.584	1.88232
334.959	0.994141
338.334	12.3174
341.709	11.1177
345.083	30.0059
348.458	30.1802
351.833	28.9463
355.208	17.9546
358.583	3.02295
361.957	18.7251
365.332	17.1289
368.707	21.4507
372.082	3.57666
375.457	29.6216
378.832	49.1504
382.206	102.085
385.581	155.11
388.956	174.706
392.331	177.799
395.705	162.967
399.08	146.973
402.455	118.841
405.83	135.594
409.205	169.898
412.58	227.589
415.954	292.546
419.329	398.49
422.704	616.436
426.079	1009.67
429.454	1558
432.829	2217.23
436.203	3130
439.578	4183.79
442.953	4409.85
446.328	2993.2
449.703	1499.78
453.077	754.966
456.452	397.989
459.827	252.56
463.202	194.318
466.577	181.079
469.952	180.062
473.326	216.42
476.701	265.853
480.076	291.766
483.451	292.023
486.826	230.883
490.2	153.588
493.575	78.8428
496.95	34.9072
500.325	1.68457
503.7	7.08936
507.075	3.4585
510.449	7.17773
513.824	20.0317
517.199	2.4209
520.574	9.83203
523.949	39.6504
527.323	64.0654
530.698	67.7764
534.073	88.1948
537.448	123.974
540.823	146.837
544.197	150.982
547.572	146.987
550.947	154.894
554.322	130.016
557.697	123.861
561.072	126.707
564.446	116.93
567.821	97.9653
571.196	88.0503
574.571	82.3252
577.946	74.6558
581.321	67.3901
584.695	68.6943
588.07	64.7983
591.445	53.915
594.82	55.9785
598.194	27.1733
601.569	38.9258
604.944	29.3394
608.319	34.8975
611.694	40.0981
615.069	20.5781
618.443	3.35693
621.818	5.66504
625.193	7.10693
628.568	8.01367
631.943	6.8916
635.317	3.05664
638.692	14.6802
642.067	10.6977
645.442	3.52637
648.817	3.53857
652.192	2.05908
655.566	6.9043
658.941	7.64356
662.316	9.10791
665.691	9.7793
669.066	15.146
672.441	13.706
675.815	8.60107
679.19	12.2114
682.565	11.3896
685.94	16.167
689.315	17.8691
692.689	15.6846
696.064	11.3059
699.439	28.7363
702.814	28.5212
706.189	68.4775
709.563	98.2639
712.938	60.4087
716.313	8.41333
719.688	12.5005
723.063	10.3865
726.438	4.56836
729.812	31.9531
733.187	38.0837
736.562	33.9834
739.937	6.55029
743.312	2.41846
746.687	8.17822
750.061	2.36694
753.436	17.605
756.811	50.8787
760.186	101.026
763.561	148.185
766.935	229.559
770.31	348.297
773.685	539.754
777.06	876.832
780.435	1441.88
783.809	2241.59
787.184	3320.73
790.559	4488.99
793.934	4789.06
797.309	3845.41
800.683	3275.69
804.058	3501.73
807.433	4450.59
810.808	5945.34
814.183	6270.2
817.558	3807.79
820.932	1890.9
824.307	1108.04
827.682	691.215
831.057	400.11
834.432	242.897
837.807	172.847
841.181	118.159
844.556	77.9756
847.931	40.1716
851.306	34.3486
854.681	27.0832
858.055	28.8774
861.43	37.9858
864.805	54.009
868.18	71.9004
871.555	99.7588
874.929	120.997
878.304	118.696
881.679	79.0181
885.054	26.3516
888.429	5.73901
891.804	2.1394
895.178	9.03223
898.553	18.7686
901.928	2.91797
905.303	6.63574
908.678	1.77393
912.053	4.23144
915.427	8.74438
918.802	23.1716
922.177	23.8189
925.552	28.0806
928.927	32.7688
932.301	31.8557
935.676	35.2878
939.051	42.9524
942.426	54.9912
945.801	66.1326
949.176	69.9976
952.55	73.8203
955.925	75.1252
959.3	69.4082
962.675	85.7312
966.05	67.3489
969.424	38.3538
972.799	22.4319
976.174	9.02368
979.549	20.603
982.924	22.5513
986.298	23.9844
989.673	0.986572
993.048	1.24902
996.423	10.3044
999.798	3.20508
1003.17	7.60767
1006.55	14.6038
1009.92	14.8369
1013.3	11.4985
1016.67	23.3728
1020.05	25.1838
1023.42	31.2571
1026.8	10.3931
1030.17	5.35644
1033.55	0.80127
1036.92	1.72241
1040.3	0.166016
1043.67	10.1043
1047.05	9.44531
1050.42	1.89038
1053.8	2.6333
1057.17	2.87866
1060.54	3.38232
1063.92	5.18457
1067.29	0.260498
1070.67	2.37817
1074.04	8.01611
1077.42	4.68872
1080.79	2.98706
1084.17	10.0852
1087.54	3.80103
1090.92	1.99512
1094.29	12.1357
1097.67	24.637
1101.04	35.9241
1104.42	33.2581
1107.79	40.4993
1111.17	58.1536
1114.54	130.481
1117.92	240.684
1121.29	418.273
1124.67	704.353
1128.04	532.428
1131.42	206.669
1134.79	101.745
1138.16	57.6221
1141.54	35.7144
1144.91	26.5471
1148.29	23.9153
1151.66	15.3059
1155.04	16.7661
1158.41	15.9482
1161.79	14.136
1165.16	11.8098
1168.54	13.6912
1171.91	5.72241
1175.29	3.09961
1178.66	11.8904
1182.04	8.73096
1185.41	0.576416
1188.79	5.08765
1192.16	8.3877
1195.54	6.46558
1198.91	11.6206
1202.29	11.4927
1205.66	4.53906
1209.04	1.82251
1212.41	9.68042
1215.79	16.0369
1219.16	3.55664
1222.54	10.2969
1225.91	23.811
1229.29	3.8479
1232.66	10.2573
1236.04	1.95557
1239.41	1.74976
1242.79	2.83545
1246.16	2.5105
1249.53	3.55664
1252.91	9.12695
1256.28	0.013184
1259.66	5.8833
1263.03	1.60596
1266.41	0.565918
1269.78	4.43433
1273.16	6.60083
1276.53	3.26465
1279.91	6.23706
1283.28	8.45117
1286.66	7.85425
1290.03	10.8027
1293.41	2.5625
1296.78	7.74902
1300.16	0.726807
1303.53	0
