Measurement: Raman, 532 nm, unoriented, Raman Data Processed
Mineral: Roweite
Rruff sample: R070717
Ideal chemistry: Ca_2_Mn^2+^_2_B_4_O_7_(OH)_6_
Locality: Solongo B deposit, Vitim Plateau, Buriatia (Buryatia) Republic, Transbaikalia (Zabaykalye), Eastern-Siberian Region, Russia
Source: Michael Scott
Description: Colorless platy massive
Raman shift (cm-1)	intensity
151.947	0
154.84	72.5322
157.732	98.446
160.625	88.5166
163.518	121.054
166.411	116.213
169.303	180.496
172.196	221.061
175.089	183.51
177.981	55.3433
180.874	36.8005
183.767	60.3926
186.659	10.4187
189.552	9.34058
192.445	1.198
195.338	40.5879
198.23	97.9631
201.123	150.778
204.016	103.1
206.908	102.698
209.801	66.2256
212.694	76.3525
215.586	70.783
218.479	74.8123
221.372	85.0317
224.264	11.8909
227.157	82.8213
230.05	11.4351
232.943	4.5708
235.835	2.0791
238.728	7.79443
241.621	3.86841
244.513	65.1514
247.406	7.78686
250.299	26.5801
253.191	27.0696
256.084	32.4819
258.977	22.073
261.87	17.1125
264.762	42.3992
267.655	123.078
270.548	203.818
273.44	146.098
276.333	149.764
279.226	123.399
282.118	299.979
285.011	535.033
287.904	379.766
290.796	347.865
293.689	234.998
296.582	181.249
299.475	165.519
302.367	183.027
305.26	255.233
308.153	305.299
311.045	414.579
313.938	476.612
316.831	680.058
319.724	1212.07
322.616	1280.69
325.509	568.563
328.402	143.512
331.294	53.0469
334.187	19.5706
337.08	1.36475
339.972	33.8628
342.865	35.7
345.758	36.1668
348.651	64.3936
351.543	124.45
354.436	225.309
357.329	234.547
360.221	247.59
363.114	312.503
366.007	409.93
368.899	476.263
371.792	580.63
374.685	624.853
377.577	541.797
380.47	460.118
383.363	468.88
386.256	449.318
389.148	429.007
392.041	435.581
394.934	486.882
397.826	416.851
400.719	320.071
403.612	314.371
406.505	285.413
409.397	297.06
412.29	307.329
415.183	331.596
418.075	283.949
420.968	242.723
423.861	162.365
426.753	136.756
429.646	101.448
432.539	115.306
435.432	110.627
438.324	77.7195
441.217	180.382
444.11	242.136
447.002	229.623
449.895	176.59
452.788	92.0696
455.68	3.45483
458.573	8.23389
461.466	28.6733
464.358	3.77978
467.251	25.9658
470.144	16.3105
473.037	7.53979
475.929	22.1697
478.822	44.5408
481.715	92.4785
484.607	90.7622
487.5	151.422
490.393	124.749
493.286	137.073
496.178	109.948
499.071	149.374
501.964	195.666
504.856	224.617
507.749	240.163
510.642	216.726
513.534	241.413
516.427	274.562
519.32	178.25
522.212	216.083
525.105	116.682
527.998	136.424
530.891	129.947
533.783	136.433
536.676	179.642
539.569	235.355
542.461	216.679
545.354	210.676
548.247	167.831
551.139	152.565
554.032	95.5054
556.925	89.5327
559.818	5.88086
562.71	8.0542
565.603	53.5964
568.496	15.4465
571.388	10.0874
574.281	34.9097
577.174	14.6394
580.067	35.374
582.959	25.0984
585.852	121.864
588.745	85.0828
591.637	120.628
594.53	143.343
597.423	207.835
600.315	253.218
603.208	252.024
606.101	249.948
608.994	249.04
611.886	252.24
614.779	260.444
617.672	265.327
620.564	239.196
623.457	250.643
626.35	240.488
629.242	274.665
632.135	221.499
635.028	214.514
637.92	185.262
640.813	151.666
643.706	113.508
646.599	60.6506
649.491	61.8894
652.384	9.70776
655.277	5.12622
658.169	11.8186
661.062	18.2515
663.955	82.907
666.847	91.1724
669.74	103.254
672.633	155.382
675.525	183.434
678.418	244.021
681.311	298.693
684.204	302.617
687.096	345.671
689.989	449.48
692.882	488.058
695.774	540.269
698.667	537.401
701.56	440.361
704.452	323.338
707.345	199.521
710.238	107.672
713.131	30.6519
716.023	6.90479
718.916	46.5803
721.809	41.2136
724.701	18.0288
727.594	22.5156
730.487	59.1287
733.38	51.0076
736.272	146.951
739.165	170.115
742.058	323.365
744.95	465.006
747.843	596.246
750.736	678.836
753.628	652.007
756.521	581.395
759.414	510.516
762.307	288.043
765.199	173.696
768.092	109.624
770.985	64.7017
773.877	93.4597
776.77	98.6265
779.663	177.914
782.555	260.696
785.448	356.045
788.341	365.395
791.234	272.811
794.126	192.403
797.019	103.44
799.912	41.3652
802.804	39.5139
805.697	9.96582
808.59	2.36572
811.482	70.0491
814.375	155.679
817.268	301.247
820.16	514.879
823.053	844.145
825.946	1236.07
828.839	1654.53
831.731	2203.31
834.624	2857.93
837.517	4065.65
840.409	5619.2
843.302	5643.81
846.195	3320.31
849.087	1833.9
851.98	1206.41
854.873	913.637
857.766	790.127
860.658	650.258
863.551	472.28
866.444	373.401
869.336	326.716
872.229	213.879
875.122	145.763
878.014	135.921
880.907	107.582
883.8	4.06738
886.693	13.467
889.585	53.833
892.478	3.31641
895.371	30.4663
898.263	29.7866
901.156	50.7822
904.049	19.7981
906.942	47.7217
909.834	111.598
912.727	158.337
915.62	200.208
918.512	244.89
921.405	288.544
924.298	362.552
927.19	373.874
930.083	472.543
932.976	425.018
935.869	473.89
938.761	510.003
941.654	508.811
944.547	499.263
947.439	454.616
950.332	401.169
953.225	375.787
956.117	291.38
959.01	238.488
961.903	260.032
964.795	192.364
967.688	123.971
970.581	131.314
973.474	78.2349
976.366	46.1433
979.259	52.0054
982.152	48.3628
985.044	57.0518
987.937	15.3464
990.83	20.7188
993.722	22.551
996.615	10.0544
999.508	46.2473
1002.4	31.7371
1005.29	13.7373
1008.19	54.9927
1011.08	76.0549
1013.97	70.0662
1016.86	104.359
1019.76	127.695
1022.65	105.307
1025.54	167.937
1028.43	122.238
1031.33	156.838
1034.22	193.692
1037.11	174.115
1040.01	116.385
1042.9	121.414
1045.79	98.6531
1048.68	59.6311
1051.58	22.7903
1054.47	47.9224
1057.36	25.1794
1060.26	7.71826
1063.15	32.4551
1066.04	2.42456
1068.93	21.2336
1071.83	16.6338
1074.72	30.9246
1077.61	31.2395
1080.5	76.593
1083.4	27.2236
1086.29	23.1033
1089.18	60.0874
1092.07	72.5107
1094.97	46.8931
1097.86	105.373
1100.75	76.1296
1103.64	62.9409
1106.54	85.5737
1109.43	109.817
1112.32	129.909
1115.22	109.461
1118.11	88.8982
1121	34.6316
1123.89	79.5664
1126.79	62.4431
1129.68	47.6931
1132.57	93.0173
1135.46	84.4197
1138.36	70.2795
1141.25	29.4094
1144.14	20.2927
1147.04	33.5207
1149.93	22.1594
1152.82	16.3992
1155.71	2.98584
1158.61	18.594
1161.5	1.67895
1164.39	7.91504
1167.28	45.8804
1170.18	40.5408
1173.07	60.1802
1175.96	62.7905
1178.86	61.5576
1181.75	47.8594
1184.64	136.098
1187.53	116.921
1190.43	89.1155
1193.32	63.8296
1196.21	125.34
1199.1	52.7493
1202	42.0027
1204.89	32.908
1207.78	25.4605
1210.67	29.6033
1213.57	43.781
1216.46	55.6497
1219.35	40.2659
1222.25	8.80298
1225.14	8.82056
1228.03	50.9121
1230.92	63.4602
1233.82	10.1946
1236.71	3.76611
1239.6	4.60718
1242.49	12.4477
1245.39	1.33545
1248.28	7.80859
1251.17	65.75
1254.07	52.0234
1256.96	67.177
1259.85	62.147
1262.74	75.3174
1265.64	71.3164
1268.53	66.8745
1271.42	77.9053
1274.31	43.8638
1277.21	66.0195
1280.1	59.7473
1282.99	62.5378
1285.88	60.8083
1288.78	52.9812
1291.67	71.5984
1294.56	72.3481
