Measurement: Raman, 780 nm, unoriented, Raman Data Processed
Mineral: Roweite
Rruff sample: R130073
Ideal chemistry: Ca_2_Mn^2+^_2_B_4_O_7_(OH)_6_
Locality: Solongo B deposit, Vitim Plateau, Buriatia (Buryatia) Republic, Transbaikalia (Zabaykalye), Eastern-Siberian Region, Russia
Source: Michael Scott
Description: Yellow crystals, associated with calcite and colorless frolovite, R070469
Raman shift (cm-1)	intensity
92.0421	0
95.4169	16.341
98.7917	29.8796
102.166	27.3112
105.541	48.7347
108.916	82.308
112.291	132.507
115.666	155.477
119.041	133.308
122.415	97.6215
125.79	60.2102
129.165	40.8969
132.54	22.1195
135.915	9.4322
139.29	5.53651
142.664	3.44148
146.039	5.29166
149.414	5.4798
152.789	0.353058
156.163	3.935
159.538	9.39163
162.913	17.194
166.288	26.476
169.663	37.9444
173.038	43.5168
176.412	46.7035
179.787	45.1232
183.162	41.4088
186.537	39.0748
189.912	36.7199
193.286	37.2047
196.661	37.2578
200.036	36.16
203.411	31.487
206.786	23.063
210.161	19.7788
213.535	18.6916
216.91	19.5138
220.285	17.5388
223.66	20.7097
227.035	22.2138
230.409	21.7593
233.784	25.313
237.159	26.8744
240.534	28.3843
243.909	24.4391
247.284	18.8525
250.658	11.4542
254.033	7.83266
257.408	6.28221
260.783	6.85802
264.158	8.35496
267.532	8.02725
270.907	7.51953
274.282	5.58223
277.657	4.52988
281.032	3.44498
284.406	1.74326
287.781	1.188
291.156	0.200226
294.531	1.11131
297.906	1.09415
301.281	0.01207
304.655	0.65271
308.03	0.395706
311.405	1.94699
314.78	9.34905
318.155	14.8202
321.529	23.6467
324.904	29.7576
328.279	36.0315
331.654	35.8591
335.029	31.4312
338.404	21.9927
341.778	13.6066
345.153	11.879
348.528	14.5378
351.903	20.7632
355.278	31.5425
358.652	37.7463
362.027	41.4713
365.402	45.797
368.777	46.0898
372.152	39.6931
375.526	28.8847
378.901	18.279
382.276	10.8764
385.651	6.44733
389.026	3.28687
392.401	2.41429
395.775	2.46822
399.15	2.70259
402.525	1.98613
405.9	0.051666
409.275	1.45279
412.649	0.905884
416.024	1.98833
419.399	6.2599
422.774	8.98074
426.149	11.1109
429.524	13.1346
432.898	11.1761
436.273	9.12199
439.648	5.41734
443.023	2.54507
446.398	1.51663
449.772	3.38614
453.147	7.20325
456.522	5.96242
459.897	2.15869
463.272	1.69594
466.647	0.919937
470.021	0.636673
473.396	3.28787
476.771	4.70996
480.146	6.42218
483.521	3.22668
486.895	2.2787
490.27	2.03027
493.645	5.32548
497.02	9.09085
500.395	15.2529
503.769	26.8086
507.144	50.6599
510.519	92.5057
513.894	103.298
517.269	57.0185
520.644	25.8887
524.018	15.5513
527.393	13.8907
530.768	14.0594
534.143	14.1838
537.518	18.6025
540.892	29.6368
544.267	43.0776
547.642	44.3191
551.017	23.4168
554.392	7.57259
557.766	1.65155
561.141	0.848274
564.516	0.749763
567.891	0.098816
571.266	1.63725
574.64	7.365
578.015	13.3734
581.39	27.5143
584.765	53.2124
588.14	88.9265
591.515	157.15
594.889	283.869
598.264	391.704
601.639	292.971
605.014	146.738
608.389	86.2298
611.764	80.2597
615.138	65.3798
618.513	36.1822
621.888	19.7483
625.263	11.3079
628.638	7.88632
632.012	5.35821
635.387	2.51471
638.762	1.12241
642.137	0.892944
645.512	0.884941
648.886	0.264572
652.261	0.067139
655.636	0.468895
659.011	0.680298
662.386	1.89443
665.76	1.39298
669.135	3.11428
672.51	4.53905
675.885	6.69041
679.26	7.99708
682.635	9.03912
686.009	10.2296
689.384	10.6971
692.759	11.8539
696.134	14.3345
699.509	14.282
702.884	15.2555
706.258	14.8784
709.633	12.0207
713.008	10.4424
716.383	7.72769
719.758	4.46326
723.132	3.99435
726.507	2.00861
729.882	2.49151
733.257	2.27881
736.632	3.41306
740.006	2.78101
743.381	0.96463
746.756	1.06903
750.131	1.00162
753.506	0.113472
756.88	0.887611
760.255	0.920753
763.63	1.16551
767.005	1.67855
770.38	5.38493
773.755	10.7756
777.129	22.6324
780.504	42.9487
783.879	84.1658
787.254	145.839
790.629	144.382
794.003	67.5
797.378	26.7953
800.753	12.2134
804.128	8.09895
807.503	6.53865
810.878	7.51457
814.252	6.84471
817.627	5.29475
821.002	7.52006
824.377	14.7286
827.752	19.8601
831.126	19.0046
834.501	9.90385
837.876	4.94001
841.251	3.20162
844.626	3.27758
848	5.03442
851.375	5.84312
854.75	7.74657
858.125	7.9008
861.5	5.59676
864.875	2.63767
868.249	1.1875
871.624	2.63405
874.999	1.02425
878.374	1.64499
881.749	1.56445
885.123	1.74864
888.498	1.50883
891.873	0.305946
895.248	0.621185
898.623	0.590248
901.997	0.908409
905.372	1.30108
908.747	2.47231
912.122	1.45716
915.497	1.76428
918.872	0.843018
922.246	0.386299
925.621	0.80822
928.996	1.04183
932.371	0.285469
935.746	2.96034
939.12	5.14165
942.495	10.5082
945.87	10.7783
949.245	8.17039
952.62	5.00319
955.995	3.39208
959.369	3.88621
962.744	2.43789
966.119	1.97174
969.494	1.56926
972.869	1.41941
976.243	2.41584
979.618	2.02793
982.993	3.85199
986.368	3.81448
989.743	4.24834
993.117	5.98675
996.492	8.51127
999.867	15.5632
1003.24	19.5131
1006.62	20.8327
1009.99	28.1066
1013.37	38.1943
1016.74	40.1212
1020.12	30.8892
1023.49	19.6726
1026.87	13.649
1030.24	11.1235
1033.62	8.40136
1036.99	7.05695
1040.37	5.6472
1043.74	5.19763
1047.12	4.8647
1050.49	3.69944
1053.86	3.64774
1057.24	4.14807
1060.61	2.47987
1063.99	2.62584
1067.36	2.06159
1070.74	0.926964
1074.11	0.070999
1077.49	1.28281
1080.86	0.477295
1084.24	0.546455
1087.61	1.21489
1090.99	0.02951
1094.36	0.050163
1097.74	0.492714
1101.11	0.119698
1104.49	0.115517
1107.86	0.249054
1111.24	1.80212
1114.61	0.925186
1117.99	1.80714
1121.36	1.89072
1124.73	3.13644
1128.11	2.51685
1131.48	3.07881
1134.86	1.22689
1138.23	1.10049
1141.61	1.04397
1144.98	1.59119
1148.36	1.27448
1151.73	1.58415
1155.11	2.00303
1158.48	1.15585
1161.86	0.29213
1165.23	0.071617
1168.61	0.660904
1171.98	0.384941
1175.36	0.996811
1178.73	0.485512
1182.11	1.3751
1185.48	1.44585
1188.86	3.76008
1192.23	3.16167
1195.61	3.64306
1198.98	4.31615
1202.36	3.9411
1205.73	5.18813
1209.11	5.08591
1212.48	5.51666
1215.86	5.75873
1219.23	6.95333
1222.61	7.38636
1225.98	7.2313
1229.35	4.86653
1232.73	4.1619
1236.1	2.97817
1239.48	2.10378
1242.85	1.6939
1246.23	2.04953
1249.6	1.62807
1252.98	0.25425
1256.35	1.41618
1259.73	0.327217
1263.1	1.42867
1266.48	1.79905
1269.85	0.758347
1273.23	1.10071
1276.6	1.41231
1279.98	2.42349
1283.35	0.271011
