Measurement: Raman, 532 nm, unoriented, Raman Data Processed
Mineral: Roweite
Rruff sample: R130073
Ideal chemistry: Ca_2_Mn^2+^_2_B_4_O_7_(OH)_6_
Locality: Solongo B deposit, Vitim Plateau, Buriatia (Buryatia) Republic, Transbaikalia (Zabaykalye), Eastern-Siberian Region, Russia
Source: Michael Scott
Description: Yellow crystals, associated with calcite and colorless frolovite, R070469
Raman shift (cm-1)	intensity
91.2296	0
94.6044	3.40869
97.9792	25.8746
101.354	83.9558
104.729	136.367
108.104	243.4
111.478	357.43
114.853	465.036
118.228	427.447
121.603	330.606
124.978	232.325
128.352	155.175
131.727	105.791
135.102	57.4856
138.477	42.1395
141.852	11.9261
145.227	3.59985
148.601	10.1045
151.976	6.88916
155.351	0.200684
158.726	1.99414
162.101	23.3367
165.476	40.8107
168.85	67.2156
172.225	85.42
175.6	89.9807
178.975	78.6334
182.35	59.8447
185.724	45.4083
189.099	38.1219
192.474	35.0988
195.849	36.3541
199.224	38.3023
202.599	41.3933
205.973	21.1819
209.348	16.155
212.723	7.61768
216.098	14.1947
219.473	14.1882
222.847	19.8103
226.222	19.7042
229.597	20.6279
232.972	18.9111
236.347	16.8762
239.721	20.6405
243.096	15.6582
246.471	3.05969
249.846	4.51623
253.221	5.61267
256.596	3.95435
259.97	13.1489
263.345	22.813
266.72	36.1361
270.095	35.2245
273.47	46.2783
276.844	51.0118
280.219	54.5709
283.594	52.1365
286.969	57.5087
290.344	52.184
293.719	44.0599
297.093	40.6643
300.468	35.8878
303.843	33.6896
307.218	32.7148
310.593	33.7749
313.967	32.9919
317.342	43.0049
320.717	48.1494
324.092	65.8484
327.467	76.0968
330.842	79.3601
334.216	78.1865
337.591	74.5289
340.966	63.5331
344.341	57.8435
347.716	62.6902
351.091	78.4204
354.465	106.112
357.84	117.078
361.215	114.226
364.59	105.097
367.964	96.2346
371.339	75.6654
374.714	47.859
378.089	35.1446
381.464	16.9681
384.839	11.9071
388.213	2.2074
391.588	1.29761
394.963	5.84863
398.338	2.35315
401.713	6.16309
405.087	5.58032
408.462	3.51526
411.837	3.17334
415.212	15.1819
418.587	28.8536
421.962	43.062
425.336	36.6859
428.711	41.5095
432.086	32.4489
435.461	18.141
438.836	6.87219
442.211	7.36755
445.585	2.44556
448.96	2.56433
452.335	3.74707
455.71	8.39648
459.085	5.24402
462.459	2.85901
465.834	9.41418
469.209	8.1084
472.584	14.5316
475.959	18.9111
479.334	17.5584
482.708	4.20117
486.083	3.74072
489.458	3.07336
492.833	3.0686
496.208	10.2717
499.582	28.6094
502.957	50.2647
506.332	92.0192
509.707	159.724
513.082	199.116
516.457	135.225
519.831	73.9857
523.206	51.1144
526.581	55.1095
529.956	60.3212
533.331	83.0666
536.705	118.589
540.08	156.905
543.455	212.526
546.83	232.606
550.205	159.761
553.58	58.7009
556.954	8.74097
560.329	2.12476
563.704	1.94397
567.079	5.45068
570.454	3.97449
573.828	22.7024
577.203	58.8401
580.578	128.379
583.953	263.285
587.328	490.835
590.702	799.716
594.077	1219.38
597.452	1593.65
600.827	1426.72
604.202	799.969
607.577	472.167
610.951	386.804
614.326	350.573
617.701	220.374
621.076	126.597
624.451	71.9338
627.825	43.0007
631.2	27.5139
634.575	11.0459
637.95	2.64356
641.325	3.28003
644.699	4.85864
648.074	4.45239
651.449	8.65063
654.824	20.6296
658.199	26.3103
661.574	46.5132
664.948	64.9827
668.323	80.5527
671.698	95.459
675.073	115.15
678.448	136.639
681.822	170.505
685.197	202.431
688.572	244.649
691.947	290.649
695.322	332.423
698.697	378.401
702.071	405.556
705.446	403.317
708.821	359.65
712.196	305.982
715.571	244.877
718.946	156.506
722.32	102.907
725.695	69.5815
729.07	57.6526
732.445	52.5835
735.82	49.7705
739.194	45.8699
742.569	24.1982
745.944	11.5596
749.319	4.8125
752.694	2.22022
756.068	1.54517
759.443	5.1543
762.818	2.30054
766.193	0.201416
769.568	6.8606
772.943	25.3955
776.317	79.7588
779.692	174.608
783.067	325.484
786.442	512.534
789.817	559.954
793.192	327.839
796.566	127.389
799.941	61.8193
803.316	55.2244
806.691	56.1912
810.066	74.9453
813.44	72.6074
816.815	49.3203
820.19	62.9043
823.565	75.7844
826.94	98.1692
830.314	94.8484
833.689	46.6548
837.064	13.626
840.439	1.77124
843.814	9.68115
847.188	22.4456
850.563	36.6086
853.938	53.8486
857.313	60.6401
860.688	51.2202
864.063	37.0938
867.437	9.70483
870.812	8.8772
874.187	9.40454
877.562	6.26587
880.937	9.27759
884.312	3.44409
887.686	0.184814
891.061	10.0361
894.436	17.8962
897.811	11.8826
901.186	14.5981
904.56	12.4534
907.935	15.6023
911.31	17.041
914.685	18.1213
918.06	13.02
921.434	0.272461
924.809	1.20386
928.184	2.7146
931.559	6.80591
934.934	1.39795
938.309	11.4519
941.683	32.1728
945.058	48.6411
948.433	38.5068
951.808	29.1128
955.183	20.5291
958.558	11.4163
961.932	17.4712
965.307	23.0837
968.682	26.4802
972.057	23.345
975.432	22.1982
978.806	33.8745
982.181	42.9963
985.556	46.407
988.931	50.7666
992.306	64.001
995.681	84.0137
999.055	133.7
1002.43	187.303
1005.8	137.055
1009.18	123.59
1012.55	145.704
1015.93	151.425
1019.3	130.25
1022.68	101.44
1026.05	87.9937
1029.43	93.2896
1032.8	98.6211
1036.18	79.2498
1039.55	67.1702
1042.93	57.4299
1046.3	49.5986
1049.68	39.241
1053.05	34.4216
1056.43	32.5405
1059.8	14.739
1063.18	12.4822
1066.55	6.54394
1069.93	11.269
1073.3	1.8042
1076.68	1.22461
1080.05	0.680664
1083.43	2.40503
1086.8	5.052
1090.17	3.54102
1093.55	0.630127
1096.92	6.49805
1100.3	9.57764
1103.67	5.7251
1107.05	11.3184
1110.42	20.2373
1113.8	32.8477
1117.17	30.2188
1120.55	29.2507
1123.92	31.3728
1127.3	27.1575
1130.67	19.4209
1134.05	15.2207
1137.42	14.5244
1140.8	14.6726
1144.17	12.7676
1147.55	13.283
1150.92	13.9834
1154.3	23.5488
1157.67	30.2436
1161.05	17.3086
1164.42	9.35986
1167.8	5.06348
1171.17	3.98315
1174.55	9.63379
1177.92	11.5034
1181.3	23.2681
1184.67	34.5945
1188.05	39.1121
1191.42	37.3894
1194.8	37.9412
1198.17	34.8528
1201.54	41.7661
1204.92	40.7329
1208.29	43.5598
1211.67	40.2283
1215.04	40.3438
1218.42	45.3708
1221.79	42.3062
1225.17	37.9299
1228.54	19.9873
1231.92	24.8552
1235.29	15.8093
1238.67	9.40796
1242.04	8.06934
1245.42	14.8359
1248.79	11.6492
1252.17	8.61084
1255.54	3.87549
1258.92	8.021
1262.29	3.79419
1265.67	2.30225
1269.04	3.49292
1272.42	2.92236
1275.79	2.82519
1279.16	2.53223
1282.54	1.64941
1285.91	1.26538
1289.29	3.73193
1292.66	0.219238
1296.04	9.08447
1299.41	1.43555
