Measurement: Raman, 780 nm, unoriented, Raman Data Processed
Mineral: Roweite
Rruff sample: R070717
Ideal chemistry: Ca_2_Mn^2+^_2_B_4_O_7_(OH)_6_
Locality: Solongo B deposit, Vitim Plateau, Buriatia (Buryatia) Republic, Transbaikalia (Zabaykalye), Eastern-Siberian Region, Russia
Source: Michael Scott
Description: Colorless platy massive
Raman shift (cm-1)	intensity
154.236	0
157.129	43.0999
160.021	109.231
162.914	112.762
165.807	162.615
168.699	185.709
171.592	269.708
174.485	353.504
177.377	220.765
180.27	63.2705
183.163	47.22
186.055	61.6204
188.948	49.3633
191.841	29.4648
194.734	132.443
197.626	157.805
200.519	219.253
203.412	206.587
206.304	182.898
209.197	170.273
212.09	145.911
214.982	169.773
217.875	110.331
220.768	121.516
223.661	42.249
226.553	7.3374
229.446	26.5198
232.339	3.1792
235.231	32.7263
238.124	2.19214
241.017	29.6453
243.91	36.9399
246.802	59.2383
249.695	31.9485
252.588	49.8264
255.48	36.1421
258.373	15.3115
261.266	67.7234
264.158	103.039
267.051	110.113
269.944	206.099
272.837	206.683
275.729	215.519
278.622	225.093
281.515	276.078
284.407	433.214
287.3	423.15
290.193	370.876
293.085	294.671
295.978	213.474
298.871	182.766
301.764	160.997
304.656	172.179
307.549	248.337
310.442	411.426
313.334	527.085
316.227	636.024
319.12	952.301
322.012	1292.32
324.905	816.617
327.798	331.238
330.69	134
333.583	3.98267
336.476	14.739
339.369	10.4507
342.261	28.5781
345.154	0.13623
348.047	43.0388
350.939	121.295
353.832	160.988
356.725	188.481
359.618	172.713
362.51	262.994
365.403	349.423
368.296	425.964
371.188	561.596
374.081	603.695
376.974	539.444
379.866	507.315
382.759	409.265
385.652	393.392
388.545	345.152
391.437	417.11
394.33	469.512
397.223	420.646
400.115	369.248
403.008	278.423
405.901	286.129
408.793	282.046
411.686	290.847
414.579	271.347
417.471	265.082
420.364	256.974
423.257	221.818
426.15	216.956
429.042	210.141
431.935	166.323
434.828	149.458
437.72	153.042
440.613	236.207
443.506	216.485
446.399	252.58
449.291	188.265
452.184	122.658
455.077	48.3569
457.969	26.051
460.862	16.9053
463.755	0.308105
466.647	2.12341
469.54	11.5603
472.433	6.45264
475.325	9.63257
478.218	37.5667
481.111	36.2805
484.004	89.1368
486.896	101.707
489.789	100.421
492.682	113.842
495.574	91.2308
498.467	105.989
501.36	97.7261
504.252	109.497
507.145	133.812
510.038	125.442
512.931	149.797
515.823	187.723
518.716	200.038
521.609	161.607
524.501	130.969
527.394	140.196
530.287	132.316
533.179	140.364
536.072	136.605
538.965	166.02
541.858	215.148
544.75	214.357
547.643	166.172
550.536	135.756
553.428	108.913
556.321	112.04
559.214	59.2598
562.106	0.901123
564.999	18.8563
567.892	10.7421
570.785	44.5602
573.677	28.4152
576.57	28.0868
579.463	7.58814
582.355	11.4502
585.248	51.0676
588.141	21.0844
591.034	80.5734
593.926	38.223
596.819	53.7089
599.712	122.445
602.604	112.582
605.497	165.667
608.39	164.681
611.282	209.838
614.175	189.074
617.068	210.012
619.961	237.092
622.853	220.952
625.746	279.981
628.639	211.601
631.531	183.996
634.424	128.076
637.317	136.743
640.209	108.717
643.102	117.958
645.995	70.6614
648.888	62.5668
651.78	27.9054
654.673	24.0427
657.566	12.7501
660.458	3.01013
663.351	33.5316
666.244	58.0723
669.136	45.6112
672.029	106.413
674.922	114.013
677.814	130.881
680.707	163.444
683.6	190.223
686.493	217.773
689.385	211.59
692.278	284.63
695.171	327.224
698.063	409.266
700.956	356.66
703.849	265.932
706.741	220.545
709.634	107.115
712.527	26.1136
715.42	8.12158
718.312	6.22644
721.205	25.0293
724.098	27.5685
726.99	35.7405
729.883	15.1201
732.776	14.7263
735.668	68.0609
738.561	123.216
741.454	163.653
744.347	259.124
747.239	348.322
750.132	436.194
753.025	497.26
755.917	433.01
758.81	398.261
761.703	302.568
764.596	182.339
767.488	91.2024
770.381	41.7827
773.274	40.952
776.166	85.9034
779.059	73.4681
781.952	197.713
784.844	237.128
787.737	256.466
790.63	216.148
793.523	158.064
796.415	110.805
799.308	67.77
802.201	5.27979
805.093	10.6484
807.986	26.8691
810.879	55.0768
813.771	119.266
816.664	228.687
819.557	419.104
822.449	686.156
825.342	983.98
828.235	1331.94
831.128	1590.95
834.02	2035.83
836.913	2717.37
839.806	3752.22
842.698	4173.22
845.591	2863.41
848.484	1559.87
851.376	969.079
854.269	684.36
857.162	591.537
860.055	457.68
862.947	369.565
865.84	305.172
868.733	226.714
871.625	158.865
874.518	89.7991
877.411	74.5708
880.303	67.9309
883.196	79.0281
886.089	3.60461
888.982	28.5077
891.874	15.7659
894.767	13.7091
897.66	24.9568
900.552	7.44043
903.445	18.0456
906.338	14.645
909.231	100.569
912.123	96.8149
915.016	136.508
917.909	150.177
920.801	177.776
923.694	201.299
926.587	233.135
929.479	276.989
932.372	334.345
935.265	301.756
938.158	374.246
941.05	345.647
943.943	325.927
946.836	282.377
949.728	305.084
952.621	242.27
955.514	188.836
958.406	164.63
961.299	182.309
964.192	143.776
967.085	87.6648
969.977	104.816
972.87	65.0542
975.763	84.2405
978.655	53.8529
981.548	27.714
984.441	16.5261
987.333	1.38989
990.226	25.0878
993.119	24.2873
996.011	0.856812
998.904	15.329
1001.8	24.0697
1004.69	20.4605
1007.58	15.3892
1010.48	45.1779
1013.37	33.7374
1016.26	46.1514
1019.15	66.1643
1022.05	57.8547
1024.94	78.3517
1027.83	78.9155
1030.72	82.8637
1033.62	73.866
1036.51	88.2734
1039.4	82.8284
1042.3	79.4066
1045.19	61.3415
1048.08	15.2247
1050.97	60.6271
1053.87	9.76697
1056.76	31.9017
1059.65	10.4271
1062.54	3.90466
1065.44	17.9414
1068.33	18.7631
1071.22	13.8026
1074.11	22.2849
1077.01	3.68365
1079.9	11.8077
1082.79	20.6525
1085.68	38.465
1088.58	19.6991
1091.47	31.743
1094.36	33.4226
1097.26	40.8506
1100.15	32.0006
1103.04	43.7846
1105.93	46.7513
1108.83	63.1177
1111.72	61.7206
1114.61	30.9276
1117.51	60.7681
1120.4	54.1011
1123.29	41.6878
1126.18	26.9014
1129.08	42.5046
1131.97	48.8634
1134.86	27.8972
1137.75	42.7375
1140.65	10.2163
1143.54	39.9908
1146.43	53.4127
1149.33	0.862244
1152.22	38.993
1155.11	12.6981
1158	6.20709
1160.89	28.203
1163.79	15.5633
1166.68	34.2738
1169.57	17.2345
1172.47	30.1314
1175.36	40.3757
1178.25	42.8761
1181.14	80.5736
1184.04	36.4286
1186.93	75.1675
1189.82	110.389
1192.71	67.4861
1195.61	68.6469
1198.5	82.2769
1201.39	22.8115
1204.29	49.0307
1207.18	27.6614
1210.07	36.5667
1212.96	18.9899
1215.86	36.9059
1218.75	26.7749
1221.64	36.7764
1224.54	10.5674
1227.43	2.54712
1230.32	20.4598
1233.21	31.3314
1236.11	13.1295
1239	17.5873
1241.89	16.6262
1244.78	16.3662
1247.68	29.0083
1250.57	44.5443
1253.46	39.4598
1256.35	27.1558
1259.25	61.3434
1262.14	34.9742
1265.03	53.373
1267.92	1.9165
1270.82	40.8812
1273.71	18.4271
1276.6	6.52564
1279.5	18.5044
