Measurement: Raman, 532 nm, unoriented, Raman Data Processed
Mineral: Rozenite
Rruff sample: R070187
Ideal chemistry: Fe^2+^SO_4_4H_2_O
Locality: Runge mine, near Edgemont, Fall River County, South Dakota, USA
Source: James Shigley
Description: Pale green powdery efflorescences
Raman shift (cm-1)	intensity
139.575	0
142.95	30.9979
146.325	144.339
149.7	191.06
153.074	142.702
156.449	49.2464
159.824	62.8856
163.199	85.4987
166.574	123.56
169.948	98.5923
173.323	70.045
176.698	7.86902
180.073	0.110779
183.448	19.7455
186.822	31.3986
190.197	75.1442
193.572	167.234
196.947	228.531
200.322	343.925
203.697	420.026
207.071	480.414
210.446	494.512
213.821	471.992
217.196	378.135
220.571	309.278
223.946	262.75
227.32	241.234
230.695	248.446
234.07	258.924
237.445	265.866
240.82	259.779
244.194	207.598
247.569	130.599
250.944	95.9347
254.319	51.9905
257.694	52.0837
261.068	41.9888
264.443	50.6757
267.818	44.5232
271.193	73.0665
274.568	82.6561
277.943	108.636
281.317	114.569
284.692	121.145
288.067	94.6087
291.442	69.0482
294.817	44.1843
298.192	34.4392
301.566	9.89703
304.941	8.60272
308.316	8.08826
311.691	6.06433
315.066	19.0207
318.44	24.7628
321.815	4.50171
325.19	17.0499
328.565	0.583679
331.94	38.5295
335.315	32.4282
338.689	34.4196
342.064	51.2931
345.439	70.0059
348.814	73.9796
352.189	66.5141
355.563	62.1292
358.938	80.7167
362.313	85.3154
365.688	80.5403
369.063	98.6849
372.438	94.4269
375.812	71.4296
379.187	96.1741
382.562	85.6009
385.937	59.1014
389.312	48.959
392.686	41.6303
396.061	32.0724
399.436	19.898
402.811	15.3965
406.186	17.4378
409.56	21.5319
412.935	37.3586
416.31	57.2464
419.685	62.6937
423.06	73.8002
426.435	107.799
429.809	144.564
433.184	181.39
436.559	219.66
439.934	265.195
443.309	378.897
446.683	488.197
450.058	567.418
453.433	632.647
456.808	676.235
460.183	697.725
463.558	674.188
466.932	745.483
470.307	851.676
473.682	985.96
477.057	1116.55
480.432	1063.75
483.807	892.865
487.181	555.686
490.556	325.689
493.931	172.011
497.306	89.4423
500.68	38.5879
504.055	2.32056
507.43	1.45032
510.805	7.85883
514.18	20.9498
517.555	29.4976
520.929	3.32379
524.304	14.4962
527.679	5.01794
531.054	24.0692
534.429	11.3709
537.803	25.2269
541.178	42.6386
544.553	63.898
547.928	47.3076
551.303	99.548
554.678	93.2575
558.052	133.981
561.427	148.391
564.802	199.566
568.177	205.945
571.552	248.928
574.927	243.106
578.301	269.662
581.676	286.35
585.051	263.473
588.426	297.317
591.801	367.47
595.175	450.835
598.55	501.031
601.925	531.859
605.3	595.919
608.675	564.39
612.049	531.987
615.424	471.529
618.799	403.766
622.174	364.039
625.549	306.192
628.924	261.033
632.298	237.4
635.673	220.292
639.048	183.441
642.423	184.17
645.798	170.581
649.173	172.526
652.547	190.268
655.922	209.964
659.297	184.137
662.672	159.651
666.047	131.399
669.421	79.6662
672.796	77.9954
676.171	29.2234
679.546	39.1065
682.921	21.3853
686.295	13.3669
689.67	6.99023
693.045	3.29431
696.42	4.87085
699.795	8.14948
703.17	9.10138
706.544	5.29944
709.919	1.38129
713.294	2.40076
716.669	13.5212
720.044	15.6753
723.418	4.64423
726.793	0.978271
730.168	20.4057
733.543	35.7885
736.918	24.1106
740.293	49.0874
743.667	24.7541
747.042	27.934
750.417	31.8988
753.792	25.1321
757.167	21.5774
760.541	31.1544
763.916	39.7206
767.291	23.9859
770.666	35.2158
774.041	41.8488
777.415	42.5164
780.79	38.3989
784.165	35.4518
787.54	16.9728
790.915	37.3043
794.29	31.7209
797.664	23.502
801.039	29.4308
804.414	4.90723
807.789	24.9644
811.164	4.07019
814.538	20.5413
817.913	26.4556
821.288	3.83758
824.663	16.0182
828.038	7.49341
831.413	9.45416
834.787	18.1755
838.162	16.9537
841.537	5.59973
844.912	22.7257
848.287	13.5624
851.662	33.4802
855.036	37.9014
858.411	46.6863
861.786	41.832
865.161	56.7689
868.536	36.7687
871.91	38.4365
875.285	50.8264
878.66	41.9337
882.035	46.4041
885.41	46.9817
888.784	16.2655
892.159	19.9662
895.534	31.4138
898.909	15.9055
902.284	37.4708
905.659	17.7205
909.033	6.37787
912.408	6.17542
915.783	2.43897
919.158	14.9614
922.533	5.27045
925.908	0.40387
929.282	1.58136
932.657	23.1365
936.032	27.6211
939.407	24.0001
942.782	32.9121
946.156	20.4737
949.531	42.2421
952.906	67.0192
956.281	95.732
959.656	156.455
963.03	194.967
966.405	298.558
969.78	416.276
973.155	655.505
976.53	1107.94
979.905	2802.82
983.279	6633.22
986.654	11008.3
990.029	14523.2
993.404	8824.03
996.779	3119.64
1000.15	1206.76
1003.53	551.858
1006.9	329.094
1010.28	221.668
1013.65	166.559
1017.03	116.969
1020.4	88.678
1023.78	50.1199
1027.15	28.7853
1030.53	3.02801
1033.9	14.9534
1037.28	4.03375
1040.65	10.5513
1044.03	9.59613
1047.4	63.3862
1050.78	89.7113
1054.15	158.001
1057.53	237.739
1060.9	367.461
1064.28	442.2
1067.65	527.946
1071.03	558.161
1074.4	506.755
1077.77	477.87
1081.15	402.147
1084.52	349.312
1087.9	350.603
1091.27	320.402
1094.65	312.412
1098.02	273.136
1101.4	255.601
1104.77	219.692
1108.15	116.353
1111.52	97.9842
1114.9	50.5999
1118.27	33.366
1121.65	51.2835
1125.02	41.2202
1128.4	84.5183
1131.77	160.835
1135.15	285.955
1138.52	400.588
1141.9	599.277
1145.27	688.369
1148.65	669.549
1152.02	471.962
1155.39	298.773
1158.77	187.923
1162.14	124.354
1165.52	92.0336
1168.89	56.0312
1172.27	103.436
1175.64	69.7881
1179.02	85.8508
1182.39	60.3737
1185.77	35.572
1189.14	2.51318
1192.52	10.9597
1195.89	6.48334
1199.27	26.3508
1202.64	4.4386
1206.02	6.95416
1209.39	15.956
1212.77	16.5479
1216.14	21.8151
1219.52	13.092
1222.89	33.2566
1226.27	6.72583
1229.64	28.4624
1233.02	37.2369
1236.39	24.376
1239.77	34.8115
1243.14	22.5411
1246.52	21.3326
1249.89	21.2252
1253.27	23.6139
1256.64	0.412415
1260.01	23.8313
1263.39	10.0245
1266.76	8.3678
1270.14	10.4141
1273.51	15.5836
1276.89	21.7697
1280.26	17.6722
1283.64	13.2795
1287.01	26.2518
1290.39	17.6456
1293.76	3.58106
1297.14	5.2832
1300.51	2.80505
1303.89	15.9324
