Measurement: Raman, 785 nm, unoriented, Raman Data Processed
Mineral: Rozenite
Rruff sample: R070187
Ideal chemistry: Fe^2+^SO_4_4H_2_O
Locality: Runge mine, near Edgemont, Fall River County, South Dakota, USA
Source: James Shigley
Description: Pale green powdery efflorescences
Raman shift (cm-1)	intensity
143.487	0
146.38	102.982
149.272	182.117
152.165	135.132
155.058	56.8362
157.95	6.83398
160.843	0.722168
163.736	42.7478
166.628	105.596
169.521	101.918
172.414	46.1949
175.306	30.248
178.199	21.0109
181.092	40.2561
183.985	36.273
186.877	85.8319
189.77	110.112
192.663	172.032
195.555	222.788
198.448	308.396
201.341	390.641
204.233	443.778
207.126	432.24
210.019	426.595
212.912	406.485
215.804	366.331
218.697	297.748
221.59	275.914
224.482	217.713
227.375	232.688
230.268	235.872
233.161	252.988
236.053	228.72
238.946	266.109
241.839	191.753
244.731	174.767
247.624	149.857
250.517	110.667
253.409	92.9149
256.302	67.0927
259.195	73.0552
262.087	55.2434
264.98	68.679
267.873	68.241
270.766	67.8716
273.658	87.1317
276.551	109.206
279.444	95.2727
282.336	118.097
285.229	117.341
288.122	119.688
291.014	86.0894
293.907	66.6261
296.8	39.4778
299.693	20.8458
302.585	8.59827
305.478	20.3455
308.371	7.05664
311.263	25.5327
314.156	8.79321
317.049	11.3795
319.942	5.19385
322.834	22.5111
325.727	5.09827
328.62	29.7283
331.512	24.0395
334.405	27.1495
337.298	40.7315
340.19	32.4587
343.083	47.0306
345.976	54.8594
348.868	44.7053
351.761	51.123
354.654	76.8246
357.547	76.052
360.439	66.7854
363.332	81.075
366.225	101.095
369.117	107.98
372.01	94.7819
374.903	84.9426
377.796	84.2102
380.688	69.8136
383.581	83.4775
386.474	64.6045
389.366	42.2762
392.259	26.2263
395.152	35.6309
398.044	26.7335
400.937	25.5026
403.83	20.3099
406.723	32.9109
409.615	13.6902
412.508	41.0745
415.401	56.8886
418.293	52.9545
421.186	55.7317
424.079	100.755
426.971	87.4855
429.864	138.654
432.757	128.08
435.649	162.291
438.542	232.553
441.435	269.151
444.328	309.778
447.22	380.02
450.113	442.327
453.006	487.981
455.898	546.068
458.791	544.883
461.684	549.387
464.577	547.977
467.469	586.415
470.362	664.633
473.255	689.857
476.147	780.282
479.04	805.637
481.933	714.024
484.825	597.783
487.718	420.045
490.611	233.559
493.503	157.106
496.396	81.571
499.289	30.0389
502.182	19.6621
505.074	0.913635
507.967	12.3405
510.86	9.63635
513.752	4.70904
516.645	17.7341
519.538	13.3855
522.431	6.04602
525.323	4.7218
528.216	8.34711
531.109	28.8867
534.001	10.2394
536.894	37.9175
539.787	37.1414
542.679	56.0132
545.572	59.8538
548.465	50.0992
551.357	50.3509
554.25	56.9572
557.143	81.7703
560.036	81.0277
562.928	74.6569
565.821	100.384
568.714	115.555
571.606	115.575
574.499	153.153
577.392	142.164
580.284	162.172
583.177	181.516
586.07	164.923
588.963	214.552
591.855	227.895
594.748	267.604
597.641	285.67
600.533	345.649
603.426	376.506
606.319	391.51
609.212	390.185
612.104	362.373
614.997	316.572
617.89	306.573
620.782	270.667
623.675	226.427
626.568	196.045
629.46	212.118
632.353	182.678
635.246	148.05
638.139	145.9
641.031	147.995
643.924	137.72
646.817	113.14
649.709	128.671
652.602	153.347
655.495	102.804
658.388	129.921
661.28	120.234
664.173	102.128
667.066	86.5549
669.958	68.4351
672.851	54.241
675.744	50.8331
678.636	18.7612
681.529	0.676575
684.422	36.0566
687.314	12.8611
690.207	24.2231
693.1	11.3614
695.993	23.2429
698.885	5.2171
701.778	25.6022
704.671	5.69495
707.563	2.55896
710.456	11.1724
713.349	25.5845
716.241	23.6237
719.134	22.4788
722.027	9.75653
724.92	4.73151
727.812	13.8274
730.705	15.4056
733.598	11.0676
736.49	10.3898
739.383	18.6883
742.276	27.967
745.168	24.8733
748.061	34.8215
750.954	25.8635
753.847	40.819
756.739	23.7363
759.632	49.7696
762.525	20.1244
765.417	18.7812
768.31	16.5525
771.203	32.8966
774.096	35.3694
776.988	40.2617
779.881	42.7677
782.774	7.51196
785.666	14.3364
788.559	19.6226
791.452	38.149
794.344	54.5656
797.237	61.8381
800.13	50.8102
803.023	59.1415
805.915	48.9087
808.808	83.499
811.701	81.2462
814.593	80.7142
817.486	109.192
820.379	100.433
823.271	132.36
826.164	117.942
829.057	102.98
831.949	126.617
834.842	120.226
837.735	123.907
840.628	123.277
843.52	114.696
846.413	76.8876
849.306	71.3256
852.198	78.4813
855.091	90.1072
857.984	76.2905
860.876	85.2181
863.769	70.9537
866.662	61.421
869.555	80.2399
872.447	49.4992
875.34	38.0268
878.233	50.4251
881.125	49.2654
884.018	34.5504
886.911	22.3199
889.803	5.31238
892.696	17.8559
895.589	8.19611
898.482	37.4828
901.374	4.21753
904.267	5.20294
907.16	13.7734
910.052	6.58466
912.945	24.1935
915.838	4.90466
918.731	9.62988
921.623	3.33008
924.516	11.9364
927.409	24.6638
930.301	3.5708
933.194	12.0086
936.087	16.4825
938.979	27.9999
941.872	1.71143
944.765	28.9008
947.658	49.0466
950.55	73.2421
953.443	72.1566
956.336	79.7284
959.228	89.5767
962.121	125.216
965.014	175.037
967.906	222.619
970.799	321.205
973.692	435.137
976.585	682.302
979.477	1283.27
982.37	2527.65
985.263	4530.58
988.155	7810.5
991.048	9066.81
993.941	5307.55
996.833	2294.68
999.726	1004.06
1002.62	498.657
1005.51	335.81
1008.4	208.57
1011.3	134.221
1014.19	90.2466
1017.08	81.3554
1019.98	57.8991
1022.87	39.9161
1025.76	32.2608
1028.65	11.0994
1031.55	32.2727
1034.44	6.17554
1037.33	8.16986
1040.22	3.72998
1043.12	2.00842
1046.01	5.85913
1048.9	24.6852
1051.8	49.5075
1054.69	82.2698
1057.58	136.12
1060.47	134.834
1063.37	202.533
1066.26	245.168
1069.15	253.134
1072.04	255.753
1074.94	223.46
1077.83	227.226
1080.72	207.964
1083.61	162.111
1086.51	151.457
1089.4	155.201
1092.29	147.285
1095.18	152.772
1098.08	150.018
1100.97	116.849
1103.86	114.195
1106.76	89.8848
1109.65	45.011
1112.54	49.0747
1115.43	15.9763
1118.33	3.10632
1121.22	29.769
1124.11	9.38177
1127.01	6.40955
1129.9	29.4039
1132.79	64.8488
1135.68	101.435
1138.58	178.092
1141.47	213.41
1144.36	277.211
1147.25	277.838
1150.15	242.408
1153.04	164.166
1155.93	106.172
1158.83	54.9776
1161.72	24.1754
1164.61	23.981
1167.5	32.6733
1170.39	54.9992
1173.29	23.99
1176.18	49.1343
1179.07	21.734
1181.97	14.0023
1184.86	23.1741
1187.75	16.3956
1190.64	27.3097
1193.54	17.0214
1196.43	30.5368
1199.32	33.1691
1202.21	13.6123
1205.11	56.9603
1208	48.0256
1210.89	25.9349
1213.79	23.5245
1216.68	38.9339
1219.57	59.1104
1222.46	33.3614
1225.36	36.3051
1228.25	5.20868
