Measurement: Raman, 780 nm, unoriented, Raman Data Processed
Mineral: Rruffite
Rruff sample: R141211
Ideal chemistry: Ca_2_Cu^2+^(As^5+^O_4_)_2_2H_2_O
Locality: Jote mine, Pampa Larga District, Tierra Amarilla, Copiapo Province, Chile
Source: Bob Jenkins
Description: Pale-blue to white euhedral crystals, associated with light-pinkish mansfieldite, green conichalcite, and blue lavedulan
Measured chemistry: Ca_1.98_(Cu_0.97_Zn_0.03_)_Ʃ=1.00_(As_1.06_O_4_)_2_·2H_2_O    trace Mn, Mg
Raman shift (cm-1)	intensity
151.825	0
154.717	3.10397
157.61	13.1563
160.503	27.7227
163.395	42.6586
166.288	52.778
169.181	59.6175
172.073	58.7842
174.966	44.8421
177.859	22.8794
180.751	9.19109
183.644	2.32218
186.537	0.936768
189.43	1.32509
192.322	4.20287
195.215	5.8521
198.108	7.73972
201	11.1077
203.893	12.3
206.786	9.96576
209.678	5.00735
212.571	1.06947
215.464	0.116554
218.357	1.415
221.249	2.89931
224.142	1.63117
227.035	1.7102
229.927	0.373863
232.82	0.121887
235.713	3.32694
238.605	5.62201
241.498	6.3046
244.391	7.26226
247.284	6.77482
250.176	5.94399
253.069	4.98545
255.962	3.59805
258.854	5.14869
261.747	8.51169
264.64	11.8851
267.532	19.1266
270.425	28.6268
273.318	40.2106
276.211	56.6192
279.103	76.2201
281.996	99.2649
284.889	120.411
287.781	133.458
290.674	132.543
293.567	116.217
296.459	94.3267
299.352	70.5578
302.245	51.6244
305.137	39.1516
308.03	32.934
310.923	30.2462
313.816	32.4914
316.708	40.5442
319.601	52.8707
322.494	70.7863
325.386	94.4319
328.279	121.053
331.172	139.917
334.065	144.022
336.957	130.457
339.85	105.987
342.743	83.316
345.635	64.6532
348.528	49.4296
351.421	36.8848
354.313	26.7407
357.206	19.8097
360.099	15.0112
362.991	11.1241
365.884	7.58535
368.777	6.05438
371.67	4.98928
374.562	3.39597
377.455	2.95982
380.348	2.25135
383.24	0.023064
386.133	0.315819
389.026	1.14417
391.918	0.596222
394.811	1.24216
397.704	0.632721
400.596	1.13869
403.489	0.10331
406.382	0.282822
409.275	0.85434
412.167	2.62935
415.06	2.59038
417.953	4.4922
420.845	4.9172
423.738	5.75185
426.631	6.6042
429.524	8.26606
432.416	10.8976
435.309	13.2364
438.202	18.0091
441.094	25.9065
443.987	33.8513
446.88	44.1887
449.772	46.81
452.665	43.5346
455.558	37.1926
458.45	31.7563
461.343	29.1412
464.236	29.8298
467.129	31.0362
470.021	32.935
472.914	35.9845
475.807	37.826
478.699	39.0748
481.592	37.7563
484.485	34.8536
487.377	30.3004
490.27	24.8555
493.163	20.3672
496.055	15.6015
498.948	11.5198
501.841	7.8614
504.734	5.3058
507.626	5.00103
510.519	3.25355
513.412	2.28215
516.304	0.97982
519.197	0.675316
522.09	0.071114
524.982	0.18676
527.875	0.005791
530.768	0.023106
533.661	0.630199
536.553	0.019169
539.446	0.338734
542.339	0.10284
545.231	0.725552
548.124	0.465206
551.017	0.968262
553.909	0.533569
556.802	1.25868
559.695	1.40401
562.588	1.13662
565.48	0.492886
568.373	0.988438
571.266	0.685806
574.158	0.558567
577.051	1.23263
579.944	1.08667
582.837	1.02286
585.729	0.380302
588.622	0.708912
591.515	0.793388
594.407	1.16709
597.3	1.20645
600.193	1.09562
603.085	0.961094
605.978	1.39453
608.871	1.99366
611.764	2.77706
614.656	3.39624
617.549	3.85751
620.442	2.10693
623.334	2.00529
626.227	1.11112
629.12	0.203701
632.012	0.002628
634.905	1.07978
637.798	0.786438
640.69	0.758995
643.583	0.459522
646.476	0.703236
649.369	0.436497
652.261	0.140434
655.154	0.045776
658.047	0.789993
660.939	0.606152
663.832	0.982498
666.725	0.585262
669.617	1.11013
672.51	1.78389
675.403	2.70132
678.295	2.58587
681.188	2.23333
684.081	3.34538
686.974	4.38806
689.866	4.08522
692.759	5.21551
695.652	6.01176
698.544	6.01149
701.437	8.09535
704.33	7.89453
707.222	8.65404
710.115	8.68961
713.008	9.30024
715.901	8.29022
718.793	8.10268
721.686	7.88714
724.579	6.96954
727.471	5.91293
730.364	4.55209
733.257	4.18572
736.149	2.94461
739.042	2.94109
741.935	1.37122
744.828	1.50873
747.72	0.453091
750.613	0.058033
753.506	0.088131
756.398	0.812817
759.291	1.14826
762.184	1.28608
765.077	0.373425
767.969	0.094841
770.862	0.727207
773.755	1.66813
776.647	2.49681
779.54	3.88216
782.433	5.37857
785.325	7.6652
788.218	9.28955
791.111	11.5589
794.003	13.2119
796.896	13.6961
799.789	14.9028
802.682	17.8978
805.574	20.6376
808.467	26.7949
811.36	35.0366
814.252	47.1802
817.145	70.9812
820.038	100.378
822.93	138.888
825.823	177.168
828.716	219.229
831.609	268.745
834.501	323.652
837.394	344.909
840.287	303.075
843.179	227.155
846.072	164.808
848.965	122.931
851.857	98.9583
854.75	80.4805
857.643	70.5098
860.535	59.9557
863.428	51.6257
866.321	44.2913
869.214	35.779
872.106	29.5406
874.999	23.1141
877.892	18.9653
880.784	14.2953
883.677	11.7673
886.57	9.48026
889.462	6.312
892.355	4.43104
895.248	3.14531
898.141	2.47666
901.033	1.00727
903.926	1.06293
906.819	0.192345
909.711	0.245777
912.604	0.141125
915.497	0.174557
918.389	0.145065
921.282	0.767601
924.175	0.579628
927.068	0.221401
929.96	0.286255
932.853	0.685516
935.746	1.04276
938.638	0.527885
941.531	1.176
944.424	0.393795
947.317	0.012699
950.209	0.425411
953.102	1.10084
955.995	0.795467
958.887	0.717148
961.78	1.22481
964.673	1.05512
967.565	1.87399
970.458	1.41251
973.351	2.09062
976.243	2.21144
979.136	1.87616
982.029	2.01751
984.922	2.62338
987.814	1.73754
990.707	1.93197
993.6	1.07555
996.492	1.56457
999.385	1.38754
1002.28	2.47614
1005.17	1.52491
1008.06	1.56899
1010.96	1.70786
1013.85	0.726921
1016.74	0.827755
1019.63	0.387444
1022.53	0.212666
1025.42	0.85006
1028.31	0.079659
1031.2	0.612976
1034.1	0.828339
1036.99	0.997562
1039.88	0.521358
1042.78	0.672592
1045.67	0.532722
1048.56	1.30542
1051.45	0.09409
1054.35	1.26512
1057.24	0.422581
1060.13	0.851559
1063.02	0.404102
1065.92	0.850204
1068.81	0.538361
1071.7	1.06496
1074.6	0.633884
1077.49	0.812923
1080.38	1.11292
1083.27	0.983322
1086.17	0.293953
1089.06	0.996567
1091.95	0.708469
1094.84	0.581936
1097.74	0.472736
1100.63	1.38363
1103.52	1.07373
1106.41	1.04093
1109.31	0.515381
1112.2	0.755211
1115.09	0.011581
1117.99	0.138039
1120.88	0.397575
1123.77	0.457344
1126.66	1.10773
1129.56	0.806831
1132.45	0.396782
1135.34	0.043568
1138.23	0.194351
1141.13	0.818035
1144.02	0.465179
1146.91	0.225983
1149.81	1.22123
1152.7	0.291782
1155.59	0.300167
1158.48	0.967865
1161.38	1.22335
1164.27	0.628208
1167.16	0.975361
1170.05	1.16195
1172.95	1.27688
1175.84	1.33812
1178.73	1.26447
1181.62	0.50713
1184.52	1.2057
1187.41	0.58567
1190.3	0.616062
1193.2	0.693512
1196.09	0.508629
1198.98	0.330551
1201.87	0.60709
1204.77	0.188896
1207.66	0.14188
1210.55	0.595291
1213.44	0.387852
1216.34	0.405941
1219.23	0.242336
1222.12	0.230465
1225.02	1.30503
1227.91	1.62174
1230.8	0.574825
1233.69	1.16914
1236.59	1.96706
1239.48	2.54074
1242.37	0.946419
1245.26	1.50124
1248.16	0.887142
1251.05	0.91663
1253.94	1.21266
1256.84	1.2909
1259.73	0.120655
1262.62	1.6792
1265.51	1.21142
1268.41	1.20498
1271.3	1.13614
1274.19	1.03063
1277.08	0.201244
1279.98	0.542213
1282.87	0.510296
