Measurement: Raman, 532 nm, unoriented, Raman Data Processed
Mineral: Rruffite
Rruff sample: R070431
Ideal chemistry: Ca_2_Cu^2+^(As^5+^O_4_)_2_2H_2_O
Locality: Maria Catalina mine, Pampa Larga Mining District, Tierra Amarilla, Copiapo Province, Chile
Source: Bob Jenkins
Description: Pale blue blocky crystals associated with green conichalcite, R070430, and pale blue granular barahonite-(Al). This is the type sample.
Measured chemistry: Ca_2.00_Cu_1.00_(As_1.00_O_4_)_2_ Î‡ 2H_2_O ; trace amounts of Fe, S, Al, Mg; H2O estimated by difference
Raman shift (cm-1)	intensity
143.586	0
146.961	0.887257
150.336	20.4789
153.71	50.9911
157.085	101.874
160.46	153.274
163.835	210.114
167.21	244.324
170.584	216.058
173.959	203.002
177.334	161.506
180.709	78.8721
184.084	46.5587
187.459	25.6035
190.833	14.3014
194.208	7.80477
197.583	11.1247
200.958	17.2231
204.333	29.9089
207.708	44.2445
211.082	43.6125
214.457	25.131
217.832	9.22839
221.207	3.10091
224.582	6.81755
227.956	6.77251
231.331	8.71382
234.706	14.9177
238.081	28.7856
241.456	47.0712
244.831	89.8986
248.205	104.765
251.58	79.0206
254.955	33.0725
258.33	10.3995
261.705	0.783051
265.079	6.64281
268.454	5.23126
271.829	2.00206
275.204	8.96774
278.579	26.4291
281.954	52.1103
285.328	96.2246
288.703	155.386
292.078	227.869
295.453	224.263
298.828	176.392
302.202	125.991
305.577	74.4532
308.952	41.7374
312.327	28.1178
315.702	38.6033
319.077	57.6951
322.451	94.8356
325.826	153.42
329.201	254.13
332.576	372.333
335.951	412.656
339.325	339.167
342.7	281.095
346.075	200.34
349.45	115.975
352.825	60.19
356.2	33.0271
359.574	18.0025
362.949	8.01332
366.324	4.12174
369.699	0.669388
373.074	1.00622
376.449	5.24323
379.823	12.6014
383.198	15.0063
386.573	9.50153
389.948	0.845955
393.323	3.13104
396.697	3.66802
400.072	1.59506
403.447	5.08768
406.822	6.81599
410.197	13.8456
413.572	23.2998
416.946	38.1244
420.321	54.0142
423.696	65.3618
427.071	68.8112
430.446	53.5365
433.82	44.9904
437.195	42.0871
440.57	49.7818
443.945	72.4474
447.32	102.643
450.695	114.502
454.069	84.1054
457.444	52.8766
460.819	40.6487
464.194	37.2663
467.569	43.6085
470.943	55.5344
474.318	70.6616
477.693	83.1118
481.068	95.7804
484.443	99.6416
487.818	96.6964
491.192	79.9418
494.567	54.3376
497.942	34.622
501.317	22.5154
504.692	13.129
508.067	7.51075
511.441	4.22291
514.816	2.30897
518.191	0.56105
521.566	0.053696
524.941	0.312996
528.316	0.62162
531.69	0.783119
535.065	0.03949
538.44	1.19954
541.815	1.66632
545.19	0.235321
548.564	0.931259
551.939	2.0116
555.314	1.14129
558.689	1.5156
562.064	4.42236
565.438	3.38248
568.813	3.56941
572.188	4.88123
575.563	2.73766
578.938	3.6067
582.313	3.69087
585.687	3.52653
589.062	2.02571
592.437	3.54492
595.812	3.25327
599.187	2.85854
602.562	3.27839
605.936	2.12899
609.311	1.63233
612.686	3.3222
616.061	1.0315
619.436	2.75805
622.81	0.772552
626.185	0.218376
629.56	0.958107
632.935	0.155792
636.31	1.36154
639.684	3.50246
643.059	0.329971
646.434	2.66061
649.809	0.877533
653.184	0.28907
656.559	2.76956
659.933	3.57114
663.308	2.13224
666.683	1.41119
670.058	2.5456
673.433	2.42384
676.808	1.56644
680.182	2.83945
683.557	4.80554
686.932	5.05802
690.307	6.63792
693.682	9.29871
697.057	14.5748
700.431	20.6306
703.806	27.1809
707.181	31.9255
710.556	40.7653
713.931	41.5376
717.305	41.2501
720.68	34.8088
724.055	28.56
727.43	23.8551
730.805	20.9586
734.179	15.452
737.554	11.8537
740.929	6.83305
744.304	4.31172
747.679	0.688553
751.054	0.723526
754.428	0.200668
757.803	1.43095
761.178	1.43864
764.553	2.22943
767.928	1.67796
771.303	0.771881
774.677	3.60707
778.052	8.09207
781.427	16.8803
784.802	30.1896
788.177	50.5634
791.552	78.0058
794.926	111.143
798.301	146.325
801.676	163.121
805.051	144.173
808.426	121.461
811.8	106.875
815.175	117.516
818.55	160.307
821.925	250.234
825.3	411.173
828.674	628.73
832.049	872.009
835.424	1270.82
838.799	1657.07
842.174	1390.71
845.549	815.278
848.923	475.525
852.298	314.101
855.673	228.713
859.048	180.538
862.423	144.841
865.798	123.204
869.172	93.9461
872.547	72.8118
875.922	57.6334
879.297	46.5006
882.672	39.1952
886.046	25.8196
889.421	12.246
892.796	6.87427
896.171	3.58623
899.546	1.51195
902.92	1.97537
906.295	0.642975
909.67	1.86693
913.045	1.89397
916.42	2.78429
919.795	1.24571
923.169	1.75394
926.544	0.037079
929.919	0.966858
933.294	4.11388
936.669	5.55322
940.044	13.4129
943.418	8.89206
946.793	3.25355
950.168	4.18487
953.543	0.656555
956.918	2.53349
960.293	4.0807
963.667	3.80188
967.042	6.41563
970.417	6.33214
973.792	9.0775
977.167	9.51662
980.541	7.28764
983.916	6.95915
987.291	8.79849
990.666	9.48561
994.041	8.94566
997.415	8.77121
1000.79	7.81134
1004.16	8.42659
1007.54	3.56262
1010.91	5.00851
1014.29	2.24956
1017.66	2.36122
1021.04	1.80052
1024.41	1.57574
1027.79	1.52937
1031.16	2.3743
1034.54	0.221268
1037.91	1.8626
1041.29	2.53284
1044.66	0.937012
1048.04	2.69186
1051.41	0.534988
1054.79	0.546371
1058.16	3.0974
1061.54	0.909637
1064.91	0.817047
1068.29	1.14757
1071.66	3.08931
1075.04	2.35843
1078.41	0.894638
1081.79	1.9653
1085.16	2.52072
1088.54	0.426056
1091.91	0.613266
1095.29	0.36734
1098.66	1.20706
1102.04	2.50665
1105.41	3.65996
1108.79	3.25067
1112.16	1.14629
1115.53	0.171341
1118.91	0.197037
1122.28	1.98822
1125.66	1.46468
1129.03	3.21335
1132.41	2.54353
1135.78	0.858261
1139.16	0.187958
1142.53	0.933884
1145.91	3.54233
1149.28	1.87457
1152.66	2.26987
1156.03	1.91621
1159.41	2.04552
1162.78	5.62511
1166.16	0.526352
1169.53	2.29474
1172.91	3.74225
1176.28	2.0135
1179.66	0.754974
1183.03	1.52988
1186.4	1.54826
1189.78	2.37157
1193.15	3.69914
1196.53	2.36142
1199.9	2.86005
1203.28	1.36708
1206.65	1.47438
1210.03	1.8355
1213.4	2.49814
1216.78	2.44084
1220.15	1.43983
1223.53	0.82019
1226.9	2.12904
1230.28	1.54767
1233.65	1.72641
1237.03	0.185623
1240.4	2.39481
1243.78	3.86655
1247.15	3.73567
1250.53	4.08809
1253.9	2.79079
1257.28	2.77821
1260.65	1.63294
1264.03	2.78294
1267.4	3.13696
1270.78	2.56056
1274.15	2.84665
1277.53	1.07773
1280.9	4.2585
1284.28	2.2086
1287.65	1.01997
1291.03	4.23752
1294.4	4.61737
1297.78	1.50096
1301.15	0.018219
