Measurement: Raman, 780 nm, unoriented, Raman Data Processed
Mineral: Rruffite
Rruff sample: R070431
Ideal chemistry: Ca_2_Cu^2+^(As^5+^O_4_)_2_2H_2_O
Locality: Maria Catalina mine, Pampa Larga Mining District, Tierra Amarilla, Copiapo Province, Chile
Source: Bob Jenkins
Description: Pale blue blocky crystals associated with green conichalcite, R070430, and pale blue granular barahonite-(Al). This is the type sample.
Measured chemistry: Ca_2.00_Cu_1.00_(As_1.00_O_4_)_2_ Î‡ 2H_2_O ; trace amounts of Fe, S, Al, Mg; H2O estimated by difference
Raman shift (cm-1)	intensity
114.229	0
117.604	4.71759
120.979	13.6644
124.354	8.79266
127.728	3.7721
131.103	1.67999
134.478	4.96069
137.853	8.43247
141.228	14.3726
144.602	18.3654
147.977	47.5242
151.352	64.5809
154.727	85.3968
158.102	119.242
161.477	159.959
164.851	182.205
168.226	175.794
171.601	169.757
174.976	153.109
178.351	95.0771
181.726	51.8104
185.1	30.4849
188.475	20.0625
191.85	6.59232
195.225	7.33307
198.6	17.9697
201.974	34.1227
205.349	49.309
208.724	40.0006
212.099	28.1857
215.474	18.9033
218.848	1.51785
222.223	1.92941
225.598	1.94266
228.973	0.189117
232.348	5.11127
235.722	12.2328
239.097	19.0022
242.472	30.1098
245.847	54.4049
249.222	43.3113
252.597	21.1346
255.971	5.80924
259.346	1.68103
262.721	0.015411
266.096	3.93796
269.471	0.201263
272.846	7.05161
276.22	14.8446
279.595	40.8386
282.97	75.6976
286.345	130.937
289.719	181.185
293.094	226.414
296.469	215.588
299.844	174.717
303.219	103.593
306.594	60.6405
309.968	33.5006
313.343	32.5325
316.718	40.3402
320.093	59.0772
323.468	90.7439
326.842	150.413
330.217	223.717
333.592	292.375
336.967	307.755
340.342	292.172
343.717	249.543
347.091	168.546
350.466	103.014
353.841	64.6255
357.216	48.4458
360.591	38.4096
363.965	21.0575
367.34	16.0984
370.715	10.5812
374.09	2.16501
377.465	4.53296
380.839	4.22754
384.214	0.831635
387.589	1.91373
390.964	2.85938
394.339	3.38019
397.714	0.825653
401.088	1.35812
404.463	4.5582
407.838	3.34808
411.213	8.04947
414.588	15.2368
417.962	12.4881
421.337	26.221
424.712	23.2534
428.087	23.0025
431.462	18.2556
434.837	15.1845
438.211	20.5289
441.586	32.9953
444.961	45.0057
448.336	56.303
451.711	55.7433
455.085	38.8481
458.46	31.9014
461.835	34.1245
465.21	40.2747
468.585	52.1778
471.959	65.2383
475.334	73.2279
478.709	88.8131
482.084	98.6497
485.459	100.819
488.834	87.6759
492.208	60.2299
495.583	47.2143
498.958	29.5071
502.333	19.8543
505.708	12.0111
509.082	6.85992
512.457	3.96374
515.832	5.33347
519.207	4.94623
522.582	3.71539
525.957	1.18137
529.331	1.68945
532.706	2.98077
536.081	2.13815
539.456	1.5903
542.831	3.13647
546.205	0.959045
549.58	0.139893
552.955	0.941589
556.33	2.64752
559.705	7.47321
563.08	7.52365
566.454	6.74573
569.829	8.83038
573.204	0.82016
576.579	6.69339
579.954	6.77612
583.328	8.94714
586.703	1.40903
590.078	6.65552
593.453	6.70837
596.828	7.17819
600.202	6.20828
603.577	7.62747
606.952	3.61627
610.327	10.3033
613.702	0.999939
617.077	8.23181
620.451	4.426
623.826	6.09967
627.201	6.26669
630.576	4.77759
633.951	7.66946
637.325	7.1236
640.7	0.913757
644.075	3.40124
647.45	0.296326
650.825	0.834747
654.199	6.03805
657.574	6.17569
660.949	4.55908
664.324	4.06928
667.699	1.38052
671.073	1.67523
674.448	2.97501
677.823	0.900604
681.198	6.47436
684.573	3.85797
687.948	5.66217
691.322	6.97855
694.697	11.1564
698.072	10.0753
701.447	17.4702
704.822	21.647
708.197	29.5111
711.571	32.7418
714.946	30.1747
718.321	29.4452
721.696	32.6438
725.071	28.9076
728.445	26.8654
731.82	24.3927
735.195	19.7579
738.57	15.5331
741.945	10.991
745.319	6.4736
748.694	4.92828
752.069	0.984161
755.444	3.06131
758.819	0.060669
762.193	1.56085
765.568	0.5271
768.943	2.16635
772.318	4.20859
775.693	1.84604
779.068	12.4175
782.442	15.4928
785.817	21.4015
789.192	32.7688
792.567	56.0024
795.942	77.0345
799.317	85.8968
802.691	83.5355
806.066	77.7039
809.441	74.5326
812.816	89.8244
816.191	128.694
819.565	204.048
822.94	341.233
826.315	531.395
829.69	738.148
833.065	1024.49
836.439	1378.93
839.814	1349.11
843.189	886.134
846.564	517.434
849.939	327.133
853.313	239.554
856.688	180.74
860.063	150.657
863.438	124.034
866.813	100.222
870.188	74.3324
873.562	55.4931
876.937	41.0672
880.312	32.5707
883.687	21.4284
887.062	14.7582
890.437	13.2895
893.811	6.54356
897.186	6.97577
900.561	2.3593
903.936	1.48074
907.311	4.14537
910.685	0.28804
914.06	1.15164
917.435	0.22641
920.81	3.06487
924.185	2.24321
927.559	3.21234
930.934	5.65526
934.309	5.67833
937.684	6.84911
941.059	10.5606
944.433	8.20291
947.808	5.27904
951.183	3.19766
954.558	2.38727
957.933	5.43283
961.308	4.34389
964.682	4.74332
968.057	8.39362
971.432	8.02217
974.807	5.11897
978.182	4.89328
981.557	9.54459
984.931	9.52593
988.306	10.1142
991.681	4.24339
995.056	9.87689
998.431	10.1326
1001.8	4.54376
1005.18	4.06073
1008.55	7.67191
1011.93	1.11429
1015.3	3.87291
1018.68	1.01126
1022.05	5.21002
1025.43	6.63886
1028.8	1.85085
1032.18	4.64004
1035.55	6.36641
1038.93	7.50693
1042.3	5.13422
1045.68	2.67926
1049.05	3.48921
1052.43	4.83679
1055.8	0.822708
1059.18	2.02129
1062.55	5.51468
1065.93	7.52354
1069.3	5.92735
1072.68	4.34502
1076.05	1.82324
1079.43	6.8232
1082.8	6.15758
1086.18	4.30511
1089.55	4.0392
1092.92	5.85785
1096.3	5.01537
1099.67	1.37756
1103.05	0.386246
1106.42	1.91327
1109.8	1.58186
1113.17	2.2231
1116.55	6.26906
1119.92	7.10678
1123.3	0.777206
1126.67	3.50035
1130.05	3.91467
1133.42	3.6138
1136.8	4.32803
1140.17	10.799
1143.55	2.39876
1146.92	5.93265
1150.3	2.6133
1153.67	4.33951
1157.05	6.31398
1160.42	5.28351
1163.8	2.29735
1167.17	4.08943
1170.55	4.50176
1173.92	5.12778
1177.3	2.74516
1180.67	2.16803
1184.05	3.97079
1187.42	1.00664
1190.8	6.64577
1194.17	4.17671
1197.55	5.39737
1200.92	1.6262
1204.29	0.139709
1207.67	1.98189
1211.04	1.08096
1214.42	1.07797
1217.79	2.42032
1221.17	1.35045
1224.54	3.6189
1227.92	2.13008
1231.29	1.3951
1234.67	6.13138
1238.04	2.34981
1241.42	2.57977
1244.79	3.19138
1248.17	6.85167
1251.54	1.81404
1254.92	2.63861
1258.29	5.97383
1261.67	3.40811
1265.04	4.83142
1268.42	4.50915
1271.79	0.791565
1275.16	6.22316
1278.54	2.46179
1281.91	3.96982
