Measurement: Raman, 532 nm, unoriented, Raman Data Processed
Mineral: Rruffite
Rruff sample: R141211
Ideal chemistry: Ca_2_Cu^2+^(As^5+^O_4_)_2_2H_2_O
Locality: Jote mine, Pampa Larga District, Tierra Amarilla, Copiapo Province, Chile
Source: Bob Jenkins
Description: Pale-blue to white euhedral crystals, associated with light-pinkish mansfieldite, green conichalcite, and blue lavedulan
Measured chemistry: Ca_1.98_(Cu_0.97_Zn_0.03_)_Ʃ=1.00_(As_1.06_O_4_)_2_·2H_2_O    trace Mn, Mg
Raman shift (cm-1)	intensity
103.765	0
107.139	9.10129
110.514	0.39267
113.889	3.13403
117.264	14.3264
120.639	34.0227
124.013	40.0262
127.388	2.55194
130.763	1.12112
134.138	1.54376
137.513	5.4044
140.888	16.8773
144.262	27.176
147.637	46.7196
151.012	67.5641
154.387	91.6446
157.762	132.793
161.137	191.645
164.511	258.502
167.886	291.463
171.261	288.44
174.636	270.575
178.011	193.842
181.385	109.916
184.76	71.0983
188.135	52.3171
191.51	41.6024
194.885	40.8152
198.26	47.8019
201.634	63.5256
205.009	86.1163
208.384	87.1993
211.759	66.5042
215.133	39.7174
218.508	20.0373
221.883	10.2607
225.258	3.90329
228.633	1.17273
232.008	0.634033
235.382	7.90393
238.757	15.4812
242.132	28.9381
245.507	43.3143
248.882	42.956
252.256	22.168
255.631	3.19107
259.006	7.58676
262.381	7.66391
265.756	3.03052
269.131	7.93729
272.505	30.7901
275.88	67.0819
279.255	117.001
282.63	192.957
286.005	295.724
289.38	414.184
292.754	476.378
296.129	460.993
299.504	421.446
302.879	319.445
306.254	198.65
309.628	124.318
313.003	93.4146
316.378	98.8721
319.753	132.38
323.128	198.167
326.502	302.349
329.877	452.707
333.252	595.266
336.627	589.968
340.002	471.027
343.377	372.222
346.751	282.141
350.126	195.587
353.501	128.058
356.876	83.5973
360.251	56.399
363.625	34.925
367	21.1414
370.375	15.435
373.75	19.4648
377.125	27.2465
380.5	30.1203
383.874	20.0137
387.249	7.10614
390.624	2.91367
393.999	8.0556
397.374	7.32352
400.748	1.85516
404.123	4.91894
407.498	10.2799
410.873	15.3836
414.248	26.3791
417.623	37.3856
420.997	43.5487
424.372	47.2914
427.747	45.2616
431.122	42.4153
434.497	49.4283
437.872	69.203
441.246	109.2
444.621	171.594
447.996	257.622
451.371	299.784
454.745	234.346
458.12	148.075
461.495	109.046
464.87	103.263
468.245	115.35
471.62	139.85
474.994	167.16
478.369	198.287
481.744	219.43
485.119	220.224
488.494	195.788
491.868	147.134
495.243	100.125
498.618	62.3012
501.993	39.8767
505.368	26.402
508.743	15.3573
512.117	9.86926
515.492	3.09082
518.867	3.7132
522.242	0.233887
525.617	0.679138
528.991	2.63239
532.366	1.71704
535.741	0.89624
539.116	1.73212
542.491	1.40179
545.866	1.00159
549.24	2.06998
552.615	2.44043
555.99	1.78235
559.365	4.39182
562.74	3.92065
566.115	4.20895
569.489	4.16431
572.864	6.47684
576.239	7.05905
579.614	4.54764
582.989	7.12225
586.363	6.09225
589.738	4.2775
593.113	4.67715
596.488	7.18332
599.863	2.48495
603.237	1.35391
606.612	3.40915
609.987	4.58417
613.362	3.68707
616.737	0.777985
620.112	1.53043
623.486	0.350922
626.861	1.36038
630.236	0.07663
633.611	0.150635
636.986	0.530853
640.361	1.47559
643.735	0.308929
647.11	0.981354
650.485	1.58878
653.86	2.99338
657.235	2.03787
660.609	2.14444
663.984	3.22452
667.359	4.1365
670.734	4.49875
674.109	5.66199
677.484	6.61887
680.858	10.0526
684.233	12.6599
687.608	19.7158
690.983	30.301
694.357	34.573
697.732	47.5438
701.107	61.5922
704.482	77.3122
707.857	94.1043
711.232	101.731
714.606	104.42
717.981	102.634
721.356	92.9042
724.731	76.9244
728.106	64.1926
731.481	49.5302
734.855	38.6541
738.23	29.4515
741.605	19.953
744.98	13.7817
748.355	6.98886
751.729	4.23257
755.104	3.38318
758.479	4.07785
761.854	6.67011
765.229	5.3736
768.604	4.84204
771.978	0.514954
775.353	8.71066
778.728	22.6786
782.103	42.0128
785.478	66.0285
788.852	85.5845
792.227	103.387
795.602	115.382
798.977	128.387
802.352	133.129
805.726	138.358
809.101	156.202
812.476	205.16
815.851	313.517
819.226	508.442
822.601	805.745
825.975	1185.31
829.35	1529.01
832.725	1887.68
836.1	2384.39
839.475	2665.83
842.85	2110.22
846.224	1301.22
849.599	826.761
852.974	604.429
856.349	502.695
859.724	450.456
863.098	406.818
866.473	353.859
869.848	289.134
873.223	220.172
876.598	164.299
879.972	119.453
883.347	91.1057
886.722	59.0657
890.097	37.1116
893.472	24.5178
896.847	13.9268
900.221	8.32474
903.596	2.45831
906.971	1.2937
910.346	1.97842
913.721	2.2594
917.096	2.22815
920.47	1.1459
923.845	6.57358
927.22	3.30768
930.595	1.93655
933.97	3.21643
937.344	3.05179
940.719	7.04837
944.094	6.28183
947.469	2.82288
950.844	3.10178
954.218	3.28622
957.593	4.39517
960.968	8.08356
964.343	8.52472
967.718	13.0761
971.092	15.8469
974.467	17.8612
977.842	21.9886
981.217	22.3653
984.592	23.929
987.967	22.1817
991.341	25.423
994.716	20.5535
998.091	20.0411
1001.47	18.9334
1004.84	18.3983
1008.22	13.2537
1011.59	10.5125
1014.97	7.90015
1018.34	8.10648
1021.72	6.33475
1025.09	5.34998
1028.46	3.44809
1031.84	4.164
1035.21	4.20923
1038.59	3.17468
1041.96	2.68655
1045.34	4.06952
1048.71	3.84509
1052.09	2.48651
1055.46	2.68301
1058.84	1.18802
1062.21	0.338989
1065.59	0.021759
1068.96	1.8288
1072.34	1.72305
1075.71	1.3103
1079.09	1.61627
1082.46	1.52045
1085.84	1.33017
1089.21	2.89667
1092.59	2.2757
1095.96	0.47168
1099.34	1.14712
1102.71	0.756775
1106.09	1.97516
1109.46	1.26718
1112.84	2.92554
1116.21	1.09985
1119.58	1.1189
1122.96	3.12915
1126.33	0.399109
1129.71	1.27194
1133.08	0.143311
1136.46	0.53125
1139.83	1.23141
1143.21	0.965729
1146.58	0.161713
1149.96	0.894562
1153.33	0.557495
1156.71	3.41644
1160.08	2.01514
1163.46	1.79089
1166.83	1.26556
1170.21	4.88675
1173.58	4.85522
1176.96	3.74933
1180.33	3.81049
1183.71	4.75409
1187.08	5.30212
1190.46	1.26395
1193.83	1.6055
1197.2	2.80829
1200.58	1.51913
1203.95	0.496399
1207.33	3.08331
1210.7	1.89194
1214.08	2.24506
1217.45	0.293884
1220.83	3.95734
1224.2	2.29001
1227.58	0.302826
1230.95	1.88
1234.33	0.689209
1237.7	1.74597
1241.08	0.954376
1244.45	1.23633
1247.83	2.46939
1251.2	3.65845
1254.58	2.1991
1257.95	1.0762
1261.33	3.58365
1264.7	1.7265
1268.08	0.573395
1271.45	0.799591
1274.83	0.448334
1278.2	0.398834
1281.58	1.73721
1284.95	1.61633
1288.33	1.87051
1291.7	1.57819
1295.08	0.342438
1298.45	0.282532
1301.83	0
