Measurement: Raman, 785 nm, unoriented, Raman Data Processed
Mineral: Rubicline
Rruff sample: R070044
Ideal chemistry: RbAlSi_3_O_8_
Locality: Vasin Myl'k Mount, Voron'l Tundry, Kola Peninsula, Russia
Source: Michael Scott
Description: Colorless fragment embedded in epoxy
Raman shift (cm-1)	intensity
154.094	0
156.987	99.4434
159.879	265.986
162.772	985.36
165.665	813.499
168.558	1326.72
171.45	1452.65
174.343	1218.96
177.236	1086.79
180.128	1268.66
183.021	1523.11
185.914	1702.76
188.806	1515.25
191.699	1159.63
194.592	1005.26
197.484	979.036
200.377	914.595
203.27	1161.9
206.163	1492.73
209.055	1698.99
211.948	1195.67
214.841	481.54
217.733	160.294
220.626	32.665
223.519	2.59375
226.411	57.2524
229.304	98.6187
232.197	53.3467
235.09	55.6148
237.982	264.316
240.875	482.986
243.768	794.795
246.66	1186.12
249.553	1963.83
252.446	2438.09
255.339	1443.02
258.231	770.45
261.124	637.786
264.017	840.837
266.909	1226.52
269.802	1572.84
272.695	1494.35
275.587	1376.33
278.48	1617.6
281.373	2166.11
284.265	3090.39
287.158	4605.7
290.051	6202.15
292.944	5224.29
295.836	2659
298.729	1172.57
301.622	667.143
304.514	415.199
307.407	371.963
310.3	314.362
313.192	269.883
316.085	305.902
318.978	407.444
321.871	632.855
324.763	1052.05
327.656	1712.88
330.549	1761.1
333.441	790.56
336.334	342.627
339.227	166.758
342.12	58.7427
345.012	49.4717
347.905	55.5952
350.798	96.5767
353.69	25.3784
356.583	21.5923
359.476	11.8706
362.368	12.0679
365.261	21.9233
368.154	33.7266
371.046	0.853027
373.939	22.5254
376.832	12.6079
379.725	2.78027
382.617	86.5981
385.51	76.5088
388.403	126.377
391.295	179.817
394.188	393.669
397.081	494.703
399.974	612.395
402.866	583.068
405.759	775.451
408.652	988.127
411.544	760.793
414.437	799.866
417.33	905.85
420.222	463.952
423.115	196.251
426.008	73.0215
428.901	23.915
431.793	3.63086
434.686	42.2383
437.579	39.2847
440.471	19.8311
443.364	15.6333
446.257	20.9614
449.149	39.5044
452.042	107.56
454.935	190.58
457.827	227.886
460.72	309.117
463.613	475.266
466.506	697.562
469.398	1174.67
472.291	1749.97
475.184	2785.07
478.076	3963.1
480.969	3637.53
483.862	2034.27
486.755	1207.39
489.647	1048.49
492.54	1317.22
495.433	2018.51
498.325	2974.71
501.218	4659.57
504.111	7314.87
507.003	9768.83
509.896	7775.65
512.789	3851.63
515.682	1909.2
518.574	1036.56
521.467	750.019
524.36	432.808
527.252	272.701
530.145	245.035
533.038	151.73
535.93	82.4712
538.823	82.7983
541.716	44.2407
544.609	40.3691
547.501	13.5185
550.394	12.3843
553.287	57.2256
556.179	18.9854
559.072	3.65674
561.965	44.7148
564.857	52.3306
567.75	41.9614
570.643	74.8208
573.535	86.9917
576.428	211.683
579.321	290.277
582.214	248.147
585.106	134.035
587.999	27.2417
590.892	17.9062
593.784	12.6836
596.677	1.67432
599.57	36.3481
602.462	51.1504
605.355	43.6235
608.248	24.5561
611.141	6.74902
614.033	69.061
616.926	102.317
619.819	122.816
622.711	106.622
625.604	166.675
628.497	216.009
631.389	379.571
634.282	398.935
637.175	324.405
640.068	325.795
642.96	380.758
645.853	414.155
648.746	373.08
651.638	194.131
654.531	110.41
657.424	28.2974
660.317	44.1099
663.209	15.9683
666.102	50.585
668.995	56.9238
671.887	29.5044
674.78	42.1655
677.673	12.2827
680.565	1.52441
683.458	66.7964
686.351	17.874
689.244	14.1533
692.136	51.9619
695.029	14.7085
697.922	23.5742
700.814	42.3735
703.707	43.6875
706.6	80.9067
709.492	97.1309
712.385	96.3809
715.278	37.811
718.17	70.8535
721.063	90.0059
723.956	88.3618
726.849	74.1909
729.741	82.647
732.634	24.7476
735.527	21.1577
738.419	49.3862
741.312	62.7647
744.205	30.5605
747.097	116.639
749.99	131.986
752.883	206.939
755.776	352.848
758.668	533.402
761.561	838.898
764.454	935.241
767.346	540.582
770.239	301.024
773.132	180.668
776.024	92.5923
778.917	1.94629
781.81	82.7393
784.703	12.4365
787.595	11.8926
790.488	19.2778
793.381	32.7329
796.273	21.8594
799.166	46.5742
802.059	37.5991
804.952	173.647
807.844	279.352
810.737	475.785
813.63	595.208
816.522	626.532
819.415	363.947
822.308	187.482
825.2	87.2437
828.093	57.9419
830.986	48.4678
833.879	38.2715
836.771	34.8535
839.664	21.6763
842.557	2.24756
845.449	8.07861
848.342	20.4189
851.235	10.665
854.127	7.23926
857.02	5.0835
859.913	41.4082
862.806	20.6626
865.698	34.9199
868.591	2.71289
871.484	95.02
874.376	48.6025
877.269	50.6895
880.162	66.6733
883.054	70.5867
885.947	68.1758
888.84	3.79565
891.732	39.1977
894.625	35.2156
897.518	42.5994
900.411	85.1724
903.303	34.9937
906.196	57.3728
909.089	37.0312
911.981	70.3577
914.874	42.9558
917.767	49.1973
920.659	22.6389
923.552	36.8777
926.445	8.80322
929.338	14.457
932.23	12.7468
935.123	22.6294
938.016	21.1257
940.908	82.6489
943.801	13.8599
946.694	46.3135
949.587	2.24072
952.479	47.2715
955.372	11.6035
958.265	47.8345
961.157	84.6582
964.05	130.631
966.943	178.323
969.835	234.789
972.728	412.421
975.621	615.383
978.514	667.464
981.406	483.714
984.299	240.82
987.192	141.487
990.084	50.8818
992.977	28.8091
995.87	90.9531
998.762	55.1592
1001.65	84.6221
1004.55	147.551
1007.44	186.31
1010.33	234.564
1013.23	233.381
1016.12	225.457
1019.01	180.93
1021.9	168.853
1024.8	126.574
1027.69	159.541
1030.58	238.31
1033.47	220.865
1036.37	186.386
1039.26	78.9399
1042.15	1.40088
1045.05	50.3472
1047.94	29.6611
1050.83	13.294
1053.72	33.9492
1056.62	62.3242
1059.51	28.8511
1062.4	26.4102
1065.29	22.0078
1068.19	25.2124
1071.08	49.603
1073.97	32.3184
1076.87	49.0049
1079.76	33.7544
1082.65	75.3516
1085.54	111.843
1088.44	144.115
1091.33	286.901
1094.22	401.098
1097.11	454.876
1100.01	491.375
1102.9	441.898
1105.79	338.232
1108.68	283.091
1111.58	250.948
1114.47	213.107
1117.36	187.067
1120.26	105.214
1123.15	117.793
1126.04	71.3818
1128.93	84.0444
1131.83	11.6523
1134.72	61.6025
1137.61	8.20312
1140.51	40.4331
1143.4	73.3032
1146.29	44.5483
1149.18	47.6191
1152.08	69.5308
1154.97	38.6235
1157.86	52.4111
1160.75	50.6582
1163.65	21.771
1166.54	61.8032
1169.43	29.7324
1172.32	19.7993
1175.22	35.0586
1178.11	37.0889
1181	40.271
1183.89	34.2612
1186.79	25.498
1189.68	19.6177
1192.57	48.0352
1195.47	31.6592
1198.36	81.3955
1201.25	12.8379
1204.14	1.07861
1207.04	4.57031
1209.93	29.8447
1212.82	39.6499
1215.71	40.6743
1218.61	1.86963
1221.5	13.3018
1224.39	28.1382
1227.29	39.4829
1230.18	34.4927
1233.07	29.5366
1235.96	2.16699
