Measurement: Raman, 532 nm, unoriented, Raman Data Processed
Mineral: Rubicline
Rruff sample: R070044
Ideal chemistry: RbAlSi_3_O_8_
Locality: Vasin Myl'k Mount, Voron'l Tundry, Kola Peninsula, Russia
Source: Michael Scott
Description: Colorless fragment embedded in epoxy
Raman shift (cm-1)	intensity
152.591	0
155.484	100.954
158.377	43.3169
161.269	118.377
164.162	340.11
167.055	502.196
169.947	998.003
172.84	912.858
175.733	712.757
178.625	832.352
181.518	1111.18
184.411	1345.08
187.304	1323.82
190.196	1100.72
193.089	752.305
195.982	642.608
198.874	659.531
201.767	820.958
204.66	1176.58
207.553	1680.4
210.445	1686.38
213.338	842.633
216.231	331.062
219.123	104.661
222.016	27.2627
224.909	35.1148
227.801	109.122
230.694	16.5459
233.587	11.8521
236.48	53.1157
239.372	132.847
242.265	286.752
245.158	562.492
248.05	966.491
250.943	1424.16
253.836	1209.81
256.728	503.886
259.621	331.246
262.514	437.395
265.407	653.904
268.299	931.784
271.192	987.302
274.085	729.113
276.977	709.315
279.87	891.165
282.763	1318.96
285.656	2150.77
288.548	3182.94
291.441	3764.91
294.334	2231.85
297.226	1028.64
300.119	525.526
303.012	303.407
305.904	236.507
308.797	208.35
311.69	115.642
314.582	45.3565
317.475	186.166
320.368	319.596
323.261	556.879
326.153	922.352
329.046	1299.48
331.939	800.597
334.831	285.685
337.724	138.356
340.617	112.407
343.51	22.2666
346.402	95.3232
349.295	45.5185
352.188	48.2588
355.08	41.2285
357.973	25.0107
360.866	16.1953
363.758	10.9043
366.651	3.83106
369.544	31.5557
372.437	93.5019
375.329	38.1768
378.222	1.34277
381.115	42.6006
384.007	57.1914
386.9	139.395
389.793	117.827
392.685	98.2207
395.578	294.917
398.471	383.184
401.363	431.595
404.256	470.562
407.149	677.221
410.042	641.915
412.934	548.964
415.827	786.99
418.72	535.511
421.612	172.273
424.505	39.2773
427.398	81.7744
430.291	21.8877
433.183	48.9258
436.076	22.1396
438.969	51.3613
441.861	26.2568
444.754	40.8682
447.647	92.7168
450.539	217.297
453.432	357.227
456.325	498.267
459.218	422.841
462.11	373.612
465.003	550.473
467.896	840.473
470.788	1464.5
473.681	2349.1
476.574	3427.72
479.466	4429.71
482.359	2839.56
485.252	1433.07
488.145	899.415
491.037	897.04
493.93	1230.52
496.823	1943.03
499.715	3275.11
502.608	4974.28
505.501	7495.56
508.394	8415.74
511.286	4719.08
514.179	2212.52
517.072	1228.11
519.964	677.059
522.857	436.571
525.75	341.913
528.642	194.27
531.535	131.082
534.428	48.5361
537.321	23.292
540.213	70.3897
543.106	67.1709
545.999	44.7803
548.891	68.9268
551.784	15.335
554.677	29.8506
557.569	15.0498
560.462	18.1709
563.355	9.44824
566.247	58.8877
569.14	88.793
572.033	164.265
574.926	183.345
577.818	250.305
580.711	232.838
583.604	145.478
586.496	58.708
589.389	8.0918
592.282	25.625
595.174	67.3555
598.067	21.0508
600.96	34.6631
603.853	17.6309
606.745	6.20703
609.638	7.33789
612.531	22.9453
615.423	14.9375
618.316	105.016
621.209	104.791
624.102	129.64
626.994	153.846
629.887	261.002
632.78	259.953
635.672	283.68
638.565	253.669
641.458	272.63
644.351	325.075
647.243	332.259
650.136	303.293
653.029	160.698
655.921	252.655
658.814	126.397
661.707	82.583
664.599	60.5547
667.492	113.228
670.385	40.0742
673.278	103.268
676.17	124.404
679.063	109.255
681.956	83.583
684.848	14.2559
687.741	4.78809
690.634	67.4463
693.526	48.6475
696.419	40.2842
699.312	41.8623
702.205	26.0293
705.097	100.285
707.99	56.6572
710.883	70.3643
713.775	135.978
716.668	122.352
719.561	29.002
722.453	45.7119
725.346	4.87891
728.239	70.8613
731.131	33.5684
734.024	46.3447
736.917	54.9727
739.81	99.6514
742.702	104.014
745.595	77.4746
748.488	154.565
751.38	246.845
754.273	413.571
757.166	610.902
760.058	965.008
762.951	1284.67
765.844	952.894
768.737	512.577
771.629	280.807
774.522	143.407
777.415	85.4648
780.307	31.9619
783.2	14.5342
786.093	28.6211
788.986	146.923
791.878	35.7227
794.771	10.2842
797.664	57.8066
800.556	74.0019
803.449	194.886
806.342	393.322
809.234	735.74
812.127	881.107
815.02	1207.77
817.913	892.403
820.805	353.754
823.698	204.641
826.591	188.143
829.483	105.588
832.376	47.0352
835.269	46.9922
838.161	70.9043
841.054	54.8203
843.947	36.5986
846.84	77.792
849.732	105.739
852.625	21.874
855.518	12.4961
858.41	100.102
861.303	45.5478
864.196	31.2109
867.088	30.8691
869.981	67.2383
872.874	33.9326
875.766	101.785
878.659	39.3281
881.552	69.4043
884.445	80.8106
887.337	49.6602
890.23	25.4658
893.123	86.9141
896.015	108.912
898.908	52.9307
901.801	96.6689
904.694	22.7861
907.586	68.9131
910.479	72.0322
913.372	130.936
916.264	14.3281
919.157	38.127
922.05	60.1455
924.942	68.9961
927.835	5.25977
930.728	46.4883
933.621	97.6221
936.513	95.1748
939.406	58.7432
942.299	8.78418
945.191	57.6748
948.084	60.3447
950.977	105.209
953.87	103.097
956.762	59.96
959.655	37.0918
962.548	116.714
965.44	272.018
968.333	369.601
971.226	526.665
974.118	696.578
977.011	902.911
979.904	863.777
982.797	515.351
985.689	303.17
988.582	130.745
991.475	141.295
994.367	51.1201
997.26	89.5293
1000.15	99.4053
1003.04	118.423
1005.94	119.924
1008.83	123.093
1011.72	206.631
1014.62	200.124
1017.51	195.621
1020.4	90.084
1023.29	74.0918
1026.19	83.0713
1029.08	144.298
1031.97	113.765
1034.87	109.035
1037.76	121.973
1040.65	1.22852
1043.54	53.8545
1046.44	125.218
1049.33	17.8721
1052.22	148.108
1055.11	88.4814
1058.01	83.0283
1060.9	22.1572
1063.79	6.79785
1066.68	36.8594
1069.58	85.9902
1072.47	34.1221
1075.36	129.609
1078.26	81.3887
1081.15	37.6426
1084.04	184.773
1086.93	120.227
1089.83	327.288
1092.72	285.723
1095.61	414.379
1098.51	588.324
1101.4	511.85
1104.29	387.535
1107.18	339.234
1110.08	181.505
1112.97	187.905
1115.86	203.161
1118.75	74.0693
1121.65	121.713
1124.54	72.2803
1127.43	20.375
1130.32	9.59375
1133.22	38.2812
1136.11	25.9639
1139	43.959
1141.89	71.8516
1144.79	129.622
1147.68	89.1885
1150.57	89.6963
1153.47	137.748
1156.36	83.8301
1159.25	150.296
1162.14	73.2725
1165.04	11.3887
1167.93	54.4815
1170.82	47.9365
1173.71	1.85938
1176.61	133.252
1179.5	36.5127
1182.39	47.3672
1185.29	23.4727
1188.18	70.2998
1191.07	106.323
1193.96	3.31348
1196.86	87.8213
1199.75	74.2334
1202.64	55.9199
1205.54	92.083
1208.43	10.2031
1211.32	135.067
1214.21	93.4551
1217.11	76.7695
1220	66.2705
1222.89	48.7315
1225.78	11.2051
1228.68	106.238
1231.57	17.9775
1234.46	25.2715
1237.35	125.694
1240.25	79.958
1243.14	55.7002
1246.03	119.176
1248.92	5.9668
1251.82	129.374
1254.71	63.0225
1257.6	35.4492
1260.5	53.6758
1263.39	47.0703
1266.28	132.154
1269.17	108.509
1272.07	38.8477
1274.96	152.633
1277.85	117.355
1280.74	100.147
1283.64	81.4228
1286.53	108.636
1289.42	52.6143
1292.32	3.88574
1295.21	100.185
1298.1	66.5664
1300.99	5.27539
1303.89	21.0449
