Measurement: Raman, 532 nm, unoriented, Raman Data Processed
Mineral: Rudenkoite
Rruff sample: R070048
Ideal chemistry: Sr_3_Al_3.5_Si_3.5_O_10_(OH,O)_8_Cl_2_H_2_O
Locality: 80 km SEE of Aldan, Yakutia, Russia
Source: Michael Scott
Description: White fragment embedded in epoxy, co-type material
Raman shift (cm-1)	intensity
156.93	0
159.823	105.27
162.716	202.675
165.608	49.6152
168.501	4.26807
171.394	56.4312
174.286	191.95
177.179	258.933
180.072	188.024
182.965	248.945
185.857	234.636
188.75	237.984
191.643	214.122
194.535	179.505
197.428	101.304
200.321	40.8462
203.214	20.7256
206.106	10.1191
208.999	37.8687
211.892	45.4273
214.784	7.48975
217.677	91.5698
220.57	177.674
223.462	359.784
226.355	503.272
229.248	659.172
232.141	906.001
235.033	970.641
237.926	927.606
240.819	510.629
243.711	291.805
246.604	139.065
249.497	103.881
252.389	82.2524
255.282	170.343
258.175	157.97
261.067	136.368
263.96	96.2256
266.853	121.048
269.746	2.37549
272.638	51.4268
275.531	39.0264
278.424	0.983398
281.316	88.6431
284.209	346.188
287.102	423.636
289.995	470.139
292.887	504.42
295.78	562.98
298.673	542.618
301.565	430.777
304.458	390.978
307.351	600.922
310.243	788.038
313.136	1055.83
316.029	1360.65
318.922	1747.74
321.814	2393.01
324.707	2980.01
327.6	3554.09
330.492	3617.85
333.385	2967.51
336.278	2103.89
339.171	1458.24
342.063	1238.94
344.956	1252.77
347.849	1569.46
350.741	1846.67
353.634	2189.99
356.527	2429.51
359.419	2236.78
362.312	1628.19
365.205	1029.07
368.098	644.727
370.99	409.977
373.883	299.927
376.776	191.542
379.668	205.195
382.561	207.635
385.454	256.478
388.346	176.3
391.239	196.065
394.132	251.208
397.024	211.414
399.917	230.974
402.81	164.092
405.703	259.705
408.595	265.575
411.488	224.44
414.381	68.5137
417.273	24.7388
420.166	121.049
423.059	74.0625
425.952	65.0962
428.844	23.2368
431.737	202.194
434.63	446.903
437.522	835.523
440.415	1239.77
443.308	1625.7
446.2	1797.59
449.093	1475.79
451.986	730.543
454.878	398.383
457.771	105.141
460.664	83.9565
463.557	176.439
466.449	395.955
469.342	751.724
472.235	1219.4
475.127	1751.55
478.02	2137.39
480.913	2345.18
483.805	2172.54
486.698	1707.36
489.591	1111.65
492.484	589.494
495.376	332.583
498.269	67.4512
501.162	0.064453
504.055	18.5273
506.947	102.176
509.84	89.6113
512.732	167.982
515.625	371.287
518.518	496.432
521.411	585.026
524.303	487.859
527.196	255.269
530.089	96.9648
532.981	79.7363
535.874	115.045
538.767	388.562
541.66	738.993
544.552	1363.37
547.445	2169.35
550.338	2829.07
553.23	3421.9
556.123	3598.78
559.016	3206.64
561.909	2666.82
564.801	2226.75
567.694	1757.31
570.587	1693.22
573.479	1652.56
576.372	1785.82
579.265	2111.09
582.157	2928.97
585.05	4242.69
587.943	5634.46
590.836	6734.12
593.728	7875.07
596.621	6557.11
599.514	3299.49
602.406	1491.77
605.299	715.374
608.192	410.269
611.084	230.88
613.977	105.362
616.87	105.492
619.763	18.4756
622.655	57.8389
625.548	33.9922
628.441	52.2739
631.333	65.2144
634.226	5.93164
637.119	12.9531
640.011	37.8032
642.904	97.6436
645.797	70.9189
648.689	106.466
651.582	14.7812
654.475	132.489
657.368	127.3
660.26	179.217
663.153	166.761
666.046	125.977
668.938	191.461
671.831	161.426
674.724	138.465
677.617	201.848
680.509	161.419
683.402	63.3779
686.295	196.855
689.187	125.64
692.08	101.192
694.973	105.261
697.865	124.196
700.758	149.456
703.651	88.9727
706.544	222.712
709.436	229.426
712.329	440.062
715.222	470.147
718.114	569.89
721.007	583.384
723.9	528.775
726.793	566.361
729.685	391.703
732.578	401.513
735.471	280.544
738.363	283.87
741.256	215.051
744.149	183.439
747.041	233.756
749.934	176.952
752.827	132.17
755.72	153.087
758.612	42.9502
761.505	60.7041
764.398	98.8232
767.29	21.0195
770.183	50.3555
773.076	28.1201
775.968	51.9033
778.861	16.4561
781.754	33.8457
784.646	6.57715
787.539	21.3154
790.432	92.1592
793.325	65.5859
796.217	135.837
799.11	81.1309
802.003	146.783
804.895	161.186
807.788	162.573
810.681	214.02
813.573	344.62
816.466	367.01
819.359	555.416
822.252	659.817
825.144	865.519
828.037	1190.94
830.93	1656.49
833.822	2385.93
836.715	2959.38
839.608	3268.73
842.5	3191.39
845.393	2307.44
848.286	1480.37
851.179	926.655
854.071	592.503
856.964	537.898
859.857	485.111
862.75	445.644
865.642	408.604
868.535	397.407
871.428	281.213
874.32	235.019
877.213	132.97
880.106	89.0147
882.998	49.9951
885.891	12.8555
888.784	8.93555
891.677	41.7998
894.569	71.041
897.462	3.40625
900.355	20.9688
903.247	23.9941
906.14	114.895
909.033	158.306
911.925	176.567
914.818	256.604
917.711	198.096
920.604	115.098
923.496	123.499
926.389	122.814
929.282	99.9004
932.174	93.9268
935.067	99.8447
937.96	104.856
940.852	73.0156
943.745	78.7266
946.638	53.8603
949.53	147.087
952.423	162.06
955.316	359.988
958.209	338.295
961.101	546.667
963.994	538.476
966.887	745.187
969.779	722.721
972.672	725.732
975.565	836.002
978.457	737.234
981.35	784.278
984.243	692.149
987.136	642.795
990.028	639.671
992.921	624.25
995.814	858.204
998.706	1178.56
1001.6	1700.51
1004.49	2534
1007.38	3651.05
1010.28	5075.54
1013.17	6271.09
1016.06	6312.55
1018.96	4664.63
1021.85	2904.47
1024.74	1491.2
1027.63	851.213
1030.53	494.433
1033.42	247.795
1036.31	230.477
1039.2	164.445
1042.1	39.1289
1044.99	71.8252
1047.88	104.636
1050.78	162.596
1053.67	68.6631
1056.56	2.1416
1059.45	33.8027
1062.35	63.6289
1065.24	16.752
1068.13	27.1475
1071.02	64.3506
1073.92	61.71
1076.81	2.18066
1079.7	12.6533
1082.6	90.25
1085.49	5.20801
1088.38	155.861
1091.27	132.836
1094.17	203.156
1097.06	197.957
1099.95	196.978
1102.84	270.102
1105.74	193.175
1108.63	224.575
1111.52	242.47
1114.41	215.81
1117.31	312.097
1120.2	217.268
1123.09	192.814
1125.98	173.769
1128.88	157.988
1131.77	136.919
1134.66	61.377
1137.56	86.8994
1140.45	111.964
1143.34	100.184
1146.23	80.6006
1149.13	101.342
1152.02	135.708
1154.91	106.179
1157.81	85.417
1160.7	6.41797
1163.59	10.8398
1166.48	119.107
1169.38	165.741
1172.27	7.25195
1175.16	124.422
1178.05	4.21484
1180.95	39.8711
1183.84	15.5166
1186.73	109.886
1189.62	27.6123
1192.52	25.126
1195.41	96.4981
1198.3	109.012
1201.2	85.042
1204.09	211.371
1206.98	106.872
1209.87	141.31
1212.77	154.784
1215.66	83.9209
1218.55	74.8545
1221.44	53.085
1224.34	121.835
1227.23	78.4004
1230.12	72.1162
1233.02	88.8828
1235.91	3.73926
1238.8	48.0947
1241.69	0
