Measurement: Raman, 785 nm, unoriented, Raman Data Processed
Mineral: Rudenkoite
Rruff sample: R070048
Ideal chemistry: Sr_3_Al_3.5_Si_3.5_O_10_(OH,O)_8_Cl_2_H_2_O
Locality: 80 km SEE of Aldan, Yakutia, Russia
Source: Michael Scott
Description: White fragment embedded in epoxy, co-type material
Raman shift (cm-1)	intensity
153.612	0
156.505	30.0123
159.397	17.8004
162.29	28.575
165.183	89.5151
168.075	70.7613
170.968	61.178
173.861	61.8639
176.754	96.359
179.646	57.697
182.539	78.9473
185.432	70.0525
188.324	70.9684
191.217	56.3319
194.11	36.2181
197.002	35.7767
199.895	41.3617
202.788	26.1263
205.68	20.702
208.573	2.47876
211.466	6.72949
214.359	2.12317
217.251	22.8226
220.144	42.729
223.037	21.946
225.929	88.3838
228.822	95.0736
231.715	79.431
234.607	167.51
237.5	149.686
240.393	82.8297
243.286	21.4932
246.178	17.5861
249.071	30.5223
251.964	21.228
254.856	17.4973
257.749	7.31128
260.642	9.19531
263.534	41.5861
266.427	21.5017
269.32	9.52673
272.213	21.6733
275.105	14.8738
277.998	8.29224
280.891	12.9755
283.783	38.5077
286.676	90.1747
289.569	152.533
292.462	130.53
295.354	133.201
298.247	147.868
301.14	161.033
304.032	159.887
306.925	157.679
309.818	221.348
312.71	304.404
315.603	365.771
318.496	412.227
321.389	519.659
324.281	656.4
327.174	793.006
330.067	886.252
332.959	788.76
335.852	518.967
338.745	380.053
341.637	293.847
344.53	281.942
347.423	283.204
350.315	353.465
353.208	411.724
356.101	476.623
358.994	492.607
361.886	410.492
364.779	255.704
367.672	153.587
370.564	94.6103
373.457	96.4806
376.35	74.2217
379.243	75.5347
382.135	51.9075
385.028	45.803
387.921	45.1608
390.813	71.264
393.706	62.0831
396.599	31.718
399.491	39.0565
402.384	30.1335
405.277	39.4724
408.17	41.8543
411.062	54.853
413.955	6.91223
416.848	5.30689
419.74	9.77979
422.633	14.1921
425.526	7.45972
428.418	29.0394
431.311	20.3125
434.204	76.5448
437.096	153.506
439.989	226.006
442.882	376.052
445.775	443.541
448.667	384.738
451.56	239.631
454.453	106.865
457.345	15.1194
460.238	11.5197
463.131	39.7734
466.024	78.7553
468.916	123.937
471.809	249.185
474.702	398.369
477.594	524.979
480.487	557.102
483.38	591.348
486.272	477.385
489.165	314.741
492.058	190.51
494.95	108.806
497.843	63.7043
500.736	29.0087
503.629	17.5244
506.521	28.116
509.414	49.6451
512.307	30.7562
515.199	40.1981
518.092	109.055
520.985	127.831
523.878	113.424
526.77	74.4963
529.663	4.50732
532.556	10.5214
535.448	1.50525
538.341	47.3152
541.234	100.53
544.126	192.056
547.019	412.743
549.912	596.636
552.804	786.086
555.697	920.584
558.59	918.433
561.483	756.366
564.375	574.118
567.268	545.448
570.161	517.315
573.053	496.618
575.946	517.98
578.839	587.48
581.731	829.674
584.624	1079.89
587.517	1420.6
590.41	1900.6
593.302	2451.56
596.195	2354.84
599.088	1354.29
601.98	587.484
604.873	270.707
607.766	119.341
610.659	54.0874
613.551	43.0312
616.444	45.9695
619.337	49.3757
622.229	9.76245
625.122	7.93054
628.015	21.0979
630.907	1.85938
633.8	6.21521
636.693	13.2863
639.586	1.17627
642.478	4.58936
645.371	4.88886
648.264	1.40625
651.156	19.891
654.049	14.4533
656.942	38.57
659.834	8.30145
662.727	37.2483
665.62	21.7799
668.513	23.0485
671.405	29.8129
674.298	38.4755
677.191	59.9819
680.083	54.1818
682.976	49.3958
685.869	51.3967
688.761	52.6517
691.654	11.1381
694.547	38.8842
697.439	58.5625
700.332	67.5295
703.225	59.4968
706.118	83.1937
709.01	76.0284
711.903	102.364
714.796	149.244
717.688	111.012
720.581	172.962
723.474	187.633
726.366	151.41
729.259	151.863
732.152	112.958
735.045	95.5474
737.937	83.2888
740.83	61.0029
743.723	87.0065
746.615	47.132
749.508	43.5917
752.401	29.2114
755.293	50.8226
758.186	24.9638
761.079	0.655273
763.972	24.6074
766.864	38.2452
769.757	21.4008
772.65	11.0254
775.542	6.34045
778.435	6.32117
781.328	14.5289
784.221	45.4153
787.113	1.83228
790.006	38.0484
792.899	12.8553
795.791	27.3198
798.684	16.5657
801.577	38.374
804.469	49.9811
807.362	66.6459
810.255	86.9871
813.148	67.5228
816.04	102.022
818.933	83.4835
821.826	127.921
824.718	188.585
827.611	245.965
830.504	326.588
833.396	487.415
836.289	619.639
839.182	771.805
842.074	802.985
844.967	648.914
847.86	429.908
850.753	244.786
853.645	167.748
856.538	118.059
859.431	94.7893
862.323	120.138
865.216	94.1107
868.109	70.6426
871.001	88.3536
873.894	79.5292
876.787	47.6581
879.68	45.0471
882.572	33.3332
885.465	4.92712
888.358	17.3964
891.25	31.1591
894.143	4.81982
897.036	5.19556
899.928	29.5671
902.821	31.5397
905.714	14.7987
908.607	48.3404
911.499	41.6976
914.392	38.6226
917.285	67.9114
920.177	32.5518
923.07	13.4192
925.963	27.006
928.856	22.1998
931.748	22.3983
934.641	28.5324
937.534	32.0104
940.426	49.8892
943.319	11.3697
946.212	32.3601
949.104	45.1109
951.997	61.3754
954.89	72.7144
957.783	121.807
960.675	134.981
963.568	129.341
966.461	117.832
969.353	139.525
972.246	171.059
975.139	176.135
978.031	155.027
980.924	153.067
983.817	147.97
986.71	118.378
989.602	107.111
992.495	112.683
995.388	143.987
998.28	213.595
1001.17	319.597
1004.07	435.801
1006.96	651.522
1009.85	951.93
1012.74	1292.02
1015.64	1465.33
1018.53	1230.85
1021.42	765.46
1024.32	388.56
1027.21	259.179
1030.1	190.68
1032.99	88.392
1035.88	69.1883
1038.78	42.0492
1041.67	69.1242
1044.56	63.116
1047.46	44.9077
1050.35	37.4721
1053.24	2.16656
1056.13	19.0015
1059.03	24.2094
1061.92	38.7362
1064.81	10.0306
1067.7	5.37372
1070.6	1.04633
1073.49	8.0058
1076.38	8.71338
1079.28	17.1632
1082.17	21.3292
1085.06	8.12707
1087.95	9.68262
1090.85	8.56201
1093.74	2.35596
1096.63	31.1199
1099.53	47.9042
1102.42	76.6189
1105.31	60.9862
1108.2	83.7999
1111.1	97.6115
1113.99	99.4313
1116.88	68.713
1119.77	37.6697
1122.67	3.97449
1125.56	14.6724
1128.45	23.8109
1131.34	40.3187
1134.24	48.2468
1137.13	62.0742
1140.02	20.3406
1142.91	21.1764
1145.81	50.8472
1148.7	7.62146
1151.59	0
