Measurement: Raman, 532 nm, unoriented, Raman Data Processed
Mineral: Ruifrancoite
Rruff sample: R070049
Ideal chemistry: Ca_2_[box]_2_Fe^3+^_4_Be_4_(PO_4_)_6_(OH)_6_4H_2_O
Locality: Sapucaia mine, Galileia, Minas Gerais, Brazil
Source: Michael Scott
Description: Spherical aggregates of brown thin acicular radiating crystals, co-type material, associated with quartz, albite and muscovite
Raman shift (cm-1)	intensity
162.234	0
165.126	1.78125
168.019	127.76
170.912	230.936
173.804	264.429
176.697	360.457
179.59	369.367
182.482	355.741
185.375	308.853
188.268	205.16
191.161	184.182
194.053	181.474
196.946	158.686
199.839	269.455
202.731	304.368
205.624	276.807
208.517	343.789
211.41	398.676
214.302	430.125
217.195	412.328
220.088	291.591
222.98	188.932
225.873	88.4014
228.766	47.3867
231.658	42.4097
234.551	14.3003
237.444	22.3394
240.337	1.85449
243.229	6.22949
246.122	14.189
249.015	40.1211
251.907	104.918
254.8	139.75
257.693	117.115
260.585	157.446
263.478	203.419
266.371	163.33
269.264	218.498
272.156	187.027
275.049	156.585
277.942	215.83
280.834	181.282
283.727	176.077
286.62	176.918
289.512	174.793
292.405	271.256
295.298	338.317
298.19	391.582
301.083	332.123
303.976	335.56
306.869	321.817
309.761	359.877
312.654	357.022
315.547	417.379
318.44	430.214
321.332	449.863
324.225	434.052
327.118	375.209
330.01	246.714
332.903	254.034
335.796	147.422
338.688	75.3657
341.581	24.8579
344.474	12.5405
347.366	28.3999
350.259	73.4228
353.152	60.6265
356.045	5.58203
358.937	15.4712
361.83	86.2959
364.723	227.801
367.615	275.859
370.508	397.368
373.401	561.462
376.293	716.296
379.186	904.172
382.079	872.09
384.972	930.116
387.864	894.057
390.757	910.2
393.65	976.391
396.542	1045.78
399.435	1186.97
402.328	1308.81
405.221	1374.09
408.113	1277.83
411.006	1204.36
413.899	1044.25
416.791	841.5
419.684	601.39
422.577	375.252
425.469	241.745
428.362	141.839
431.255	49.4194
434.147	130.991
437.04	187.785
439.933	233.761
442.826	258.773
445.718	261.492
448.611	202.184
451.504	281.81
454.396	337.551
457.289	349.124
460.182	354.008
463.075	478.856
465.967	469.483
468.86	467.317
471.753	506.982
474.645	393.437
477.538	349.676
480.431	302.152
483.323	161.377
486.216	200.626
489.109	156.298
492.002	186.02
494.894	264.894
497.787	218.026
500.68	188.477
503.572	164.16
506.465	76.144
509.358	71.6128
512.25	28.9468
515.143	64.8101
518.036	71.3227
520.928	36.3852
523.821	46.3745
526.714	55.3911
529.607	23.062
532.499	5.78223
535.392	18.5356
538.285	55.0015
541.178	150.97
544.07	133.598
546.963	201.048
549.856	237.913
552.748	388.248
555.641	463.465
558.534	482.838
561.426	593.77
564.319	551.594
567.212	597.487
570.105	507.318
572.997	575.803
575.89	530.789
578.783	667.813
581.675	647.559
584.568	656.263
587.461	573.913
590.353	454.967
593.246	345.127
596.139	343.933
599.032	234.48
601.924	185
604.817	114.294
607.71	108.623
610.602	58.7612
613.495	29.7993
616.388	39.0371
619.28	4.66894
622.173	99.436
625.066	192.652
627.958	210.109
630.851	220.126
633.744	324.573
636.637	264.891
639.529	272.348
642.422	178.121
645.315	182.176
648.207	122.535
651.1	76.5024
653.993	80.1025
656.886	95.8125
659.778	128.872
662.671	76.2139
665.564	111.269
668.456	89.9204
671.349	35.3198
674.242	63.8066
677.135	38.4429
680.027	1.63232
682.92	14.3345
685.813	11.3882
688.705	5.24951
691.598	40.8516
694.491	34.7036
697.383	42.7583
700.276	141.692
703.169	100.679
706.062	195.715
708.954	134.011
711.847	140.262
714.74	227.916
717.632	277.42
720.525	317.946
723.418	280.171
726.31	289.59
729.203	344.019
732.096	354.859
734.989	250.75
737.881	210.774
740.774	256.63
743.667	172.026
746.559	85.6943
749.452	69.5234
752.345	67.584
755.237	66.0537
758.13	39.7031
761.023	45.9629
763.915	26.1309
766.808	165.749
769.701	150.922
772.594	261.294
775.486	310.628
778.379	347.341
781.272	450.535
784.164	575.296
787.057	716.195
789.95	864.48
792.842	974.035
795.735	1197.29
798.628	1351.17
801.521	1399.81
804.413	1408.16
807.306	1452.38
810.199	1490.57
813.091	1441.42
815.984	1356.92
818.877	1270.97
821.769	1229.09
824.662	1192.61
827.555	1145.57
830.448	1092.84
833.34	1017.21
836.233	939.968
839.126	827.441
842.018	721.77
844.911	570.62
847.804	505.532
850.697	397.096
853.589	346.412
856.482	334.576
859.375	313.607
862.267	279.316
865.16	294.237
868.053	373.94
870.945	305.951
873.838	351.444
876.731	289.732
879.624	272.326
882.516	227.709
885.409	193.476
888.302	155.931
891.194	63.4238
894.087	78.335
896.98	56.6284
899.872	5.6084
902.765	12.271
905.658	4.2334
908.551	65.7519
911.443	43.3833
914.336	12.25
917.229	78.0376
920.121	14.7324
923.014	43.7539
925.907	5.78369
928.799	6.18994
931.692	47.7783
934.585	106.274
937.478	124.715
940.37	296.33
943.263	426.416
946.156	674.963
949.048	877.481
951.941	1198.88
954.834	1506.93
957.726	1782.94
960.619	2220.41
963.512	2474.46
966.405	2755.4
969.297	3023.53
972.19	3375.48
975.083	3623.28
977.975	4006.97
980.868	4222.76
983.761	4420.94
986.654	4532.7
989.546	4560.6
992.439	4407.47
995.332	4138.12
998.224	3927.21
1001.12	3594.25
1004.01	3252.09
1006.9	2924.75
1009.79	2644.72
1012.69	2347.68
1015.58	1994.2
1018.47	1834.26
1021.37	1664.14
1024.26	1494.61
1027.15	1232.95
1030.04	1210.92
1032.94	1059.33
1035.83	942.672
1038.72	893.69
1041.62	778.326
1044.51	656.099
1047.4	594.989
1050.29	468.56
1053.19	291.134
1056.08	286.876
1058.97	108.492
1061.86	91.1484
1064.76	101.045
1067.65	29.0811
1070.54	13.8506
1073.43	20.458
1076.33	95.083
1079.22	33.001
1082.11	10.668
1085.01	26.4209
1087.9	50.5371
1090.79	24.8438
1093.68	4.7793
1096.58	14.8008
1099.47	33.8203
1102.36	17.1328
1105.25	2.42481
1108.15	5.93652
1111.04	4.32812
1113.93	89.4717
1116.83	59.0918
1119.72	47.7715
1122.61	54.2266
1125.5	6.57227
1128.4	36.1094
1131.29	20.1533
1134.18	14.252
1137.07	7.61523
1139.97	5.23926
1142.86	17.4482
1145.75	22.1753
1148.64	46.6094
1151.54	143.747
1154.43	190.073
1157.32	187.554
1160.22	152.071
1163.11	222.487
1166	111.372
1168.89	155.378
1171.79	66.9556
1174.68	81.5786
1177.57	78.0454
1180.46	34.1372
1183.36	77.4292
1186.25	3.03565
1189.14	84.77
1192.04	30.2949
1194.93	41.0889
1197.82	59.2388
1200.71	1.64356
1203.61	81.2388
1206.5	97.4136
1209.39	16.8442
1212.28	28.7944
1215.18	78.772
1218.07	92.5737
1220.96	169.121
1223.86	126.728
1226.75	154.982
1229.64	224.176
1232.53	202.804
1235.43	228.79
1238.32	215.898
1241.21	199.303
1244.1	251.283
1247	249.932
1249.89	250.357
1252.78	307.004
1255.67	217.391
1258.57	186.898
1261.46	206.256
1264.35	180.77
1267.25	165.535
1270.14	198.271
1273.03	161.279
1275.92	230.779
1278.82	148.439
1281.71	136.244
1284.6	92.7754
1287.49	87.4287
1290.39	99.0596
1293.28	105.098
1296.17	95.6201
1299.07	63.0913
1301.96	3.50977
1304.85	9.07324
