Measurement: Raman, 785 nm, unoriented, Raman Data Processed
Mineral: Ruifrancoite
Rruff sample: R070049
Ideal chemistry: Ca_2_[box]_2_Fe^3+^_4_Be_4_(PO_4_)_6_(OH)_6_4H_2_O
Locality: Sapucaia mine, Galileia, Minas Gerais, Brazil
Source: Michael Scott
Description: Spherical aggregates of brown thin acicular radiating crystals, co-type material, associated with quartz, albite and muscovite
Raman shift (cm-1)	intensity
167.593	0
170.486	42.7949
173.379	193.473
176.271	353.252
179.164	403.194
182.057	407.68
184.95	382.743
187.842	284.644
190.735	231.549
193.628	205.567
196.52	207.683
199.413	282.374
202.306	326.353
205.198	410.538
208.091	451.579
210.984	476.288
213.876	503.918
216.769	455.788
219.662	383.11
222.555	313.007
225.447	210.462
228.34	108.857
231.233	13.4443
234.125	24.2632
237.018	28.9507
239.911	22.7065
242.804	12.9785
245.696	8.65234
248.589	24.7124
251.482	54.7168
254.374	121.896
257.267	157.88
260.16	208.939
263.052	239.887
265.945	292.54
268.838	289.249
271.731	300.603
274.623	275.377
277.516	276.759
280.409	290.987
283.301	295.117
286.194	366.559
289.087	408.256
291.979	391.856
294.872	459.961
297.765	533.125
300.658	556.761
303.55	571.817
306.443	536.184
309.336	516.54
312.228	537.92
315.121	530.509
318.014	509.74
320.906	525.438
323.799	499.34
326.692	440.757
329.584	350.997
332.477	382.497
335.37	223.052
338.263	184.081
341.155	127.281
344.048	95.3926
346.941	7.00342
349.833	51.5107
352.726	30.8223
355.619	87.041
358.512	14.2979
361.404	55.0547
364.297	129.444
367.19	246.29
370.082	463.811
372.975	677.765
375.868	876.849
378.76	1029.31
381.653	1246.71
384.546	1278.98
387.438	1155.11
390.331	1030.77
393.224	922.539
396.117	925.75
399.009	923.705
401.902	1087.14
404.795	1048.23
407.687	1119.98
410.58	1067.46
413.473	998.623
416.365	805.502
419.258	565.767
422.151	414.228
425.044	186.374
427.936	140.108
430.829	125.677
433.722	177.578
436.614	360.011
439.507	449.944
442.4	585.315
445.293	620.076
448.185	567.721
451.078	570.572
453.971	511.58
456.863	530.575
459.756	606.657
462.649	582.225
465.541	671.128
468.434	666.03
471.327	571.573
474.219	506.584
477.112	437.262
480.005	350.029
482.898	327.654
485.79	260.626
488.683	202.357
491.576	166.767
494.468	171.199
497.361	157.142
500.254	197.658
503.147	92.4277
506.039	114.941
508.932	83.1196
511.825	46.7373
514.717	43.8535
517.61	50.9946
520.503	28.3257
523.395	23.4575
526.288	24.8442
529.181	9.26465
532.073	23.2363
534.966	28.9936
537.859	17.3789
540.752	13.3662
543.644	85.0161
546.537	120.739
549.43	193.516
552.322	280.993
555.215	420.569
558.108	479.021
561	554.542
563.893	542.064
566.786	477.844
569.679	487.794
572.571	433.46
575.464	458.418
578.357	467.24
581.249	542.582
584.142	562.243
587.035	498.542
589.928	449.938
592.82	392.441
595.713	273.952
598.606	188.659
601.498	208.761
604.391	150.575
607.284	126.397
610.176	64.2864
613.069	31.3125
615.962	7.26001
618.855	2.40527
621.747	0.553223
624.64	62.7283
627.533	100.41
630.425	222.601
633.318	242.402
636.211	286.447
639.103	328.577
641.996	329.276
644.889	224.987
647.782	186.439
650.674	160.932
653.567	126.972
656.46	166.019
659.352	81.8547
662.245	115.458
665.138	163.598
668.03	178.312
670.923	177.033
673.816	120.448
676.708	130.2
679.601	108.208
682.494	55.7236
685.387	46.3911
688.279	1.93726
691.172	42.0225
694.065	26.5542
696.957	6.87524
699.85	0.040527
702.743	6.73657
705.635	43.3967
708.528	18.2661
711.421	20.043
714.314	38.6313
717.206	10
720.099	53.8179
722.992	8.46899
725.884	40.595
728.777	0.983643
731.67	17.7339
734.562	20.1794
737.455	39.4058
740.348	43.8428
743.241	51.6418
746.133	24.8525
749.026	59.4761
751.919	69.0115
754.811	63.2424
757.704	92.0842
760.597	122.569
763.49	135.402
766.382	203.727
769.275	239.645
772.168	256.672
775.06	251.749
777.953	270.864
780.846	276.827
783.738	238.323
786.631	318.996
789.524	351.237
792.417	381.949
795.309	445.112
798.202	406.889
801.095	479.081
803.987	515.453
806.88	517.751
809.773	551.163
812.665	560.671
815.558	575.895
818.451	613.523
821.343	629.566
824.236	716.229
827.129	743.898
830.022	746.5
832.914	723.539
835.807	710.209
838.7	686.615
841.592	585.419
844.485	555.273
847.378	425.55
850.27	301.138
853.163	284.464
856.056	200.53
858.949	183.609
861.841	222.555
864.734	162.865
867.627	152.019
870.519	113.346
873.412	162.639
876.305	118.543
879.197	111.118
882.09	76.9407
884.983	93.6702
887.876	73.2556
890.768	40.3967
893.661	11.137
896.554	8.62793
899.446	18.9995
902.339	27.0735
905.232	27.3564
908.125	32.5095
911.017	14.2861
913.91	16.4321
916.803	38.6887
919.695	14.1804
922.588	10.7817
925.481	13.9146
928.373	4.47095
931.266	49.2571
934.159	40.2632
937.052	84.3333
939.944	128.669
942.837	254.109
945.73	424.11
948.622	677.032
951.515	864.082
954.408	1097.05
957.3	1431.34
960.193	1702.06
963.086	1987.42
965.979	2199.06
968.871	2512.31
971.764	2856.28
974.657	3117.28
977.549	3405.99
980.442	3697.53
983.335	3911.78
986.227	4150.91
989.12	4299.09
992.013	4216.76
994.905	3975.13
997.798	3658.81
1000.69	3414.55
1003.58	3201.19
1006.48	2879.11
1009.37	2533.51
1012.26	2238.41
1015.15	1969.52
1018.05	1765.87
1020.94	1576.25
1023.83	1370.56
1026.72	1285.12
1029.62	1130.83
1032.51	943.257
1035.4	839.95
1038.3	771.117
1041.19	653.309
1044.08	544.487
1046.97	468.132
1049.87	331.094
1052.76	246.946
1055.65	174.454
1058.55	127.421
1061.44	96.6768
1064.33	32.4507
1067.22	12.9719
1070.12	13.4312
1073.01	31.7278
1075.9	20.0234
1078.79	37.5818
1081.69	2.86694
1084.58	15.3386
1087.47	6.41479
1090.37	3.08008
1093.26	25.6262
1096.15	26.5264
1099.04	2.73828
1101.93	11.3655
1104.83	1.45874
1107.72	12.0903
1110.61	35.1335
1113.51	24.021
1116.4	26.3025
1119.29	39.5078
1122.18	32.144
1125.08	31.291
1127.97	9.58569
1130.86	44.6045
1133.76	7.53906
1136.65	46.429
1139.54	22.0981
1142.43	0.085938
1145.33	10.4678
1148.22	70.1267
1151.11	103.406
1154	39.0977
1156.9	118.312
1159.79	110.277
1162.68	91.3621
1165.58	73.1177
1168.47	51.0881
1171.36	26.0908
1174.25	54.1577
1177.15	6.15967
1180.04	61.9351
1182.93	12.0227
1185.82	7.67456
1188.72	40.342
1191.61	37.0276
1194.5	15.904
1197.39	70.9797
1200.29	50.8608
1203.18	71.7931
1206.07	56.8584
1208.96	82.3285
1211.86	67.5627
1214.75	74.4563
1217.64	50.8629
1220.54	27.2739
1223.43	4.66064
1226.32	33.8342
1229.21	23.0966
1232.11	47.1793
1235	0
