Measurement: Raman, 780 nm, unoriented, Raman Data Processed
Mineral: Ruizite
Rruff sample: R140132
Ideal chemistry: Ca_2_Mn^3+^_2_Si_4_O_11_(OH)_4_2H_2_O
Locality: Cornwall, Lebanon County, Pennsylvania, USA
Source: Marcus Origlieri
Raman shift (cm-1)	intensity
104.095	1.53217
107.47	13.775
110.845	11.5797
114.219	8.16321
117.594	0.872375
120.969	5.53796
124.344	3.10736
127.719	2.02508
131.094	7.81403
134.468	5.01117
137.843	4.91852
141.218	2.14258
144.593	0.467346
147.968	4.89502
151.342	9.96692
154.717	25.2894
158.092	46.0117
161.467	78.0746
164.842	128.325
168.216	186.13
171.591	246.632
174.966	291.477
178.341	283.65
181.716	227.224
185.09	160.951
188.465	108.675
191.84	83.3709
195.215	72.7274
198.59	73.8022
201.965	85.6445
205.339	107.224
208.714	129.863
212.089	153.496
215.464	169.856
218.839	168.448
222.214	143.267
225.588	113.1
228.963	86.2275
232.338	57.5714
235.713	22.5773
239.088	2.19437
242.462	4.73752
245.837	40.5033
249.212	98.4473
252.587	157.058
255.962	171.118
259.336	130.362
262.711	73.4993
266.086	36.6975
269.461	19.4
272.836	12.6179
276.211	18.0664
279.585	26.6617
282.96	32.5158
286.335	38.795
289.71	47.6836
293.085	50.1106
296.459	42.2039
299.834	27.7191
303.209	13.987
306.584	5.7207
309.959	0.251831
313.334	6.23599
316.708	6.04883
320.083	4.93643
323.458	4.39108
326.833	3.31204
330.207	2.51459
333.582	5.14258
336.957	15.0931
340.332	19.5221
343.707	24.5293
347.082	29.9337
350.456	34.6052
353.831	39.1029
357.206	48.1489
360.581	56.1492
363.956	65.9891
367.33	75.3261
370.705	81.4146
374.08	83.389
377.455	87.2142
380.83	84.3125
384.205	66.4648
387.579	55.9123
390.954	50.9525
394.329	48.0994
397.704	51.8363
401.079	62.772
404.453	73.943
407.828	81.5735
411.203	78.444
414.578	66.3561
417.953	49.8535
421.327	41.8872
424.702	40.9691
428.077	45.7379
431.452	55.2303
434.827	56.8584
438.202	54.5827
441.576	47.3011
444.951	41.1964
448.326	34.0295
451.701	29.2902
455.076	30.9134
458.45	37.9963
461.825	53.3324
465.2	76.3609
468.575	98.1887
471.95	111.105
475.325	110.963
478.699	94.4726
482.074	71.6004
485.449	48.9335
488.824	29.8616
492.199	16.5349
495.573	11.4336
498.948	6.47073
502.323	6.04025
505.698	3.5105
509.073	3.20697
512.447	3.2142
515.822	1.45715
519.197	0.845306
522.572	6.45334
525.947	3.99051
529.322	6.34143
532.696	4.30545
536.071	0.932739
539.446	6.15472
542.821	12.9047
546.196	22.115
549.57	38.6734
552.945	61.1136
556.32	91.0886
559.695	135.507
563.07	190.529
566.444	248.097
569.819	273.858
573.194	250.582
576.569	190.054
579.944	135.176
583.319	91.7616
586.693	64.314
590.068	44.1191
593.443	31.1331
596.818	22.5893
600.193	15.518
603.567	13.454
606.942	10.7069
610.317	10.1437
613.692	8.78662
617.067	9.71896
620.442	11.9263
623.816	15.4021
627.191	20.1944
630.566	24.72
633.941	31.4916
637.316	34.9909
640.69	36.7911
644.065	32.239
647.44	27.8856
650.815	23.4304
654.19	15.7589
657.564	13.1816
660.939	8.89294
664.314	4.88467
667.689	4.43347
671.064	3.4758
674.439	1.08173
677.813	0.174164
681.188	0.2267
684.563	0.253876
687.938	0.381531
691.313	0.929581
694.688	0.095047
698.062	0.266068
701.437	1.23476
704.812	0.986664
708.187	4.41209
711.562	5.87224
714.936	7.63637
718.311	11.1039
721.686	11.9699
725.061	11.7399
728.436	12.1638
731.81	8.92931
735.185	7.77634
738.56	7.27191
741.935	4.15729
745.31	3.57384
748.684	1.85385
752.059	1.4597
755.434	0.577194
758.809	1.8353
762.184	0.544144
765.559	1.75363
768.933	0.952011
772.308	0.112488
775.683	1.81583
779.058	0.657242
782.433	0.747375
785.808	1.48561
789.182	0.884506
792.557	1.21707
795.932	1.56428
799.307	0.825195
802.682	0.304489
806.056	3.40405
809.431	2.47446
812.806	0.645309
816.181	1.09464
819.556	2.13765
822.93	1.97609
826.305	0.211716
829.68	0.629288
833.055	0.119385
836.43	0.117172
839.804	0.721222
843.179	0.524643
846.554	1.06332
849.929	1.45877
853.304	2.06989
856.679	2.73762
860.053	3.25481
863.428	4.71136
866.803	2.27782
870.178	1.52681
873.553	0.73233
876.927	1.05646
880.302	0.339523
883.677	1.51238
887.052	2.73556
890.427	5.26802
893.802	7.83908
897.176	11.0723
900.551	19.029
903.926	27.8553
907.301	44.5925
910.676	66.0033
914.05	94.0835
917.425	117.865
920.8	116.106
924.175	90.7797
927.55	69.5727
930.924	57.4108
934.299	50.5913
937.674	39.9084
941.049	25.2476
944.424	16.2592
947.799	10.3283
951.173	7.43454
954.548	6.80977
957.923	7.10812
961.298	8.79004
964.673	9.69275
968.047	14.201
971.422	15.9204
974.797	16.6893
978.172	11.9725
981.547	10.5278
984.922	5.6001
988.296	2.8822
991.671	0.233231
995.046	0.438782
998.421	0.581284
1001.8	0.807892
1005.17	0.123505
1008.54	0.047668
1011.92	0.013382
1015.29	1.8523
1018.67	3.58418
1022.04	2.44814
1025.42	2.94119
1028.79	2.71068
1032.17	0.140884
1035.54	0.039322
1038.92	1.48924
1042.29	0.173218
1045.67	0.50502
1049.04	0.856598
1052.42	1.09918
1055.79	0.588486
1059.17	0.576752
1062.54	0.741226
1065.92	1.09546
1069.29	1.75472
1072.67	1.69676
1076.04	2.76623
1079.42	4.23801
1082.79	2.79156
1086.17	3.71449
1089.54	2.29591
1092.92	4.41704
1096.29	3.30092
1099.66	2.84291
1103.04	1.31326
1106.41	2.26849
1109.79	2.06599
1113.16	0.400467
1116.54	1.72578
1119.91	1.6292
1123.29	2.53314
1126.66	2.33699
1130.04	0.372742
1133.41	1.1424
1136.79	0.617722
1140.16	2.40688
1143.54	2.33467
1146.91	1.11397
1150.29	0.443329
1153.66	1.5661
1157.04	1.67482
1160.41	2.27635
1163.79	0.191971
1167.16	2.22534
1170.54	1.96783
1173.91	2.36273
1177.29	0.92688
1180.66	1.77002
1184.04	1.42519
1187.41	1.65952
1190.79	1.80418
1194.16	0.021286
1197.54	2.50291
1200.91	1.33708
1204.28	2.20386
1207.66	1.11687
1211.03	1.26327
1214.41	3.06555
1217.78	0.13089
1221.16	1.54274
1224.53	0.870483
1227.91	0.423477
1231.28	0.464157
1234.66	1.27832
1238.03	0.379013
1241.41	0.426514
1244.78	0.661057
1248.16	0.267899
1251.53	1.92229
1254.91	0.684998
1258.28	1.33659
1261.66	0.698608
1265.03	1.3504
1268.41	2.19772
1271.78	1.36357
1275.16	0.789474
1278.53	0.99791
1281.9	1.16891
