Measurement: Raman, 780 nm, unoriented, Raman Data Processed
Mineral: Ruizite
Rruff sample: R060930
Ideal chemistry: Ca_2_Mn^3+^_2_Si_4_O_11_(OH)_4_2H_2_O
Locality: Christmas mine, Gila County, Arizona, USA
Source: Bob Jenkins
Description: Orange, massive and radial acicular crystals
Raman shift (cm-1)	intensity
97.8274	0
101.202	5.38623
104.577	3.12952
107.952	22.2606
111.327	17.5056
114.701	15.4362
118.076	6.91309
121.451	13.6371
124.826	20.7484
128.201	29.9679
131.576	26.4736
134.95	14.1398
138.325	13.5041
141.7	4.54944
145.075	1.50098
148.45	0.859131
151.825	5.25159
155.199	7.96704
158.574	4.27075
161.949	14.8198
165.324	34.8207
168.698	54.3079
172.073	85.6865
175.448	126.523
178.823	176.342
182.198	212.811
185.573	202.53
188.947	158.409
192.322	114.126
195.697	82.7946
199.072	54.9327
202.447	46.2136
205.821	38.4
209.196	36.8935
212.571	48.5314
215.946	66.136
219.321	83.3439
222.696	79.6661
226.07	60.3886
229.445	48.1926
232.82	49.8759
236.195	44.3044
239.57	24.1929
242.945	7.02826
246.319	15.6618
249.694	45.0031
253.069	84.2787
256.444	105.385
259.818	86.3647
263.193	59.6183
266.568	45.4702
269.943	42.0345
273.318	49.5765
276.693	64.8059
280.067	85.6854
283.442	80.4161
286.817	56.9224
290.192	40.0588
293.567	22.7305
296.942	14.4266
300.316	10.5539
303.691	11.4357
307.066	13.246
310.441	9.66522
313.816	7.37274
317.19	0.592651
320.565	2.24939
323.94	4.64539
327.315	2.57068
330.69	4.87225
334.065	3.02759
337.439	7.61334
340.814	12.2122
344.189	21.7847
347.564	32.0759
350.938	45.9921
354.313	61.2025
357.688	82.7178
361.063	100.684
364.438	118.01
367.813	123.1
371.187	109.851
374.562	89.7141
377.937	71.8597
381.312	56.1066
384.687	42.1226
388.062	33.7413
391.436	25.2579
394.811	16.7714
398.186	12.5448
401.561	11.9472
404.935	10.9246
408.31	13.7753
411.685	16.9326
415.06	15.6821
418.435	16.9355
421.81	22.0753
425.184	23.9974
428.559	34.0391
431.934	51.26
435.309	51.8293
438.684	48.5693
442.058	47.2265
445.433	42.5181
448.808	34.579
452.183	32.0024
455.558	28.5956
458.933	31.0813
462.307	38.8274
465.682	51.6114
469.057	72.1871
472.432	93.5506
475.807	95.7695
479.182	87.6686
482.556	71.2283
485.931	48.0174
489.306	32.1304
492.681	16.3736
496.055	6.64905
499.43	1.94037
502.805	0.512878
506.18	1.72705
509.555	0.303833
512.93	2.95612
516.304	6.86157
519.679	8.19745
523.054	1.98731
526.429	1.44788
529.804	2.6142
533.178	3.41107
536.553	1.53528
539.928	7.60822
543.303	10.0796
546.678	17.1599
550.053	29.4501
553.427	42.4034
556.802	60.1511
560.177	81.9243
563.552	117.702
566.927	165.557
570.302	212.843
573.676	227.115
577.051	177.706
580.426	121.823
583.801	76.5696
587.176	49.8184
590.55	32.6833
593.925	22.5273
597.3	16.6995
600.675	12.2142
604.05	11.4029
607.424	10.089
610.799	5.42053
614.174	6.21582
617.549	7.39008
620.924	10.4782
624.298	15.916
627.673	24.25
631.048	35.3886
634.423	49.6671
637.798	60.8147
641.173	63.6501
644.547	56.7711
647.922	40.7789
651.297	25.4799
654.672	16.1315
658.047	10.5752
661.421	8.93097
664.796	2.49298
668.171	4.32745
671.546	3.15045
674.921	1.90362
678.295	1.40314
681.67	0.792419
685.045	0.620972
688.42	0.216614
691.795	0.103516
695.17	0.169312
698.544	0.019836
701.919	0.626831
705.294	0.842163
708.669	3.07178
712.044	4.42493
715.418	5.54871
718.793	6.12237
722.168	9.07446
725.543	7.95813
728.918	10.3451
732.293	13.5141
735.667	14.0333
739.042	14.1193
742.417	13.0567
745.792	12.8208
749.167	10.316
752.541	10.2192
755.916	10.1829
759.291	9.16583
762.666	8.05304
766.041	5.96301
769.415	2.26135
772.79	3.28241
776.165	2.87756
779.54	3.0636
782.915	1.52753
786.29	3.64002
789.664	0.248291
793.039	1.1261
796.414	0.116272
799.789	0.361877
803.164	0.3302
806.538	3.39453
809.913	0.76239
813.288	0.060303
816.663	3.84546
820.038	3.30499
823.413	4.47797
826.787	4.21771
830.162	3.867
833.537	3.98608
836.912	3.16077
840.287	4.8515
843.661	5.75775
847.036	6.16754
850.411	10.9216
853.786	9.55322
857.161	12.9383
860.535	14.609
863.91	17.3119
867.285	17.0868
870.66	11.8532
874.035	6.89819
877.409	1.87512
880.784	0.747681
884.159	0.582031
887.534	1.26385
890.909	1.38477
894.284	2.09265
897.658	3.67835
901.033	6.92523
904.408	13.4938
907.783	23.7933
911.158	29.1618
914.533	42.4798
917.907	66.6118
921.282	95.7666
924.657	103.711
928.032	79.9399
931.407	50.6888
934.781	31.2821
938.156	24.1045
941.531	16.437
944.906	11.3001
948.281	7.71271
951.655	6.6488
955.03	3.99493
958.405	8.13385
961.78	10.2824
965.155	17.2603
968.529	26.0528
971.904	30.551
975.279	30.0817
978.654	22.8549
982.029	16.7953
985.404	8.34582
988.778	7.98486
992.153	1.99274
995.528	0.369629
998.903	0.444519
1002.28	1.37329
1005.65	4.28009
1009.03	0.969238
1012.4	0.622498
1015.78	2.46326
1019.15	0.880371
1022.53	1.63074
1025.9	2.11682
1029.28	5.09564
1032.65	3.60938
1036.03	4.04047
1039.4	2.95557
1042.78	2.0451
1046.15	2.4975
1049.53	3.35559
1052.9	4.14728
1056.28	5.33789
1059.65	9.43634
1063.02	10.1732
1066.4	6.11688
1069.77	8.67395
1073.15	6.0628
1076.52	5.98669
1079.9	6.72388
1083.27	6.6922
1086.65	9.6571
1090.02	4.21887
1093.4	6.8609
1096.77	2.15588
1100.15	3.64893
1103.52	0.276001
1106.9	0.761658
1110.27	0.837646
1113.65	0.935059
1117.02	0.561218
1120.4	1.1767
1123.77	1.70523
1127.15	0.006195
1130.52	0.249054
1133.9	0.127014
1137.27	0.488678
1140.64	2.72235
1144.02	2.4913
1147.39	5.21289
1150.77	2.50913
1154.14	5.73471
1157.52	1.71774
1160.89	5.0694
1164.27	5.10062
1167.64	4.84692
1171.02	5.81222
1174.39	4.61539
1177.77	3.39569
1181.14	2.70584
1184.52	4.59317
1187.89	3.34433
1191.27	3.02676
1194.64	6.67197
1198.02	9.50583
1201.39	6.34619
1204.77	3.92587
1208.14	2.32571
1211.52	1.86584
1214.89	0.536285
1218.27	3.3822
1221.64	0.208374
1225.02	3.51208
1228.39	1.97202
1231.77	2.29187
1235.14	1.48212
1238.52	0.831055
1241.89	1.13965
1245.26	1.12436
1248.64	2.04343
1252.01	3.32764
1255.39	2.76187
1258.76	5.72977
1262.14	4.84021
1265.51	7.10178
1268.89	4.67212
1272.26	1.38217
1275.64	2.707
1279.01	1.79111
1282.39	3.97339
