Measurement: Raman, 532 nm, unoriented, Raman Data Processed
Mineral: Ruizite
Rruff sample: R130787
Ideal chemistry: Ca_2_Mn^3+^_2_Si_4_O_11_(OH)_4_2H_2_O
Locality: Wessels mine, Hotazel, Kalahari Manganese Field, Northern Cape Province, South Africa
Source: Marcus Origlieri
Description: Brown prismatic crystals in radiating groups, with a globular gyrolite-like mineral, on and in hydroxyapophyllite-(K) with minor inesite.
Measured chemistry: (Ca_1.90_Sr_0.06_Mg_0.04_)_2.00_(Mn^3+^_1.88_Fe^3+^_0.07_Al_0.05_)_2.00_Si_4.01_O_11_(OH)_4_Â·2H_2_O
Raman shift (cm-1)	intensity
90.7474	0
94.1222	35.518
97.4971	25.7197
100.872	2.06329
104.247	1.69247
107.621	16.8793
110.996	35.7287
114.371	62.3854
117.746	45.9899
121.121	8.06866
124.496	3.20364
127.87	3.85956
131.245	1.61649
134.62	8.48123
137.995	11.1924
141.37	5.86215
144.744	3.13794
148.119	7.64603
151.494	9.30011
154.869	8.34952
158.244	37.9281
161.619	82.7197
164.993	141.003
168.368	217.515
171.743	314.291
175.118	424.889
178.493	503.493
181.868	497.387
185.242	420.963
188.617	334.985
191.992	261.75
195.367	212.697
198.742	187.805
202.116	178.951
205.491	177.692
208.866	194.932
212.241	233.737
215.616	283.137
218.99	316.674
222.365	304.06
225.74	255.247
229.115	218.213
232.49	194.557
235.865	157.879
239.239	108.901
242.614	73.2321
245.989	78.6242
249.364	135.286
252.739	228.597
256.113	285.834
259.488	268.719
262.863	190.227
266.238	122.891
269.613	75.2483
272.988	49.8895
276.362	49.6254
279.737	72.661
283.112	92.6425
286.487	104.013
289.862	97.721
293.236	77.5429
296.611	55.1238
299.986	37.2204
303.361	21.4688
306.736	9.61789
310.111	0.887573
313.485	8.69391
316.86	17.565
320.235	20.105
323.61	14.5752
326.985	4.26526
330.359	15.7133
333.734	40.4467
337.109	79.956
340.484	130.122
343.859	192.536
347.233	261.568
350.608	323.008
353.983	370.25
357.358	400.18
360.733	422.081
364.108	425.61
367.482	412.573
370.857	379.057
374.232	348.901
377.607	326.932
380.982	296.206
384.356	249.231
387.731	198.363
391.106	158.236
394.481	137.714
397.856	142.406
401.231	161.227
404.605	187.742
407.98	214.621
411.355	224.33
414.73	205.748
418.105	166.616
421.479	122.697
424.854	101.85
428.229	104.969
431.604	112.691
434.979	112.42
438.354	92.272
441.728	67.907
445.103	40.0515
448.478	16.5102
451.853	0.091858
455.228	2.3753
458.603	8.62097
461.977	32.859
465.352	74.2369
468.727	133.315
472.102	195.607
475.477	232.401
478.851	235.679
482.226	204.186
485.601	159.956
488.976	121.531
492.351	88.4012
495.726	73.3419
499.1	69.0726
502.475	75.942
505.85	76.7928
509.225	75.8172
512.6	64.335
515.974	49.752
519.349	28.3489
522.724	8.97702
526.099	9.50558
529.474	15.9763
532.848	14.8256
536.223	4.82513
539.598	15.8918
542.973	47.187
546.348	94.3963
549.722	158.702
553.097	244.69
556.472	359.535
559.847	504.043
563.222	669.576
566.597	828.424
569.971	925.789
573.346	883.064
576.721	707.794
580.096	510.97
583.471	358.037
586.846	251.336
590.22	172.683
593.595	115.398
596.97	82.1052
600.345	59.1763
603.72	46.9865
607.094	39.4008
610.469	37.3807
613.844	43.7659
617.219	61.4034
620.594	80.5023
623.968	113.769
627.343	158.313
630.718	208.285
634.093	255.477
637.468	287.532
640.843	282.518
644.217	245.287
647.592	197.785
650.967	146.437
654.342	104.689
657.717	70.8815
661.091	48.0803
664.466	32.5495
667.841	19.7
671.216	10.6407
674.591	4.81711
677.966	2.55258
681.34	0.170715
684.715	0.765106
688.09	2.25085
691.465	2.57089
694.84	3.11822
698.215	2.81287
701.589	0.005402
704.964	3.36722
708.339	9.51675
711.714	15.0235
715.089	22.1055
718.463	31.658
721.838	39.6784
725.213	46.6683
728.588	49.2523
731.963	41.162
735.337	30.7346
738.712	22.676
742.087	19.1294
745.462	13.9381
748.837	13.8637
752.212	10.5321
755.586	9.23532
758.961	6.09384
762.336	6.72876
765.711	5.22806
769.086	3.85776
772.46	5.55985
775.835	5.53064
779.21	4.08707
782.585	3.71616
785.96	7.15448
789.335	10.3053
792.709	11.9995
796.084	13.5278
799.459	12.6331
802.834	13.4521
806.209	13.066
809.583	10.8544
812.958	8.6174
816.333	8.37115
819.708	7.78445
823.083	5.03601
826.457	4.80536
829.832	4.18265
833.207	2.21945
836.582	2.69238
839.957	0.164703
843.332	2.1831
846.706	4.36301
850.081	3.4455
853.456	4.76636
856.831	1.30923
860.206	0.848236
863.581	1.91986
866.955	3.10455
870.33	1.43506
873.705	0.548706
877.08	0.960175
880.455	4.98517
883.829	9.79657
887.204	19.759
890.579	37.7604
893.954	65.5219
897.329	105.371
900.703	160.396
904.078	224.899
907.453	283.706
910.828	339.499
914.203	411.448
917.578	506.827
920.952	597.963
924.327	625.001
927.702	574.537
931.077	507.149
934.452	460.016
937.827	415.265
941.201	335.624
944.576	233.875
947.951	156.089
951.326	103.189
954.701	70.5229
958.075	51.3205
961.45	44.395
964.825	43.2347
968.2	44.1227
971.575	44.9505
974.949	48.6924
978.324	52.659
981.699	47.6559
985.074	39.1497
988.449	23.0541
991.823	13.543
995.198	5.29208
998.573	3.61972
1001.95	7.69403
1005.32	12.0859
1008.7	20.2144
1012.07	30.5486
1015.45	40.2587
1018.82	49.1737
1022.2	58.0743
1025.57	58.6687
1028.95	49.666
1032.32	33.5941
1035.7	15.8188
1039.07	5.19998
1042.45	0.278137
1045.82	1.3855
1049.19	4.15454
1052.57	2.59998
1055.94	3.06421
1059.32	2.85544
1062.69	0.533051
1066.07	2.53592
1069.44	9.52969
1072.82	9.32709
1076.19	11.0714
1079.57	15.4352
1082.94	20.4437
1086.32	24.3945
1089.69	27.5505
1093.07	29.9943
1096.44	30.7109
1099.82	31.2248
1103.19	28.2199
1106.57	28.1099
1109.94	26.2109
1113.32	23.7965
1116.69	15.2464
1120.07	11.9196
1123.44	9.48071
1126.82	8.64371
1130.19	8.99081
1133.57	7.11789
1136.94	8.43213
1140.32	7.28095
1143.69	9.33164
1147.07	9.1069
1150.44	7.54965
1153.82	7.93524
1157.19	8.27545
1160.56	7.1926
1163.94	3.78494
1167.31	2.68765
1170.69	2.3057
1174.06	2.31277
1177.44	2.72098
1180.81	5.90655
1184.19	7.66095
1187.56	6.98297
1190.94	4.07648
1194.31	1.68829
1197.69	0.318634
1201.06	0.374207
1204.44	0.130432
1207.81	0.363525
1211.19	0.941467
1214.56	1.91003
1217.94	3.23846
1221.31	4.85831
1224.69	4.46551
1228.06	3.53696
1231.44	5.06046
1234.81	3.34894
1238.18	1.0256
1241.56	2.10443
1244.93	2.8999
1248.31	4.97693
1251.68	4.87
1255.06	3.78909
1258.43	4.87256
1261.81	2.53372
1265.18	0.983154
1268.56	1.03903
1271.93	1.54858
1275.31	0.005798
1278.68	0.259644
1282.06	1.04843
1285.43	2.27426
1288.81	1.24789
1292.18	1.48877
1295.56	2.25137
1298.93	0.879303
