Measurement: Raman, 532 nm, unoriented, Raman Data Processed
Mineral: Ruizite
Rruff sample: R060930
Ideal chemistry: Ca_2_Mn^3+^_2_Si_4_O_11_(OH)_4_2H_2_O
Locality: Christmas mine, Gila County, Arizona, USA
Source: Bob Jenkins
Description: Orange, massive and radial acicular crystals
Raman shift (cm-1)	intensity
118.228	0
121.603	3.34299
124.978	5.90283
128.352	2.23856
131.727	1.03708
135.102	2.10706
138.477	0.11499
141.852	0.887024
145.227	2.88681
148.601	5.68561
151.976	12.3516
155.351	23.1884
158.726	36.8924
162.101	60.7514
165.476	94.0891
168.85	133.222
172.225	177.617
175.6	228.845
178.975	263.486
182.35	254.726
185.724	205.817
189.099	153.263
192.474	118.455
195.849	102.532
199.224	99.888
202.599	107.101
205.973	122.425
209.348	149.133
212.723	186.834
216.098	234.639
219.473	257.971
222.847	249.471
226.222	211.45
229.597	187.073
232.972	174.808
236.347	145.675
239.721	107.007
243.096	90.5384
246.471	104.393
249.846	147.663
253.221	206.275
256.596	231.935
259.97	200.392
263.345	134.369
266.72	88.4426
270.095	55.0535
273.47	36.2634
276.844	28.351
280.219	25.6089
283.594	18.7231
286.969	10.4139
290.344	6.0896
293.719	0.390686
297.093	2.37863
300.468	4.71237
303.843	3.75455
307.218	0.992798
310.593	0.634888
313.967	3.24204
317.342	4.61942
320.717	5.98981
324.092	2.6076
327.467	0.110565
330.842	2.73581
334.216	7.09692
337.591	13.3888
340.966	21.8146
344.341	28.2092
347.716	37.2198
351.091	46.7812
354.465	56.627
357.84	69.9521
361.215	84.3433
364.59	94.5608
367.964	104.77
371.339	106.308
374.714	106.923
378.089	111.453
381.464	111.427
384.839	102.544
388.213	88.4289
391.588	77.4216
394.963	67.9994
398.338	62.0315
401.713	59.4321
405.087	58.8774
408.462	53.8409
411.837	49.7531
415.212	46.4011
418.587	41.3223
421.962	41.5868
425.336	43.8059
428.711	49.8772
432.086	56.9438
435.461	61.1384
438.836	60.4027
442.211	55.343
445.585	43.6364
448.96	32.8531
452.335	24.6286
455.71	17.1727
459.085	20.4352
462.459	23.538
465.834	34.5906
469.209	48.7156
472.584	63.9368
475.959	66.1218
479.334	56.3367
482.708	44.192
486.083	28.3238
489.458	14.8503
492.833	5.85181
496.208	0.966187
499.582	1.09024
502.957	1.23202
506.332	0.079285
509.707	0.509277
513.082	1.89651
516.457	1.87198
519.831	0.729187
523.206	1.56696
526.581	4.55331
529.956	2.2016
533.331	2.67572
536.705	2.9823
540.08	8.89575
543.455	15.1479
546.83	25.2623
550.205	40.764
553.58	56.488
556.954	79.1872
560.329	112.606
563.704	151.074
567.079	188.677
570.454	214.742
573.828	206.269
577.203	162.718
580.578	115.965
583.953	79.5747
587.328	57.2165
590.702	41.2568
594.077	31.5958
597.452	25.5167
600.827	23.1224
604.202	19.0802
607.577	17.4929
610.951	16.7535
614.326	14.3777
617.701	15.6796
621.076	16.9668
624.451	22.5461
627.825	27.6551
631.2	31.9059
634.575	36.8886
637.95	42.0088
641.325	41.628
644.699	34.3968
648.074	27.8869
651.449	19.6213
654.824	14.4306
658.199	8.83209
661.574	4.83261
664.948	1.89136
668.323	0.309845
671.698	0.148346
675.073	0.081421
678.448	1.87741
681.822	0.445862
685.197	1.79648
688.572	2.17828
691.947	0.734711
695.322	0.829041
698.697	1.74194
702.071	2.96622
705.446	2.42395
708.821	4.69119
712.196	6.53336
715.571	8.26889
718.946	11.4464
722.32	12.4469
725.695	15.3431
729.07	14.4367
732.445	13.6873
735.82	11.5177
739.194	11.0707
742.569	9.02389
745.944	10.1915
749.319	10.9901
752.694	10.4167
756.068	6.79996
759.443	5.63785
762.818	4.78445
766.193	6.40585
769.568	3.40845
772.943	4.1135
776.317	0.365295
779.692	3.07153
783.067	1.18396
786.442	2.97937
789.817	0.644958
793.192	0.471619
796.566	0.476074
799.941	0.4487
803.316	0.003296
806.691	0.57373
810.066	2.23965
813.44	0.970154
816.815	2.1525
820.19	4.64557
823.565	3.44159
826.94	1.17023
830.314	1.69952
833.689	0.610931
837.064	0.925995
840.439	0.079193
843.814	4.06976
847.188	3.08325
850.563	2.54672
853.938	5.21304
857.313	6.8078
860.688	8.4986
864.063	6.80826
867.437	4.41705
870.812	2.30429
874.187	2.0029
877.562	0.408447
880.937	0.565521
884.312	4.15405
887.686	7.30719
891.061	13.2715
894.436	23.3917
897.811	32.4985
901.186	48.6199
904.56	74.4371
907.935	105.044
911.31	147.109
914.685	208.422
918.06	280.314
921.434	331.373
924.809	299.627
928.184	214.064
931.559	140.376
934.934	97.5908
938.309	74.0603
941.683	53.6486
945.058	39.1759
948.433	28.0207
951.808	20.6514
955.183	16.8707
958.558	14.0156
961.932	14.7604
965.307	21.3609
968.682	25.6738
972.057	28.6248
975.432	26.9242
978.806	22.1771
982.181	15.3469
985.556	11.2369
988.931	5.28522
992.306	1.98352
995.681	0.056152
999.055	0.086853
1002.43	2.36713
1005.8	0.298187
1009.18	0.597626
1012.55	1.74411
1015.93	1.23532
1019.3	1.62427
1022.68	0.707184
1026.05	2.35629
1029.43	2.88846
1032.8	1.75647
1036.18	0.543488
1039.55	1.93887
1042.93	3.49716
1046.3	2.52039
1049.68	3.64426
1053.05	1.9671
1056.43	3.55551
1059.8	6.95041
1063.18	9.40533
1066.55	11.1143
1069.93	9.82501
1073.3	9.10233
1076.68	12.8314
1080.05	13.1504
1083.43	14.2719
1086.8	12.9622
1090.17	10.1794
1093.55	11.5661
1096.92	8.41361
1100.3	10.6505
1103.67	5.56171
1107.05	2.91119
1110.42	2.6048
1113.8	3.35349
1117.17	2.91101
1120.55	3.8334
1123.92	1.03519
1127.3	2.92557
1130.67	0.360199
1134.05	0.947144
1137.42	2.02322
1140.8	0.402405
1144.17	1.92596
1147.55	1.20142
1150.92	0.712219
1154.3	3.67352
1157.67	3.02679
1161.05	0.770081
1164.42	3.40408
1167.8	2.69046
1171.17	4.08704
1174.55	4.05743
1177.92	2.55594
1181.3	1.91702
1184.67	5.49207
1188.05	6.33591
1191.42	3.41452
1194.8	3.21991
1198.17	4.46063
1201.54	0.085419
1204.92	0.691681
1208.29	0.311554
1211.67	1.92435
1215.04	1.14319
1218.42	1.41385
1221.79	0.716217
1225.17	1.87396
1228.54	0.170135
1231.92	1.22458
1235.29	0.110748
1238.67	1.69992
1242.04	1.64325
1245.42	3.53085
1248.79	2.52551
1252.17	2.90195
1255.54	4.22815
1258.92	6.45392
1262.29	5.44467
1265.67	3.94574
1269.04	3.46048
1272.42	2.04675
1275.79	2.10825
1279.16	1.55423
1282.54	2.5195
1285.91	0.981384
1289.29	2.65494
1292.66	2.5701
1296.04	0.65863
1299.41	2.59167
