Measurement: Raman, 532 nm, unoriented, Raman Data Processed
Mineral: Ruizite
Rruff sample: R140132
Ideal chemistry: Ca_2_Mn^3+^_2_Si_4_O_11_(OH)_4_2H_2_O
Locality: Cornwall, Lebanon County, Pennsylvania, USA
Source: Marcus Origlieri
Raman shift (cm-1)	intensity
91.7117	0
95.0865	18.1274
98.4613	6.24655
101.836	1.67471
105.211	6.15994
108.586	17.7925
111.961	25.9049
115.335	34.7467
118.71	20.701
122.085	10.5162
125.46	4.90247
128.835	4.45676
132.209	0.977539
135.584	1.3945
138.959	1.04114
142.334	1.00473
145.709	0.083832
149.084	2.12305
152.458	9.61932
155.833	12.5885
159.208	20.0434
162.583	31.6043
165.958	48.8217
169.333	66.2141
172.707	87.0808
176.082	107.696
179.457	114.571
182.832	103.753
186.207	85.9879
189.581	72.4686
192.956	69.193
196.331	73.9887
199.706	83.3999
203.081	98.1037
206.455	119.361
209.83	144.659
213.205	172.837
216.58	193.723
219.955	196.911
223.329	171.021
226.704	132.119
230.079	107.71
233.454	88.0857
236.829	64.7
240.204	45.7453
243.578	40.9553
246.953	50.3976
250.328	72.9336
253.703	96.379
257.078	99.9305
260.452	78.8593
263.827	51.2843
267.202	30.0686
270.577	15.0264
273.952	7.24072
277.327	2.35489
280.701	0.795197
284.076	0.171539
287.451	0.736816
290.826	0.551666
294.201	0.925354
297.575	0.035217
300.95	1.31665
304.325	2.22205
307.7	2.44333
311.075	1.28171
314.45	1.19809
317.824	1.43414
321.199	0.962036
324.574	0.865082
327.949	1.49655
331.324	4.85248
334.699	5.98196
338.073	11.4092
341.448	15.0589
344.823	21.6743
348.198	27.3006
351.573	34.2446
354.947	43.8634
358.322	52.7443
361.697	61.1394
365.072	72.1327
368.447	79.4748
371.822	86.2781
375.196	96.6844
378.571	101.001
381.946	96.1192
385.321	90.4948
388.696	77.9998
392.07	67.481
395.445	66.4771
398.82	73.743
402.195	83.4728
405.57	95.3961
408.945	104.745
412.319	105.996
415.694	94.9264
419.069	74.9821
422.444	58.6488
425.818	46.6729
429.193	43.3179
432.568	42.972
435.943	37.398
439.318	36.0021
442.693	28.5891
446.067	17.6109
449.442	7.76914
452.817	2.5177
456.192	2.09811
459.567	0.080322
462.942	3.51697
466.316	15.9467
469.691	28.5395
473.066	40.1278
476.441	47.3365
479.816	49.1245
483.19	46.767
486.565	44.2093
489.94	38.7322
493.315	29.7433
496.69	22.7812
500.065	18.5043
503.439	17.0173
506.814	14.1738
510.189	13.8823
513.564	9.98068
516.939	8.88406
520.313	3.72833
523.688	0.546936
527.063	1.81516
530.438	4.32098
533.813	3.46695
537.188	0.697021
540.562	2.16092
543.937	6.83597
547.312	16.0502
550.687	26.1597
554.062	38.5767
557.436	54.7112
560.811	75.9412
564.186	100.897
567.561	124.42
570.936	137.988
574.311	134.616
577.685	118.787
581.06	100.113
584.435	82.1091
587.81	62.3687
591.185	45.8782
594.559	28.1585
597.934	18.6129
601.309	12.4791
604.684	8.94376
608.059	5.93393
611.433	7.00726
614.808	6.84763
618.183	7.9137
621.558	12.5913
624.933	19.7051
628.308	25.3853
631.682	35.2322
635.057	40.46
638.432	45.7911
641.807	42.1841
645.182	33.7702
648.557	25.9225
651.931	18.2331
655.306	13.7302
658.681	6.28223
662.056	2.94269
665.431	2.89871
668.805	1.604
672.18	2.37649
675.555	1.18872
678.93	1.74359
682.305	1.28073
685.679	0.464722
689.054	1.07391
692.429	0.418365
695.804	0.068359
699.179	1.64645
702.553	0.328156
705.928	0.719177
709.303	1.90768
712.678	3.38855
716.053	4.5531
719.428	5.6926
722.802	10.1058
726.177	10.4465
729.552	11.7607
732.927	9.21503
736.302	7.10309
739.677	5.96075
743.051	0.563202
746.426	1.20874
749.801	4.40369
753.176	1.41336
756.551	3.44299
759.925	1.47772
763.3	2.58197
766.675	0.668121
770.05	2.18198
773.425	2.27493
776.799	0.982849
780.174	0.848694
783.549	2.30771
786.924	0.279694
790.299	1.50067
793.674	2.22659
797.048	3.4407
800.423	4.20035
803.798	3.62286
807.173	6.6106
810.548	3.84869
813.923	3.25397
817.297	3.05359
820.672	4.15494
824.047	2.46756
827.422	1.65613
830.797	3.37732
834.171	1.20422
837.546	0.030487
840.921	1.75906
844.296	0.965546
847.671	1.33997
851.045	0.022827
854.42	0.783691
857.795	1.62787
861.17	1.95389
864.545	0.128418
867.92	1.01013
871.294	1.34509
874.669	0.904144
878.044	0.743835
881.419	2.98111
884.794	4.33225
888.168	9.65701
891.543	14.1246
894.918	22.1059
898.293	31.7256
901.668	48.4607
905.043	76.2499
908.417	114.889
911.792	167.028
915.167	227.126
918.542	280.353
921.917	297.461
925.291	257.379
928.666	200.221
932.041	159.675
935.416	137.333
938.791	115.665
942.165	83.6193
945.54	58.2781
948.915	40.2366
952.29	29.0541
955.665	21.587
959.04	21.0111
962.414	22.5102
965.789	25.4442
969.164	30.1666
972.539	30.2847
975.914	29.1182
979.288	22.5318
982.663	15.7695
986.038	11.5684
989.413	7.05557
992.788	3.41043
996.163	0.9263
999.537	1.09616
1002.91	0.232574
1006.29	4.00809
1009.66	3.00696
1013.04	1.90237
1016.41	1.46149
1019.79	5.74219
1023.16	6.10288
1026.54	7.22815
1029.91	4.23236
1033.29	2.01276
1036.66	1.65768
1040.04	0.164459
1043.41	1.15741
1046.79	0.600677
1050.16	0.619598
1053.53	1.05423
1056.91	1.38663
1060.28	1.43652
1063.66	0.397491
1067.03	2.13946
1070.41	4.12711
1073.78	4.0459
1077.16	6.58722
1080.53	7.48459
1083.91	9.29596
1087.28	11.0194
1090.66	6.96967
1094.03	6.86136
1097.41	7.04837
1100.78	7.61057
1104.16	6.62439
1107.53	7.97708
1110.91	10.5146
1114.28	7.00366
1117.66	4.63379
1121.03	2.29095
1124.41	1.50644
1127.78	3.54627
1131.15	0.037354
1134.53	1.44125
1137.9	1.74478
1141.28	0.454803
1144.65	3.07184
1148.03	0.573456
1151.4	0.443024
1154.78	3.6387
1158.15	2.68546
1161.53	3.0881
1164.9	2.75934
1168.28	0.674866
1171.65	2.11417
1175.03	2.82715
1178.4	3.36142
1181.78	3.24686
1185.15	6.8096
1188.53	4.09491
1191.9	2.98877
1195.28	0.470093
1198.65	0.322052
1202.03	0.417267
1205.4	2.19739
1208.78	1.06619
1212.15	1.87625
1215.53	2.72635
1218.9	4.21567
1222.28	3.19199
1225.65	3.34699
1229.03	2.52005
1232.4	2.59451
1235.78	3.09958
1239.15	3.38837
1242.52	2.34323
1245.9	3.74472
1249.27	4.74023
1252.65	6.05865
1256.02	2.97055
1259.4	4.3035
1262.77	2.39371
1266.15	0.728577
1269.52	2.60998
1272.9	0.783051
1276.27	1.04761
1279.65	1.30908
1283.02	0.852234
1286.4	0.978729
1289.77	3.1315
1293.15	0.446045
1296.52	0.688904
1299.9	2.99435
