Measurement: Raman, 780 nm, unoriented, Raman Data Processed
Mineral: Ruizite
Rruff sample: R130787
Ideal chemistry: Ca_2_Mn^3+^_2_Si_4_O_11_(OH)_4_2H_2_O
Locality: Wessels mine, Hotazel, Kalahari Manganese Field, Northern Cape Province, South Africa
Source: Marcus Origlieri
Description: Brown prismatic crystals in radiating groups, with a globular gyrolite-like mineral, on and in hydroxyapophyllite-(K) with minor inesite.
Measured chemistry: (Ca_1.90_Sr_0.06_Mg_0.04_)_2.00_(Mn^3+^_1.88_Fe^3+^_0.07_Al_0.05_)_2.00_Si_4.01_O_11_(OH)_4_Â·2H_2_O
Raman shift (cm-1)	intensity
91.5599	0
94.9347	39.7426
98.3096	15.132
101.684	1.22943
105.059	1.78662
108.434	13.3378
111.809	30.0017
115.184	42.8336
118.558	16.9626
121.933	1.36009
125.308	4.10629
128.683	2.20264
132.058	10.2286
135.433	16.8711
138.807	21.3655
142.182	13.9269
145.557	3.61993
148.932	4.22447
152.307	6.57062
155.681	0.330414
159.056	13.2661
162.431	29.5913
165.806	62.7113
169.181	104.287
172.555	161.843
175.93	226.854
179.305	259.575
182.68	237.9
186.055	182.897
189.43	135.834
192.804	109.715
196.179	91.878
199.554	76.3257
202.929	63.2036
206.304	59.3642
209.678	59.2351
213.053	69.7061
216.428	83.9587
219.803	93.2909
223.178	90.2576
226.553	75.8601
229.927	70.4921
233.302	63.205
236.677	46.6001
240.052	22.5945
243.427	11.7836
246.801	30.9713
250.176	75.1265
253.551	123.22
256.926	142.782
260.301	114.648
263.675	71.9728
267.05	39.7018
270.425	25.7648
273.8	22.8994
277.175	38.9324
280.55	65.5959
283.924	95.7906
287.299	113.425
290.674	111.077
294.049	87.0292
297.424	61.3679
300.798	41.3768
304.173	25.5356
307.548	12.3509
310.923	1.5809
314.298	4.21654
317.673	9.14665
321.047	8.72212
324.422	6.93349
327.797	2.09287
331.172	6.30707
334.547	17.1408
337.921	37.0946
341.296	58.8551
344.671	86.6787
348.046	116.395
351.421	133.527
354.796	138.5
358.17	137.291
361.545	132.706
364.92	132.299
368.295	126.315
371.67	113.133
375.044	102.547
378.419	93.375
381.794	79.3937
385.169	57.8861
388.544	33.965
391.918	19.5831
395.293	10.2625
398.668	10.0766
402.043	20.0952
405.418	38.8817
408.793	57.9623
412.167	70.5807
415.542	68.517
418.917	53.1791
422.292	39.4445
425.667	37.491
429.041	49.2309
432.416	63.4842
435.791	68.5057
439.166	62.2563
442.541	53.6171
445.915	42.8246
449.29	29.6806
452.665	17.8323
456.04	14.8908
459.415	16.0066
462.789	30.4603
466.164	57.301
469.539	93.3555
472.914	132.343
476.289	149.602
479.664	144.907
483.038	120.326
486.413	87.3499
489.788	58.8807
493.163	37.5653
496.538	24.3247
499.913	18.0146
503.287	17.0009
506.662	15.0245
510.037	12.4604
513.412	13.7742
516.787	9.74658
520.161	5.11934
523.536	1.24927
526.911	7.37033
530.286	7.02977
533.661	6.17567
537.035	1.80897
540.41	6.74736
543.785	17.2574
547.16	33.2582
550.535	55.9882
553.909	88.5518
557.284	136.06
560.659	208.126
564.034	295.916
567.409	397.435
570.784	466.829
574.158	442.56
577.533	340.045
580.908	240.534
584.283	165.177
587.658	111.644
591.033	76.7954
594.407	54.5084
597.782	37.897
601.157	30.393
604.532	22.1113
607.907	15.2365
611.281	11.7129
614.656	11.5904
618.031	11.8728
621.406	16.1926
624.781	27.3907
628.155	40.1278
631.53	58.5452
634.905	79.2446
638.28	90.5567
641.655	90.9751
645.029	80.3165
648.404	64.2661
651.779	45.5843
655.154	32.7267
658.529	23.2601
661.904	15.159
665.278	9.39241
668.653	6.7992
672.028	4.90981
675.403	2.23321
678.778	0.148071
682.153	0.1791
685.527	0.579689
688.902	0.918449
692.277	0.747757
695.652	0.26004
699.027	0.109154
702.401	0.106941
705.776	2.61188
709.151	5.18753
712.526	7.77006
715.901	10.6381
719.275	15.7662
722.65	19.839
726.025	22.0873
729.4	19.4851
732.775	13.797
736.149	8.06425
739.524	5.26576
742.899	4.55325
746.274	2.84734
749.649	1.78553
753.024	2.04672
756.398	1.42234
759.773	0.208946
763.148	0.859985
766.523	1.44182
769.898	0.611916
773.273	1.76738
776.647	1.52476
780.022	1.64911
783.397	2.88794
786.772	1.86199
790.146	3.35944
793.521	3.50318
796.896	4.4585
800.271	4.8864
803.646	3.84161
807.021	3.50191
810.395	2.95203
813.77	1.97405
817.145	2.62624
820.52	2.52132
823.895	1.40489
827.269	1.1297
830.644	0.755409
834.019	0.720306
837.394	0.248535
840.769	0.772034
844.144	0.728493
847.518	0.810555
850.893	0.21138
854.268	0.991829
857.643	0.996155
861.018	0.760368
864.393	2.51756
867.767	3.01687
871.142	2.10219
874.517	0.566536
877.892	0.592606
881.266	0.690819
884.641	0.560623
888.016	0.267105
891.391	3.1441
894.766	6.3399
898.141	12.9897
901.515	23.3354
904.89	35.2823
908.265	50.8349
911.64	64.3796
915.015	83.5572
918.389	109.091
921.764	130.657
925.139	137.673
928.514	129.992
931.889	123.228
935.264	121.424
938.638	112.891
942.013	89.4263
945.388	60.7598
948.763	37.7413
952.138	25.5099
955.512	18.2387
958.887	15.7854
962.262	14.3459
965.637	13.7036
969.012	10.7076
972.386	9.86581
975.761	9.58333
979.136	9.9109
982.511	8.86145
985.886	6.55053
989.261	4.69644
992.635	2.78464
996.01	3.41843
999.385	3.42242
1002.76	4.5839
1006.13	7.19167
1009.51	9.70486
1012.88	12.4858
1016.26	16.4984
1019.63	19.2607
1023.01	20.5351
1026.38	19.8608
1029.76	15.8413
1033.13	7.45711
1036.51	4.08288
1039.88	1.18515
1043.26	0.001663
1046.63	1.23013
1050.01	1.58287
1053.38	0.502079
1056.76	0.315659
1060.13	0.269333
1063.51	0.682293
1066.88	0.614117
1070.26	0.80798
1073.63	1.28459
1077.01	1.57683
1080.38	1.68093
1083.76	3.55649
1087.13	3.72337
1090.51	4.18149
1093.88	4.72001
1097.26	4.91721
1100.63	5.06562
1104	5.39618
1107.38	5.64046
1110.75	4.51979
1114.13	3.62182
1117.5	3.18874
1120.88	3.59596
1124.25	3.30718
1127.63	2.69097
1131	3.38683
1134.38	2.46171
1137.75	2.54656
1141.13	3.04995
1144.5	2.3868
1147.88	2.65024
1151.25	2.43004
1154.63	2.32774
1158	2.26024
1161.38	2.9278
1164.75	1.05899
1168.13	1.44097
1171.5	1.36088
1174.88	1.2274
1178.25	0.654648
1181.62	1.63181
1185	1.91504
1188.38	0.968983
1191.75	1.69115
1195.12	0.736477
1198.5	1.04546
1201.87	0.018188
1205.25	0.898739
1208.62	0.079651
1212	0.128437
1215.37	0.797909
1218.75	0.622978
1222.12	0.188854
1225.5	1.56586
1228.87	0.749454
1232.25	0.987511
1235.62	0.726265
1239	1.78823
1242.37	0.346569
1245.75	0.606136
1249.12	1.08172
1252.5	1.1161
1255.87	0.822697
1259.25	1.45795
1262.62	0.31731
1265.99	0.721504
1269.37	1.15641
1272.74	1.12109
1276.12	0.320812
1279.49	0.201855
1282.87	0.006454
