Measurement: Raman, 532 nm, unoriented, Raman Data Processed
Mineral: Russellite
Rruff sample: R060860
Ideal chemistry: Bi_2_WO_6_
Locality: Castle-an-Dimas mine, Saint Columb Major, Cornwall, England
Source: Michael Scott
Description: Brownish-yellow granular
Measured chemistry: lighter phase: (Bi_1.94_Fe^3+^_0.06_)_Σ=2_W_1.00_O_6_; darker phase: (Bi_1.95_Fe^3+^_0.05_)_Σ=2_W_1.00_O_6_;
Raman shift (cm-1)	intensity
135.504	0
138.879	515.441
142.254	1624.71
145.629	2596.81
149.004	3828.83
152.379	4303.27
155.753	4823.1
159.128	4434.28
162.503	3301.48
165.878	1934.15
169.252	432.539
172.627	19.0803
176.002	46.3004
179.377	72.8809
182.752	6.44638
186.127	329.523
189.501	698.125
192.876	1061.63
196.251	1264.5
199.626	1567.15
203.001	2156.67
206.375	2621.23
209.75	3061.23
213.125	3350.86
216.5	3649.33
219.875	3983.89
223.25	4011.47
226.624	3794.41
229.999	3788.43
233.374	4009.39
236.749	3891.6
240.124	4635.28
243.498	5392.72
246.873	6365.69
250.248	7006.72
253.623	7181.13
256.998	7269.57
260.373	7344.59
263.747	7693.27
267.122	8089.15
270.497	8551.76
273.872	9553.53
277.247	10955.3
280.621	11996.6
283.996	12717
287.371	13095.3
290.746	14176.7
294.121	15909.7
297.495	17579.1
300.87	19109.6
304.245	18643.7
307.62	15845.4
310.995	11571.2
314.37	8228.29
317.744	6199.02
321.119	4857.39
324.494	4151.78
327.869	3761.59
331.244	3059.79
334.618	2323.79
337.993	1676.57
341.368	996.383
344.743	448.826
348.118	125.541
351.493	81.25
354.867	81.0371
358.242	173.356
361.617	286.801
364.992	302.139
368.366	284.356
371.741	290.772
375.116	78.7949
378.491	49.8516
381.866	56.5898
385.241	57.6484
388.615	461.894
391.99	437.246
395.365	710.477
398.74	1034.19
402.115	1272.23
405.49	1723.44
408.864	2147.55
412.239	2534.39
415.614	2556.39
418.989	2621.07
422.364	2153.9
425.738	1780.54
429.113	1417.81
432.488	1311.47
435.863	1001.57
439.238	838.367
442.612	678.305
445.987	732.801
449.362	554.055
452.737	544.709
456.112	414.688
459.486	265.812
462.861	279.215
466.236	413.631
469.611	368.947
472.986	306.734
476.361	335.856
479.735	203.006
483.11	189.519
486.485	369.978
489.86	266.82
493.235	100.809
496.61	54.7598
499.984	81.7852
503.359	167.639
506.734	312.527
510.109	340.787
513.484	344.68
516.858	477.432
520.233	514.936
523.608	509.568
526.983	508.088
530.358	307.947
533.732	344.627
537.107	111.9
540.482	140.772
543.857	183.465
547.232	318.529
550.606	233.525
553.981	157.051
557.356	226.947
560.731	235.129
564.106	254.496
567.481	332.732
570.855	378.32
574.23	509.527
577.605	560.559
580.98	500.418
584.355	837.115
587.729	928.094
591.104	1032.97
594.479	941.271
597.854	938.658
601.229	910.721
604.604	893.883
607.978	938.428
611.353	768.123
614.728	577.106
618.103	556.859
621.477	597.809
624.852	561.963
628.227	342.162
631.602	84.5449
634.977	68.3984
638.352	19.5
641.726	153.842
645.101	144.676
648.476	51.0938
651.851	46.1016
655.226	67.8203
658.601	8.58984
661.975	106.965
665.35	299.793
668.725	607.168
672.1	1056.9
675.475	1488.57
678.849	1970.75
682.224	2831.84
685.599	3853.56
688.974	4715.47
692.349	5343.94
695.723	6210.16
699.098	6582.1
702.473	6577.64
705.848	6390.89
709.223	6427.28
712.597	6298.29
715.972	6203.98
719.347	6124.44
722.722	5739.21
726.097	4696.39
729.472	3537.67
732.846	2343.27
736.221	1368.71
739.596	597.93
742.971	98.0352
746.346	97.8555
749.721	18.1953
753.095	121.047
756.47	428.336
759.845	1114.36
763.22	2013.17
766.595	3538.53
769.969	5266.12
773.344	7625.43
776.719	9907.25
780.094	12883.6
783.469	16101.5
786.843	18940.8
790.218	20971.5
793.593	21999.7
796.968	21733
800.343	19959
803.717	18278.7
807.092	16580.8
810.467	15393.8
813.842	14554.6
817.217	13277.7
820.592	11902.9
823.966	10591.5
827.341	8983.03
830.716	7657.38
834.091	6096.38
837.466	4685.87
840.841	3543.21
844.215	2599.45
847.59	1798.9
850.965	1085.48
854.34	486.742
857.715	477.617
861.089	447.242
864.464	69.0781
867.839	31.0859
871.214	175.144
874.589	186.164
877.963	234.879
881.338	29.2852
884.713	44.0273
888.088	29.4492
891.463	207.641
894.837	373.613
898.212	328.727
901.587	245.316
904.962	242.984
908.337	247.453
911.712	312.141
915.086	409.051
918.461	421.992
921.836	533.57
925.211	778.547
928.586	798.465
931.96	648.742
935.335	793.367
938.71	639.231
942.085	451.992
945.46	353.481
948.835	347.848
952.209	408.356
955.584	437.055
958.959	628.699
962.334	471.637
965.709	506.938
969.083	400.777
972.458	396.773
975.833	422.875
979.208	458.203
982.583	408.449
985.957	311.688
989.332	341.332
992.707	299.008
996.082	251.199
999.457	263.164
1002.83	206.59
1006.21	228.898
1009.58	111.199
1012.96	142.082
1016.33	53.8164
1019.71	218.227
1023.08	161.344
1026.45	332.902
1029.83	406.008
1033.2	125.902
1036.58	280.664
1039.95	229.211
1043.33	215.59
1046.7	51.793
1050.08	170.836
1053.45	153.504
1056.83	290.16
1060.2	159.828
1063.58	81.8438
1066.95	26.6445
1070.33	0.917969
1073.7	149.348
1077.08	169.723
1080.45	102.125
1083.83	227.363
1087.2	189.613
1090.58	183.758
1093.95	251.047
1097.33	358.242
1100.7	414.746
1104.08	344.195
1107.45	378.051
1110.83	371.055
1114.2	126.867
1117.58	229.519
1120.95	144.688
1124.33	156.641
1127.7	352.672
1131.07	395.762
1134.45	539.113
1137.82	287.492
1141.2	179.91
1144.57	172.125
1147.95	105.762
1151.32	278.836
1154.7	300.727
1158.07	331.828
1161.45	260.879
1164.82	194.856
1168.2	117.309
1171.57	171.453
1174.95	193.434
1178.32	244.539
1181.7	262.66
1185.07	442.746
1188.45	188.543
1191.82	168.356
1195.2	267.953
1198.57	209.871
1201.94	140.836
1205.32	92.3164
1208.69	143.781
1212.07	347.539
1215.44	143.301
1218.82	193.086
1222.19	178.867
1225.57	266.941
1228.94	296.711
1232.32	271.883
1235.69	298.574
1239.07	484.531
1242.44	257.527
1245.82	349.586
1249.19	527.531
1252.57	377.793
1255.94	302.168
1259.32	123.543
1262.69	138.856
1266.07	38.1523
1269.44	136.418
1272.82	382.293
1276.19	428.738
1279.57	189.449
1282.94	194.481
1286.32	66.1641
1289.69	122.188
1293.07	55.4648
