Measurement: Raman, 785 nm, unoriented, Raman Data Processed
Mineral: Russellite
Rruff sample: R060860
Ideal chemistry: Bi_2_WO_6_
Locality: Castle-an-Dimas mine, Saint Columb Major, Cornwall, England
Source: Michael Scott
Description: Brownish-yellow granular
Measured chemistry: lighter phase: (Bi_1.94_Fe^3+^_0.06_)_Σ=2_W_1.00_O_6_; darker phase: (Bi_1.95_Fe^3+^_0.05_)_Σ=2_W_1.00_O_6_;
Raman shift (cm-1)	intensity
176.971	0
179.863	215.144
182.756	75.1914
185.649	114.234
188.542	71.7734
191.434	377.922
194.327	780.191
197.22	1260.48
200.112	1859.68
203.005	2459.64
205.898	2653.42
208.791	2752.14
211.683	2926.29
214.576	3098.04
217.469	3609.43
220.361	3900.41
223.254	3950.69
226.147	3454.15
229.04	2966.98
231.932	2772.64
234.825	2634.41
237.718	2863.25
240.61	2979.16
243.503	3493.19
246.396	4215.43
249.288	5414.87
252.181	6832.82
255.074	8195.03
257.966	8847.9
260.859	8560.06
263.752	7711.59
266.645	6723.59
269.537	6230.1
272.43	6463.85
275.323	7361.19
278.215	8744.71
281.108	9939.48
284.001	9926.02
286.894	8991.86
289.786	8013.66
292.679	7931.27
295.572	9352.44
298.464	12240.5
301.357	16203.8
304.25	19525.2
307.142	19666.6
310.035	15393.5
312.928	10048.5
315.82	6537.22
318.713	4783.74
321.606	4063.52
324.499	4021.9
327.391	4149.08
330.284	3977.96
333.177	3430.93
336.069	2879.89
338.962	2093.85
341.855	1370.89
344.748	1074.67
347.64	762.856
350.533	426.879
353.426	375.539
356.318	74.8711
359.211	134.289
362.104	314.547
364.996	254.031
367.889	175.644
370.782	54.5078
373.675	111.074
376.567	56.7812
379.46	59.3438
382.353	201.859
385.245	205.648
388.138	276.359
391.031	19.6523
393.923	259.207
396.816	667.91
399.709	870.981
402.601	1052.89
405.494	1445.21
408.387	1866.19
411.28	2298.63
414.172	2744.34
417.065	3083.9
419.958	3119.18
422.85	2661.47
425.743	2041.26
428.636	1685.14
431.529	1433.96
434.421	1410.74
437.314	1313.52
440.207	1276.27
443.099	1169.56
445.992	924.307
448.885	784.113
451.777	639.938
454.67	494.647
457.563	464.684
460.455	518.662
463.348	425.598
466.241	387.459
469.134	414.496
472.026	406.074
474.919	266.123
477.812	154.217
480.704	46.1953
483.597	18.4648
486.49	100.928
489.382	208.728
492.275	211.609
495.168	71.5762
498.061	153.41
500.953	53.3613
503.846	117.043
506.739	189.062
509.631	433.357
512.524	378.76
515.417	591.809
518.309	517.627
521.202	731.996
524.095	665.975
526.988	716.607
529.88	514.783
532.773	438.15
535.666	435.303
538.558	485.299
541.451	349.857
544.344	281.457
547.236	234.252
550.129	129.859
553.022	129.565
555.915	264.135
558.807	240.961
561.7	279.01
564.593	229.894
567.485	255.17
570.378	313.207
573.271	69.334
576.163	281.291
579.056	399.264
581.949	484.691
584.842	561.732
587.734	662.451
590.627	701.205
593.52	784.564
596.413	740.508
599.305	856.674
602.198	743.082
605.091	744.736
607.983	702.691
610.876	615.766
613.769	524.789
616.661	472.59
619.554	319.924
622.447	328.785
625.34	294.789
628.232	170.926
631.125	175.344
634.018	120.926
636.91	79.4121
639.803	26.7383
642.696	49.8809
645.588	156.076
648.481	27.5449
651.374	171.607
654.266	138.494
657.159	29.7734
660.052	55.5527
662.945	82.5254
665.837	27.8398
668.73	204.123
671.623	308.869
674.515	745.566
677.408	1091.25
680.301	1543.19
683.193	2006.31
686.086	2702.11
688.979	3506.62
691.872	4353.78
694.764	5246.16
697.657	6029.95
700.55	6372.76
703.442	6100.48
706.335	5736.95
709.228	5466.45
712.12	5332.81
715.013	5275.5
717.906	5657.57
720.799	5782.69
723.691	5541.43
726.584	5003.55
729.477	3904.81
732.369	2656.51
735.262	1771.47
738.155	1033.26
741.048	552.799
743.94	200.107
746.833	5.94336
749.726	65.166
752.618	21.8633
755.511	37.1445
758.404	148.963
761.296	512.562
764.189	1010.63
767.082	1718.8
769.975	2514.16
772.867	3482.38
775.76	4847.39
778.653	6390.52
781.545	8484.22
784.438	10938.5
787.331	13547.8
790.223	15305.2
793.116	15658.9
796.009	14692.9
798.902	12760.4
801.794	10780.7
804.687	9075.03
807.58	8097.82
810.472	7699.72
813.365	7865.56
816.258	8021.88
819.15	7969.6
822.043	7403.32
824.936	6876.58
827.828	6055.94
830.721	5303.89
833.614	4442.24
836.507	3557.81
839.399	2788.48
842.292	2100.45
845.185	1485.12
848.077	1151.27
850.97	803.277
853.863	531.221
856.755	273.32
859.648	159.215
862.541	3.13086
865.434	25.0938
868.326	81.5606
871.219	190.824
874.112	41.627
877.004	33.4824
879.897	18.5449
882.79	71.8047
885.683	130.918
888.575	187.31
891.468	53.1055
894.361	161.049
897.253	104.408
900.146	134.352
903.039	165.81
905.931	239.685
908.824	278.232
911.717	288.256
914.61	237.398
917.502	370.799
920.395	293.018
923.288	377.262
926.18	323.096
929.073	315.238
931.966	314.068
934.859	240.172
937.751	291.803
940.644	321.203
943.537	249.365
946.429	204.043
949.322	227.125
952.215	238.4
955.107	291.967
958	181.191
960.893	227.932
963.785	195.35
966.678	314.916
969.571	345.303
972.464	338.971
975.356	304.334
978.249	262.289
981.142	267.295
984.034	139.254
986.927	209.055
989.82	104.613
992.712	159.856
995.605	18.8574
998.498	161.711
1001.39	164.367
1004.28	110.027
1007.18	112.475
1010.07	66.2383
1012.96	16.7324
1015.85	132.852
1018.75	68.6856
1021.64	8.2168
1024.53	42.3223
1027.42	155.732
1030.32	212.566
1033.21	151.516
1036.1	100.602
1039	98.0176
1041.89	84.3066
1044.78	4.66016
1047.67	69.3418
1050.57	49.1953
1053.46	92.584
1056.35	88.1562
1059.24	109.609
1062.14	75.6191
1065.03	120.139
1067.92	115.533
1070.82	64.8711
1073.71	55.0957
1076.6	45.1426
1079.49	20.1113
1082.39	52.2676
1085.28	70.1074
1088.17	17.1328
1091.06	9.09961
1093.96	4.86719
1096.85	94.9102
1099.74	29.0898
1102.63	82.5918
1105.53	59.3867
1108.42	30.9766
1111.31	48.1953
1114.21	7.33008
1117.1	105.668
1119.99	6.67969
1122.88	16.1309
1125.78	85.8848
1128.67	29.7832
1131.56	76.6191
1134.45	140.537
1137.35	157.168
1140.24	60.0215
1143.13	117.336
1146.03	55.6289
1148.92	42.5879
1151.81	83.9922
1154.7	6.68359
1157.6	1.18164
1160.49	5.92188
1163.38	86.293
1166.28	34.3652
1169.17	110.012
1172.06	50.2969
1174.95	74.4766
1177.85	99.6914
1180.74	137.035
1183.63	106.371
1186.52	97.2539
1189.42	59.3008
1192.31	236.512
1195.2	223.565
1198.09	327.999
1200.99	325.866
1203.88	479.217
1206.77	453.236
1209.66	584.968
1212.56	700.832
1215.45	786.688
1218.34	836.311
1221.24	833.059
1224.13	808.239
1227.02	841.085
1229.91	764.776
1232.81	690.856
1235.7	681.354
1238.59	598.83
1241.48	476.275
1244.38	370.199
1247.27	292.201
1250.16	159.384
1253.06	87.749
1255.95	120.368
1258.84	11.1904
1261.73	1.01172
1264.63	34.3232
1267.52	19.1602
