Measurement: Raman, 532 nm, unoriented, Raman Data Processed
Mineral: Rutherfordine
Rruff sample: R090018
Ideal chemistry: (UO_2_)CO_3_
Locality: El Sharana mine, South Alligator Valley, Northern Territory, Australia
Source: James Shigley
Description: Bright yellow bladed crystals in vug
Raman shift (cm-1)	intensity
169.029	0
171.922	4.67773
174.814	21.9355
177.707	101.296
180.6	186.324
183.493	274.422
186.385	271.948
189.278	156.351
192.171	62.8027
195.063	1.30078
197.956	49.4971
200.849	69.2998
203.741	104.936
206.634	133.695
209.527	169.428
212.419	148.614
215.312	140.427
218.205	103.174
221.097	27.0488
223.99	29.2949
226.883	2.0918
229.776	76.8262
232.668	74.1436
235.561	147.45
238.454	168.676
241.346	198.769
244.239	208.942
247.132	136.363
250.025	83.0957
252.917	82.6348
255.81	113.928
258.703	135.483
261.595	162.023
264.488	143.012
267.381	137.228
270.273	118.29
273.166	108.93
276.059	140.793
278.952	204.509
281.844	241.033
284.737	228.702
287.63	215.982
290.522	222.88
293.415	232.297
296.308	205.239
299.2	180.972
302.093	148.3
304.986	172.029
307.878	98.8691
310.771	90.7441
313.664	58.5625
316.557	71.6504
319.449	58.291
322.342	31.0732
325.235	19.5176
328.127	32.6592
331.02	21.0596
333.913	23.124
336.805	25.3633
339.698	34.2695
342.591	20.7842
345.484	22.0586
348.376	6.93262
351.269	16.2529
354.162	4.91699
357.054	63.4522
359.947	74.626
362.84	39.5537
365.733	29.3828
368.625	20.4404
371.518	4.3125
374.411	35.6846
377.303	52.0185
380.196	68.0361
383.089	32.582
385.981	30.8916
388.874	51.3789
391.767	72.833
394.659	52.042
397.552	18.0029
400.445	0.609375
403.338	13.3984
406.23	60.9482
409.123	63.4434
412.016	68.0947
414.908	70.0195
417.801	61.7793
420.694	78.8096
423.587	127.163
426.479	120.113
429.372	153.025
432.265	124.099
435.157	153.415
438.05	133.436
440.943	102.811
443.835	97.5391
446.728	67.7881
449.621	69.4492
452.514	86.5586
455.406	64.4531
458.299	20.6152
461.192	4.79004
464.084	3.43359
466.977	21.0811
469.87	11.0068
472.762	2.24707
475.655	25.5381
478.548	34.456
481.44	45.7881
484.333	34.4053
487.226	18.7832
490.119	15.3223
493.011	35.0772
495.904	37.2383
498.797	31.0967
501.689	30.4219
504.582	11.9824
507.475	30.5381
510.368	34.1406
513.26	68.6094
516.153	58.1611
519.046	56.416
521.938	9.33301
524.831	63.7842
527.724	64.5371
530.616	47.7373
533.509	23.0986
536.402	41.0107
539.294	74.1123
542.187	49.8994
545.08	42.0342
547.973	60.8535
550.865	149.024
553.758	136.864
556.651	87.3994
559.543	60.2168
562.436	78.1494
565.329	103.572
568.221	108.996
571.114	101.804
574.007	84.8184
576.9	19.8945
579.792	14.7148
582.685	18.2822
585.578	13.7315
588.47	51.998
591.363	58.7529
594.256	64.5273
597.148	69.3769
600.041	45.4766
602.934	6.80469
605.827	3.70215
608.719	30.1035
611.612	38.0147
614.505	26.7598
617.397	21.5576
620.29	14.6123
623.183	31.0664
626.075	37.6055
628.968	48.1982
631.861	6.63086
634.754	0.226563
637.646	25.5332
640.539	40.3008
643.432	48.3008
646.324	26.3906
649.217	19.9004
652.11	26.3564
655.002	29.4404
657.895	65.043
660.788	55.8174
663.681	38.6162
666.573	27.0049
669.466	44.7188
672.359	3.14844
675.251	35.3252
678.144	17.3301
681.037	17.4551
683.929	43.9258
686.822	56.3848
689.715	44.1973
692.607	35.3555
695.5	44.8945
698.393	53.7227
701.286	98.2744
704.178	99.6582
707.071	75.6777
709.964	33.8935
712.856	16.1738
715.749	18.3574
718.642	33.8984
721.534	8.18945
724.427	13.8926
727.32	21.9131
730.213	2.77734
733.105	19.5957
735.998	12.3799
738.891	10.3525
741.783	19.4873
744.676	26.5498
747.569	62.4844
750.462	58.5029
753.354	138.494
756.247	207.418
759.14	255.425
762.032	273.462
764.925	292.465
767.818	264.513
770.71	277.34
773.603	313.792
776.496	291.149
779.389	364.025
782.281	464.086
785.174	490.164
788.067	414.445
790.959	386.817
793.852	362.338
796.745	338.543
799.637	224.952
802.53	107.658
805.423	123.144
808.316	79.8574
811.208	38.041
814.101	40.1416
816.994	6.37988
819.886	24.6641
822.779	24.3848
825.672	85.7227
828.564	59.8398
831.457	55.2383
834.35	27.5234
837.242	38.1465
840.135	46.873
843.028	80.8066
845.921	55.7256
848.813	75.7695
851.706	131.57
854.599	203.995
857.491	274.26
860.384	307.593
863.277	450.582
866.169	704.313
869.062	1069.8
871.955	1875.59
874.848	3269.53
877.74	4320.07
880.633	6020.41
883.526	8307.06
886.418	7920.89
889.311	2680.12
892.204	1010.84
895.096	453.509
897.989	192.553
900.882	106.394
903.775	67.2363
906.667	29.2432
909.56	3.52148
912.453	4.21582
915.345	6.46094
918.238	56.5166
921.131	59.5781
924.024	19.332
926.916	24.9961
929.809	3.82812
932.702	13.2988
935.594	30.8232
938.487	17.4883
941.38	18.9385
944.272	70.9531
947.165	59.8565
950.058	28.1074
952.951	10.4404
955.843	23.4238
958.736	28.1338
961.629	72.5234
964.521	62.8486
967.414	0.801758
970.307	4.15039
973.199	58.7353
976.092	40.4248
978.985	65.8096
981.877	32.9258
984.77	28.75
987.663	31.2354
990.556	15.4688
993.448	0.5
996.341	5.57617
999.234	33.709
1002.13	54.2266
1005.02	28.0859
1007.91	25.5059
1010.8	43.9727
1013.7	37.4502
1016.59	26.2852
1019.48	21.5518
1022.38	56.1113
1025.27	19.4668
1028.16	49.4443
1031.05	44.4541
1033.95	33.8359
1036.84	38.6055
1039.73	28.748
1042.62	30.2715
1045.52	4.33008
1048.41	2.11816
1051.3	23.4004
1054.19	28.5518
1057.09	7.82129
1059.98	28.2861
1062.87	10.0303
1065.77	33.2412
1068.66	8.33105
1071.55	31.2988
1074.44	15.0342
1077.34	42.4912
1080.23	45.3262
1083.12	67.0547
1086.02	49.8272
1088.91	39.6885
1091.8	34.3721
1094.69	35.46
1097.59	52.9033
1100.48	73.4707
1103.37	159.574
1106.26	337.981
1109.16	461.331
1112.05	690.661
1114.94	1022.45
1117.83	996.542
1120.73	320.383
1123.62	164.748
1126.51	47.2363
1129.4	78.9951
1132.3	44.5791
1135.19	56.9932
1138.08	44.7773
1140.98	1.51562
1143.87	18.0938
1146.76	26.0479
1149.65	16.9443
1152.55	42.1494
1155.44	42.4629
1158.33	21.3154
1161.22	34.7168
1164.12	42.9678
1167.01	28.6309
1169.9	0.029297
1172.8	23.7666
1175.69	8.37598
1178.58	9.38086
1181.47	39.9385
1184.37	32.0312
1187.26	12.9688
1190.15	20.1387
1193.05	56.0596
1195.94	36.6475
1198.83	53.0205
1201.72	31.1523
1204.62	17.0518
1207.51	27.7051
1210.4	13.2783
1213.29	61.9443
1216.19	60.3291
1219.08	37.4404
1221.97	76.8633
1224.86	68.4805
1227.76	19.8086
1230.65	11.3291
1233.54	14.3154
1236.43	7.65332
1239.33	23.7422
1242.22	9.97461
1245.11	44.9531
1248.01	52.4228
1250.9	38.2461
1253.79	9.39258
1256.68	4.26172
1259.58	27.0039
1262.47	47.7109
1265.36	24.9141
1268.26	22.2764
1271.15	37.2295
1274.04	10.5254
1276.93	27.1084
1279.83	22.0586
1282.72	20.6855
1285.61	27.04
1288.5	48.3565
1291.4	13.0752
1294.29	24.666
1297.18	21.9111
1300.07	57.0527
1302.97	0.185547
