Measurement: Raman, 780 nm, unoriented, Raman Data Processed
Mineral: Rutherfordine
Rruff sample: R110154
Ideal chemistry: (UO_2_)CO_3_
Locality: Shinkolobwe mine, Zaire
Source: Luiz Menezes, from Vincent Bourgoin
Description: Pale yellow bladed crystals associated with orange w√∂lsendorfite
Raman shift (cm-1)	intensity
151.386	0
154.279	1383.33
157.171	3565.5
160.064	2321.37
162.957	364.137
165.85	17.083
168.742	0.19397
171.635	38.4916
174.528	96.7814
177.42	2.53357
180.313	57.275
183.206	37.2487
186.098	67.7621
188.991	291.438
191.884	722.152
194.776	518.808
197.669	49.165
200.562	72.019
203.455	210.901
206.347	433.883
209.24	726.585
212.133	1124.34
215.025	1557.27
217.918	1607.55
220.811	1137.09
223.703	814.583
226.596	772.124
229.489	991.336
232.382	1555.87
235.274	1587.05
238.167	902.594
241.06	577.149
243.952	654.591
246.845	686.074
249.738	348.882
252.631	138.321
255.523	177.518
258.416	498.252
261.309	1151.02
264.201	389.947
267.094	63.2626
269.987	11.7157
272.879	2.82434
275.772	8.3529
278.665	8.15955
281.558	10.6798
284.45	4.43335
287.343	9.07422
290.236	21.8043
293.128	32.0131
296.021	29.0278
298.914	45.3331
301.806	63.366
304.699	80.4148
307.592	87.2763
310.485	77.4181
313.377	55.3987
316.27	58.3781
319.163	60.5164
322.055	64.6257
324.948	85.7888
327.841	102.243
330.733	124.423
333.626	158.361
336.519	236.742
339.411	279.12
342.304	290.903
345.197	276.558
348.09	200.398
350.982	175.479
353.875	148.347
356.768	122.408
359.66	123.627
362.553	115.828
365.446	96.661
368.339	97.54
371.231	89.069
374.124	85.6687
377.017	75.5365
379.909	75.2771
382.802	67.4804
385.695	65.7865
388.587	62.4622
391.48	53.108
394.373	45.3428
397.265	45.9926
400.158	38.8356
403.051	22.4364
405.944	18.0244
408.836	17.9006
411.729	5.49329
414.622	2.64062
417.514	1.36231
420.407	1.7334
423.3	1.54199
426.192	6.10034
429.085	8.71814
431.978	2.09717
434.871	4.10877
437.763	3.85053
440.656	0.461487
443.549	0.010986
446.441	3.94397
449.334	13.8668
452.227	2.81726
455.12	1.31683
458.012	0.325989
460.905	7.12628
463.798	13.1831
466.69	10.5788
469.583	10.5507
472.476	23.1787
475.368	12.7703
478.261	16.8973
481.154	16.3561
484.046	18.6561
486.939	20.1474
489.832	11.5151
492.725	9.5639
495.617	12.5707
498.51	18.9951
501.403	12.9716
504.295	9.39575
507.188	15.814
510.081	23.8796
512.973	16.2806
515.866	6.05676
518.759	4.56964
521.652	5.10846
524.544	10.8259
527.437	9.39209
530.33	9.66144
533.222	0.083679
536.115	6.79065
539.008	1.68219
541.9	12.6765
544.793	9.04712
547.686	8.75482
550.579	12.3295
553.471	15.3312
556.364	3.96393
559.257	6.44257
562.149	17.8422
565.042	13.782
567.935	14.3823
570.827	12.526
573.72	6.6264
576.613	14.7799
579.506	4.1471
582.398	4.90845
585.291	3.27966
588.184	6.54639
591.076	3.86029
593.969	8.44812
596.862	8.88068
599.755	0.438354
602.647	0.759827
605.54	0.627014
608.433	3.41577
611.325	6.18817
614.218	2.62012
617.111	3.39587
620.003	1.88721
622.896	2.99585
625.789	0.48175
628.682	0.703064
631.574	4.67389
634.467	9.60419
637.36	10.0668
640.252	6.46497
643.145	3.36237
646.038	3.26483
648.93	10.6071
651.823	11.5795
654.716	6.87824
657.609	4.50092
660.501	7.34168
663.394	9.35803
666.287	8.74579
669.179	1.74109
672.072	10.0117
674.965	10.2717
677.857	11.9274
680.75	9.09644
683.643	10.7897
686.535	11.2969
689.428	9.53442
692.321	24.2908
695.214	19.9119
698.106	34.7936
700.999	67.025
703.892	197.85
706.784	118.097
709.677	32.9967
712.57	10.7423
715.462	14.6642
718.355	19.2729
721.248	12.1175
724.141	12.1289
727.033	4.06433
729.926	7.02692
732.819	10.4735
735.711	11.0146
738.604	2.06366
741.497	1.54675
744.389	1.78833
747.282	5.94934
750.175	1.45709
753.068	0.205383
755.96	3.01782
758.853	9.89429
761.746	0.107727
764.638	7.86114
767.531	15.1975
770.424	59.6633
773.317	121.42
776.209	242.424
779.102	685.657
781.995	1665.12
784.887	4189.47
787.78	684.222
790.673	319.021
793.565	251.035
796.458	232.901
799.351	175.37
802.244	129.193
805.136	111.389
808.029	82.9467
810.922	25.7237
813.814	3.50873
816.707	4.03253
819.6	3.78436
822.492	6.85364
825.385	6.90125
828.278	9.96936
831.17	8.00891
834.063	4.65411
836.956	3.74127
839.849	0.87561
842.741	2.92835
845.634	3.28503
848.527	10.6913
851.419	24.8424
854.312	77.8701
857.205	24.5405
860.097	23.0975
862.99	27.1106
865.883	32.131
868.776	66.7917
871.668	112.037
874.561	257.417
877.454	554.642
880.346	1611.38
883.239	4960.38
886.132	21684.5
889.024	4292.17
891.917	525.153
894.81	181.134
897.703	87.0996
900.595	50.5869
903.488	20.6309
906.381	21.1117
909.273	11.1575
912.166	11.7459
915.059	2.24588
917.952	5.34589
920.844	7.10593
923.737	2.94351
926.63	0.220123
929.522	0.849365
932.415	3.66776
935.308	6.63223
938.2	7.63812
941.093	10.1551
943.986	7.00064
946.879	13.7888
949.771	12.6059
952.664	10.7936
955.557	17.0896
958.449	16.7802
961.342	28.8167
964.235	42.083
967.127	33.1137
970.02	33.166
972.913	22.1808
975.806	20.0552
978.698	3.43753
981.591	19.9808
984.484	10.9454
987.376	5.97717
990.269	4.42184
993.162	0.375977
996.054	0.744232
998.947	3.69058
1001.84	8.37488
1004.73	5.81
1007.62	1.82306
1010.52	7.15094
1013.41	6.76575
1016.3	8.06894
1019.2	4.47082
1022.09	7.06464
1024.98	11.4826
1027.87	11.8722
1030.77	8.79227
1033.66	9.68903
1036.55	11.8836
1039.44	9.34521
1042.34	2.43851
1045.23	6.83084
1048.12	14.0247
1051.02	8.40692
1053.91	2.34784
1056.8	5.87826
1059.69	7.31006
1062.59	0.093323
1065.48	11.3249
1068.37	2.96344
1071.27	0.799316
1074.16	2.07266
1077.05	6.73944
1079.94	2.58307
1082.84	1.65122
1085.73	0.162842
1088.62	19.5997
1091.51	16.312
1094.41	15.7179
1097.3	11.6654
1100.19	15.7847
1103.08	27.8974
1105.98	57.7125
1108.87	154.003
1111.76	449.199
1114.65	1421.27
1117.55	3844.94
1120.44	771.485
1123.33	119.532
1126.23	43.7963
1129.12	23.6639
1132.01	11.1868
1134.9	4.92755
1137.8	5.17273
1140.69	6.34296
1143.58	2.42896
1146.47	7.11597
1149.37	1.02045
1152.26	5.55188
1155.15	9.24139
1158.05	6.08453
1160.94	10.9274
1163.83	13.6517
1166.72	20.7059
1169.62	21.7059
1172.51	16.1042
1175.4	21.0008
1178.3	25.7001
1181.19	25.0273
1184.08	19.7854
1186.97	25.6839
1189.87	19.9417
1192.76	17.126
1195.65	17.5021
1198.54	16.9894
1201.44	13.5749
1204.33	8.85608
1207.22	12.115
1210.11	8.59076
1213.01	4.89856
1215.9	2.05151
1218.79	3.99469
1221.68	0.721924
1224.58	0.694031
1227.47	2.48706
1230.36	1.27441
1233.26	8.13654
1236.15	10.6555
1239.04	1.23639
1241.93	5.27057
1244.83	16.1722
1247.72	10.1027
1250.61	12.7977
1253.51	14.3903
1256.4	17.0461
1259.29	18.018
1262.18	16.5207
1265.08	13.3343
1267.97	12.1353
1270.86	3.60022
1273.75	7.8869
1276.65	4.53955
1279.54	0.91095
1282.43	7.22492
1285.32	0
