Measurement: Raman, 780 nm, unoriented, Raman Data Processed
Mineral: Rutherfordine
Rruff sample: R090018
Ideal chemistry: (UO_2_)CO_3_
Locality: El Sharana mine, South Alligator Valley, Northern Territory, Australia
Source: James Shigley
Description: Bright yellow bladed crystals in vug
Raman shift (cm-1)	intensity
110.697	0
114.072	3.2619
117.447	49.2116
120.822	139.427
124.197	222.332
127.572	341.08
130.946	517.849
134.321	734.051
137.696	932.975
141.071	859.53
144.446	692.557
147.82	677.967
151.195	724.87
154.57	722.662
157.945	576.274
161.32	346.808
164.694	198.83
168.069	151.327
171.444	135.336
174.819	141.732
178.194	151.305
181.569	180.652
184.943	198.165
188.318	156.023
191.693	85.7028
195.068	68.27
198.443	100.783
201.817	143.23
205.192	164.739
208.567	172.316
211.942	154.52
215.317	111.179
218.691	51.8865
222.066	15.0683
225.441	3.58524
228.816	4.06253
232.191	12.2109
235.566	18.3059
238.94	21.4002
242.315	30.3016
245.69	17.1276
249.065	11.8472
252.44	21.286
255.815	13.6095
259.189	5.63574
262.564	8.12062
265.939	8.93254
269.314	14.7586
272.689	22.2734
276.063	33.8052
279.438	40.4205
282.813	53.2635
286.188	56.2892
289.563	61.4228
292.938	67.5237
296.312	65.941
299.687	66.7836
303.062	54.1927
306.437	45.8599
309.812	29.62
313.186	9.61116
316.561	0.282562
319.936	0.730942
323.311	1.31561
326.686	5.48302
330.06	4.78635
333.435	9.87012
336.81	8.17868
340.185	6.62001
343.56	8.14775
346.935	6.92471
350.309	9.77426
353.684	7.45554
357.059	14.2052
360.434	10.3011
363.809	13.6233
367.183	13.5735
370.558	17.7641
373.933	17.8237
377.308	19.6992
380.683	15.2069
384.058	17.6406
387.432	16.1929
390.807	16.3307
394.182	14.0887
397.557	17.4048
400.932	14.1949
404.306	13.4702
407.681	13.9962
411.056	18.7645
414.431	24.6222
417.806	34.0545
421.18	41.6667
424.555	50.0208
427.93	52.6961
431.305	52.9475
434.68	55.3529
438.055	49.1805
441.429	41.8989
444.804	31.3483
448.179	18.9131
451.554	12.5328
454.929	9.01497
458.303	9.49895
461.678	5.11623
465.053	4.17535
468.428	0.038651
471.803	0.032578
475.178	1.69939
478.552	1.49872
481.927	0.215866
485.302	1.59207
488.677	0.942841
492.052	0.215073
495.426	0.013062
498.801	1.06046
502.176	2.56081
505.551	1.64626
508.926	2.32994
512.301	3.79207
515.675	1.5084
519.05	0.405388
522.425	1.22491
525.8	2.80346
529.175	1.32319
532.549	1.84521
535.924	2.32321
539.299	0.81601
542.674	1.22128
546.049	4.19442
549.423	1.03893
552.798	7.46443
556.173	5.87518
559.548	7.34409
562.923	8.97172
566.298	8.22898
569.672	10.0617
573.047	9.93031
576.422	13.7619
579.797	12.6845
583.172	7.08112
586.546	10.0355
589.921	8.28836
593.296	5.38076
596.671	4.79533
600.046	5.75326
603.42	6.66317
606.795	4.36816
610.17	3.19456
613.545	2.58016
616.92	1.11278
620.295	6.83122
623.669	2.13626
627.044	3.19981
630.419	0.518417
633.794	0.413307
637.169	0.37014
640.543	1.85519
643.918	2.40858
647.293	0.011574
650.668	3.8848
654.043	2.08549
657.418	1.36374
660.792	3.6761
664.167	2.56132
667.542	4.7939
670.917	4.65238
674.292	7.39841
677.667	3.37115
681.041	5.0714
684.416	7.56107
687.791	9.73946
691.166	10.3384
694.541	16.2207
697.915	16.6549
701.29	25.343
704.665	21.2802
708.04	5.12028
711.415	1.7619
714.789	0.628448
718.164	4.70535
721.539	0.547653
724.914	1.02065
728.289	1.02081
731.664	1.00722
735.038	6.35321
738.413	7.76202
741.788	16.5703
745.163	23.2917
748.538	34.6449
751.913	49.861
755.287	60.5084
758.662	80.9482
762.037	95.3994
765.412	106.429
768.787	108.871
772.161	106.686
775.536	108.982
778.911	129.281
782.286	159.676
785.661	145.558
789.035	111.284
792.41	98.6652
795.785	91.0648
799.16	62.5049
802.535	30.7051
805.909	21.8677
809.284	13.8536
812.659	3.67418
816.034	3.77454
819.409	1.48747
822.784	8.85052
826.158	15.0635
829.533	15.8152
832.908	16.2826
836.283	19.1069
839.658	15.7268
843.033	15.0046
846.407	18.5925
849.782	24.7996
853.157	43.1211
856.532	64.5433
859.907	99.7802
863.281	156.867
866.656	258.991
870.031	515.775
873.406	1028.93
876.781	1291.62
880.155	1752.89
883.53	2223.33
886.905	1582.3
890.28	417.594
893.655	152.656
897.03	61.3999
900.404	19.8932
903.779	4.86749
907.154	0.251038
910.529	0.498917
913.904	1.78805
917.278	0.629471
920.653	0.298042
924.028	0.312576
927.403	0.217728
930.778	0.818314
934.153	5.78551
937.527	4.42389
940.902	5.15055
944.277	6.75279
947.652	5.88551
951.027	5.7158
954.401	9.78556
957.776	9.84557
961.151	7.8001
964.526	7.76093
967.901	8.21353
971.275	8.82231
974.65	9.47807
978.025	7.29652
981.4	5.39797
984.775	4.94276
988.15	2.82646
991.524	3.00343
994.899	3.98278
998.274	2.75422
1001.65	2.8634
1005.02	1.14584
1008.4	5.1105
1011.77	2.96947
1015.15	2.70113
1018.52	4.87248
1021.9	4.63333
1025.27	6.71682
1028.65	3.01944
1032.02	5.78934
1035.4	2.77703
1038.77	3.22677
1042.15	3.26866
1045.52	4.3887
1048.9	0.119781
1052.27	2.45644
1055.65	1.22628
1059.02	1.11978
1062.4	0.352036
1065.77	4.13363
1069.14	4.15948
1072.52	5.73682
1075.89	7.31009
1079.27	6.54377
1082.64	7.95794
1086.02	8.04159
1089.39	10.4208
1092.77	10.3526
1096.14	19.9885
1099.52	36.4306
1102.89	68.1263
1106.27	132.53
1109.64	181.27
1113.02	252.062
1116.39	276.756
1119.77	105.591
1123.14	38.2444
1126.52	19.1188
1129.89	9.65137
1133.27	6.36047
1136.64	3.58845
1140.02	5.29271
1143.39	0.725853
1146.77	1.73947
1150.14	0.785362
1153.52	0.364449
1156.89	0.053871
1160.27	1.94652
1163.64	3.74287
1167.02	0.682457
1170.39	3.31212
1173.77	1.18594
1177.14	3.76948
1180.51	3.29884
1183.89	1.89171
1187.26	4.27073
1190.64	3.32236
1194.01	2.55833
1197.39	3.92555
1200.76	4.95464
1204.14	2.94028
1207.51	4.91919
1210.89	5.20328
1214.26	3.37965
1217.64	3.08468
1221.01	3.72449
1224.39	0.504059
1227.76	1.12431
1231.14	1.60442
1234.51	0.972168
1237.89	2.21127
1241.26	1.1494
1244.64	3.16757
1248.01	1.50206
1251.38	3.62799
1254.76	2.30016
1258.13	3.40569
1261.51	3.88132
1264.88	2.64215
1268.26	1.26126
1271.63	3.05865
1275.01	2.60338
1278.38	2.85809
1281.76	0.258133
1285.13	1.52612
