Measurement: Raman, 780 nm, unoriented, Raman Data Processed
Mineral: Rutherfordine
Rruff sample: R090017
Ideal chemistry: (UO_2_)CO_3_
Locality: Musonoi Mine, Kolwezi, Katanga, Congo
Source: William W. Pinch
Description: Bright-yellow bladed crystals
Raman shift (cm-1)	intensity
145.892	0
148.785	22.6092
151.677	73.9964
154.57	132.925
157.463	180.396
160.355	101.871
163.248	23.5146
166.141	0.742722
169.034	3.52298
171.926	2.3933
174.819	7.92529
177.712	9.55798
180.604	12.0804
183.497	16.6592
186.39	16.6687
189.282	19.1812
192.175	23.5986
195.068	9.34408
197.96	5.96252
200.853	13.7413
203.746	24.0521
206.639	39.0526
209.531	50.3769
212.424	63.3485
215.317	71.3488
218.209	63.1529
221.102	44.0024
223.995	29.7811
226.887	24.7689
229.78	23.8471
232.673	29.8609
235.566	30.098
238.458	22.8106
241.351	22.7971
244.244	23.6635
247.136	17.4276
250.029	7.48157
252.922	2.99235
255.815	3.89766
258.707	6.57526
261.6	10.7482
264.493	2.21279
267.385	0.542221
270.278	0.551842
273.171	1.12334
276.063	0.709839
278.956	0.651093
281.849	0.718903
284.741	0.593262
287.634	1.99873
290.527	2.34173
293.42	3.18138
296.312	3.42384
299.205	3.68249
302.098	4.83691
304.99	4.60487
307.883	4.78386
310.776	4.40885
313.668	3.36631
316.561	4.2682
319.454	3.79594
322.347	4.71605
325.239	5.72641
328.132	4.87266
331.025	4.74041
333.917	4.95058
336.81	5.25031
339.703	5.52964
342.596	4.74945
345.488	4.23617
348.381	2.55832
351.274	2.16422
354.166	1.66995
357.059	0.424931
359.952	0.377365
362.844	0.84396
365.737	0.33297
368.63	0.231499
371.522	0.135189
374.415	0.172245
377.308	0.236961
380.201	0.526371
383.093	0.595146
385.986	1.80677
388.879	1.51204
391.771	2.23166
394.664	2.2296
397.557	2.65872
400.45	2.63433
403.342	2.43053
406.235	2.039
409.128	1.86643
412.02	1.90247
414.913	1.79969
417.806	1.46501
420.698	1.39656
423.591	1.87825
426.484	0.837936
429.377	0.707687
432.269	1.05013
435.162	0.893051
438.055	0.922714
440.947	1.33545
443.84	1.86555
446.733	1.62826
449.625	2.52173
452.518	2.04719
455.411	1.82289
458.303	1.75397
461.196	1.66333
464.089	1.45185
466.982	0.646729
469.874	0.876945
472.767	0.397079
475.66	0.311192
478.552	0.673344
481.445	0.245956
484.338	0.013302
487.231	0.15284
490.123	0.357922
493.016	0.411556
495.909	0.046345
498.801	0.350399
501.694	0.110336
504.587	0.783192
507.479	0.742493
510.372	0.659065
513.265	1.11875
516.158	1.37309
519.05	1.15115
521.943	1.92653
524.836	1.66351
527.728	2.35443
530.621	2.40981
533.514	2.4816
536.406	2.81565
539.299	3.45739
542.192	3.22096
545.085	3.36013
547.977	3.12062
550.87	3.28949
553.763	2.51404
556.655	2.8612
559.548	2.6418
562.441	1.87801
565.333	2.40554
568.226	1.58639
571.119	1.26359
574.011	1.39543
576.904	0.773712
579.797	0.45013
582.69	0.081272
585.582	0.567657
588.475	0.312187
591.368	0.390457
594.26	0.341167
597.153	0.727463
600.046	0.041813
602.938	0.099464
605.831	0.531178
608.724	0.044727
611.616	0.336018
614.509	0.218388
617.402	0.28783
620.295	0.281551
623.187	0.029762
626.08	0.386318
628.973	0.098175
631.865	0.21608
634.758	0.335381
637.651	0.835068
640.543	0.485096
643.436	0.881611
646.329	0.94804
649.222	1.04041
652.114	0.354195
655.007	1.32825
657.9	0.703651
660.792	1.29457
663.685	1.32175
666.578	1.1176
669.471	0.829834
672.363	0.241798
675.256	1.05217
678.149	0.694435
681.041	0.370819
683.934	1.33647
686.827	1.15249
689.719	2.55514
692.612	3.18835
695.505	4.04339
698.398	4.60735
701.29	7.48276
704.183	9.70321
707.076	4.34417
709.968	1.81706
712.861	1.62178
715.754	1.49911
718.646	0.85918
721.539	1.23157
724.432	0.803459
727.324	0.809364
730.217	0.863266
733.11	0.41058
736.003	0.013477
738.895	0.193542
741.788	0.294594
744.681	0.05476
747.573	0.325134
750.466	0.431423
753.359	0.731068
756.251	0.484104
759.144	0.46793
762.037	0.140121
764.93	0.551552
767.822	3.27003
770.715	12.3023
773.608	14.6205
776.5	20.0712
779.393	29.6368
782.286	50.0792
785.178	59.1613
788.071	21.1874
790.964	12.4537
793.857	10.862
796.749	9.96643
799.642	8.61666
802.535	7.41592
805.427	7.21656
808.32	7.61487
811.213	6.99546
814.106	8.10266
816.998	9.63868
819.891	12.8686
822.784	15.9226
825.676	19.6731
828.569	21.7517
831.462	22.8589
834.354	22.2287
837.247	21.0218
840.14	16.6861
843.033	13.2274
845.925	11.0856
848.818	11.2468
851.711	12.7503
854.603	15.5091
857.496	15.3353
860.389	18.5717
863.281	23.692
866.174	32.6517
869.067	51.1499
871.96	135.393
874.852	206.592
877.745	254.476
880.638	364.743
883.53	559.937
886.423	736.126
889.316	129.386
892.208	22.2635
895.101	7.73332
897.994	4.45294
900.886	1.6549
903.779	0.436867
906.672	0.454121
909.565	0.498802
912.457	0.769764
915.35	0.122337
918.243	0.639156
921.135	0.79163
924.028	0.150047
926.921	0.100521
929.813	0.207346
932.706	0.103003
935.599	1.03006
938.492	0.496107
941.384	0.575285
944.277	0.945093
947.17	1.02569
950.062	0.907343
952.955	0.927584
955.848	1.40796
958.74	0.47369
961.633	1.16893
964.526	1.07784
967.419	1.63348
970.311	0.728724
973.204	1.44962
976.097	1.14659
978.989	0.601744
981.882	0.415993
984.775	0.327356
987.668	0.907303
990.56	0.709145
993.453	0.53009
996.346	0.551853
999.238	0.655294
1002.13	0.875725
1005.02	0.853277
1007.92	0.768068
1010.81	0.602739
1013.7	0.976852
1016.59	0.934904
1019.49	0.595163
1022.38	0.865917
1025.27	0.399162
1028.16	0.311819
1031.06	0.103548
1033.95	0.724394
1036.84	0.778582
1039.74	0.161772
1042.63	0.11212
1045.52	0.460423
1048.41	0.642754
1051.31	0.186031
1054.2	0.158646
1057.09	0.655502
1059.98	0.514978
1062.88	2.77164
1065.77	0.543539
1068.66	0.657568
1071.56	0.658289
1074.45	0.727573
1077.34	0.872417
1080.23	1.12835
1083.13	1.12399
1086.02	0.579454
1088.91	1.49729
1091.81	1.53853
1094.7	1.91118
1097.59	2.38864
1100.48	4.73391
1103.38	10.5698
1106.27	25.3241
1109.16	33.1344
1112.05	48.9384
1114.95	73.3256
1117.84	88.0881
1120.73	20.5658
1123.62	5.60637
1126.52	2.73806
1129.41	1.79072
1132.3	1.10072
1135.19	0.718626
1138.09	0.381384
1140.98	0.566622
1143.87	0.186924
1146.77	0.202393
1149.66	0.452768
1152.55	0.435976
1155.44	0.041265
1158.34	0.114683
1161.23	0.799698
1164.12	0.001001
1167.02	0.039635
1169.91	0.342651
1172.8	0.469116
1175.69	0.113888
1178.59	0.306227
1181.48	0.310181
1184.37	0.399786
1187.26	0.49518
1190.16	0.539255
1193.05	0.630228
1195.94	0.436047
1198.84	0.610107
1201.73	0.538151
1204.62	0.610025
1207.51	0.658699
1210.4	0.465523
1213.3	0.025881
1216.19	0.338802
1219.08	0.303772
1221.98	0.441717
1224.87	0.161152
1227.76	0.351994
1230.65	0.27261
1233.55	0.595127
1236.44	0.337729
1239.33	0.358755
1242.22	0.438492
1245.12	0.586296
1248.01	0.741859
1250.9	0.529928
1253.8	0.07229
1256.69	0.995955
1259.58	0.562714
1262.47	1.23599
1265.37	0.397703
1268.26	0.79027
1271.15	0.241722
1274.05	0.567122
1276.94	0.182835
1279.83	0.198374
1282.72	0.110697
1285.62	0.30353
