Measurement: Raman, 532 nm, unoriented, Raman Data Processed
Mineral: Rutherfordine
Rruff sample: R110154
Ideal chemistry: (UO_2_)CO_3_
Locality: Shinkolobwe mine, Zaire
Source: Luiz Menezes, from Vincent Bourgoin
Description: Pale yellow bladed crystals associated with orange w√∂lsendorfite
Raman shift (cm-1)	intensity
151.721	0
154.614	529.278
157.506	1897.31
160.399	1346.86
163.292	230.841
166.185	58.1316
169.077	313.87
171.97	851.696
174.863	1510.64
177.755	1776.27
180.648	1751.25
183.541	1729.46
186.433	1845.51
189.326	2270.83
192.219	2848.96
195.112	2032.31
198.004	1385.68
200.897	1506.97
203.79	1756.06
206.682	2045.43
209.575	2431.51
212.468	2908.21
215.36	3394.42
218.253	3309.64
221.146	2542.29
224.038	2147.72
226.931	2123.53
229.824	2769.03
232.717	3738.77
235.609	3414.39
238.502	2154.29
241.395	1945.46
244.287	2486.04
247.18	2773.54
250.073	1508.07
252.965	836.332
255.858	1000.04
258.751	1703.55
261.644	2634.1
264.536	660.326
267.429	137.265
270.322	26.7798
273.214	17.6186
276.107	9.31055
279	32.2192
281.892	44.2725
284.785	53.0791
287.678	65.2661
290.571	44.4985
293.463	30.7749
296.356	0.452148
299.249	34.3603
302.141	67.1318
305.034	46.4453
307.927	66.3662
310.82	33.8281
313.712	37.0259
316.605	4.08496
319.498	30.0469
322.39	38.1235
325.283	94.124
328.176	106.545
331.068	186.187
333.961	272.197
336.854	388.76
339.747	502.049
342.639	525.458
345.532	390.123
348.425	254.131
351.317	148.436
354.21	106.796
357.103	93.6831
359.995	76.6362
362.888	29.9014
365.781	64.0801
368.673	79.562
371.566	71.2974
374.459	40.1645
377.352	62.7915
380.244	80.2769
383.137	85.8447
386.03	98.1848
388.922	114.773
391.815	121.701
394.708	128.718
397.601	138.257
400.493	121.401
403.386	121.502
406.279	99.7119
409.171	75.6318
412.064	77.8938
414.957	75.8279
417.849	64.4841
420.742	62.0198
423.635	15.7957
426.527	53.404
429.42	54.05
432.313	23.4084
435.206	12.3484
438.098	24.6665
440.991	18.9785
443.884	29.0898
446.776	23.0088
449.669	6.19751
452.562	3.81152
455.454	2.89062
458.347	20.7439
461.24	65.6248
464.133	27.3479
467.025	39.5789
469.918	52.5857
472.811	55.624
475.703	46.821
478.596	72.8733
481.489	53.259
484.382	58.2817
487.274	27.2039
490.167	24.4746
493.06	7.00024
495.952	34.9124
498.845	42.325
501.738	7.93408
504.63	23.2622
507.523	12.718
510.416	23.9187
513.308	10.6985
516.201	18.1091
519.094	22.3733
521.987	19.8948
524.879	31.929
527.772	29.0232
530.665	25.4546
533.557	10.9805
536.45	5.48633
539.343	38.8174
542.236	55.7693
545.128	70.4258
548.021	58.7688
550.914	66.1194
553.806	38.9292
556.699	23.0713
559.592	22.1094
562.484	25.1489
565.377	21.7644
568.27	14.3923
571.163	6.02734
574.055	7.21045
576.948	0.310547
579.841	36.0269
582.733	17.1392
585.626	8.84912
588.519	21.8569
591.411	48.6118
594.304	45.24
597.197	44.3298
600.09	18.5088
602.982	22.0034
605.875	22.9639
608.768	20.3472
611.66	20.2568
614.553	28.8242
617.446	32.9751
620.338	14.0503
623.231	9.76709
626.124	3.59082
629.016	10.1279
631.909	22.1909
634.802	23.4775
637.695	24.8369
640.587	16.7051
643.48	7.11621
646.373	15.4102
649.265	2.88769
652.158	11.8267
655.051	14.5273
657.943	40.8906
660.836	33.8286
663.729	26.9976
666.622	30.0171
669.514	44.397
672.407	27.9644
675.3	54.7095
678.192	11.249
681.085	61.0942
683.978	42.6001
686.87	55.8862
689.763	60.1133
692.656	111.113
695.549	113.549
698.441	229.895
701.334	342.842
704.227	642.081
707.119	319.19
710.012	90.062
712.905	66.5742
715.798	24.2041
718.69	23.8721
721.583	20.394
724.476	5.03271
727.368	22.0586
730.261	17.9273
733.154	5.71924
736.046	7.94043
738.939	0.225586
741.832	1.61133
744.725	8.86084
747.617	27.2417
750.51	8.84229
753.403	76.0073
756.295	71.457
759.188	74.4385
762.081	120.748
764.973	155.49
767.866	272.315
770.759	477.992
773.652	1396.57
776.544	2102.24
779.437	3951.65
782.33	6503.4
785.222	12220.6
788.115	2090.17
791.008	1394.46
793.9	1170.43
796.793	928.501
799.686	668.434
802.578	469.45
805.471	362.256
808.364	256.049
811.257	113.401
814.149	55.5293
817.042	80.1245
819.935	75.6084
822.827	88.2285
825.72	66.9199
828.613	46.4473
831.505	58.1226
834.398	43.709
837.291	34.7642
840.184	45.6045
843.076	48.0635
845.969	47.6435
848.862	100.68
851.754	210.492
854.647	439.022
857.54	176.475
860.433	166.793
863.325	210.082
866.218	335.973
869.111	558.716
872.003	1055.64
874.896	4263.62
877.789	10948.5
880.681	21991
883.574	48610.4
886.467	123341
889.36	15257.4
892.252	2419.55
895.145	955.965
898.038	473.676
900.93	251.04
903.823	134.364
906.716	92.3291
909.608	67.3413
912.501	20.4985
915.394	1.45606
918.287	8.66748
921.179	12.9844
924.072	7.53809
926.965	3.35059
929.857	2.6167
932.75	10.169
935.643	34.6548
938.535	19.6504
941.428	51.2573
944.321	40.4336
947.213	19.5908
950.106	36.0332
952.999	78.4697
955.892	81.0601
958.784	78.4546
961.677	146.005
964.57	198.641
967.462	180.799
970.355	142.297
973.248	71.7056
976.14	67.9937
979.033	68.1665
981.926	49.0049
984.819	28.1279
987.711	26.2578
990.604	40.5259
993.497	30.5176
996.389	0.108398
999.282	5.29199
1002.17	33.6108
1005.07	12.2695
1007.96	4.95606
1010.85	51.4546
1013.75	35.0815
1016.64	42.1001
1019.53	39.4365
1022.42	57.1221
1025.32	41.2178
1028.21	36.8027
1031.1	48.3374
1033.99	51.2148
1036.89	58.6592
1039.78	29.3481
1042.67	31.0366
1045.57	41.1226
1048.46	45.3003
1051.35	39.4131
1054.24	27.1406
1057.14	40.4653
1060.03	25.728
1062.92	13.4624
1065.81	9.2334
1068.71	30.084
1071.6	20.8496
1074.49	4.39746
1077.38	20.9517
1080.28	5.10498
1083.17	16.6523
1086.06	22.6133
1088.96	41.2031
1091.85	78.4082
1094.74	70.7837
1097.63	69.6167
1100.53	131.974
1103.42	208.996
1106.31	495.387
1109.2	1656.9
1112.1	3087.23
1114.99	6845.47
1117.88	14100.1
1120.78	2146.37
1123.67	432.412
1126.56	189.129
1129.45	132.381
1132.35	73.2241
1135.24	46.6411
1138.13	26.9517
1141.02	17.5034
1143.92	36.6338
1146.81	17.8643
1149.7	34.8184
1152.6	8.25684
1155.49	20.4321
1158.38	7.58887
1161.27	2.20264
1164.17	2.31055
1167.06	15.8613
1169.95	13.6172
1172.84	6.58447
1175.74	17.0054
1178.63	18.0083
1181.52	26.8257
1184.41	28.0459
1187.31	34.0137
1190.2	13.2534
1193.09	8.14648
1195.99	17.5083
1198.88	38.8262
1201.77	10.7339
1204.66	1.67236
1207.56	8.20117
1210.45	36.3584
1213.34	42.5244
1216.23	0.792969
1219.13	2.69434
1222.02	20.5156
1224.91	38.6152
1227.81	31.0298
1230.7	47.0527
1233.59	15.5146
1236.48	17.229
1239.38	1.60059
1242.27	38.6875
1245.16	14.9038
1248.05	18.9243
1250.95	27.1255
1253.84	26.8262
1256.73	16.519
1259.62	23.9443
1262.52	45.877
1265.41	30.2817
1268.3	21.5693
1271.2	12.0991
1274.09	24.3306
1276.98	33.5386
1279.87	0.197754
1282.77	1.7085
1285.66	6.67773
1288.55	20.8745
1291.44	53.0391
1294.34	16.4683
1297.23	10.0215
1300.12	16.4629
1303.02	0
