Measurement: Raman, 780 nm, unoriented, Raman Data Processed
Mineral: Rutherfordine
Rruff sample: R100018
Ideal chemistry: (UO_2_)CO_3_
Locality: Shinkolobwe mine, Katanga, Congo
Source: William Pinch
Description: Pale yellow radiating laths
Raman shift (cm-1)	intensity
91.6631	0
95.0379	25.5413
98.4127	23.4558
101.787	12.0584
105.162	1.64743
108.537	0.928558
111.912	0.018219
115.287	23.9358
118.662	96.9552
122.036	152.275
125.411	178.746
128.786	245.361
132.161	336.102
135.536	504.432
138.911	776.246
142.285	449.383
145.66	302.812
149.035	332.701
152.41	418.734
155.785	487.387
159.159	387.916
162.534	121.032
165.909	41.1897
169.284	30.7493
172.659	42.3389
176.034	40.5457
179.408	31.5087
182.783	38.2921
186.158	53.0939
189.533	81.405
192.908	94.8684
196.282	64.9751
199.657	96.7532
203.032	122.897
206.407	156.87
209.782	191.541
213.156	211.822
216.531	207.149
219.906	145.857
223.281	87.8538
226.656	78.0945
230.031	74.078
233.405	85.136
236.78	67.8748
240.155	52.3811
243.53	67.3987
246.905	51.1532
250.28	16.832
253.654	9.28882
257.029	11.8174
260.404	28.0252
263.779	4.694
267.154	6.30328
270.528	10.2638
273.903	6.76297
277.278	0.763275
280.653	1.14664
284.028	3.03864
287.402	3.89291
290.777	11.1698
294.152	14.3735
297.527	8.85675
300.902	6.22009
304.277	16.5527
307.651	11.503
311.026	7.46909
314.401	4.57175
317.776	7.16989
321.151	6.15955
324.526	11.2643
327.9	5.97513
331.275	7.27939
334.65	10.9341
338.025	12.0959
341.399	11.1921
344.774	7.7775
348.149	9.97815
351.524	7.38742
354.899	2.64712
358.274	2.14624
361.648	0.55481
365.023	1.5264
368.398	5.46939
371.773	0.128723
375.148	2.86951
378.522	1.33707
381.897	0.665985
385.272	1.328
388.647	3.48868
392.022	1.66992
395.397	2.28351
398.771	4.82047
402.146	4.06635
405.521	4.55789
408.896	5.4147
412.271	0.754242
415.646	1.35742
419.02	0.394104
422.395	3.1384
425.77	4.5437
429.145	0.961334
432.52	3.45694
435.894	2.84601
439.269	1.20416
442.644	4.96692
446.019	3.30844
449.394	4.09558
452.769	1.97577
456.143	1.7623
459.518	0.194733
462.893	5.60559
466.268	2.46829
469.643	6.76685
473.017	2.43133
476.392	0.846039
479.767	0.847168
483.142	3.65259
486.517	4.33377
489.892	1.04452
493.266	3.65244
496.641	4.49152
500.016	5.75269
503.391	8.13193
506.766	8.41052
510.14	12.9834
513.515	9.23377
516.89	5.78091
520.265	2.97327
523.64	1.4592
527.014	2.06473
530.389	1.38617
533.764	2.03116
537.139	0.862183
540.514	3.63745
543.889	0.131012
547.263	3.51254
550.638	4.34869
554.013	4.2496
557.388	2.24405
560.763	4.26828
564.138	1.35358
567.512	2.30875
570.887	0.007721
574.262	2.3649
577.637	3.0109
581.011	1.19721
584.386	6.54007
587.761	4.91458
591.136	1.23532
594.511	1.23929
597.886	1.80661
601.26	4.5239
604.635	2.43259
608.01	3.62207
611.385	1.16608
614.76	6.7124
618.135	0.425812
621.509	5.96268
624.884	2.73688
628.259	4.05237
631.634	2.83182
635.009	1.79474
638.383	4.8381
641.758	0.034485
645.133	3.39041
648.508	6.33221
651.883	2.60504
655.258	3.22348
658.632	3.40839
662.007	7.48108
665.382	1.17575
668.757	7.64444
672.132	4.21817
675.506	3.38107
678.881	2.89893
682.256	8.34509
685.631	0.14267
689.006	9.52512
692.38	10.2918
695.755	9.47214
699.13	16.9203
702.505	21.85
705.88	18.6988
709.255	7.16492
712.629	9.71576
716.004	3.58234
719.379	3.72492
722.754	6.56787
726.129	6.52255
729.504	0.844635
732.878	4.02274
736.253	5.85938
739.628	3.58823
743.003	1.33518
746.378	0.645081
749.752	3.47504
753.127	1.67511
756.502	0.405457
759.877	9.31821
763.252	5.90979
766.626	4.60049
770.001	27.8358
773.376	46.6512
776.751	72.6042
780.126	100.037
783.5	147.647
786.875	71.1548
790.25	31.1018
793.625	25.949
797	24.092
800.375	13.2989
803.75	9.7937
807.124	12.7248
810.499	0.909729
813.874	2.2756
817.249	2.09708
820.624	0.118225
823.998	1.61435
827.373	0.998383
830.748	3.04736
834.123	1.65921
837.498	2.32752
840.872	7.43906
844.247	14.1038
847.622	8.38058
850.997	16.562
854.372	26.3562
857.746	24.5814
861.121	28.5073
864.496	34.1171
867.871	51.2122
871.246	144.187
874.621	542.951
877.995	590.043
881.37	931.435
884.745	1602.92
888.12	1001.81
891.495	89.9593
894.87	32.7545
898.244	14.7864
901.619	10.7858
904.994	0.084015
908.369	2.15628
911.744	4.52063
915.118	3.4021
918.493	4.14349
921.868	1.55316
925.243	2.86716
928.618	1.55185
931.992	1.01236
935.367	0.058792
938.742	3.39325
942.117	1.68761
945.492	6.32066
948.867	1.43413
952.241	5.41592
955.616	0.151566
958.991	2.08354
962.366	0.863739
965.741	0.556381
969.115	2.59969
972.49	2.60588
975.865	4.92087
979.24	0.787903
982.615	6.62207
985.99	2.2807
989.364	5.00822
992.739	3.23117
996.114	2.46983
999.489	4.59129
1002.86	3.7823
1006.24	6.81563
1009.61	5.55951
1012.99	2.5798
1016.36	6.96684
1019.74	1.66345
1023.11	2.89301
1026.49	0.562393
1029.86	5.0116
1033.24	6.42317
1036.61	6.36505
1039.99	3.40012
1043.36	1.72488
1046.74	0.771622
1050.11	5.97699
1053.49	2.6355
1056.86	1.13973
1060.24	3.20172
1063.61	0.701508
1066.98	2.18886
1070.36	2.30533
1073.73	2.11734
1077.11	3.36325
1080.48	1.99213
1083.86	4.5074
1087.23	3.05382
1090.61	5.41099
1093.98	5.93849
1097.36	5.08411
1100.73	11.5799
1104.11	34.3034
1107.48	97.6711
1110.86	125.891
1114.23	185.981
1117.61	222.029
1120.98	46.6805
1124.36	7.65923
1127.73	3.33551
1131.11	1.73587
1134.48	2.27333
1137.86	2.03906
1141.23	4.72229
1144.61	0.495956
1147.98	0.759171
1151.36	1.18901
1154.73	1.82538
1158.11	1.57661
1161.48	4.02675
1164.86	3.41444
1168.23	3.94812
1171.6	1.72665
1174.98	1.6106
1178.35	4.78497
1181.73	2.35417
1185.1	0.071075
1188.48	4.7236
1191.85	4.90758
1195.23	3.56665
1198.6	1.38332
1201.98	5.76817
1205.35	0.40802
1208.73	3.93587
1212.1	0.635483
1215.48	1.51421
1218.85	4.01398
1222.23	1.01158
1225.6	4.85909
1228.98	3.28017
1232.35	7.21603
1235.73	6.69533
1239.1	7.7028
1242.48	7.80013
1245.85	3.54948
1249.22	4.75217
1252.6	6.6745
1255.97	6.35605
1259.35	11.0583
1262.72	2.80574
1266.1	2.76236
1269.47	1.73325
1272.85	1.44812
1276.22	2.4619
1279.6	0.018585
1282.97	0.160431
