Measurement: Raman, 532 nm, unoriented, Raman Data Processed
Mineral: Rutherfordine
Rruff sample: R090017
Ideal chemistry: (UO_2_)CO_3_
Locality: Musonoi Mine, Kolwezi, Katanga, Congo
Source: William W. Pinch
Description: Bright-yellow bladed crystals
Raman shift (cm-1)	intensity
148.298	0
151.191	46.7814
154.083	158.88
156.976	288.649
159.869	334.067
162.762	204.207
165.654	73.8719
168.547	13.3873
171.44	6.38837
174.332	0.746216
177.225	11.2886
180.118	16.4439
183.01	34.4937
185.903	52.3406
188.796	69.1877
191.688	80.2114
194.581	44.5209
197.474	6.29279
200.367	3.52356
203.259	14.7098
206.152	30.4347
209.045	49.3598
211.937	56.9598
214.83	55.4603
217.723	45.4969
220.615	40.7316
223.508	40.7738
226.401	46.9138
229.293	49.9779
232.186	41.613
235.079	36.0551
237.972	34.375
240.864	40.8782
243.757	56.0749
246.65	51.8431
249.542	27.8812
252.435	13.0185
255.328	13.7415
258.221	22.4311
261.113	23.1968
264.006	6.28616
266.899	0.807739
269.791	2.37473
272.684	1.69263
275.577	2.46927
278.469	3.12842
281.362	6.62057
284.255	6.3667
287.147	5.85675
290.04	9.30136
292.933	9.18707
295.826	9.14175
298.718	8.30502
301.611	6.6763
304.504	6.05719
307.396	3.51492
310.289	2.29105
313.182	2.47223
316.075	4.30179
318.967	6.13882
321.86	4.94974
324.753	5.83322
327.645	7.31122
330.538	7.65064
333.431	6.26267
336.323	5.34705
339.216	5.85071
342.109	5.05518
345.002	5.79684
347.894	3.01877
350.787	2.49292
353.68	1.57739
356.572	2.52371
359.465	4.20828
362.358	2.23138
365.25	0.30014
368.143	1.17755
371.036	0.111053
373.928	0.743378
376.821	0.045868
379.714	0.934509
382.607	0.283905
385.499	0.867676
388.392	1.72037
391.285	1.31665
394.177	1.26358
397.07	1.59494
399.963	0.669464
402.856	0.695007
405.748	2.45679
408.641	3.2814
411.534	2.25674
414.426	5.25571
417.319	3.07794
420.212	2.88498
423.104	3.08276
425.997	2.61148
428.89	2.63504
431.783	1.35986
434.675	3.72757
437.568	0.728546
440.461	0.637054
443.353	0.907501
446.246	0.362823
449.139	0.012238
452.031	0.817108
454.924	1.52615
457.817	1.47113
460.709	0.387756
463.602	1.91193
466.495	0.288055
469.388	2.24396
472.28	2.65756
475.173	4.05502
478.066	6.5054
480.958	6.1217
483.851	6.17947
486.744	4.72125
489.637	5.6304
492.529	5.19394
495.422	4.75244
498.315	6.22443
501.207	4.20917
504.1	3.30905
506.993	5.29514
509.885	4.60806
512.778	4.29135
515.671	4.96668
518.563	8.92514
521.456	5.70596
524.349	6.82172
527.242	4.16022
530.134	4.61508
533.027	2.22836
535.92	4.32321
538.812	2.78155
541.705	3.29569
544.598	3.50122
547.49	4.02081
550.383	5.79102
553.276	5.12265
556.169	4.88336
559.061	5.76978
561.954	3.61267
564.847	3.65381
567.739	4.17767
570.632	4.54004
573.525	5.17357
576.418	4.71977
579.31	2.78909
582.203	4.00537
585.096	3.03151
587.988	3.75981
590.881	4.2603
593.774	2.90999
596.666	1.91495
599.559	2.42325
602.452	0.232971
605.344	1.25784
608.237	0.702179
611.13	0.15834
614.023	1.16043
616.915	1.74527
619.808	0.743866
622.701	1.39032
625.593	0.202301
628.486	1.78221
631.379	1.55087
634.271	0.755554
637.164	0.71405
640.057	0.300995
642.949	1.61423
645.842	0.078461
648.735	0.269806
651.628	2.73697
654.52	3.96106
657.413	4.29404
660.306	7.45987
663.198	7.02841
666.091	9.20798
668.984	10.6244
671.876	11.824
674.769	12.818
677.662	13.8894
680.555	15.7566
683.447	17.0155
686.34	19.9579
689.233	21.6393
692.125	21.7484
695.018	24.7818
697.911	31.3636
700.803	39.3116
703.696	44.8086
706.589	30.6616
709.482	23.674
712.374	23.1992
715.267	23.1295
718.16	22.3526
721.052	24.5117
723.945	22.0455
726.838	24.7
729.731	24.2891
732.623	24.0411
735.516	25.3994
738.409	24.4905
741.301	25.1562
744.194	23.0731
747.087	22.8298
749.979	22.6283
752.872	20.367
755.765	20.7357
758.658	19.6296
761.55	21.6613
764.443	22.1733
767.336	30.5631
770.228	48.3543
773.121	60.9443
776.014	86.5262
778.906	142.392
781.799	208.712
784.692	130.256
787.585	62.9515
790.477	44.8471
793.37	38.3911
796.263	33.384
799.155	20.2498
802.048	8.22632
804.941	4.09952
807.833	2.23083
810.726	0.345215
813.619	0.997681
816.511	1.75961
819.404	2.6687
822.297	3.40982
825.19	0.149628
828.082	0.348328
830.975	1.10611
833.868	1.87186
836.76	5.97693
839.653	10.7
842.546	17.1802
845.438	22.6361
848.331	31.8621
851.224	44.7699
854.117	58.4522
857.009	67.4236
859.902	89.0658
862.795	120.101
865.687	169.688
868.58	256.878
871.473	472.529
874.365	840.733
877.258	1102.08
880.151	1771.62
883.044	2867.24
885.936	3252.04
888.829	788.275
891.722	201.47
894.614	85.1496
897.507	46.1637
900.4	29.9502
903.293	21.5511
906.185	14.4085
909.078	10.395
911.971	7.0242
914.863	5.63693
917.756	5.00659
920.649	3.77942
923.541	2.57458
926.434	0.666443
929.327	0.300812
932.22	0.219543
935.112	1.38974
938.005	0.907532
940.898	2.78632
943.79	2.59555
946.683	1.96905
949.576	0.644196
952.468	0.523956
955.361	0.021851
958.254	1.24512
961.146	1.56546
964.039	2.33038
966.932	0.280518
969.825	0.733582
972.717	1.50238
975.61	1.70331
978.503	3.61023
981.395	0.584015
984.288	1.78711
987.181	0.362732
990.073	0.354736
992.966	0.062408
995.859	0.090637
998.751	0.659332
1001.64	0.150696
1004.54	2.02576
1007.43	1.40927
1010.32	0.055634
1013.22	2.29672
1016.11	0.355347
1019	1.88409
1021.89	0.634705
1024.79	1.21146
1027.68	0.467346
1030.57	0.907349
1033.46	0.063049
1036.36	1.19339
1039.25	0.740753
1042.14	1.61774
1045.04	1.50668
1047.93	2.03333
1050.82	0.729828
1053.71	0.274719
1056.61	0.271057
1059.5	0.786926
1062.39	2.42654
1065.28	0.938385
1068.18	0.943146
1071.07	1.61282
1073.96	0.08136
1076.85	1.73782
1079.75	1.84222
1082.64	1.87109
1085.53	3.6409
1088.42	3.45602
1091.32	4.81439
1094.21	8.04044
1097.1	11.6323
1100	19.3422
1102.89	40.6981
1105.78	66.4888
1108.67	100.215
1111.57	175.342
1114.46	226.656
1117.35	100.927
1120.24	33.4894
1123.14	15.0742
1126.03	9.40653
1128.92	7.59314
1131.82	4.81366
1134.71	3.52747
1137.6	1.85001
1140.49	0.68222
1143.39	1.83337
1146.28	2.77289
1149.17	2.28015
1152.07	2.17563
1154.96	2.13739
1157.85	0.247223
1160.74	1.5898
1163.63	1.31436
1166.53	0.609695
1169.42	0.737274
1172.31	1.26881
1175.21	0.626343
1178.1	1.23477
1180.99	2.09378
1183.88	1.06288
1186.78	0.41716
1189.67	0.73175
1192.56	1.64804
1195.45	2.85243
1198.35	1.01224
1201.24	2.51411
1204.13	0.053329
1207.03	0.348709
1209.92	0.306213
1212.81	2.53229
1215.7	1.47877
1218.6	0.610977
1221.49	1.10791
1224.38	2.09961
1227.28	0.451324
1230.17	0.280304
1233.06	0.762024
1235.95	0.781891
1238.85	0.055756
1241.74	0.780167
1244.63	2.87747
1247.52	1.70909
1250.42	0.713699
1253.31	0.904785
1256.2	0.524948
1259.09	2.40434
1261.99	2.92926
1264.88	2.56631
1267.77	0.469131
1270.66	3.17233
1273.56	1.4079
1276.45	2.57901
1279.34	1.8568
1282.24	1.86118
1285.13	2.75822
1288.02	0.286133
1290.91	1.38846
1293.81	0.412491
1296.7	0.978287
1299.59	2.49873
1302.48	0.449295
