Measurement: Raman, 532 nm, unoriented, Raman Data Processed
Mineral: Rutherfordine
Rruff sample: R100018
Ideal chemistry: (UO_2_)CO_3_
Locality: Shinkolobwe mine, Katanga, Congo
Source: William Pinch
Description: Pale yellow radiating laths
Raman shift (cm-1)	intensity
142.154	0
145.529	27.3066
148.904	116.897
152.279	238.756
155.654	388.525
159.028	344.581
162.403	185.907
165.778	140.939
169.153	126.377
172.528	126.021
175.902	138.706
179.277	131.964
182.652	122.634
186.027	111.245
189.402	131.898
192.776	124.512
196.151	65.4225
199.526	56.3858
202.901	54.9501
206.276	54.0724
209.651	62.8928
213.025	75.9376
216.4	86.1799
219.775	59.1722
223.15	37.3153
226.525	34.1453
229.899	46.813
233.274	65.5539
236.649	51.4217
240.024	41.4711
243.399	69.036
246.774	81.2644
250.148	30.5694
253.523	7.36945
256.898	3.30316
260.273	22.6387
263.648	6.74725
267.022	2.66809
270.397	8.13477
273.772	7.67804
277.147	6.51318
280.522	7.6333
283.897	2.98645
287.271	2.59631
290.646	1.68524
294.021	1.67481
297.396	11.6009
300.771	7.60693
304.145	13.736
307.52	19.7231
310.895	6.32599
314.27	3.38702
317.645	7.41772
321.019	3.31189
324.394	7.63678
327.769	10.9327
331.144	12.2906
334.519	17.3394
337.894	17.5787
341.268	13.4051
344.643	16.2559
348.018	19.394
351.393	8.47046
354.768	10.6024
358.142	7.10407
361.517	11.0692
364.892	17.4034
368.267	8.88471
371.642	6.49908
375.017	5.55133
378.391	6.00281
381.766	7.37939
385.141	8.60523
388.516	2.64392
391.891	5.17096
395.265	7.01459
398.64	5.01752
402.015	4.19489
405.39	2.72754
408.765	1.88574
412.14	2.27179
415.514	2.70868
418.889	5.76898
422.264	5.79559
425.639	0.354187
429.014	5.98157
432.389	2.52441
435.763	0.634888
439.138	2.24231
442.513	1.81775
445.888	0.168945
449.262	2.08136
452.637	0.143127
456.012	0.022522
459.387	1.76385
462.762	2.15417
466.137	5.0965
469.511	2.11926
472.886	6.45136
476.261	2.88306
479.636	0.349548
483.011	4.2721
486.385	2.88702
489.76	8.44013
493.135	3.98584
496.51	0.735962
499.885	4.82593
503.26	6.05084
506.634	6.83758
510.009	8.82178
513.384	6.89435
516.759	5.72351
520.134	3.24701
523.509	8.19959
526.883	4.58716
530.258	1.70795
533.633	5.42993
537.008	6.70129
540.383	4.60693
543.757	0.795593
547.132	5.43317
550.507	5.65607
553.882	4.03723
557.257	1.42371
560.631	0.360962
564.006	2.89038
567.381	5.43982
570.756	4.83972
574.131	8.44714
577.506	9.37622
580.88	4.48663
584.255	2.83673
587.63	3.18402
591.005	3.43072
594.38	5.32324
597.755	21.1672
601.129	3.95349
604.504	2.1051
607.879	40.7305
611.254	1.76227
614.629	0.998535
618.003	1.24268
621.378	4.99451
624.753	3.64038
628.128	4.84186
631.503	6.64502
634.877	4.8288
638.252	0.17395
641.627	4.33258
645.002	5.20563
648.377	4.61279
651.751	2.3396
655.126	5.29242
658.501	5.28546
661.876	4.05029
665.251	7.45062
668.626	12.2529
672	5.40735
675.375	7.21314
678.75	4.771
682.125	3.64008
685.5	3.10754
688.875	10.7598
692.249	10.9661
695.624	10.1395
698.999	22.7875
702.374	32.0047
705.749	32.484
709.123	14.2717
712.498	6.65051
715.873	10.5856
719.248	7.61719
722.623	0.058044
725.997	4.22729
729.372	1.7652
732.747	1.74817
736.122	2.5581
739.497	6.6098
742.872	0.203979
746.246	5.84192
749.621	5.55823
752.996	0.976074
756.371	1.27551
759.746	1.21191
763.12	2.01984
766.495	4.45831
769.87	5.82159
773.245	27.6062
776.62	38.9728
779.995	97.8867
783.369	165.421
786.744	95.9429
790.119	31.8699
793.494	25.6746
796.869	24.1862
800.244	10.8999
803.618	9.62415
806.993	6.33038
810.368	2.55072
813.743	3.0202
817.118	2.4184
820.492	2.54315
823.867	2.01794
827.242	6.39532
830.617	11.3893
833.992	10.1291
837.366	14.5542
840.741	18.6779
844.116	45.9522
847.491	26.3085
850.866	35.9094
854.24	51.6423
857.615	44.1382
860.99	52.3061
864.365	65.5491
867.74	93.8303
871.115	164.037
874.489	564.561
877.864	817.842
881.239	1917.87
884.614	4036.1
887.989	3035.72
891.364	312.505
894.738	100.501
898.113	42.0253
901.488	22.8592
904.863	23.5477
908.238	12.7278
911.612	7.97296
914.987	6.83972
918.362	7.92346
921.737	4.88342
925.112	0.578979
928.486	0.990601
931.861	1.42859
935.236	2.39392
938.611	3.16638
941.986	15.7056
945.361	3.68292
948.735	7.06592
952.11	6.32886
955.485	3.22662
958.86	0.694275
962.235	1.55725
965.61	5.67798
968.984	0.395813
972.359	3.60211
975.734	6.22717
979.109	19.7358
982.484	5.92065
985.858	7.1062
989.233	4.71417
992.608	1.58234
995.983	4.90466
999.358	6.95166
1002.73	4.83795
1006.11	2.64783
1009.48	5.62579
1012.86	1.9715
1016.23	3.20129
1019.61	11.1907
1022.98	7.59473
1026.36	11.0521
1029.73	5.87085
1033.11	2.46429
1036.48	0.254089
1039.86	4.69025
1043.23	5.59589
1046.61	3.95697
1049.98	3.0473
1053.36	0.219482
1056.73	0.825745
1060.1	4.33826
1063.48	2.01831
1066.85	15.0958
1070.23	4.11023
1073.6	3.63818
1076.98	1.84522
1080.35	5.04767
1083.73	5.92633
1087.1	2.36694
1090.48	6.57666
1093.85	6.77618
1097.23	0.298462
1100.6	9.56329
1103.98	9.96228
1107.35	37.7526
1110.73	68.5876
1114.1	161.119
1117.48	306.32
1120.85	70.3497
1124.23	8.47772
1127.6	7.08673
1130.97	6.0506
1134.35	4.4165
1137.72	2.84076
1141.1	3.1521
1144.47	0.882874
1147.85	12.3159
1151.22	4.35138
1154.6	1.6225
1157.97	1.71356
1161.35	0.835327
1164.72	5.59375
1168.1	4.32355
1171.47	1.11096
1174.85	5.19623
1178.22	4.34277
1181.6	4.86078
1184.97	31.4647
1188.35	3.13043
1191.72	1.70142
1195.1	5.30127
1198.47	14.1673
1201.85	3.29816
1205.22	2.86377
1208.6	2.82013
1211.97	1.88684
1215.35	4.21979
1218.72	6.80273
1222.1	1.36182
1225.47	5.67419
1228.85	1.8244
1232.22	2.92999
1235.6	1.49164
1238.97	3.95606
1242.34	4.05218
1245.72	4.16748
1249.09	7.07074
1252.47	7.61652
1255.84	3.02759
1259.22	7.875
1262.59	3.83301
1265.97	10.2439
1269.34	2.56042
1272.72	8.41107
1276.09	3.31232
1279.47	4.08386
1282.84	6.28095
1286.22	4.07349
1289.59	3.72638
1292.97	15.6187
1296.34	5.01764
1299.72	2.1983
