Measurement: Raman, 785 nm, unoriented, Raman Data Processed
Mineral: Rutile
Rruff sample: R050031
Ideal chemistry: TiO_2_
Locality: Chester City, Pennsylvannia, USA
Source: University of Arizona Mineral Museum
Description: Reddish brown single crystal fragment
Measured chemistry: TiO_2_
Raman shift (cm-1)	intensity
167.785	0
170.677	7.3125
173.57	60.9941
176.463	24.209
179.356	417.633
182.248	761.818
185.141	1059.8
188.034	1619.34
190.926	1925.88
193.819	2387.05
196.712	2908.74
199.604	3390.92
202.497	3767.56
205.39	3927.31
208.282	4275.59
211.175	4277.07
214.068	4530.9
216.961	4970.04
219.853	5225.1
222.746	5488.03
225.639	5341.56
228.531	5380.69
231.424	5153.22
234.317	5020.03
237.209	5199.9
240.102	5097.38
242.995	4840.3
245.888	4741.64
248.78	4387.78
251.673	4084.75
254.566	3902.12
257.458	3662.83
260.351	3718.7
263.244	3327.33
266.137	3123.81
269.029	3044.02
271.922	2514.77
274.815	2215.43
277.707	1921.26
280.6	1557.93
283.493	1398.8
286.385	1121.19
289.278	842.144
292.171	376.84
295.063	67.168
297.956	16.1758
300.849	103.469
303.742	43.4922
306.634	88.6719
309.527	50.5195
312.42	13.1953
315.312	58.9609
318.205	158.477
321.098	95.8203
323.99	1.03516
326.883	209.613
329.776	42.8008
332.669	245.383
335.561	111.867
338.454	28.1484
341.347	30.6602
344.239	3.3125
347.132	235.125
350.025	26.8008
352.918	392.117
355.81	326.281
358.703	292.961
361.596	164.039
364.488	22.3828
367.381	34.9805
370.274	24.2148
373.166	187.578
376.059	333.027
378.952	380.535
381.844	304.988
384.737	452.488
387.63	406.805
390.523	886.598
393.415	1197.12
396.308	1560.85
399.201	1989.66
402.093	2574.57
404.986	3188.42
407.879	3762.55
410.772	4724.42
413.664	5805.66
416.557	7089.52
419.45	8506.53
422.342	9754.78
425.235	11247.7
428.128	12822.9
431.02	14730.1
433.913	16402.7
436.806	17986.3
439.699	19409.5
442.591	20254.1
445.484	20518.3
448.377	19974.5
451.269	18554.7
454.162	16369
457.055	14019.8
459.947	11105.4
462.84	9029.21
465.733	7002.39
468.625	5465.25
471.518	3960.85
474.411	2832.2
477.304	1942.88
480.196	1320.81
483.089	687.453
485.982	416.902
488.874	279.684
491.767	98.4297
494.66	32.5977
497.553	194.906
500.445	101.258
503.338	177.973
506.231	32.3672
509.123	14.0977
512.016	20.3008
514.909	79.3594
517.802	44.3711
520.694	75.6875
523.587	116.066
526.48	58.7461
529.372	28.375
532.265	170.379
535.158	312.445
538.05	176.754
540.943	394.113
543.836	466.973
546.729	587.621
549.621	736.051
552.514	874.906
555.407	1182.43
558.299	1391.48
561.192	1634.65
564.085	2081.75
566.977	2598.84
569.87	2912.35
572.763	3318.95
575.655	3923.73
578.548	4734.52
581.441	5577.98
584.333	6504.91
587.226	7423.39
590.119	8358.9
593.012	9710.22
595.904	10779.2
598.797	12170.7
601.69	13113.3
604.582	13673.9
607.475	13893.7
610.368	13584.8
613.26	12817.2
616.153	11303.7
619.046	9658.12
621.939	8101.03
624.831	6605.15
627.724	5299.81
630.617	4046.28
633.509	3204.43
636.402	2313.59
639.295	1731.96
642.188	1031.48
645.08	889.231
647.973	699.109
650.866	331.773
653.758	161.269
656.651	113.418
659.544	252.086
662.436	2.92188
665.329	137.883
668.222	46.4258
671.115	175.094
674.007	93.2969
676.9	219.07
679.793	291.367
682.685	113.734
685.578	238.266
688.471	223.293
691.363	280.988
694.256	629.879
697.149	577.691
700.042	538.902
702.934	617.195
705.827	605.836
708.72	520.231
711.612	575.137
714.505	538.133
717.398	662.488
720.29	482.586
723.183	383.773
726.076	406.211
728.968	348.644
731.861	183.254
734.754	157.008
737.647	172.043
740.539	109.516
743.432	148.664
746.325	161.316
749.217	69.2422
752.11	82.4453
755.003	176.316
757.895	9.0625
760.788	72.8359
763.681	63.8047
766.574	68.4648
769.466	99.543
772.359	220.043
775.252	161.312
778.144	38.6602
781.037	111.137
783.93	136.09
786.822	165.098
789.715	236.457
792.608	142.574
795.501	395.606
798.393	233.371
801.286	375.898
804.179	94.1602
807.071	206.324
809.964	167.875
812.857	361.871
815.75	354.559
818.642	340.719
821.535	253.691
824.428	94.4727
827.32	178.367
830.213	29.6992
833.106	273.66
835.998	148.453
838.891	210.144
841.784	158.059
844.677	144.688
847.569	107.644
850.462	109.531
853.355	172.027
856.247	157.035
859.14	45.8438
862.033	107.336
864.925	54.4648
867.818	206.668
870.711	331.262
873.604	131.727
876.496	35.2695
879.389	30.1953
882.282	102.383
885.174	77.3672
888.067	95.0469
890.96	118.133
893.852	30.3789
896.745	61.8164
899.638	6.83984
902.53	144.75
905.423	181.695
908.316	151.367
911.209	165.496
914.101	217.074
916.994	193.148
919.887	133.383
922.779	152.93
925.672	4.24219
928.565	95.0625
931.457	255.512
934.35	211.269
937.243	205.691
940.136	42.7734
943.028	199.32
945.921	282.633
948.814	134.816
951.706	117.527
954.599	17.6562
957.492	203.785
960.385	115.269
963.277	201.273
966.17	125.074
969.063	147.348
971.955	79.6797
974.848	84.6523
977.741	127.008
980.633	108.543
983.526	116.711
986.419	123.336
989.312	192.438
992.204	104.309
995.097	140.731
997.99	10.5156
1000.88	254.773
1003.77	180.863
1006.67	196.371
1009.56	226.559
1012.45	154.734
1015.35	116.219
1018.24	175.836
1021.13	2.62891
1024.02	232.094
1026.92	139.703
1029.81	148.894
1032.7	18.2539
1035.6	97.8633
1038.49	148.312
1041.38	188.606
1044.27	122.461
1047.17	124.969
1050.06	45.4062
1052.95	153.273
1055.84	153.59
1058.74	139.043
1061.63	218.902
1064.52	1.29297
1067.41	151.543
1070.31	83.7344
1073.2	305.137
1076.09	193.762
1078.98	169.797
1081.88	222.562
1084.77	105.668
1087.66	11.8477
1090.56	249.75
1093.45	68.5273
1096.34	182.629
1099.23	129.031
1102.13	248.398
1105.02	71.2852
1107.91	122.055
1110.81	15.1719
1113.7	60.1367
1116.59	291.965
1119.48	129.223
1122.38	224.629
1125.27	80.3867
1128.16	69.7188
1131.05	255.379
1133.95	50.457
1136.84	322.246
1139.73	160.488
1142.62	88.582
1145.52	72.0352
1148.41	295.281
1151.3	254.637
1154.19	177.508
1157.09	203
1159.98	168.246
1162.87	37.8281
1165.77	59.457
1168.66	265.133
1171.55	183.613
1174.44	153.285
1177.34	79.0977
1180.23	101.754
1183.12	239.859
1186.02	223.492
1188.91	144.5
1191.8	203.898
1194.69	114.098
1197.59	179.93
1200.48	211.57
1203.37	134.57
1206.26	160.09
1209.16	298.824
1212.05	256.117
1214.94	27.4453
1217.84	167.519
1220.73	158.457
1223.62	192.883
1226.51	58.6992
1229.41	217.465
1232.3	54.207
1235.19	42.5625
