Measurement: Raman, 780 nm, unoriented, Raman Data Processed
Mineral: Rutile
Rruff sample: R050417
Ideal chemistry: TiO_2_
Locality: Champion mine, Mono County, California, USA
Source: Marcus Origlieri
Description: Reddish black equant crystals
Measured chemistry: TiO_2_
Raman shift (cm-1)	intensity
150.673	0
153.566	17.1606
156.458	21.9099
159.351	12.478
162.244	1.8689
165.137	6.90967
168.029	7.33691
170.922	35.5576
173.815	81.3337
176.707	145.881
179.6	228.429
182.493	290.28
185.385	359.772
188.278	423.56
191.171	492.872
194.064	553.744
196.956	623.427
199.849	697.447
202.742	766.216
205.634	825.65
208.527	902.623
211.42	961.82
214.312	1022.61
217.205	1087.4
220.098	1139.72
222.991	1198.05
225.883	1247.75
228.776	1295.93
231.669	1335.87
234.561	1343.06
237.454	1348.64
240.347	1309.86
243.239	1253.71
246.132	1180.12
249.025	1079.75
251.918	973.657
254.81	855.379
257.703	752.063
260.596	678.513
263.488	606.417
266.381	530.904
269.274	468.289
272.166	413.93
275.059	344.596
277.952	288.904
280.845	226.526
283.737	180.258
286.63	124.824
289.523	74.8699
292.415	41.6045
295.308	0.598145
298.201	8.97754
301.094	17.8469
303.986	23.5745
306.879	9.92285
309.772	10.0137
312.664	14.1904
315.557	28.3745
318.45	33.6006
321.342	31.5676
324.235	33.147
327.128	19.3828
330.021	17.5217
332.913	8.6189
335.806	4.14868
338.699	3.24927
341.591	4.18164
344.484	5.42896
347.377	13.2752
350.269	25.916
353.162	21.8189
356.055	28.6045
358.947	20.9998
361.84	13.0764
364.733	12.1174
367.626	0.612549
370.518	0.469727
373.411	3.29053
376.304	9.09521
379.196	25.5388
382.089	28.282
384.982	51.8118
387.875	76.3726
390.767	105.136
393.66	146.793
396.553	196.171
399.445	255.687
402.338	329.846
405.231	414.647
408.123	515.333
411.016	637.7
413.909	779.078
416.802	934.449
419.694	1104.96
422.587	1291.65
425.48	1480.73
428.372	1661.19
431.265	1836.88
434.158	2013.01
437.05	2147.07
439.943	2240.36
442.836	2268.86
445.729	2226.63
448.621	2107.7
451.514	1942.61
454.407	1711.71
457.299	1454.74
460.192	1227.38
463.085	1007.94
465.978	824.742
468.87	660.789
471.763	519.371
474.656	407.534
477.548	311.142
480.441	239.685
483.334	181.471
486.226	127.488
489.119	84.1018
492.012	60.0947
494.904	34.4656
497.797	11.9539
500.69	0.462402
503.583	11.0029
506.475	8.15454
509.368	14.6352
512.261	14.0359
515.153	19.0867
518.046	23.7688
520.939	22.3018
523.832	22.0037
526.724	15.9216
529.617	7.5835
532.51	5.42456
535.402	14.1123
538.295	37.2666
541.188	76.5022
544.08	126.085
546.973	180.93
549.866	250.198
552.759	340.733
555.651	434.559
558.544	562.15
561.437	703.48
564.329	866.597
567.222	1066.71
570.115	1294.47
573.007	1558.33
575.9	1866.82
578.793	2212.47
581.686	2600.51
584.578	3032.67
587.471	3541.58
590.364	4098.14
593.256	4726.24
596.149	5397.51
599.042	6066.06
601.934	6705.76
604.827	7206.48
607.72	7495.99
610.613	7482.24
613.505	7183.26
616.398	6639.46
619.291	5915.28
622.183	5116.88
625.076	4329.11
627.969	3593.56
630.861	2942.99
633.754	2374.5
636.647	1920.26
639.54	1536.75
642.432	1214.36
645.325	959.951
648.218	736.552
651.11	560.218
654.003	419.752
656.896	307.339
659.788	225.117
662.681	152.535
665.574	97.9788
668.467	64.9949
671.359	37.5566
674.252	11.2971
677.145	4.4856
680.037	13.7039
682.93	12.6299
685.823	9.39722
688.716	0.305664
691.608	4.57275
694.501	9.51025
697.394	1.74048
700.286	7.34448
703.179	3.24292
706.072	2.56836
708.965	4.75391
711.857	1.23584
714.75	7.93567
717.643	6.61609
720.535	7.30249
723.428	9.30164
726.321	8.55237
729.213	0.010254
732.106	7.55469
734.999	5.55542
737.891	13.4131
740.784	23.4866
743.677	29.672
746.57	42.7089
749.462	49.0868
752.355	62.3654
755.248	78.1516
758.14	89.4656
761.033	96.1123
763.926	111.081
766.818	123.728
769.711	139.245
772.604	147.727
775.497	165.698
778.389	175.094
781.282	181.762
784.175	194.578
787.067	200.031
789.96	206.55
792.853	204.982
795.745	206.221
798.638	209.282
801.531	199.683
804.424	197.052
807.316	198.367
810.209	189.722
813.102	178.211
815.994	169.464
818.887	163.014
821.78	151.737
824.673	142.666
827.565	136.269
830.458	128.581
833.351	120.09
836.243	105.219
839.136	95.356
842.029	86.2159
844.921	69.7987
847.814	65.7375
850.707	49.631
853.6	42.602
856.492	35.0684
859.385	31.3407
862.278	22.1992
865.17	18.9437
868.063	13.7884
870.956	14.3451
873.848	8.68115
876.741	6.38647
879.634	2.57007
882.527	1.81738
885.419	1.45044
888.312	0.85791
891.205	2.02039
894.097	0.918823
896.99	2.20789
899.883	3.57886
902.775	4.13769
905.668	0.856567
908.561	2.19604
911.454	3.49499
914.346	7.4967
917.239	4.60053
920.132	3.31873
923.024	3.69049
925.917	1.10712
928.81	5.05762
931.702	0.721558
934.595	4.57056
937.488	4.7489
940.381	2.73035
943.273	4.18689
946.166	3.88104
949.059	3.60321
951.951	3.63794
954.844	3.44861
957.737	4.01178
960.63	3.44751
963.522	0.757446
966.415	0.764465
969.308	0.546875
972.2	3.18439
975.093	2.79272
977.986	0.29303
980.878	2.76398
983.771	2.13348
986.664	0.493225
989.557	3.09283
992.449	1.85303
995.342	1.79169
998.235	4.85754
1001.13	2.93164
1004.02	4.30987
1006.91	4.39117
1009.8	4.55035
1012.7	2.55121
1015.59	5.15308
1018.48	2.89087
1021.38	5.86237
1024.27	5.68457
1027.16	5.86255
1030.05	8.19971
1032.95	4.58856
1035.84	7.80835
1038.73	10.1731
1041.62	7.71845
1044.52	8.29303
1047.41	9.58862
1050.3	7.01269
1053.2	7.97925
1056.09	6.29956
1058.98	6.52026
1061.87	7.80188
1064.77	3.61829
1067.66	5.92816
1070.55	5.64441
1073.44	4.72546
1076.34	3.7544
1079.23	7.70685
1082.12	8.7149
1085.02	4.40674
1087.91	5.22253
1090.8	5.30792
1093.69	5.48468
1096.59	1.30914
1099.48	0.934937
1102.37	6.23846
1105.27	2.19049
1108.16	7.34924
1111.05	5.07575
1113.94	2.44324
1116.84	5.08417
1119.73	0.881287
1122.62	0.938965
1125.51	4.53174
1128.41	2.86926
1131.3	6.07568
1134.19	3.74567
1137.08	4.57538
1139.98	6.3869
1142.87	0.74115
1145.76	4.42072
1148.65	5.82123
1151.55	3.87824
1154.44	6.0473
1157.33	6.68341
1160.23	4.75897
1163.12	8.65808
1166.01	5.43353
1168.9	8.24945
1171.8	7.9505
1174.69	9.81177
1177.58	9.96252
1180.47	9.74066
1183.37	1.97632
1186.26	3.73321
1189.15	8.70435
1192.05	6.72626
1194.94	1.68616
1197.83	9.14368
1200.72	4.72492
1203.62	8.51483
1206.51	8.70874
1209.4	6.63318
1212.3	8.28961
1215.19	7.06232
1218.08	2.26489
1220.97	0.173401
1223.87	5.19788
1226.76	1.28717
1229.65	1.19891
1232.54	3.86346
1235.44	2.04681
1238.33	4.03766
1241.22	2.92859
1244.11	1.01727
1247.01	0.066162
1249.9	2.08252
1252.79	0.318848
1255.68	4.13495
1258.58	4.71448
1261.47	2.44775
1264.36	6.39502
1267.26	13.583
1270.15	5.30743
1273.04	2.19135
1275.93	4.30335
1278.83	1.87897
1281.72	3.17932
1284.61	6.16296
