Measurement: Raman, 532 nm, unoriented, Raman Data Processed
Mineral: Rutile
Rruff sample: R060493
Ideal chemistry: TiO_2_
Locality: Diamantina, Minas Gerais, Brazil
Source: Michael Scott
Description: Black tetragonal prism
Measured chemistry: Ti_1.00_O_2_
Raman shift (cm-1)	intensity
85.845	0
89.22	1893.59
92.595	6342.68
95.97	11151.2
99.344	12441.1
102.719	4255.69
106.094	45.968
109.469	1057.19
112.844	3209.28
116.218	10824.5
119.593	22096.7
122.968	31715.1
126.343	29098.3
129.718	23624.8
133.093	22483.4
136.467	26282.1
139.842	28538.5
143.217	26568.8
146.592	16120.8
149.967	11189.1
153.342	7569.59
156.716	4259.88
160.091	1767.73
163.466	105.542
166.841	2366.26
170.216	2379.74
173.59	216.875
176.965	4775.89
180.34	11000.5
183.715	17692.8
187.09	24901.6
190.464	32162
193.839	39307.6
197.214	46832
200.589	55275
203.964	65322
207.339	75849.2
210.713	83465.9
214.088	90319.8
217.463	96820.3
220.838	103217
224.213	107454
227.587	109041
230.962	110691
234.337	111461
237.712	109426
241.087	107574
244.462	104298
247.836	100328
251.211	92686.8
254.586	84173.7
257.961	76411.8
261.336	71133.7
264.711	66594.9
268.085	60202.4
271.46	53297.9
274.835	45484.5
278.21	37895
281.585	29010.5
284.959	21011.6
288.334	11760.8
291.709	4189.24
295.084	2325.42
298.459	224.106
301.833	1735.77
305.208	1178.17
308.583	409.335
311.958	37.154
315.333	214.987
318.708	5.837
322.082	524.999
325.457	517.835
328.832	818.877
332.207	804.659
335.582	634.966
338.957	1072.96
342.331	2146
345.706	2935.36
349.081	4517.54
352.456	6762.35
355.831	6259.81
359.205	3414.87
362.58	488.366
365.955	1411
369.33	2681.47
372.705	1815.66
376.079	189.882
379.454	2100.83
382.829	5059.07
386.204	11799.2
389.579	20475.4
392.954	30921.7
396.328	42532.3
399.703	58580.6
403.078	79153.8
406.453	104824
409.828	136502
413.203	176261
416.577	222393
419.952	275031
423.327	335757
426.702	401425
430.077	471372
433.451	543458
436.826	610926
440.201	668321
443.576	702534
446.951	701720
450.326	654624
453.7	573991
457.075	474296
460.45	370980
463.825	279707
467.2	204706
470.574	146973
473.949	102656
477.324	68960.5
480.699	43563.8
484.074	25909.2
487.448	14288.2
490.823	4379.69
494.198	1632.68
497.573	846.378
500.948	718.321
504.323	1482.95
507.698	696.193
511.072	607.062
514.447	381.335
517.822	1472.42
521.197	1264.22
524.571	585.573
527.946	584.408
531.321	174.715
534.696	171.077
538.071	304.077
541.446	2549.71
544.82	6877.06
548.195	11898.9
551.57	17314.1
554.945	23413.7
558.32	30435.7
561.695	40366.2
565.069	52819.3
568.444	67892.5
571.819	85321.9
575.194	104362
578.569	126884
581.943	153011
585.318	184914
588.693	221619
592.068	261777
595.443	306616
598.818	352497
602.192	394731
605.567	426388
608.942	437609
612.317	422463
615.692	381328
619.067	327140
622.441	268787
625.816	213487
629.191	163362
632.566	121682
635.941	89202.5
639.315	63769.7
642.69	43298.4
646.065	28898.4
649.44	18467.5
652.815	11221.4
656.19	5539.88
659.564	1366.44
662.939	826.524
666.314	1566.82
669.689	861.673
673.064	652.71
676.438	213.262
679.813	611.419
683.188	120.379
686.563	2406.75
689.938	3799.95
693.312	5175.95
696.687	6410.47
700.062	6880.32
703.437	7224.17
706.812	7267.41
710.187	7171.23
713.561	6473.98
716.936	6669.03
720.311	5331.29
723.686	4239.68
727.061	2471.12
730.435	1595.53
733.81	591.42
737.185	560.58
740.56	210.449
743.935	36.282
747.31	55.462
750.684	100.249
754.059	150.746
757.434	670.082
760.809	877.034
764.184	1373.53
767.558	1935.36
770.933	3154.23
774.308	3853.65
777.683	4786.65
781.058	5517.07
784.433	6633.94
787.807	7592.61
791.182	8161.72
794.557	9090.39
797.932	9603.67
801.307	9327.7
804.682	9426.3
808.056	8882.64
811.431	8690.88
814.806	8673.34
818.181	8655.78
821.556	8537.57
824.93	8484
828.305	8330.33
831.68	9073.44
835.055	7221.02
838.43	6249.02
841.805	5297.49
845.179	4467.35
848.554	3625.57
851.929	2713.13
855.304	1935.14
858.679	1518.3
862.054	1048.48
865.428	755.621
868.803	245.661
872.178	24.517
875.553	4.925
878.928	136.318
882.302	196.725
885.677	63.471
889.052	195.293
892.427	112.646
895.802	369.175
899.177	92.041
902.551	241.315
905.926	131.16
909.301	307.299
912.676	413.069
916.05	502.956
919.425	522.547
922.8	558.381
926.175	645.93
929.55	690.046
932.925	597.95
936.299	515.916
939.674	996.807
943.049	264.264
946.424	33.974
949.799	74.889
953.174	51.124
956.548	65.852
959.923	94.512
963.298	12.486
966.673	7.053
970.048	6.015
973.422	68.802
976.797	74.175
980.172	2.703
983.547	75.947
986.922	11.003
990.297	20.917
993.671	99.786
997.046	155.946
1000.42	59.855
1003.8	67.098
1007.17	106.833
1010.54	78.105
1013.92	12.057
1017.29	182.847
1020.67	173.837
1024.05	252.901
1027.42	204.941
1030.79	412.411
1034.17	374.702
1037.54	801.703
1040.92	622.835
1044.29	630.052
1047.67	506.729
1051.04	312.982
1054.42	383.601
1057.79	396.157
1061.17	397.674
1064.54	422.555
1067.92	223.075
1071.29	78.184
1074.67	56.405
1078.04	93.624
1081.42	0.196
1084.79	98.427
1088.17	31.747
1091.54	0.284
1094.92	701.309
1098.29	47.985
1101.67	80.813
1105.04	646.107
1108.41	9.854
1111.79	108.877
1115.16	0.153
1118.54	248.909
1121.91	265.663
1125.29	157.359
1128.66	378.323
1132.04	396.292
1135.41	439.075
1138.79	790.928
1142.16	397.193
1145.54	352.455
1148.91	362.883
1152.29	364.778
1155.66	483.539
1159.04	900.978
1162.41	207.678
1165.79	286.402
1169.16	137.41
1172.54	200.988
1175.91	251.836
1179.29	159.553
1182.66	257.664
1186.04	147.277
1189.41	32.739
1192.79	160.729
1196.16	208.968
1199.54	38.994
1202.91	63.616
1206.29	18.783
1209.66	1230.94
1213.04	51.689
1216.41	112.098
1219.78	17.56
1223.16	83.885
1226.53	98.653
1229.91	156.544
1233.28	199.53
1236.66	236.275
1240.03	154.271
1243.41	183.487
1246.78	295.078
1250.16	355.644
1253.53	149.351
1256.91	230.158
1260.28	307.423
1263.66	343.012
1267.03	384.584
1270.41	353.821
1273.78	456.66
1277.16	193.121
1280.53	155.895
1283.91	109.813
1287.28	317.099
1290.66	99.052
1294.03	26.426
