Measurement: Raman, 780 nm, unoriented, Raman Data Processed
Mineral: Rutile
Rruff sample: R060493
Ideal chemistry: Ti^4+^O_2_
Locality: Diamantina, Minas Gerais, Brazil
Source: Michael Scott
Description: Black tetragonal prism
Measured chemistry: Ti_1.00_O_2_
Raman shift (cm-1)	intensity
93.9705	0
97.3453	19.0264
100.72	16.9033
104.095	34.8621
107.47	70.9065
110.845	97.7527
114.219	118.123
117.594	124.436
120.969	120.961
124.344	154.618
127.719	174.562
131.094	163.267
134.468	154.06
137.843	142.208
141.218	177.083
144.593	213.237
147.968	37.8774
151.342	11.5332
154.717	24.5986
158.092	30.8166
161.467	24.7707
164.842	2.5083
168.216	45.2324
171.591	102.14
174.966	179.966
178.341	270.954
181.716	383.562
185.09	492.146
188.465	595.095
191.84	696.882
195.215	807.963
198.59	917.586
201.965	1030.71
205.339	1140.59
208.714	1240.46
212.089	1327.87
215.464	1407.87
218.839	1467.28
222.214	1518.49
225.588	1571.65
228.963	1607.18
232.338	1615.33
235.713	1603.98
239.088	1580.91
242.462	1522.01
245.837	1442.13
249.212	1354.64
252.587	1241.2
255.962	1123.87
259.336	1022.12
262.711	922.578
266.086	841.332
269.461	763.822
272.836	674.326
276.211	574.271
279.585	473.938
282.96	384.29
286.335	267.271
289.71	169.493
293.085	97.928
296.459	36.991
299.834	5.13574
303.209	28.7427
306.584	38.8293
309.959	27.0466
313.334	11.6746
316.708	6.06201
320.083	14.3933
323.458	18.7695
326.833	17.2185
330.207	12.9714
333.582	7.33569
336.957	15.6335
340.332	17.843
343.707	26.0979
347.082	34.031
350.456	36.2019
353.831	43.3218
357.206	59.9802
360.581	43.3852
363.956	20.9663
367.33	3.8584
370.705	6.99976
374.08	4.64087
377.455	8.11865
380.83	28.3821
384.205	65.9443
387.579	112.227
390.954	180.086
394.329	265.113
397.704	359.938
401.079	491.807
404.453	667.289
407.828	867.46
411.203	1115
414.578	1401.71
417.953	1736.87
421.327	2142.26
424.702	2569.28
428.077	3034.73
431.452	3515.72
434.827	3973.41
438.202	4363.54
441.576	4698.16
444.951	4839.71
448.326	4784.44
451.701	4495.17
455.076	3953.24
458.45	3287.11
461.825	2610.42
465.2	1969.29
468.575	1464.16
471.95	1056.49
475.325	733.267
478.699	494.247
482.074	317.803
485.449	189.193
488.824	95.7952
492.199	33.6616
495.573	7.31885
498.948	32.7891
502.323	39.0151
505.698	32.531
509.073	12.4273
512.447	3.09497
515.822	2.26343
519.197	6.79956
522.572	9.24707
525.947	15.3486
529.322	21.1262
532.696	25.2227
536.071	35.2158
539.446	63.1902
542.821	88.2578
546.196	128.161
549.57	193.928
552.945	262.224
556.32	339.387
559.695	425.963
563.07	542.449
566.444	694.207
569.819	880.17
573.194	1096.77
576.569	1358.8
579.944	1637.94
583.319	1966.09
586.693	2338.93
590.068	2753.43
593.443	3245.72
596.818	3770.86
600.193	4298.24
603.567	4766.28
606.942	5079.03
610.317	5147.48
613.692	4915.27
617.067	4430.01
620.442	3780.99
623.816	3087.18
627.191	2446.26
630.566	1876.29
633.941	1418.19
637.316	1057.23
640.69	763.424
644.065	542.007
647.44	373.103
650.815	242.897
654.19	150.53
657.564	93.0183
660.939	38.199
664.314	7.27319
667.689	8.82593
671.064	20.9336
674.439	22.738
677.813	10.915
681.188	13.3354
684.563	4.42334
687.938	16.9819
691.313	35.1728
694.688	47.8596
698.062	53.198
701.437	63.956
704.812	71.0447
708.187	76.9292
711.562	75.9302
714.936	75.4475
718.311	67.8757
721.686	56.7063
725.061	48.188
728.436	35.9238
731.81	32.6912
735.185	22.6277
738.56	11.9014
741.935	0.233887
745.31	2.39526
748.684	0.683838
752.059	0.369385
755.434	2.90991
758.809	6.95679
762.184	9.05823
765.559	9.8794
768.933	19.4011
772.308	26.6653
775.683	33.1167
779.058	38.9855
782.433	46.9506
785.808	54.1675
789.182	63.9426
792.557	71.6581
795.932	78.9728
799.307	81.3012
802.682	83.0217
806.056	89.5891
809.431	86.657
812.806	82.0913
816.181	80.8778
819.556	83.7347
822.93	78.0815
826.305	76.8463
829.68	68.5144
833.055	65.5302
836.43	61.4106
839.804	59.3442
843.179	48.7317
846.554	44.9751
849.929	37.5115
853.304	31.7065
856.679	22.8345
860.053	18.5477
863.428	21.9246
866.803	15.0013
870.178	8.13867
873.553	5.81433
876.927	4.11304
880.302	11.271
883.677	4.64453
887.052	12.0242
890.427	0.641235
893.802	0.309448
897.176	0.091064
900.551	2.51587
903.926	1.58106
907.301	0.303833
910.676	2.27808
914.05	2.31531
917.425	2.43835
920.8	2.49536
924.175	6.81836
927.55	6.41748
930.924	3.23743
934.299	5.94055
937.674	2.52002
941.049	3.04431
944.424	1.02771
947.799	3.47302
951.173	0.591064
954.548	9.0957
957.923	7.68164
961.298	0.673706
964.673	0.432617
968.047	2.04236
971.422	0.117432
974.797	0.20874
978.172	0.175781
981.547	0.372925
984.922	0.802979
988.296	1.35486
991.671	1.85169
995.046	4.94824
998.421	1.98914
1001.8	2.61316
1005.17	3.04883
1008.54	4.3147
1011.92	5.09814
1015.29	2.24988
1018.67	4.75061
1022.04	4.47217
1025.42	6.33179
1028.79	2.93066
1032.17	7.37744
1035.54	8.66577
1038.92	6.32922
1042.29	4.77075
1045.67	8.03394
1049.04	6.55078
1052.42	6.10742
1055.79	4.9596
1059.17	5.42151
1062.54	9.92419
1065.92	8.69165
1069.29	6.84351
1072.67	5.28552
1076.04	5.41186
1079.42	4.83032
1082.79	4.63391
1086.17	2.07971
1089.54	4.74634
1092.92	3.03882
1096.29	1.43054
1099.66	0.593628
1103.04	1.9906
1106.41	2.57068
1109.79	3.81018
1113.16	0.459106
1116.54	2.89087
1119.91	2.34351
1123.29	3.65454
1126.66	2.72839
1130.04	6.73792
1133.41	10.197
1136.79	7.91138
1140.16	14.3385
1143.54	14.0981
1146.91	12.6735
1150.29	16.0991
1153.66	9.73328
1157.04	12.9927
1160.41	9.35229
1163.79	11.7615
1167.16	13.2228
1170.54	11.468
1173.91	17.1051
1177.29	13.5591
1180.66	13.7673
1184.04	13.2799
1187.41	9.99097
1190.79	11.3614
1194.16	12.4707
1197.54	13.5946
1200.91	12.569
1204.28	8.27942
1207.66	10.2188
1211.03	8.65259
1214.41	5.28589
1217.78	3.35193
1221.16	1.6012
1224.53	1.80273
1227.91	9.87646
1231.28	6.17481
1234.66	3.16589
1238.03	2.23853
1241.41	3.06702
1244.78	1.00586
1248.16	1.70972
1251.53	3.00818
1254.91	5.2948
1258.28	4.42419
1261.66	5.02478
1265.03	4.50293
1268.41	0.300537
1271.78	1.42078
1275.16	0.991699
1278.53	4.58167
1281.9	0.014526
