Measurement: Raman, 785 nm, unoriented, Raman Data Processed
Mineral: Rutile
Rruff sample: R060745
Ideal chemistry: TiO_2_
Locality: Zagi Mountain near Hammedabad, Knaffor Dehri, NW Frontier Provence, Pakistan
Source: Herb Obodda
Description: Group of black prismatic crystals
Measured chemistry: (Ti_0.96_Nb^5+^_0.02_Fe^3+^_0.02_)_Î£=1_O_2_
Raman shift (cm-1)	intensity
159.615	0
162.508	1.633
165.4	115.236
168.293	163.442
171.186	210.514
174.078	247.863
176.971	203.567
179.864	229.532
182.757	260.174
185.649	305.567
188.542	272.017
191.435	328.316
194.327	303.473
197.22	331.886
200.113	411.317
203.005	402.499
205.898	404.328
208.791	431.714
211.684	461.589
214.576	462.693
217.469	437.113
220.362	486.686
223.254	517.72
226.147	508.563
229.04	495.498
231.932	501.757
234.825	575.167
237.718	516.837
240.611	515.543
243.503	506.584
246.396	530.128
249.289	454.576
252.181	440.129
255.074	440.398
257.967	399.526
260.859	411.73
263.752	363.837
266.645	331.834
269.538	307.763
272.43	272.018
275.323	240.937
278.216	241.774
281.108	217.058
284.001	210.023
286.894	182.199
289.786	111.85
292.679	132.975
295.572	154.033
298.465	128.399
301.357	133.38
304.25	127.33
307.143	111.291
310.035	99.486
312.928	68.037
315.821	79.581
318.714	87.319
321.606	25.322
324.499	23.338
327.392	1.933
330.284	97.432
333.177	98.826
336.07	42.962
338.962	64.245
341.855	58.237
344.748	61.46
347.641	59.597
350.533	90.163
353.426	109.47
356.319	109.398
359.211	110.542
362.104	75.579
364.997	142.901
367.889	92.318
370.782	117.213
373.675	187.509
376.568	142.203
379.46	184.964
382.353	208.109
385.246	218.203
388.138	210.539
391.031	331.414
393.924	334.257
396.816	453.282
399.709	457.302
402.602	547.44
405.495	618.45
408.387	689.786
411.28	757.766
414.173	940.416
417.065	1092.66
419.958	1196.45
422.851	1337.78
425.743	1506.09
428.636	1647.62
431.529	1740.36
434.422	1844.72
437.314	1968.2
440.207	2002.9
443.1	2065.96
445.992	1911.77
448.885	1816.91
451.778	1691.73
454.67	1459.22
457.563	1293.48
460.456	1073.15
463.349	903.869
466.241	780.224
469.134	686.558
472.027	519.825
474.919	455.593
477.812	406.883
480.705	326.797
483.597	272.703
486.49	291.389
489.383	270.095
492.276	196.24
495.168	205.808
498.061	188.525
500.954	184.601
503.846	157.542
506.739	110.179
509.632	91.207
512.524	51.725
515.417	103.328
518.31	75.378
521.203	46.097
524.095	33.547
526.988	1.077
529.881	5.568
532.773	66.035
535.666	19.081
538.559	47.29
541.451	33.697
544.344	32.586
547.237	53.623
550.13	78.569
553.022	72.518
555.915	162.028
558.808	228.719
561.7	264.28
564.593	336.41
567.486	349.356
570.378	443.721
573.271	612.417
576.164	734.996
579.057	844.06
581.949	963.829
584.842	1055.95
587.735	1123.89
590.627	1218.52
593.52	1282.7
596.413	1451.08
599.305	1626.02
602.198	1733.04
605.091	1838.96
607.984	2027.49
610.876	2102.11
613.769	2117.67
616.662	2029.08
619.554	1916.4
622.447	1779.03
625.34	1709.85
628.232	1500.37
631.125	1377.63
634.018	1269.39
636.911	1181.56
639.803	1077.47
642.696	1010.36
645.589	945.939
648.481	896.234
651.374	851.262
654.267	819.582
657.159	761.099
660.052	752.031
662.945	667.274
665.838	599.343
668.73	564.242
671.623	496.946
674.516	485.22
677.408	500.002
680.301	416.777
683.194	406.481
686.086	308.769
688.979	329.834
691.872	367.269
694.765	287.205
697.657	293.136
700.55	283.095
703.443	262.861
706.335	227.57
709.228	215.836
712.121	156.552
715.013	167.486
717.906	133.968
720.799	161.239
723.692	154.502
726.584	119.997
729.477	127.539
732.37	86.453
735.262	72.968
738.155	99.233
741.048	84.548
743.94	79.101
746.833	78.109
749.726	78.08
752.619	61.251
755.511	5.722
758.404	4.398
761.297	2.631
764.189	18.108
767.082	23.422
769.975	89.935
772.867	19.206
775.76	15.587
778.653	17.366
781.545	16.027
784.438	9.81
787.331	5.237
790.224	1.065
793.116	33.055
796.009	12.096
798.902	29.029
801.794	35.442
804.687	11.432
807.58	6.717
810.472	43.419
813.365	10.882
816.258	77.166
819.151	76.629
822.043	106.449
824.936	81.129
827.829	34.521
830.721	63.552
833.614	57.258
836.507	28.241
839.4	67.516
842.292	40.453
845.185	51.876
848.078	23.51
850.97	34.445
853.863	27.808
856.756	33.307
859.648	48.998
862.541	5.752
865.434	23.074
868.327	47.404
871.219	6.976
874.112	30.817
877.005	24.237
879.897	21.626
882.79	29.216
885.683	15.591
888.576	38.746
891.468	4.024
894.361	17.706
897.254	8.315
900.146	2.818
903.039	14.363
905.932	10.669
908.824	2.881
911.717	25.508
914.61	9.267
917.503	1.859
920.395	40.723
923.288	6.325
926.181	5.893
929.073	13.711
931.966	36.986
934.859	11.016
937.751	7.226
940.644	14.33
943.537	4.272
946.43	11.879
949.322	17.945
952.215	25.317
955.108	11.925
958	6.52
960.893	33.925
963.786	13.959
966.678	7.65
969.571	55.22
972.464	6.494
975.357	33.063
978.249	39.368
981.142	48.694
984.035	32.908
986.927	33.746
989.82	22.206
992.713	34.167
995.605	13.322
998.498	20.846
1001.39	67.054
1004.28	33.259
1007.18	21.755
1010.07	40.828
1012.96	37.461
1015.85	32.643
1018.75	33.997
1021.64	28.018
1024.53	52.575
1027.42	53.607
1030.32	23.712
1033.21	43.479
1036.1	32.949
1039	60.887
1041.89	3.338
1044.78	13.531
1047.67	19.378
1050.57	46.704
1053.46	5.421
1056.35	54.825
1059.24	30.376
1062.14	34.212
1065.03	61.431
1067.92	16.926
1070.82	43.495
1073.71	23.013
1076.6	28.306
1079.49	4.536
1082.39	0.216
1085.28	6.815
1088.17	30.95
1091.07	65.176
1093.96	73.285
1096.85	59.977
1099.74	32.236
1102.63	53.36
1105.53	36.916
1108.42	25.872
1111.31	35.662
1114.21	24.923
1117.1	22.604
1119.99	76.75
1122.88	42.754
1125.78	49.874
1128.67	57.709
1131.56	28.857
1134.45	50.233
1137.35	37.194
1140.24	28.276
1143.13	38.59
1146.03	2.472
1148.92	37.6
1151.81	32.804
1154.7	51.548
1157.6	36.104
1160.49	76.65
1163.38	30.235
1166.28	31.715
1169.17	34.941
1172.06	21.685
1174.95	1.327
1177.85	52.938
1180.74	34.06
1183.63	46.882
1186.52	4.18
1189.42	10.914
1192.31	8.813
1195.2	10.841
1198.09	15.695
1200.99	29.062
1203.88	3.958
1206.77	6.105
1209.66	34.089
1212.56	70.835
1215.45	26.727
1218.34	31.893
1221.24	21.227
1224.13	61.968
1227.02	0.971
1229.91	31.237
1232.81	72.455
1235.7	38.025
1238.59	12.699
1241.48	0.795
1244.38	21.638
1247.27	22.957
1250.16	18.909
1253.06	54.933
1255.95	0.267
1258.84	11.486
1261.73	45.726
1264.63	65.542
1267.52	29.382
1270.41	30.075
