Measurement: Raman, 532 nm, unoriented, Raman Data Processed
Mineral: Rutile
Rruff sample: R050031
Ideal chemistry: TiO_2_
Locality: Chester City, Pennsylvannia, USA
Source: University of Arizona Mineral Museum
Description: Reddish brown single crystal fragment
Measured chemistry: TiO_2_
Raman shift (cm-1)	intensity
157.376	0
160.268	112.464
163.161	31.9863
166.054	47.2188
168.946	82.7031
171.839	292.924
174.732	566.556
177.625	852.267
180.517	1188.36
183.41	1575.14
186.303	1981.96
189.195	2393.38
192.088	2808.81
194.981	3220.86
197.874	3699.77
200.766	4074.76
203.659	4466.3
206.552	4985.77
209.444	5449.65
212.337	5863.13
215.23	6238.03
218.122	6612.62
221.015	6831.6
223.908	7106.31
226.8	7294.76
229.693	7442.18
232.586	7568.96
235.479	7585.54
238.371	7341.6
241.264	7148.9
244.157	6937.76
247.049	6588.69
249.942	6207.61
252.835	5875.82
255.727	5307.58
258.62	4955.19
261.513	4597.86
264.406	4258.11
267.298	3843.47
270.191	3484.49
273.084	3063.5
275.976	2646.08
278.869	2368.57
281.762	1931.64
284.655	1441.53
287.547	1016.2
290.44	720.518
293.333	368.485
296.225	263.701
299.118	87.5488
302.011	92.9912
304.904	178.428
307.796	39.6348
310.689	76.5879
313.582	78.1992
316.474	80.6807
319.367	28.6211
322.26	23.8203
325.152	83.2139
328.045	42.8916
330.938	85.3232
333.83	40.7402
336.723	8.37109
339.616	33.3057
342.509	14
345.401	145.721
348.294	154.742
351.187	196.774
354.079	283.243
356.972	277.074
359.865	200.772
362.757	271.185
365.65	226.01
368.543	124.461
371.436	231.975
374.328	369.955
377.221	591.816
380.114	806.949
383.006	1114.62
385.899	1579.28
388.792	1981.54
391.685	2644.81
394.577	3250.85
397.47	4265.66
400.363	5351.76
403.255	6662.88
406.148	8272.65
409.041	10053.8
411.933	12143.1
414.826	14658.7
417.719	17481.2
420.611	20706
423.504	24232.2
426.397	27989
429.29	31737.1
432.182	35574.1
435.075	39050.8
437.968	42029.8
440.86	43717.2
443.753	44607.8
446.646	43376.9
449.538	40985.4
452.431	36751.6
455.324	31546
458.217	26252.8
461.109	21202.3
464.002	16647.3
466.895	12973.9
469.787	10011.3
472.68	7607.81
475.573	5571.56
478.466	4075.81
481.358	2823.84
484.251	2016.04
487.144	1313.51
490.036	953.547
492.929	390.723
495.822	65.6758
498.714	70.1894
501.607	116.871
504.5	193.182
507.393	107.982
510.285	75.6953
513.178	69.2529
516.071	87.2715
518.963	161.377
521.856	96.1904
524.749	69.5898
527.641	136.999
530.534	7.47266
533.427	43.6377
536.32	177.731
539.212	216.675
542.105	443.859
544.998	742.812
547.89	1066.75
550.783	1601.82
553.676	2061.64
556.568	2555.5
559.461	3324.89
562.354	4221.13
565.247	5101.06
568.139	6272.53
571.032	7463.01
573.925	9024.46
576.817	10674
579.71	12421.4
582.603	14600.9
585.495	17106.2
588.388	19629.9
591.281	22624.5
594.174	25834.5
597.066	29000.3
599.959	32198.3
602.852	34717.7
605.744	36029.8
608.637	36232.9
611.53	34880.5
614.423	32600.5
617.315	28838.2
620.208	25084
623.101	21124
625.993	17353.6
628.886	14147.7
631.779	11244.6
634.671	8761.76
637.564	6860.15
640.457	5271.1
643.35	4004.24
646.242	2783.87
649.135	2015.31
652.028	1395.88
654.92	836.453
657.813	551.598
660.706	293.389
663.598	100.245
666.491	43.7822
669.384	115.356
672.277	178.51
675.169	40.3398
678.062	7.10938
680.955	147.86
683.847	222.829
686.74	375.991
689.633	437.838
692.525	604.919
695.418	581.113
698.311	694.19
701.204	655.893
704.096	569.29
706.989	498.331
709.882	366.775
712.774	356.975
715.667	289.49
718.56	239.121
721.452	166.883
724.345	113.062
727.238	77.1592
730.131	12.0645
733.023	0.481445
735.916	53.7725
738.809	21.6299
741.701	19.1436
744.594	62.9932
747.487	27.8633
750.38	97.4561
753.272	145.842
756.165	222.862
759.058	403.831
761.95	429.489
764.843	516.839
767.736	693.675
770.628	798.541
773.521	952.4
776.414	1102.48
779.307	1186.37
782.199	1407.46
785.092	1573.44
787.985	1750.45
790.877	1732.28
793.77	1841.86
796.663	1882.89
799.555	1793.58
802.448	1805.13
805.341	1696.4
808.234	1695.01
811.126	1586.95
814.019	1511.53
816.912	1445.12
819.804	1316.91
822.697	1304.87
825.59	1226.27
828.482	1131.09
831.375	1007.5
834.268	937.427
837.16	757.608
840.053	672.233
842.946	569.7
845.839	448.183
848.731	379.879
851.624	256.428
854.517	187.354
857.409	124.808
860.302	87.4954
863.195	65.0789
866.087	27.072
868.98	24.1148
871.873	26.1494
874.766	15.7624
877.658	16.1467
880.551	13.1294
883.444	47.8386
886.337	20.5593
889.229	9.32715
892.122	38.3279
895.015	43.0513
897.907	49.8108
900.8	73.9165
903.693	71.8127
906.585	93.0601
909.478	92.0046
912.371	125.592
915.264	128.346
918.156	78.4978
921.049	142.125
923.942	112.598
926.834	107.085
929.727	105.738
932.62	76.1914
935.512	80.6797
938.405	51.3975
941.298	89.2375
944.191	38.4143
947.083	55.7593
949.976	42.5464
952.869	40.0523
955.761	17.3408
958.654	40.9365
961.547	43.0288
964.439	21.2637
967.332	23.5418
970.225	46.9522
973.117	37.273
976.01	21.1343
978.903	56.6782
981.796	17.2373
984.688	14.6509
987.581	16.957
990.474	1.42456
993.366	19.9983
996.259	33.2693
999.152	43.301
1002.04	25.4739
1004.94	22.3709
1007.83	9.39697
1010.72	20.7317
1013.62	47.7615
1016.51	26.4685
1019.4	6.92566
1022.29	19.7024
1025.19	5.13489
1028.08	11.7502
1030.97	34.4412
1033.86	42.5688
1036.76	121.044
1039.65	40.0653
1042.54	39.8978
1045.43	71.2405
1048.33	47.2874
1051.22	35.0076
1054.11	68.6045
1057.01	31.597
1059.9	66.6897
1062.79	52.9519
1065.68	43.2656
1068.58	24.0986
1071.47	31.2111
1074.36	43.7194
1077.26	11.954
1080.15	31.6941
1083.04	27.5395
1085.93	2.81128
1088.83	14.2712
1091.72	10.9932
1094.61	2.06494
1097.5	60.0996
1100.4	32.0527
1103.29	33.0236
1106.18	34.9864
1109.07	7.67896
1111.97	33.9801
1114.86	24.1858
1117.75	43.043
1120.64	24.9536
1123.54	29.7855
1126.43	44.4469
1129.32	50.3364
1132.22	24.1882
1135.11	22.9567
1138	24.259
1140.89	55.0693
1143.79	71.1003
1146.68	48.0256
1149.57	2.19604
1152.46	11.4413
1155.36	27.0158
1158.25	23.943
1161.14	49.9377
1164.04	38.9054
1166.93	27.0631
1169.82	17.0582
1172.71	64.5253
1175.61	8.43762
1178.5	32.1089
1181.39	28.8798
1184.29	25.7955
1187.18	32.3727
1190.07	12.6423
1192.96	31.37
1195.86	11.5825
1198.75	42.4323
1201.64	30.0983
1204.53	37.4902
1207.43	45.3585
1210.32	34.2756
1213.21	13.4548
1216.1	2.04394
1219	16.6497
1221.89	56.5946
1224.78	27.0736
1227.67	40.1462
1230.57	29.675
1233.46	25.4518
1236.35	35.5136
1239.25	74.9764
1242.14	24.9938
1245.03	57.8163
1247.92	36.9648
1250.82	52.0448
1253.71	45.8403
1256.6	48.1066
1259.49	43.0667
1262.39	58.6254
1265.28	62.1648
1268.17	34.6887
1271.07	38.5293
1273.96	57.0306
1276.85	44.6256
1279.74	37.5394
1282.64	24.3119
1285.53	22.1628
1288.42	42.6462
1291.32	0
