Measurement: Raman, 532 nm, unoriented, Raman Data Processed
Mineral: Rutile
Rruff sample: R050417
Ideal chemistry: TiO_2_
Locality: Champion mine, Mono County, California, USA
Source: Marcus Origlieri
Description: Reddish black equant crystals
Measured chemistry: TiO_2_
Raman shift (cm-1)	intensity
150.208	0
153.1	3.32364
155.993	7.16635
158.886	7.76856
161.778	1.27789
164.671	0.818115
167.564	1.52545
170.456	0.423401
173.349	8.37436
176.242	14.5501
179.135	23.0534
182.027	36.054
184.92	47.0161
187.813	59.1288
190.705	76.0413
193.598	85.7416
196.491	102.236
199.383	116.625
202.276	130.973
205.169	148.521
208.061	166.135
210.954	176.58
213.847	193.372
216.74	205.047
219.632	217.77
222.525	227.575
225.418	232.704
228.31	239.738
231.203	244.731
234.096	246.63
236.988	247.87
239.881	244.404
242.774	241.179
245.667	230.362
248.559	219.379
251.452	205.841
254.345	192.669
257.237	178.961
260.13	164.573
263.023	152.793
265.916	138.39
268.808	127.103
271.701	115.32
274.594	102.87
277.486	90.871
280.379	76.557
283.272	60.3604
286.164	45.6287
289.057	35.2188
291.95	20.9557
294.842	9.50754
297.735	1.92755
300.628	0.831085
303.521	3.43527
306.413	1.76154
309.306	2.99973
312.199	1.26477
315.091	2.89062
317.984	1.19235
320.877	2.63144
323.769	3.25204
326.662	2.71033
329.555	2.33984
332.448	0.992554
335.34	2.27411
338.233	2.58606
341.126	0.687317
344.018	1.56915
346.911	2.3988
349.804	8.09051
352.697	7.34845
355.589	7.95685
358.482	8.85535
361.375	5.81268
364.267	4.7149
367.16	2.11194
370.053	3.89465
372.945	3.99213
375.838	3.40814
378.731	8.25769
381.623	15.2794
384.516	23.494
387.409	30.1352
390.302	39.145
393.194	52.7555
396.087	66.7344
398.98	86.0974
401.872	103.707
404.765	131.128
407.658	160.171
410.55	195.12
413.443	227.924
416.336	271.415
419.229	316.052
422.121	362.168
425.014	411.112
427.907	455.475
430.799	506.181
433.692	545.583
436.585	586.533
439.478	608.185
442.37	617.336
445.263	615.25
448.156	583.334
451.048	539.901
453.941	475.842
456.834	406.715
459.726	337.467
462.619	269.505
465.512	212.931
468.404	164.436
471.297	123.418
474.19	90.5864
477.083	64.2158
479.975	44.4081
482.868	28.4712
485.761	14.2599
488.653	8.96793
491.546	0.081238
494.439	3.88196
497.332	4.49115
500.224	4.8364
503.117	4.47101
506.01	5.62537
508.902	2.6619
511.795	1.83371
514.688	0.933197
517.58	3.97696
520.473	3.47287
523.366	2.09235
526.259	2.88754
529.151	2.66864
532.044	6.24628
534.937	8.6543
537.829	9.59314
540.722	15.1563
543.615	19.5199
546.507	29.5303
549.4	38.6801
552.293	48.8889
555.186	62.1597
558.078	75.9951
560.971	96.8427
563.864	120.945
566.756	145.824
569.649	177.451
572.542	214.268
575.434	258.683
578.327	309.508
581.22	363.236
584.112	420.32
587.005	485.199
589.898	554.038
592.791	630.956
595.683	708.246
598.576	781.468
601.469	842.803
604.361	887.839
607.254	909.325
610.147	899.021
613.04	852.894
615.932	781.977
618.825	692.481
621.718	592.405
624.61	492.957
627.503	401.267
630.396	324.174
633.288	255.652
636.181	199.631
639.074	150.983
641.967	112.002
644.859	79.48
647.752	57.1731
650.645	36.6503
653.537	22.946
656.43	12.072
659.323	4.72223
662.216	0.493591
665.108	2.29297
668.001	5.50735
670.894	6.98862
673.786	4.77487
676.679	0.243286
679.572	0.36499
682.464	5.28308
685.357	8.68848
688.25	9.60403
691.143	11.6549
694.035	13.1151
696.928	15.1186
699.821	15.6584
702.713	13.4422
705.606	12.4569
708.499	13.0891
711.391	11.2282
714.284	8.71991
717.177	7.5
720.069	6.63644
722.962	5.69086
725.855	3.80469
728.748	0.890503
731.64	1.20218
734.533	1.53455
737.426	1.35947
740.318	0.077881
743.211	0.347504
746.104	2.20367
748.996	3.15613
751.889	6.58752
754.782	9.38376
757.675	12.6305
760.567	18.7583
763.46	25.7824
766.353	32.526
769.245	39.0101
772.138	46.9907
775.031	54.4842
777.923	59.8655
780.816	66.8178
783.709	74.2205
786.602	81.5279
789.494	82.8299
792.387	87.3745
795.28	90.8748
798.172	91.639
801.065	90.7983
803.958	90.2998
806.851	86.7716
809.743	81.9827
812.636	78.3553
815.529	73.8537
818.421	68.5743
821.314	62.8205
824.207	58.5974
827.099	52.0397
829.992	45.9734
832.885	41.0761
835.778	35.0451
838.67	28.5529
841.563	24.9489
844.456	18.7898
847.348	14.387
850.241	10.5533
853.134	7.29346
856.026	5.88211
858.919	3.85155
861.812	1.61661
864.705	1.30823
867.597	0.177086
870.49	0.173492
873.383	0.694458
876.275	0.847008
879.168	0.706215
882.061	0.497192
884.953	0.294243
887.846	0.092453
890.739	0.504059
893.631	0.616745
896.524	1.13045
899.417	0.400627
902.31	1.51857
905.202	2.01096
908.095	2.91732
910.988	2.7339
913.88	4.18562
916.773	3.68489
919.666	4.65865
922.558	4.39716
925.451	4.74754
928.344	4.68325
931.237	4.62972
934.129	4.32791
937.022	3.93806
939.915	2.94068
942.807	2.64392
945.7	2.16606
948.593	2.18644
951.486	2.27724
954.378	2.7335
957.271	1.70694
960.164	1.96254
963.056	1.75726
965.949	1.56422
968.842	1.72047
971.734	1.63758
974.627	1.64665
977.52	1.54177
980.413	1.3591
983.305	1.25747
986.198	1.30733
989.091	0.823112
991.983	1.28906
994.876	0.994541
997.769	0.752003
1000.66	0.432903
1003.55	0.084118
1006.45	0.160286
1009.34	0.54217
1012.23	0.115347
1015.12	0.299179
1018.02	-0.087725
1020.91	0.868988
1023.8	0.020596
1026.7	0.128429
1029.59	0.535263
1032.48	0.213528
1035.37	0.115711
1038.27	0.816872
1041.16	1.24117
1044.05	0.179539
1046.94	0.377041
1049.84	0.826309
1052.73	0.986073
1055.62	1.0735
1058.52	0.899662
1061.41	0.402729
1064.3	0.566925
1067.19	0.757
1070.09	0.003155
1072.98	0.501209
1075.87	0.141026
1078.76	0.263435
1081.66	0.300861
1084.55	0.067924
1087.44	0.552139
1090.34	0.033489
1093.23	0.085957
1096.12	0.231609
1099.01	0.547623
1101.91	0.351387
1104.8	0.446548
1107.69	0.429482
1110.58	0.300224
1113.48	0.346153
1116.37	0.049633
1119.26	0.283047
1122.15	1.31532
1125.05	0.402473
1127.94	0.362312
1130.83	0.464592
1133.73	1.11314
1136.62	0.803486
1139.51	1.09828
1142.4	1.21141
1145.3	0.94371
1148.19	1.11581
1151.08	1.13178
1153.97	1.746
1156.87	0.574165
1159.76	0.881622
1162.65	0.684479
1165.55	1.12369
1168.44	0.882133
1171.33	0.51688
1174.22	1.24104
1177.12	0.719807
1180.01	0.20665
1182.9	0.415531
1185.79	0.894814
1188.69	0.578003
1191.58	0.233284
1194.47	0.255108
1197.37	0.555477
1200.26	0.22488
1203.15	0.232491
1206.04	0.517117
1208.94	0.055622
1211.83	0.302227
1214.72	0.59267
1217.61	0.072929
1220.51	0.016132
1223.4	1.29489
1226.29	0.2332
1229.18	0.379784
1232.08	0.490986
1234.97	1.03056
1237.86	0.370941
1240.76	0.836456
1243.65	0.858238
1246.54	0.401043
1249.43	1.41278
1252.33	1.03508
1255.22	1.1401
1258.11	1.10369
1261	0.286878
1263.9	0.993815
1266.79	0.616089
1269.68	0.314491
1272.58	1.31429
1275.47	0.622673
1278.36	0.481564
1281.25	0.502766
1284.15	0.420288
1287.04	0.753101
1289.93	0.584618
1292.82	0.57708
1295.72	0.007114
1298.61	0.27763
1301.5	0.078465
1304.39	0
