Measurement: Raman, 514 nm, unoriented, Raman Data Processed
Mineral: Rutile
Rruff sample: R050031
Ideal chemistry: TiO_2_
Locality: Chester City, Pennsylvannia, USA
Source: University of Arizona Mineral Museum
Description: Reddish brown single crystal fragment
Measured chemistry: TiO_2_
Raman shift (cm-1)	intensity
125.369	0
129.534	54.99
133.696	533.274
137.857	1056.83
142.016	2060.37
146.172	1791.28
150.327	563.666
154.48	284.943
158.63	31.86
162.779	146.533
166.926	25.249
171.07	349.618
175.213	668.378
179.354	1283.48
183.493	1937.88
187.63	2802.03
191.765	3443.99
195.898	3956.32
200.029	4741.63
204.158	5361.59
208.285	5954.92
212.41	6638.12
216.533	7454.35
220.654	8352.15
224.773	9101.34
228.891	9648.79
233.006	10168.9
237.119	10339.8
241.231	10294.6
245.34	10282.6
249.448	9628.17
253.553	8662.65
257.657	7639.06
261.758	6954.38
265.858	6318.66
269.956	5822.35
274.052	5206.23
278.146	4828.54
282.237	4181.9
286.327	3322.31
290.416	2874.77
294.502	2539.59
298.586	2226.19
302.668	1836.91
306.749	1990.18
310.827	1967.6
314.903	2274.52
318.978	2395.88
323.051	2467.17
327.121	2568.98
331.19	2409.43
335.257	2478.58
339.322	2421.37
343.385	2328.9
347.446	2462.99
351.505	2924.72
355.563	3140.4
359.618	3295.49
363.672	3457.14
367.723	3500.24
371.773	3637.62
375.821	3778.88
379.866	3745.38
383.91	3764.53
387.952	4233.34
391.992	4234.81
396.031	4953.95
400.067	5744.75
404.101	6661.15
408.134	7865.11
412.165	9243.58
416.193	10988.6
420.22	13229
424.245	15770
428.268	18792.4
432.289	21140.4
436.309	24100.8
440.326	26000.8
444.342	27215.2
448.355	26592.2
452.367	23964.6
456.377	20525.7
460.385	16150.6
464.391	12365.2
468.395	8965.55
472.398	6342.76
476.398	4612.82
480.397	3040.72
484.394	2023.54
488.389	1070.15
492.382	537.431
496.373	129.229
500.362	74.384
504.349	400.664
508.335	300.295
512.319	224.561
516.3	392.414
520.28	558.653
524.259	310.32
528.235	201.386
532.209	8.64
536.182	125.405
540.152	331.977
544.121	623.16
548.088	1297.95
552.053	1877.38
556.017	2805.56
559.978	3993.53
563.938	5337.48
567.895	6923.55
571.851	9248.83
575.805	11362.2
579.758	14202.8
583.708	17802.5
587.657	21284.2
591.603	25116.9
595.548	29943.4
599.491	34467.8
603.432	39343.9
607.372	43497.7
611.309	45349
615.245	45072.9
619.179	41322.3
623.111	37238.1
627.041	31274.4
630.97	27659
634.896	23266
638.821	19406.2
642.744	17281.7
646.665	15021.4
650.584	13044.3
654.502	11761.4
658.418	10742.7
662.331	9867.18
666.244	9280.96
670.154	9072.95
674.062	8625.05
677.969	7944.62
681.874	7441.63
685.777	7370.35
689.678	7049.24
693.577	6914.83
697.475	6386.82
701.371	6003.21
705.265	5448.46
709.157	5063.77
713.047	4861.19
716.936	4294
720.823	3895.83
724.708	3254.41
728.591	2737.99
732.472	2671.03
736.352	2252.11
740.23	2203.61
744.106	1963.63
747.98	1590.88
751.853	1613.79
755.723	1392.57
759.592	1115.45
763.459	1265.66
767.325	1372.16
771.188	1234.76
775.05	1163.33
778.91	1358.21
782.768	1468.34
786.625	1469.43
790.479	1611.22
794.332	1572.65
798.183	1810.94
802.033	1766.82
805.88	1564.61
809.726	1641.91
813.57	1554.47
817.413	1485.95
821.253	1458.25
825.092	1325.27
828.929	1249.77
832.764	1158.81
836.598	1066.29
840.429	811.504
844.259	547.422
848.088	454.861
851.914	195.62
855.739	68.774
859.562	11.845
863.383	29.111
867.203	54.5
871.02	116.105
874.836	170.132
878.65	203.168
882.463	139.976
886.274	179.315
890.083	188.108
893.89	124.109
897.695	32.104
901.499	97.611
905.301	59.188
909.102	103.476
912.9	98.644
916.697	15.444
920.492	174.624
924.285	189.993
928.077	145.547
931.867	226.658
935.655	284.776
939.442	275.975
943.226	336.838
947.009	411.128
950.791	383.491
954.57	385.719
958.348	452.381
962.124	435.838
965.899	535.217
969.671	563.816
973.442	577.383
977.211	575.775
980.979	589.297
984.745	571.477
988.509	579.515
992.271	688.368
996.032	659.125
999.791	665.218
1003.55	683.25
1007.3	703.399
1011.06	732.258
1014.81	685.579
1018.56	741.377
1022.31	724.094
1026.06	679.547
1029.8	693.531
1033.55	560.116
1037.29	566.818
1041.03	605.524
1044.77	582.491
1048.5	401.47
1052.24	508.988
1055.97	397.914
1059.7	335.736
1063.43	329.12
1067.16	333.924
1070.89	233.678
1074.61	293.113
1078.34	262.087
1082.06	257.89
1085.78	153.891
1089.5	189.765
1093.21	184.861
1096.93	91.137
1100.64	165.49
1104.35	128.224
1108.06	144.316
1111.77	136.068
1115.48	98.188
1119.18	132.893
1122.89	205.08
1126.59	106.109
1130.29	129.465
1133.99	85.614
1137.68	61.684
1141.38	87.507
1145.07	98.479
1148.76	124.586
1152.45	59.334
1156.14	104.628
1159.83	98.451
1163.51	87.3
1167.19	95.384
1170.88	118.604
1174.56	109.88
1178.23	83.345
1181.91	98.419
1185.59	138.457
1189.26	108.169
1192.93	131.412
1196.6	201.43
1200.27	106.414
1203.94	104.083
1207.6	160.713
1211.27	145.8
1214.93	141.561
1218.59	153.532
1222.25	143.275
1225.9	215.75
1229.56	167.066
1233.21	182.14
1236.86	131.293
1240.51	166.76
1244.16	147.302
1247.81	122.89
1251.45	137.924
1255.1	143.125
1258.74	187.524
1262.38	145.832
1266.02	116.726
1269.66	100.89
1273.29	64.386
1276.93	73.166
1280.56	71.186
1284.19	107.84
1287.82	31.539
1291.45	146.13
1295.07	32.743
1298.7	15.343
1302.32	3.847
1305.94	32.072
1309.56	45.427
1313.18	17.051
1316.8	21.005
1320.41	87.025
1324.02	43.657
1327.63	0.989
1331.24	5.143
1334.85	12.211
1338.46	50.271
1342.06	11.057
1345.67	79.138
1349.27	134.522
1352.87	92.518
1356.47	73.952
1360.07	217.817
1363.66	177.51
1367.25	230.718
1370.85	241.253
1374.44	188.241
1378.03	178.688
1381.61	168.451
1385.2	167.165
1388.78	143.01
1392.37	86.091
1395.95	58.771
1399.53	5.912
1403.1	47.575
1406.68	76.432
1410.26	135.225
1413.83	28.902
1417.4	88.984
1420.97	80.763
1424.54	67.577
1428.1	13.111
1431.67	157.762
1435.23	130.845
1438.8	71.92
1442.36	106.763
1445.91	43.113
1449.47	50.452
1453.03	81.803
1456.58	2.208
1460.13	31.208
