Measurement: Raman, 780 nm, unoriented, Raman Data Processed
Mineral: Rutile
Rruff sample: R110109
Ideal chemistry: TiO_2_
Locality: Synthetic
Source: Gemological Institute of America
Description: A cut, pale yellow (1.50ct) gemstone, grown by flame fusion.
Raman shift (cm-1)	intensity
132.583	0
135.476	170.26
138.369	786.452
141.262	2631.54
144.154	3249.76
147.047	571.949
149.94	173.406
152.832	45.4941
155.725	21.8084
158.618	35.3713
161.51	37.9426
164.403	32.2082
167.296	129.606
170.189	261.753
173.081	438.92
175.974	668.018
178.867	925.389
181.759	1173.3
184.652	1415.76
187.545	1602.72
190.437	1775.83
193.33	1963.33
196.223	2157.04
199.115	2339.21
202.008	2520.87
204.901	2717.99
207.794	2918.71
210.686	3084.52
213.579	3254.46
216.472	3402.9
219.364	3555.54
222.257	3738.23
225.15	3892.91
228.042	4021.73
230.935	4131.51
233.828	4173.54
236.721	4181.27
239.613	4062.49
242.506	3860.82
245.399	3585.86
248.291	3230.95
251.184	2845.18
254.077	2469.47
256.969	2168.08
259.862	1939.51
262.755	1736.62
265.648	1558.96
268.54	1405.18
271.433	1252.83
274.326	1107.34
277.218	955.484
280.111	795.791
283.004	638.3
285.897	461.959
288.789	299.541
291.682	160.171
294.575	27.585
297.467	57.0054
300.36	95.5723
303.253	106.73
306.145	67.7593
309.038	18.8662
311.931	47.1963
314.824	108.42
317.716	128.946
320.609	162.06
323.502	143.373
326.394	116.515
329.287	90.1387
332.18	54.5772
335.072	31.3159
337.965	22.9731
340.858	33.7485
343.75	68.8652
346.643	91.5493
349.536	159.118
352.429	204.588
355.321	229.08
358.214	205.225
361.107	141.633
364	96.7529
366.892	47.9653
369.785	58.207
372.678	42.1328
375.57	1.52832
378.463	8.55176
381.356	2.64502
384.248	11.0625
387.141	24.1992
390.034	54.9907
392.926	86.4277
395.819	154.67
398.712	236.556
401.605	371.741
404.497	550.53
407.39	783.393
410.283	1079.31
413.175	1420.43
416.068	1852.13
418.961	2302.63
421.853	2884.12
424.746	3508.12
427.639	4217.02
430.532	5024.65
433.424	5874.08
436.317	6702.39
439.21	7534.47
442.102	8290.68
444.995	8786.27
447.888	8942.82
450.781	8655.33
453.673	7980.16
456.566	6961.68
459.459	5844.06
462.351	4726.41
465.244	3757.97
468.137	2941.15
471.029	2302.45
473.922	1812.42
476.815	1400.35
479.707	1073.68
482.6	828.004
485.493	617.861
488.386	454.648
491.278	324.187
494.171	225.3
497.064	150.45
499.956	99.4993
502.849	53.8516
505.742	40.4153
508.635	18.9009
511.527	13.9959
514.42	11.4907
517.313	15.9985
520.205	45.2947
523.098	55.4619
525.991	71.5161
528.883	78.2378
531.776	83.6291
534.669	66.8235
537.562	41.679
540.454	6.69507
543.347	64.0312
546.24	153.787
549.132	273.933
552.025	429.976
554.918	632.114
557.81	865.465
560.703	1138.65
563.596	1465.47
566.489	1851.6
569.381	2331.65
572.274	2852.13
575.167	3482.94
578.059	4230.05
580.952	5058.59
583.845	5977.21
586.737	7028.48
589.63	8211.2
592.523	9654.78
595.415	11225.5
598.308	12990.4
601.201	14704.1
604.094	16297.3
606.986	17451.6
609.879	17974.2
612.772	17638.3
615.664	16559.2
618.557	14904
621.45	13007.3
624.342	11093.2
627.235	9273.75
630.128	7676.58
633.021	6233.05
635.913	5077.06
638.806	4082.1
641.699	3287.91
644.591	2623.74
647.484	2115.09
650.377	1697.16
653.269	1350.2
656.162	1069.07
659.055	855.16
661.948	668.767
664.84	517.311
667.733	419.957
670.626	299.358
673.518	227.88
676.411	172.655
679.304	135.72
682.197	94.1103
685.089	67.2878
687.982	63.1323
690.875	39.5327
693.767	23.7429
696.66	10.6931
699.553	5.4978
702.445	3.24438
705.338	18.4168
708.231	21.1062
711.124	23.6987
714.016	32.8125
716.909	44.4861
719.802	48.332
722.694	50.6868
725.587	40.7293
728.48	38.3103
731.372	19.9474
734.265	21.1381
737.158	0.208862
740.051	23.2216
742.943	29.751
745.836	57.3103
748.729	84.0049
751.621	108.459
754.514	125.153
757.407	155.264
760.299	175.958
763.192	206.844
766.085	227.21
768.977	255.341
771.87	276.146
774.763	293.538
777.656	308.709
780.548	320.578
783.441	320.59
786.334	324.757
789.226	327.805
792.119	325.884
795.012	320.216
797.904	311.921
800.797	297.825
803.69	289.986
806.583	288.676
809.475	279.437
812.368	273.762
815.261	267.502
818.153	265.876
821.046	259.074
823.939	258.608
826.832	254.778
829.724	244.397
832.617	232.988
835.51	219.36
838.402	201.658
841.295	180.387
844.188	167.924
847.08	148.227
849.973	139.146
852.866	122.871
855.759	103.31
858.651	94.564
861.544	83.3027
864.437	70.9238
867.329	63.065
870.222	54.8025
873.115	46.3093
876.007	40.8878
878.9	32.4886
881.793	30.8809
884.686	26.3635
887.578	22.6246
890.471	16.7594
893.364	17.3322
896.256	16.29
899.149	11.736
902.042	14.7909
904.934	14.2612
907.827	18.2144
910.72	15.8692
913.612	14.4403
916.505	14.8574
919.398	12.3849
922.291	9.22528
925.183	6.3746
928.076	3.79797
930.969	3.28494
933.861	0.284454
936.754	4.23508
939.647	0.656616
942.539	0.831268
945.432	0.454956
948.325	3.76056
951.218	1.96991
954.11	1.18787
957.003	1.55182
959.896	3.78644
962.788	1.2868
965.681	1.65482
968.574	3.26517
971.466	3.12351
974.359	0.724396
977.252	1.96887
980.145	0.207764
983.037	0.817047
985.93	0.461273
988.823	1.1843
991.715	0.953278
994.608	4.4545
997.501	3.93901
1000.39	2.98682
1003.29	0.794968
1006.18	0.888184
1009.07	2.73999
1011.96	4.38408
1014.86	3.47128
1017.75	6.29922
1020.64	2.91054
1023.53	7.6693
1026.43	1.76126
1029.32	4.04291
1032.21	6.59651
1035.11	5.92407
1038	5.88449
1040.89	11.1728
1043.78	11.4511
1046.68	10.1647
1049.57	7.87018
1052.46	10.7729
1055.36	7.0302
1058.25	6.42752
1061.14	7.3486
1064.03	8.97278
1066.93	8.46759
1069.82	7.31364
1072.71	5.48013
1075.6	9.44363
1078.5	6.96584
1081.39	5.61559
1084.28	2.40291
1087.17	1.85837
1090.07	0.841522
1092.96	4.28676
1095.85	1.93272
1098.74	4.28111
1101.64	1.24206
1104.53	0.419846
1107.42	1.91048
1110.32	4.13612
1113.21	0.593727
1116.1	55.7421
1118.99	2.79571
1121.89	5.80817
1124.78	5.86278
1127.67	4.56665
1130.57	5.94842
1133.46	6.36182
1136.35	5.57269
1139.24	3.63213
1142.14	5.49698
1145.03	5.27963
1147.92	6.24757
1150.81	5.7387
1153.71	5.13339
1156.6	5.82683
1159.49	3.82337
1162.38	3.91647
1165.28	4.67715
1168.17	4.19862
1171.06	5.35832
1173.96	4.37636
1176.85	2.37429
1179.74	7.22999
1182.63	5.10881
1185.53	3.65676
1188.42	2.75481
1191.31	5.4581
1194.2	7.38747
1197.1	3.51383
1199.99	6.01612
1202.88	6.04578
1205.78	1.9441
1208.67	1.61038
1211.56	3.51887
1214.45	3.31847
1217.35	2.71671
1220.24	5.68426
1223.13	5.99773
1226.02	5.87023
1228.92	1.8541
1231.81	3.02201
1234.7	2.47678
1237.6	4.00055
1240.49	2.97622
1243.38	2.5063
1246.27	1.36613
1249.17	4.44283
1252.06	2.8465
1254.95	0.422935
1257.84	2.26273
1260.74	3.37733
1263.63	3.90923
1266.52	3.25194
1269.41	4.1573
1272.31	2.22659
1275.2	1.36461
1278.09	1.14175
1280.98	3.60899
1283.88	1.23212
