Measurement: Raman, 532 nm, unoriented, Raman Data Processed
Mineral: Rutile
Rruff sample: R110109
Ideal chemistry: TiO_2_
Locality: Synthetic
Source: Gemological Institute of America
Description: A cut, pale yellow (1.50ct) gemstone, grown by flame fusion.
Raman shift (cm-1)	intensity
185.951	0
188.844	9.53223
191.737	38.7881
194.629	149.804
197.522	345.297
200.415	579.699
203.308	785.978
206.2	999.185
209.093	1168.38
211.986	1317.26
214.878	1511.24
217.771	1726.7
220.664	1924.5
223.556	2131.86
226.449	2252.59
229.342	2379.01
232.234	2472.8
235.127	2532.54
238.02	2482.42
240.913	2397.88
243.805	2274.29
246.698	1976.98
249.591	1697.45
252.483	1472.25
255.376	1251.77
258.269	1092.83
261.161	945.246
264.054	830.351
266.947	786.025
269.84	683.583
272.732	603.355
275.625	518.538
278.518	434.308
281.41	332.55
284.303	200.003
287.196	95.5456
290.089	22.0803
292.981	38.8794
295.874	75.9124
298.767	72.0808
301.659	51.4661
304.552	7.23438
307.445	47.1094
310.337	108.19
313.23	176.704
316.123	219.563
319.015	268.435
321.908	275.593
324.801	254.617
327.694	236.23
330.586	235.433
333.479	222.93
336.372	246.725
339.264	236.487
342.157	241.658
345.05	283.94
347.942	342.693
350.835	362.786
353.728	380.353
356.621	340.956
359.513	308.925
362.406	262.387
365.299	221.76
368.191	206.513
371.084	164.703
373.977	155.067
376.87	115.673
379.762	77.5452
382.655	65.583
385.548	52.9346
388.44	33.9016
391.333	18.7979
394.226	14.7139
397.118	51.5127
400.011	81.512
402.904	166.364
405.796	243.641
408.689	375.267
411.582	516.079
414.475	691.652
417.367	871.309
420.26	1093.89
423.153	1332.7
426.045	1611.21
428.938	1923.81
431.831	2194.23
434.724	2511.65
437.616	2780.2
440.509	3041.59
443.402	3190.96
446.294	3206.18
449.187	3109.51
452.08	2879.93
454.972	2551.61
457.865	2190.19
460.758	1815.38
463.651	1466.23
466.543	1202.47
469.436	959.543
472.329	797.376
475.221	630.062
478.114	497.354
481.007	389.596
483.899	305.305
486.792	222.826
489.685	158.014
492.577	123.125
495.47	81.5298
498.363	51.3723
501.256	36.8955
504.148	25.1003
507.041	4.04517
509.934	0.608643
512.826	4.58545
515.719	19.8362
518.612	43.6807
521.505	75.5833
524.397	72.905
527.29	75.78
530.183	66.1792
533.075	82.8213
535.968	42.4614
538.861	8.61035
541.753	70.0212
544.646	166.86
547.539	291.154
550.432	446.892
553.324	648.949
556.217	862.847
559.11	1146.01
562.002	1495.45
564.895	1916.92
567.788	2385.69
570.68	2920.74
573.573	3613.81
576.466	4378.09
579.359	5260.98
582.251	6236.52
585.144	7285.77
588.037	8603.65
590.929	10015.1
593.822	11533.5
596.715	13268
599.607	14896.9
602.5	16328.5
605.393	17304
608.285	17806.8
611.178	17566.8
614.071	16552.8
616.964	14950.9
619.856	13118.3
622.749	11185
625.642	9376.5
628.534	7698.27
631.427	6312.29
634.32	5120.08
637.212	4118.63
640.105	3294.04
642.998	2632.91
645.891	2106.16
648.783	1676.21
651.676	1311.83
654.569	1049.58
657.461	831.769
660.354	645.106
663.247	509.049
666.139	373.92
669.032	278.732
671.925	191.008
674.818	141.394
677.71	105.028
680.603	79.4653
683.496	51.5742
686.388	41.5881
689.281	28.6897
692.174	33.7839
695.067	15.5137
697.959	8.70361
700.852	2.65845
703.745	15.9773
706.637	26.9011
709.53	34.5803
712.423	23.0732
715.315	55.5925
718.208	55.4102
721.101	50.3108
723.994	38.1023
726.886	31.5584
729.779	13.0834
732.672	14.2534
735.564	0.271851
738.457	18.4745
741.35	32.3582
744.242	63.1318
747.135	91.1936
750.028	111.743
752.92	143.286
755.813	174.536
758.706	196.885
761.599	216.017
764.491	249.615
767.384	260.507
770.277	297.827
773.169	312.096
776.062	321.782
778.955	333.56
781.847	334.531
784.74	329.485
787.633	331.481
790.526	327.125
793.418	325.736
796.311	316.2
799.204	311.666
802.096	303.704
804.989	288.9
807.882	294.487
810.774	301.746
813.667	305.658
816.56	310.384
819.453	319.978
822.345	339.108
825.238	336.184
828.131	336.681
831.023	324.354
833.916	295.364
836.809	267.002
839.702	244.557
842.594	216.268
845.487	190.739
848.38	160.573
851.272	135.31
854.165	120.571
857.058	105.937
859.95	91.0142
862.843	74.5438
865.736	68.9741
868.629	52.5106
871.521	54.843
874.414	46.3478
877.307	43.4765
880.199	30.6036
883.092	25.1399
885.985	24.5531
888.877	24.2798
891.77	18.9591
894.663	17.7426
897.556	16.3131
900.448	10.477
903.341	17.8238
906.234	9.99945
909.126	19.4566
912.019	18.2766
914.912	11.0111
917.804	9.67804
920.697	12.9499
923.59	8.4877
926.482	9.87265
929.375	6.30832
932.268	5.00336
935.161	3.13245
938.053	5.6156
940.946	5.08682
943.839	6.01978
946.731	0.839203
949.624	3.74521
952.517	0.632813
955.409	2.00845
958.302	1.16843
961.195	2.19842
964.088	4.5242
966.98	0.065826
969.873	5.82104
972.766	1.79452
975.658	2.96823
978.551	4.60071
981.444	2.33621
984.337	2.12781
987.229	3.69995
990.122	0.533966
993.015	1.79044
995.907	5.49817
998.8	4.31531
1001.69	5.83636
1004.59	3.20819
1007.48	5.76349
1010.37	5.53983
1013.26	3.06393
1016.16	9.51611
1019.05	1.80481
1021.94	7.49142
1024.83	1.21887
1027.73	4.59299
1030.62	3.17981
1033.51	6.95883
1036.4	5.77344
1039.3	6.85704
1042.19	8.14314
1045.08	10.1624
1047.98	5.65126
1050.87	16.5409
1053.76	7.54196
1056.65	4.62265
1059.55	10.0562
1062.44	7.77789
1065.33	5.27123
1068.22	5.05711
1071.12	4.24205
1074.01	6.22588
1076.9	2.8391
1079.8	3.91721
1082.69	3.96727
1085.58	0.934937
1088.47	2.58546
1091.37	1.58343
1094.26	3.54715
1097.15	1.13873
1100.04	0.317719
1102.94	3.35695
1105.83	5.4026
1108.72	2.11198
1111.62	0.622314
1114.51	3.2674
1117.4	5.40903
1120.29	0.009659
1123.19	0.003418
1126.08	2.05344
1128.97	1.11301
1131.86	0.046478
1134.76	3.18611
1137.65	0.310852
1140.54	0.680573
1143.43	5.13527
1146.33	0.822617
1149.22	2.9391
1152.11	5.98929
1155.01	2.77936
1157.9	3.53531
1160.79	3.61881
1163.68	3.30627
1166.58	4.91412
1169.47	2.40025
1172.36	5.04573
1175.26	4.00012
1178.15	2.93147
1181.04	4.16092
1183.93	1.24005
1186.83	4.63289
1189.72	6.03624
1192.61	6.53012
1195.5	5.27193
1198.4	6.35774
1201.29	7.23038
1204.18	3.2272
1207.07	8.1025
1209.97	10.1404
1212.86	8.52071
1215.75	11.1277
1218.64	9.81844
1221.54	9.47572
1224.43	7.94496
1227.32	9.43124
1230.22	9.62321
1233.11	7.2558
1236	10.7738
1238.89	9.03917
1241.79	9.41476
1244.68	13.9049
1247.57	12.2407
1250.46	10.0553
1253.36	8.75309
1256.25	6.51967
1259.14	8.02971
1262.04	6.2505
1264.93	7.10909
1267.82	5.80707
1270.71	5.10915
1273.61	4.02862
1276.5	6.34758
1279.39	0.692894
1282.29	7.26057
1285.18	0.291702
1288.07	0.335335
1290.96	1.13309
1293.86	5.42283
1296.75	1.97506
1299.64	5.79918
1302.53	1.81236
