Measurement: Raman, 780 nm, unoriented, Raman Data Processed
Mineral: Rynersonite
Rruff sample: R080063
Ideal chemistry: CaTa_2_O_6_
Locality: Brown Derby mine, Ohio City, Quartz Creek District, Gunnison County, Colorado, USA
Source: Michael Scott
Description: Pearly white fibrous aggregate
Raman shift (cm-1)	intensity
119.04	0
121.933	16.431
124.825	2.87012
127.718	8.59741
130.611	27.0175
133.503	53.4688
136.396	78.2165
139.289	127.844
142.181	188.367
145.074	275.021
147.967	352.422
150.859	374.398
153.752	322.883
156.645	306.68
159.538	344.418
162.43	422.384
165.323	504.099
168.216	580.661
171.108	647.303
174.001	664.074
176.894	629.017
179.786	543.913
182.679	438.059
185.572	337.345
188.465	228.791
191.357	137.482
194.25	61.7685
197.143	13.8004
200.035	4.57349
202.928	16.0559
205.821	17.4474
208.714	4.961
211.606	40.0542
214.499	87.3121
217.392	142.532
220.284	178.297
223.177	224.475
226.07	301.764
228.962	404.994
231.855	518.232
234.748	569.755
237.641	537.204
240.533	458.826
243.426	432.247
246.319	425.778
249.211	438.019
252.104	511.82
254.997	585.952
257.889	660.16
260.782	741.245
263.675	798.248
266.567	847.976
269.46	868.833
272.353	867.549
275.246	844.869
278.138	830.313
281.031	763.028
283.924	584.05
286.816	362.87
289.709	192.616
292.602	86.3392
295.495	24.7809
298.387	9.75989
301.28	19.4297
304.173	13.3895
307.065	1.51868
309.958	26.0976
312.851	64.8669
315.743	125.625
318.636	194.389
321.529	266.128
324.421	360.138
327.314	456.93
330.207	568.793
333.1	710.403
335.992	851.195
338.885	978.718
341.778	1091.86
344.67	1201.72
347.563	1244.92
350.456	1231.89
353.349	1142.07
356.241	1014.33
359.134	869.719
362.027	717.599
364.919	586.914
367.812	471.589
370.705	366.348
373.597	260.762
376.49	169.549
379.383	95.2606
382.276	39.407
385.168	1.97272
388.061	21.2037
390.954	17.5537
393.846	4.39697
396.739	11.1522
399.632	41.6539
402.524	83.4293
405.417	125.526
408.31	179.185
411.202	232.44
414.095	287.04
416.988	358.808
419.881	435.488
422.773	523.062
425.666	619.332
428.559	719.803
431.451	843.805
434.344	989.821
437.237	1140.34
440.13	1282.38
443.022	1449.7
445.915	1561.12
448.808	1617.05
451.7	1597.01
454.593	1489.98
457.486	1337.6
460.378	1154.17
463.271	959.456
466.164	773.27
469.057	601.092
471.949	444.348
474.842	326.809
477.735	238.651
480.627	160.408
483.52	112.225
486.413	58.5468
489.305	34.8453
492.198	2.68329
495.091	3.63678
497.983	15.9554
500.876	6.92847
503.769	2.17188
506.662	37.0668
509.554	73.0835
512.447	128.65
515.34	197.761
518.232	262.806
521.125	360.138
524.018	461.148
526.91	556.282
529.803	630.554
532.696	702.122
535.589	724.986
538.481	729.012
541.374	701.508
544.267	645.276
547.159	572.352
550.052	487.426
552.945	398.168
555.837	313.242
558.73	227.202
561.623	162.637
564.516	114.382
567.408	72.2429
570.301	34.202
573.194	5.77185
576.086	3.8446
578.979	22.0991
581.872	26.1212
584.764	25.2118
587.657	10.1777
590.55	1.6098
593.443	33.3805
596.335	43.702
599.228	83.7109
602.121	117.403
605.013	158.481
607.906	208.845
610.799	255.821
613.692	317.566
616.584	372.113
619.477	452.564
622.37	528.744
625.262	610.264
628.155	719.893
631.048	828.468
633.94	931.903
636.833	1045.01
639.726	1142.34
642.619	1237.04
645.511	1312.65
648.404	1364.87
651.297	1377.79
654.189	1382.01
657.082	1370.83
659.975	1321.31
662.867	1285.69
665.76	1247.71
668.653	1246.86
671.545	1250.67
674.438	1272.98
677.331	1310.13
680.224	1358.91
683.116	1370.67
686.009	1298.53
688.902	1160.45
691.794	962.077
694.687	758.809
697.58	588.598
700.472	472.621
703.365	366.012
706.258	290.284
709.151	232.973
712.043	185.283
714.936	149.464
717.829	120.607
720.721	87.8751
723.614	62.0147
726.507	45.0257
729.399	21.5454
732.292	14.251
735.185	4.07916
738.078	8.3927
740.97	15.3903
743.863	17.6106
746.756	19.1764
749.648	12.5371
752.541	7.21417
755.434	4.4635
758.327	2.96417
761.219	18.5284
764.112	29.3799
767.005	43.564
769.897	64.1285
772.79	80.0196
775.683	102.602
778.575	119.912
781.468	134.468
784.361	156.176
787.254	165.894
790.146	184.066
793.039	195.284
795.932	189.744
798.824	185.276
801.717	173.672
804.61	155.338
807.502	136.976
810.395	116.958
813.288	100.023
816.181	78.9264
819.073	61.8798
821.966	50.3959
824.859	38.5028
827.751	24.6837
830.644	16.3148
833.537	10.6377
836.429	8.74509
839.322	0.521912
842.215	1.5986
845.107	0.0849
848	5.60107
850.893	3.47598
853.786	12.8986
856.678	15.8727
859.571	24.7166
862.464	41.867
865.356	59.9984
868.249	79.1157
871.142	93.276
874.034	105.795
876.927	126.013
879.82	130.626
882.713	132.681
885.605	130.876
888.498	122.387
891.391	121.133
894.283	118.043
897.176	113.636
900.069	111.125
902.962	103.793
905.854	94.412
908.747	85.0613
911.64	82.0254
914.532	73.3568
917.425	70.8663
920.318	62.8069
923.21	52.1202
926.103	44.0987
928.996	39.4046
931.888	30.9028
934.781	24.1746
937.674	17.969
940.567	17.0721
943.459	8.97722
946.352	4.99901
949.245	4.51479
952.137	1.86278
955.03	0.179031
957.923	1.68864
960.815	1.27651
963.708	1.73772
966.601	2.67426
969.494	5.18388
972.386	2.16139
975.279	0.181641
978.172	0.243393
981.064	1.83623
983.957	0.539047
986.85	5.97272
989.742	1.4363
992.635	3.95686
995.528	9.28758
998.42	5.55185
1001.31	3.77605
1004.21	8.58261
1007.1	6.59099
1009.99	7.08328
1012.88	9.98955
1015.78	8.07922
1018.67	8.7419
1021.56	9.48231
1024.45	9.28279
1027.35	9.78842
1030.24	6.66023
1033.13	4.33006
1036.03	6.82106
1038.92	4.03864
1041.81	8.33011
1044.7	4.314
1047.6	9.5463
1050.49	11.0909
1053.38	14.0319
1056.28	15.4792
1059.17	15.8545
1062.06	14.8487
1064.95	18.9753
1067.85	19.91
1070.74	20.7094
1073.63	27.7416
1076.52	21.5828
1079.42	25.1251
1082.31	24.5679
1085.2	27.7821
1088.09	29.1148
1090.99	29.2275
1093.88	36.1923
1096.77	44.106
1099.66	50.5523
1102.56	54.582
1105.45	57.9428
1108.34	63.5111
1111.24	65.0507
1114.13	63.4144
1117.02	62.4532
1119.91	58.5883
1122.81	54.8276
1125.7	52.6333
1128.59	49.8468
1131.48	43.8769
1134.38	36.5344
1137.27	34.3592
1140.16	27.2175
1143.06	19.3029
1145.95	14.6511
1148.84	5.73209
1151.73	2.56064
1154.63	5.30142
1157.52	2.28729
1160.41	2.30798
1163.3	4.36114
1166.2	3.53491
1169.09	11.7409
1171.98	18.9261
1174.88	24.6657
1177.77	36.5016
1180.66	36.7752
1183.55	35.8396
1186.45	32.8177
1189.34	32.497
1192.23	27.1205
1195.12	18.1187
1198.02	16.2459
1200.91	10.085
1203.8	11.2177
1206.69	4.35583
1209.59	3.55505
