Measurement: Raman, 532 nm, unoriented, Raman Data Processed
Mineral: Rynersonite
Rruff sample: R080064
Ideal chemistry: CaTa_2_O_6_
Locality: Ampanodiana South pegmatite, Tetezantsio-Andoabatokely Pegmatite Field, Andrembesoa Commune, Betafo Department, Vakinankaratra Region (Betafo - Antsirab√© region), Antananarivo Province, Madagascar
Source: Michael Scott
Description: Columnar aggregate of dark gray prismatic crystals, associated with quartz, orthoclase, liddicoatite and behierite
Raman shift (cm-1)	intensity
147.797	0
151.172	0.365662
154.547	4.26807
157.921	7.31616
161.296	10.8532
164.671	16.5891
168.046	26.1049
171.421	32.109
174.796	29.9427
178.17	28.0451
181.545	20.9604
184.92	15.5686
188.295	9.09216
191.67	3.60519
195.044	2.4628
198.419	0.542999
201.794	1.42749
205.169	0.781189
208.544	1.08118
211.918	7.25156
215.293	14.6019
218.668	22.0621
222.043	28.1152
225.418	38.3303
228.792	44.9923
232.167	50.8206
235.542	47.771
238.917	42.8345
242.292	37.0714
245.667	35.5284
249.041	34.8703
252.416	32.8019
255.791	30.0546
259.166	30.6261
262.541	31.9125
265.916	31.9004
269.29	31.2631
272.665	30.9996
276.04	27.1592
279.415	26.8888
282.79	18.7884
286.164	10.4168
289.539	3.85986
292.914	3.51096
296.289	2.95728
299.664	1.14093
303.038	0.423035
306.413	1.04959
309.788	0.752777
313.163	3.13455
316.538	3.15158
319.913	3.38925
323.287	5.50729
326.662	7.24429
330.037	9.07217
333.412	9.67499
336.787	10.6398
340.161	13.8068
343.536	15.2707
346.911	18.6457
350.286	21.7444
353.661	24.6768
357.036	22.1763
360.41	23.274
363.785	20.9189
367.16	18.431
370.535	13.5049
373.91	11.3367
377.284	10.3324
380.659	9.18497
384.034	8.8457
387.409	7.79868
390.784	8.90436
394.159	7.78629
397.533	10.2361
400.908	11.0358
404.283	8.47186
407.658	6.34936
411.033	2.19962
414.407	4.73203
417.782	2.16473
421.157	2.62216
424.532	0.825623
427.907	2.54172
431.281	0.092133
434.656	0.324982
438.031	2.625
441.406	6.18442
444.781	9.67871
448.156	13.5775
451.53	18.3283
454.905	22.0707
458.28	24.6992
461.655	24.2435
465.03	21.2787
468.404	20.1115
471.779	17.0213
475.154	15.0083
478.529	13.8784
481.904	11.121
485.279	9.40393
488.653	7.04773
492.028	2.37949
495.403	3.88983
498.778	4.49277
502.153	4.1853
505.527	0.154053
508.902	2.60535
512.277	3.88586
515.652	0.324219
519.027	1.3768
522.402	2.2609
525.776	1.65259
529.151	1.508
532.526	1.30505
535.901	2.37515
539.276	0.431915
542.65	2.13419
546.025	3.3801
549.4	3.28708
552.775	1.27045
556.15	2.77106
559.525	3.36685
562.899	3.72406
566.274	1.46072
569.649	1.79794
573.024	0.368439
576.399	1.20093
579.774	0.312103
583.148	1.12488
586.523	0.036896
589.898	3.60916
593.273	7.20929
596.648	10.9187
600.022	11.6595
603.397	13.586
606.772	15.9606
610.147	20.3484
613.522	22.5785
616.896	20.2739
620.271	24.3621
623.646	22.983
627.021	22.4162
630.396	21.6219
633.77	24.7862
637.145	23.6009
640.52	25.294
643.895	23.0725
647.27	27.3973
650.645	27.1361
654.019	31.3162
657.394	35.9457
660.769	44.8552
664.144	56.1934
667.519	61.5625
670.894	74.0407
674.268	78.0678
677.643	81.2693
681.018	76.6851
684.393	72.8943
687.768	61.1634
691.142	51.6724
694.517	39.5609
697.892	32.9005
701.267	25.2271
704.642	17.5099
708.016	11.2615
711.391	11.8315
714.766	7.58746
718.141	3.88141
721.516	1.17258
724.891	0.731689
728.265	1.04324
731.64	0.102386
735.015	1.88025
738.39	1.36557
741.765	3.38751
745.139	0.156769
748.514	1.48444
751.889	1.20081
755.264	2.33087
758.639	5.53021
762.014	8.42618
765.388	9.28729
768.763	11.9494
772.138	14.5693
775.513	17.5025
778.888	16.5589
782.263	21.0397
785.637	16.7848
789.012	21.7276
792.387	21.296
795.762	20.5679
799.136	22.0462
802.511	22.6278
805.886	18.7745
809.261	19.0009
812.636	16.3066
816.011	16.35
819.385	17.782
822.76	16.2428
826.135	13.8087
829.51	12.1363
832.885	12.0622
836.26	12.7461
839.634	13.0296
843.009	10.1885
846.384	10.7709
849.759	11.6315
853.134	11.6508
856.508	9.82956
859.883	11.9236
863.258	11.8076
866.633	12.9838
870.008	11.1104
873.383	10.8625
876.757	12.2101
880.132	9.49263
883.507	9.99452
886.882	8.95871
890.257	10.6657
893.631	8.90749
897.006	7.90349
900.381	4.8262
903.756	4.99587
907.131	4.03958
910.505	0.692139
913.88	0.472031
917.255	1.37842
920.63	1.05266
924.005	0.960861
927.38	0.329575
930.754	0.690735
934.129	0.908081
937.504	0.859314
940.879	0.978912
944.254	0.518585
947.629	0.711929
951.003	1.21117
954.378	0.636566
957.753	0.336884
961.128	1.78006
964.503	3.57959
967.877	2.6196
971.252	3.81375
974.627	3.73375
978.002	3.11056
981.377	3.4966
984.751	4.83472
988.126	4.79088
991.501	4.0274
994.876	4.70763
998.251	4.66678
1001.63	2.15124
1005	2.85951
1008.38	3.2635
1011.75	4.16615
1015.12	2.66451
1018.5	4.02441
1021.87	1.38841
1025.25	4.11375
1028.62	1.38771
1032	2.35385
1035.37	1.66653
1038.75	2.02234
1042.12	2.86443
1045.5	2.26378
1048.87	1.00037
1052.25	2.57761
1055.62	0.506546
1059	2.6026
1062.37	2.83021
1065.75	1.54727
1069.12	2.42146
1072.5	2.52953
1075.87	0.426895
1079.25	1.03926
1082.62	3.5829
1086	2.97421
1089.37	0.955109
1092.75	0.887604
1096.12	1.67844
1099.49	0.082993
1102.87	2.22243
1106.24	0.45343
1109.62	0.112259
1112.99	1.06177
1116.37	1.8738
1119.74	2.55772
1123.12	0.398499
1126.49	1.08826
1129.87	0.697906
1133.24	1.85115
1136.62	2.42795
1139.99	2.75064
1143.37	2.60812
1146.74	0.051758
1150.12	1.12503
1153.49	0.215714
1156.87	0.344955
1160.24	0.344604
1163.62	1.72191
1166.99	1.77246
1170.37	2.33943
1173.74	0.696823
1177.12	0.777359
1180.49	1.37508
1183.87	2.04323
1187.24	2.83908
1190.62	0.959076
1193.99	1.5349
1197.37	0.631073
1200.74	1.44943
1204.12	1.00607
1207.49	2.33864
1210.86	0.338348
1214.24	1.87575
1217.61	3.9431
1220.99	0.00618
1224.36	1.93399
1227.74	0.84613
1231.11	1.43063
1234.49	2.54869
1237.86	1.78125
1241.24	0.041061
1244.61	2.09654
1247.99	0.99588
1251.36	0.415833
1254.74	1.38101
1258.11	1.95247
1261.49	0.592819
1264.86	0.835907
1268.24	2.08026
1271.61	2.05029
1274.99	1.55208
1278.36	0.01329
1281.73	0.384598
1285.11	3.65701
1288.48	0.913101
1291.86	0.998657
1295.23	1.1265
1298.61	1.90694
1301.98	1.54028
