Measurement: Raman, 780 nm, unoriented, Raman Data Processed
Mineral: Rynersonite
Rruff sample: R080064
Ideal chemistry: CaTa_2_O_6_
Locality: Ampanodiana South pegmatite, Tetezantsio-Andoabatokely Pegmatite Field, Andrembesoa Commune, Betafo Department, Vakinankaratra Region (Betafo - Antsirab√© region), Antananarivo Province, Madagascar
Source: Michael Scott
Description: Columnar aggregate of dark gray prismatic crystals, associated with quartz, orthoclase, liddicoatite and behierite
Raman shift (cm-1)	intensity
167.251	0
170.144	0.279694
173.037	3.04099
175.93	0.970215
178.822	4.32224
181.715	5.98117
184.608	10.1925
187.5	9.8584
190.393	14.9866
193.286	22.1267
196.179	28.1195
199.071	36.0616
201.964	44.4268
204.857	56.777
207.749	66.0762
210.642	79.3858
213.535	86.5607
216.427	101.564
219.32	106.591
222.213	115.428
225.106	123.677
227.998	123.102
230.891	122.301
233.784	118.943
236.676	104.61
239.569	95.7306
242.462	88.3678
245.354	83.2434
248.247	81.1064
251.14	76.811
254.032	73.2192
256.925	68.2159
259.818	66.1437
262.711	59.7172
265.603	56.0488
268.496	50.3942
271.389	45.3378
274.281	35.9576
277.174	32.8185
280.067	24.1017
282.959	20.1355
285.852	13.4842
288.745	8.3551
291.638	4.3215
294.53	2.03519
297.423	0.507507
300.316	0.358215
303.208	4.52399
306.101	4.87027
308.994	0.347412
311.887	4.1402
314.779	1.95868
317.672	2.8454
320.565	8.00821
323.457	8.55505
326.35	8.96863
329.243	13.9566
332.135	19.0186
335.028	24.6366
337.921	28.866
340.813	32.187
343.706	34.2243
346.599	36.9136
349.492	40.3029
352.384	37.9142
355.277	35.3369
358.17	31.1257
361.062	27.9474
363.955	25.1983
366.848	18.8822
369.74	14.0154
372.633	12.6606
375.526	9.46368
378.419	8.75839
381.311	7.51858
384.204	5.75226
387.097	5.14078
389.989	4.30911
392.882	4.33807
395.775	7.38211
398.668	7.76758
401.56	10.2787
404.453	15.4062
407.346	17.2221
410.238	21.3472
413.131	23.0785
416.024	29.1819
418.916	33.1612
421.809	37.4616
424.702	42.7498
427.594	48.5919
430.487	54.9284
433.38	62.9772
436.273	70.2876
439.165	74.9397
442.058	84.7672
444.951	88.3715
447.843	92.0868
450.736	95.0401
453.629	91.8057
456.522	89.5802
459.414	86.4932
462.307	76.3842
465.2	67.155
468.092	55.5223
470.985	43.6478
473.878	35.6199
476.77	26.0532
479.663	18.2761
482.556	14.5253
485.449	9.04806
488.341	7.45007
491.234	2.67398
494.127	1.54981
497.019	1.34494
499.912	0.278381
502.805	3.47464
505.697	1.14511
508.59	2.56363
511.483	1.98535
514.375	0.304413
517.268	3.93832
520.161	5.22562
523.053	7.49164
525.946	9.75601
528.839	11.9983
531.732	13.8028
534.624	16.5134
537.517	17.028
540.41	17.8023
543.302	17.2466
546.195	17.6935
549.088	15.2251
551.981	15.3592
554.873	12.8824
557.766	13.4359
560.659	11.2018
563.551	5.41916
566.444	4.86615
569.337	3.08054
572.229	2.0141
575.122	0.019104
578.015	0.890167
580.908	0.635101
583.8	0.460815
586.693	1.03046
589.586	0.869598
592.478	0.615479
595.371	1.74734
598.264	4.02274
601.156	3.18878
604.049	3.37271
606.942	6.87854
609.835	9.8963
612.727	8.97378
615.62	12.5454
618.513	15.6597
621.405	15.156
624.298	21.8778
627.191	21.367
630.083	24.659
632.976	28.9179
635.869	31.2572
638.761	33.4365
641.654	35.6643
644.547	38.8945
647.44	42.8645
650.332	44.6666
653.225	47.4816
656.118	48.7174
659.01	52.5511
661.903	58.2391
664.796	60.3163
667.688	61.7291
670.581	63.9414
673.474	63.8696
676.367	60.2951
679.259	60.3956
682.152	56.0673
685.045	51.4338
687.937	45.0298
690.83	36.9194
693.723	32.5148
696.615	24.6382
699.508	20.5216
702.401	16.518
705.294	13.5659
708.186	11.2867
711.079	8.86467
713.972	7.00496
716.864	3.30908
719.757	2.03888
722.65	3.52089
725.543	1.27649
728.435	1.31958
731.328	0.909012
734.221	1.09793
737.113	1.06799
740.006	0.672684
742.899	0.973709
745.791	0.302261
748.684	0.120682
751.577	0.520615
754.47	0.040985
757.362	3.17841
760.255	4.61652
763.148	4.38541
766.04	7.73758
768.933	7.41432
771.826	9.75885
774.718	11.2906
777.611	11.3344
780.504	13.0148
783.396	14.6954
786.289	15.3859
789.182	16.0063
792.075	16.4031
794.967	15.8939
797.86	15.2042
800.753	15.3977
803.645	13.865
806.538	14.1761
809.431	13.8312
812.323	12.7078
815.216	11.3732
818.109	10.6656
821.002	10.8789
823.894	10.0678
826.787	9.69623
829.68	8.55585
832.572	7.0469
835.465	5.94297
838.358	6.3756
841.25	6.45086
844.143	5.18327
847.036	5.65125
849.929	3.94558
852.821	3.71783
855.714	2.11238
858.607	3.32985
861.499	2.24687
864.392	4.2258
867.285	3.97265
870.178	3.37874
873.07	3.90186
875.963	2.76382
878.856	3.3214
881.748	1.98669
884.641	2.08752
887.534	2.26348
890.426	2.3834
893.319	2.27483
896.212	1.41383
899.105	0.146179
901.997	0.713669
904.89	1.754
907.783	0.831108
910.675	0.83548
913.568	1.0305
916.461	0.182739
919.353	0.410522
922.246	0.072388
925.139	0.509178
928.032	0.559265
930.924	0.22287
933.817	0.856514
936.71	0.24279
939.602	0.196884
942.495	1.09535
945.388	0.012558
948.28	0.087585
951.173	1.85058
954.066	1.01656
956.958	0.941898
959.851	1.52405
962.744	2.07506
965.636	1.55695
968.529	0.886429
971.422	1.32429
974.315	1.97601
977.207	1.9636
980.1	0.847473
982.993	1.38132
985.885	0.970978
988.778	2.29474
991.671	0.812847
994.563	1.5195
997.456	2.11195
1000.35	1.27848
1003.24	1.08431
1006.13	0.73914
1009.03	0.91151
1011.92	1.00903
1014.81	0.60062
1017.71	0.624107
1020.6	0.852974
1023.49	0.816589
1026.38	0.140831
1029.28	0.330666
1032.17	0.302841
1035.06	1.87373
1037.95	0.170635
1040.85	0.671608
1043.74	0.199821
1046.63	0.370029
1049.53	0.598206
1052.42	0.608006
1055.31	0.055386
1058.2	0.367954
1061.1	0.102127
1063.99	0.254452
1066.88	0.334316
1069.77	0.547527
1072.67	0.164379
1075.56	0.342785
1078.45	0.159657
1081.34	2.40119
1084.24	0.166325
1087.13	0.614567
1090.02	0.800995
1092.91	0.806366
1095.81	1.18124
1098.7	0.568756
1101.59	1.85122
1104.49	1.99546
1107.38	1.55755
1110.27	2.22615
1113.16	1.78486
1116.06	1.98682
1118.95	1.94424
1121.84	2.74791
1124.73	2.33365
1127.63	3.2281
1130.52	2.20073
1133.41	3.31934
1136.31	3.95272
1139.2	3.60391
1142.09	3.6065
1144.98	4.85172
1147.88	3.96843
1150.77	4.56918
1153.66	5.08196
1156.56	5.64285
1159.45	6.28149
1162.34	6.07766
1165.23	6.14021
1168.12	5.39561
1171.02	7.45441
1173.91	8.06396
1176.8	9.15205
1179.7	10.7714
1182.59	10.4247
1185.48	10.8069
1188.37	10.7088
1191.27	11.008
1194.16	10.5522
1197.05	11.0392
1199.94	11.9889
1202.84	11.3638
1205.73	10.446
1208.62	11.09
1211.52	11.3976
1214.41	8.37395
1217.3	5.80923
1220.19	5.3083
1223.09	2.84832
1225.98	2.46713
1228.87	0.631775
1231.77	1.6098
1234.66	1.34889
1237.55	0.461075
1240.44	0.777496
1243.34	3.28867
1246.23	3.2177
1249.12	2.25063
1252.01	5.92059
1254.91	6.2547
1257.8	6.72943
1260.69	3.70859
1263.59	3.50406
1266.48	4.46887
1269.37	4.10677
1272.26	5.33273
1275.15	3.91519
1278.05	4.11026
1280.94	1.32553
1283.83	0.953339
