Measurement: Raman, 532 nm, unoriented, Raman Data Processed
Mineral: Rynersonite
Rruff sample: R080063
Ideal chemistry: CaTa_2_O_6_
Locality: Brown Derby mine, Ohio City, Quartz Creek District, Gunnison County, Colorado, USA
Source: Michael Scott
Description: Pearly white fibrous aggregate
Raman shift (cm-1)	intensity
115.013	0
117.906	4.08106
120.798	5.10742
123.691	21.2341
126.584	65.5543
129.476	217.275
132.369	480.563
135.262	668.021
138.155	816.604
141.047	987.75
143.94	1256.85
146.833	1693.32
149.725	2004.7
152.618	1905.78
155.511	1560.84
158.404	1521.8
161.296	1752.55
164.189	2079.12
167.082	2496.49
169.974	2926.75
172.867	3309.21
175.76	3411.32
178.652	3196.38
181.545	2760.9
184.438	2278.73
187.331	1755.03
190.223	1207.2
193.116	707.009
196.009	354.759
198.901	134.84
201.794	20.2444
204.687	61.5625
207.579	69.4446
210.472	23.063
213.365	220.027
216.257	560.358
219.15	763.022
222.043	964.515
224.936	1312.76
227.828	1872.02
230.721	2628.82
233.614	3254.9
236.506	3159.78
239.399	2364.12
242.292	1553.47
245.185	1000.7
248.077	680.112
250.97	572.359
253.863	585.647
256.755	705.09
259.648	862.357
262.541	1108.19
265.433	1376.2
268.326	1651.76
271.219	1892.26
274.111	2098.24
277.004	2351.07
279.897	2562.2
282.79	2277.52
285.682	1529.43
288.575	811.445
291.468	358.529
294.36	125.079
297.253	18.8176
300.146	40.7327
303.038	48.8418
305.931	46.2349
308.824	20.1702
311.717	31.1291
314.609	110.571
317.502	184.008
320.395	286.016
323.287	307.454
326.18	310.4
329.073	261.554
331.966	217.74
334.858	194.041
337.751	169.793
340.644	147.765
343.536	157.354
346.429	180.567
349.322	196.116
352.214	205.33
355.107	215.326
358	217.147
360.892	222.203
363.785	221.156
366.678	241.07
369.571	283.043
372.463	273.7
375.356	225.857
378.249	139.721
381.141	71.6197
384.034	63.8275
386.927	84.8334
389.82	121.871
392.712	169.364
395.605	207.958
398.498	242.565
401.39	263.153
404.283	263.94
407.176	251.368
410.068	179.387
412.961	96.6982
415.854	28.4751
418.747	4.89392
421.639	11.6768
424.532	33.27
427.425	13.438
430.317	15.6724
433.21	46.3236
436.103	120.461
438.995	194.598
441.888	294.079
444.781	414.072
447.673	519.804
450.566	655.95
453.459	800.014
456.352	960.66
459.244	1139.16
462.137	1193.14
465.03	1179.68
467.922	995.46
470.815	736.43
473.708	524.485
476.601	368.39
479.493	284.468
482.386	210.684
485.279	158.764
488.171	112.073
491.064	86.3309
493.957	46.8538
496.849	25.0314
499.742	12.4551
502.635	1.48523
505.527	13.1118
508.42	5.05212
511.313	8.50037
514.206	20.9205
517.098	30.4534
519.991	60.7579
522.884	78.5216
525.776	103.232
528.669	121.552
531.562	117.815
534.455	130.553
537.347	125.3
540.24	105.437
543.133	106.584
546.025	97.4808
548.918	97.3922
551.811	86.9335
554.703	62.8939
557.596	62.1536
560.489	36.8176
563.381	11.7288
566.274	11.2922
569.167	19.8103
572.06	35.3842
574.952	35.5668
577.845	35.3914
580.738	32.5011
583.63	11.9236
586.523	1.03125
589.416	30.5862
592.308	64.6814
595.201	103.205
598.094	162.395
600.987	208.764
603.879	260.588
606.772	310.184
609.665	358.549
612.557	414.383
615.45	448.93
618.343	482.503
621.236	497.199
624.128	520.065
627.021	561.887
629.914	608.923
632.806	672.743
635.699	736.131
638.592	787.419
641.484	855.902
644.377	889.863
647.27	899.921
650.163	895.687
653.055	846.812
655.948	845.689
658.841	906.365
661.733	1064.82
664.626	1371.65
667.519	1847.25
670.411	2536.52
673.304	3426.28
676.197	4450.35
679.09	5538.6
681.982	6475.27
684.875	6983.08
687.768	6690.49
690.66	5751.11
693.553	4467.74
696.446	3336.9
699.338	2463.09
702.231	1808.44
705.124	1331.98
708.016	985.877
710.909	736.937
713.802	554.023
716.695	413.953
719.587	302.98
722.48	204.213
725.373	149.156
728.265	89.7869
731.158	47.3239
734.051	13.3224
736.943	2.86255
739.836	15.0647
742.729	17.7429
745.622	25.3571
748.514	26.4036
751.407	15.4572
754.3	8.76099
757.192	14.6543
760.085	1.24707
762.978	7.60168
765.87	1.59644
768.763	16.8612
771.656	13.0041
774.549	28.2832
777.441	30.1803
780.334	28.6506
783.227	39.1146
786.119	46.2551
789.012	60.1798
791.905	60.913
794.798	60.8575
797.69	72.0431
800.583	62.139
803.476	72.9429
806.368	59.2383
809.261	51.6718
812.154	42.6324
815.046	41.165
817.939	42.9667
820.832	43.6023
823.725	54.4868
826.617	45.873
829.51	50.2609
832.403	59.0118
835.295	70.4094
838.188	88.4999
841.081	100.329
843.973	124.669
846.866	141.125
849.759	166.452
852.652	201.216
855.544	230.188
858.437	275.536
861.33	319.484
864.222	385.728
867.115	451.239
870.008	538.85
872.9	619.339
875.793	661.9
878.686	684.175
881.578	652.264
884.471	594.859
887.364	503.139
890.257	430.202
893.149	353.221
896.042	293.343
898.935	240.924
901.827	207.491
904.72	168.85
907.613	133.183
910.505	95.9737
913.398	83.2959
916.291	50.741
919.184	43.2267
922.076	30.9936
924.969	19.6877
927.862	12.4507
930.754	6.06152
933.647	3.80304
936.54	2.31598
939.433	15.9093
942.325	6.92621
945.218	2.67816
948.111	3.98462
951.003	5.1214
953.896	1.66907
956.789	1.46814
959.681	2.67316
962.574	1.08832
965.467	5.05054
968.36	11.6542
971.252	7.76227
974.145	11.991
977.038	17.1686
979.93	15.8933
982.823	24.6841
985.716	25.0414
988.608	31.3026
991.501	32.797
994.394	27.5705
997.287	34.4661
1000.18	39.2071
1003.07	52.7183
1005.97	50.5414
1008.86	71.9069
1011.75	77.5008
1014.64	94.6195
1017.53	96.8436
1020.43	110.71
1023.32	114.223
1026.21	102.415
1029.11	102.575
1032	94.2468
1034.89	76.9314
1037.78	63.0388
1040.68	54.1152
1043.57	48.546
1046.46	34.2253
1049.36	38.145
1052.25	29.798
1055.14	22.8742
1058.03	33.1782
1060.93	21.0042
1063.82	20.4927
1066.71	17.36
1069.6	17.1202
1072.5	13.5165
1075.39	9.4079
1078.28	11.7982
1081.17	3.91846
1084.07	9.89654
1086.96	1.90692
1089.85	4.71942
1092.75	2.64227
1095.64	4.73358
1098.53	3.29071
1101.42	4.93732
1104.32	3.12793
1107.21	4.90161
1110.1	1.49078
1112.99	0.96344
1115.89	0.478638
1118.78	3.49432
1121.67	4.79205
1124.57	1.52142
1127.46	2.23358
1130.35	2.8396
1133.24	6.02753
1136.14	6.77136
1139.03	0.272095
1141.92	3.97174
1144.81	1.78583
1147.71	3.02765
1150.6	7.98267
1153.49	1.56018
1156.38	2.10498
1159.28	1.72491
1162.17	5.60675
1165.06	6.6601
1167.96	3.6615
1170.85	1.53357
1173.74	13.837
1176.63	6.44043
1179.53	9.49499
1182.42	7.00549
1185.31	2.12799
1188.2	4.9552
1191.1	9.25055
1193.99	8.50616
1196.88	9.57355
1199.78	0.448975
1202.67	7.64697
1205.56	3.38623
1208.45	9.01025
1211.35	5.8421
1214.24	0.773682
1217.13	5.4057
1220.02	11.9738
1222.92	13.5377
1225.81	5.08246
1228.7	9.30902
1231.6	2.77606
