Measurement: Raman, 780 nm, unoriented, Raman Data Processed
Mineral: Sabinaite
Rruff sample: R110174
Ideal chemistry: Na_4_TiZr_2_O_4_(CO_3_)_4_
Locality: Mont St-Hilaire, Quebec, Canada
Source: Donald Doell
Description: Brown pseudohexagonal platy crystals on orthoclase
Raman shift (cm-1)	intensity
92.5678	0
95.9426	103.885
99.3174	138.577
102.692	26.3962
106.067	38.8571
109.442	19.1356
112.817	9.52606
116.192	1.08063
119.566	5.53
122.941	13.5233
126.316	3.94546
129.691	4.09064
133.066	33.8161
136.44	124.862
139.815	262.636
143.19	433.726
146.565	620.926
149.94	394.52
153.315	173.272
156.689	97.7581
160.064	112.05
163.439	106.553
166.814	53.1144
170.189	15.5084
173.563	1.79071
176.938	5.18988
180.313	7.42712
183.688	2.46759
187.063	4.36902
190.437	41.1938
193.812	126.216
197.187	179.514
200.562	108.063
203.937	98.5458
207.311	209.225
210.686	401.975
214.061	510.176
217.436	671.765
220.811	917.166
224.186	730.725
227.56	660.799
230.935	408.231
234.31	155.57
237.685	43.7893
241.06	0.180115
244.435	7.14484
247.809	44.0902
251.184	115.65
254.559	175.007
257.934	122.564
261.309	31.2588
264.683	2.2096
268.058	8.44568
271.433	61.8935
274.808	180.674
278.183	430
281.558	848.05
284.932	1100.1
288.307	945.386
291.682	781.526
295.057	483.312
298.432	267.926
301.806	178.428
305.181	108.275
308.556	70.3339
311.931	63.4902
315.306	87.6288
318.68	125.303
322.055	153.579
325.43	199.335
328.805	266.354
332.18	258.597
335.555	197.519
338.929	140.513
342.304	72.5621
345.679	34.7732
349.054	14.6253
352.429	0.276093
355.803	3.27683
359.178	4.10239
362.553	3.21353
365.928	1.13379
369.303	0.460724
372.678	1.88147
376.052	2.68277
379.427	0.292847
382.802	0.288818
386.177	3.51852
389.552	12.5729
392.926	17.3251
396.301	25.5749
399.676	45.1443
403.051	70.8252
406.426	122.124
409.8	216.193
413.175	371.641
416.55	611.736
419.925	826.657
423.3	789.611
426.675	490.758
430.049	256.643
433.424	143.026
436.799	80.4692
440.174	43.9141
443.549	26.6749
446.923	15.6717
450.298	10.171
453.673	7.31488
457.048	6.38211
460.423	13.5756
463.798	19.6164
467.172	21.2776
470.547	24.3301
473.922	28.9516
477.297	38.2038
480.672	59.3483
484.046	100.588
487.421	163.737
490.796	280.74
494.171	525.42
497.546	1050.36
500.921	2058.76
504.295	2907.15
507.67	1838.16
511.045	785.839
514.42	376.321
517.795	203.083
521.169	121.347
524.544	72.8793
527.919	50.4425
531.294	31.9497
534.669	22.3343
538.044	13.3583
541.418	6.78095
544.793	2.15747
548.168	0.847168
551.543	1.93372
554.918	2.95819
558.293	2.61969
561.667	0.988251
565.042	2.08542
568.417	1.26679
571.792	1.16592
575.167	0.275391
578.541	0.075256
581.916	0.788116
585.291	2.43277
588.666	2.62058
592.041	1.38171
595.415	6.58826
598.79	5.73083
602.165	6.94467
605.54	8.83701
608.915	9.1759
612.29	15.0719
615.664	16.2245
619.039	20.9878
622.414	26.5833
625.789	35.1255
629.164	34.5256
632.538	31.6989
635.913	25.2233
639.288	17.7799
642.663	16.8255
646.038	9.26053
649.413	7.20444
652.787	5.95642
656.162	0.051544
659.537	0.978333
662.912	1.84549
666.287	1.27389
669.661	0.002289
673.036	0.156342
676.411	1.29294
679.786	5.38126
683.161	6.17053
686.535	10.3963
689.91	11.7999
693.285	0.637695
696.66	1.2132
700.035	0.619659
703.41	2.07446
706.784	6.77078
710.159	4.00589
713.534	4.4415
716.909	4.38977
720.284	5.64645
723.659	7.24341
727.033	9.38095
730.408	13.9153
733.783	23.9444
737.158	44.8895
740.533	97.26
743.907	183.424
747.282	138.766
750.657	52.8146
754.032	54.5162
757.407	156.071
760.782	69.9193
764.156	8.23151
767.531	1.16809
770.906	2.0397
774.281	1.90555
777.656	3.96768
781.03	10.0285
784.405	23.6272
787.78	39.6566
791.155	69.7352
794.53	106.158
797.904	157.091
801.279	215.295
804.654	261.034
808.029	292.908
811.404	304.01
814.779	291.077
818.153	269.236
821.528	239.181
824.903	201.037
828.278	169.995
831.653	139.359
835.028	109.496
838.402	94.1522
841.777	75.2514
845.152	66.4474
848.527	54.0444
851.902	46.3364
855.276	39.9016
858.651	28.9488
862.026	21.6365
865.401	19.039
868.776	13.8092
872.15	10.7659
875.525	8.36072
878.9	7.54065
882.275	5.22705
885.65	7.68051
889.024	1.71527
892.399	5.51007
895.774	1.10535
899.149	0.360657
902.524	1.48199
905.899	1.88535
909.273	0.379974
912.648	1.00018
916.023	0.601563
919.398	0.897034
922.773	5.6442
926.148	0.611389
929.522	0.625183
932.897	1.27368
936.272	3.17749
939.647	3.63815
943.022	0.253815
946.396	0.643799
949.771	1.11035
953.146	2.18918
956.521	3.44492
959.896	4.63058
963.27	4.85864
966.645	5.95834
970.02	4.31616
973.395	4.11475
976.77	3.0881
980.145	1.47882
983.519	5.41479
986.894	1.72098
990.269	4.51523
993.644	3.69199
997.019	3.54199
1000.39	4.14206
1003.77	1.66696
1007.14	1.38486
1010.52	1.52435
1013.89	3.66733
1017.27	2.74304
1020.64	4.93307
1024.02	2.20709
1027.39	3.01535
1030.77	5.37735
1034.14	1.86652
1037.52	3.51895
1040.89	2.82254
1044.27	5.50439
1047.64	1.48053
1051.02	0.861816
1054.39	1.50818
1057.77	3.46979
1061.14	4.08814
1064.52	6.9166
1067.89	16.9364
1071.27	60.9352
1074.64	179.518
1078.01	63.5074
1081.39	41.0181
1084.76	62.7516
1088.14	110.955
1091.51	52.7673
1094.89	18.2422
1098.26	7.83078
1101.64	5.44336
1105.01	0.545685
1108.39	3.61951
1111.76	0.785248
1115.14	0.78891
1118.51	1.45862
1121.89	1.16568
1125.26	1.90192
1128.64	2.12024
1132.01	1.23141
1135.39	0.391693
1138.76	1.60944
1142.14	1.30264
1145.51	2.76929
1148.88	2.9227
1152.26	3.73444
1155.63	3.13586
1159.01	3.67429
1162.38	4.40518
1165.76	2.38419
1169.13	6.44894
1172.51	3.77264
1175.88	3.18948
1179.26	2.17996
1182.63	2.49554
1186.01	3.33273
1189.38	1.27081
1192.76	4.57864
1196.13	4.07071
1199.51	5.00458
1202.88	2.35602
1206.26	4.69928
1209.63	0.751587
1213.01	2.90994
1216.38	1.44626
1219.76	0.141571
1223.13	2.37631
1226.51	9.52924
1229.88	1.2402
1233.26	1.1835
1236.63	0.967712
1240.01	0.649017
1243.38	0.389313
1246.76	0.71344
1250.13	1.79901
1253.51	1.02017
1256.88	1.20413
1260.25	4.57224
1263.63	4.32376
1267	2.00043
1270.38	3.8464
1273.75	0.410034
1277.13	3.06598
1280.5	0.101532
1283.88	2.06296
