Measurement: Raman, 532 nm, unoriented, Raman Data Processed
Mineral: Sabinaite
Rruff sample: R110174
Ideal chemistry: Na_4_TiZr_2_O_4_(CO_3_)_4_
Locality: Mont St-Hilaire, Quebec, Canada
Source: Donald Doell
Description: Brown pseudohexagonal platy crystals on orthoclase
Raman shift (cm-1)	intensity
188.844	0
191.737	8.30138
194.629	31.4981
197.522	55.3931
200.415	32.0194
203.308	9.2666
206.2	9.67431
209.093	21.7804
211.986	43.8084
214.878	59.6534
217.771	80.3436
220.664	95.7299
223.556	82.6628
226.449	55.173
229.342	51.4692
232.234	22.9316
235.127	6.23818
238.02	4.03854
240.913	5.46094
243.805	2.63194
246.698	0.795723
249.591	11.1542
252.483	27.2432
255.376	37.8197
258.269	36.9511
261.161	26.4051
264.054	26.5736
266.947	40.3455
269.84	68.134
272.732	109.887
275.625	173.195
278.518	281.823
281.41	465.295
284.303	648.87
287.196	602.162
290.089	462.519
292.981	365.245
295.874	244.938
298.767	155.877
301.659	110.093
304.552	76.8459
307.445	52.1655
310.337	34.2744
313.23	33.5896
316.123	38.8
319.015	51.8642
321.908	72.0277
324.801	102.99
327.694	145.874
330.586	175.773
333.479	160.543
336.372	119.462
339.264	85.8396
342.157	51.9506
345.05	28.943
347.942	15.6733
350.835	8.57142
353.728	4.20845
356.621	1.09298
359.513	2.02042
362.406	1.57557
365.299	1.13354
368.191	0.639683
371.084	1.06787
373.977	0.352745
376.87	0.160362
379.762	1.12191
382.655	1.28685
385.548	3.14662
388.44	6.73208
391.333	9.15764
394.226	14.3916
397.118	19.2209
400.011	27.25
402.904	44.2395
405.796	67.3943
408.689	103.925
411.582	161.153
414.475	242.634
417.367	343.487
420.26	443.761
423.153	462.623
426.045	347.327
428.938	212.409
431.831	124.019
434.724	74.7965
437.616	47.6783
440.509	30.3526
443.402	20.993
446.294	12.7031
449.187	6.02132
452.08	4.07075
454.972	2.20865
457.865	2.68766
460.758	1.57291
463.651	3.15935
466.543	0.394547
469.436	1.05505
472.329	2.83956
475.221	2.80506
478.114	6.85192
481.007	9.83455
483.899	17.0267
486.792	29.6268
489.685	53.9556
492.577	91.7735
495.47	138.294
498.363	201.081
501.256	291.62
504.148	393.823
507.041	345.577
509.934	183.275
512.826	89.1221
515.719	47.2198
518.612	27.6589
521.505	16.1164
524.397	10.9893
527.29	6.69695
530.183	4.9443
533.075	2.98459
535.968	1.03078
538.861	0.216179
541.753	0.222263
544.646	1.3222
547.539	0.413254
550.432	0.112133
553.324	0.179855
556.217	0.566261
559.11	1.4309
562.002	2.69005
564.895	2.05621
567.788	2.81118
570.68	4.22271
573.573	4.28036
576.466	5.19919
579.359	4.03965
582.251	5.31207
585.144	4.96227
588.037	5.06483
590.929	4.6701
593.822	6.03838
596.715	3.26484
599.607	5.04106
602.5	3.3146
605.393	3.82914
608.285	4.28395
611.178	5.166
614.071	6.29108
616.964	7.05027
619.856	9.39655
622.749	10.4667
625.642	12.8193
628.534	13.0503
631.427	12.0998
634.32	9.54652
637.212	6.85745
640.105	5.07392
642.998	3.18693
645.891	2.0972
648.783	0.441292
651.676	0.945675
654.569	0.509838
657.461	0.258259
660.354	0.679958
663.247	0.744492
666.139	0.554745
669.032	0.907364
671.925	0.287243
674.818	0.364941
677.71	1.50792
680.603	1.50364
683.496	1.3799
686.388	2.10278
689.281	1.00188
692.174	0.973785
695.067	1.02569
697.959	1.33152
700.852	0.727062
703.745	0.386303
706.637	0.427185
709.53	1.82942
712.423	1.42635
715.315	1.411
718.208	1.99669
721.101	1.15391
723.994	1.24102
726.886	2.39807
729.779	3.77067
732.672	5.06
735.564	7.66603
738.457	10.1311
741.35	16.1586
744.242	23.3061
747.135	26.027
750.028	15.2031
752.92	10.1886
755.813	14.0911
758.706	37.3612
761.599	17.9846
764.491	2.72218
767.384	0.265854
770.277	1.16184
773.169	0.925987
776.062	0.200588
778.955	0.936756
781.847	2.82765
784.74	5.33577
787.633	9.89485
790.526	16.9443
793.418	25.087
796.311	35.0702
799.204	50.1305
802.096	62.6732
804.989	76.9241
807.882	87.906
810.774	93.1649
813.667	94.8178
816.56	93.0312
819.453	87.7837
822.345	80.2209
825.238	70.6583
828.131	60.4816
831.023	55.1725
833.916	45.21
836.809	39.0374
839.702	33.4626
842.594	30.4154
845.487	25.5449
848.38	21.6299
851.272	18.7614
854.165	17.6736
857.058	16.5234
859.95	12.2311
862.843	10.0502
865.736	6.22079
868.629	5.59889
871.521	4.70387
874.414	3.17372
877.307	3.9784
880.199	1.83744
883.092	1.90286
885.985	0.774857
888.877	0.73875
891.77	1.18532
894.663	0.311256
897.556	0.335373
900.448	0.243469
903.341	0.738308
906.234	0.423981
909.126	0.133541
912.019	0.078712
914.912	1.4246
917.804	0.314571
920.697	2.3223
923.59	0.860996
926.482	0.392262
929.375	0.204998
932.268	0.714237
935.161	1.41158
938.053	1.77903
940.946	1.02216
943.839	0.06374
946.731	0.012798
949.624	0.876122
952.517	0.720253
955.409	0.972187
958.302	0.184994
961.195	0.840923
964.088	1.89394
966.98	1.06211
969.873	1.3172
972.766	1.57389
975.658	1.15175
978.551	1.86996
981.444	0.678379
984.337	0.209324
987.229	0.970078
990.122	0.978466
993.015	0.833057
995.907	1.9048
998.8	0.666843
1001.69	0.971024
1004.59	1.09674
1007.48	0.705986
1010.37	0.558895
1013.26	1.1291
1016.16	1.42586
1019.05	1.36579
1021.94	0.919506
1024.83	0.950703
1027.73	0.453857
1030.62	0.551235
1033.51	1.6845
1036.4	1.01734
1039.3	1.80619
1042.19	1.07469
1045.08	1.00275
1047.98	1.75074
1050.87	0.001549
1053.76	0.507641
1056.65	1.21154
1059.55	0.090981
1062.44	1.54373
1065.33	5.38506
1068.22	9.38974
1071.12	21.1383
1074.01	58.4095
1076.9	73.709
1079.8	26.0558
1082.69	21.0943
1085.58	29.7743
1088.47	46.6492
1091.37	36.1949
1094.26	14.1038
1097.15	5.39518
1100.04	3.15736
1102.94	2.42525
1105.83	1.1916
1108.72	1.90605
1111.62	1.42442
1114.51	0.531029
1117.4	0.824654
1120.29	0.198486
1123.19	0.996773
1126.08	0.018341
1128.97	0.598782
1131.86	0.109447
1134.76	0.366138
1137.65	0.102383
1140.54	0.678017
1143.43	0.131756
1146.33	0.964184
1149.22	1.70192
1152.11	1.5152
1155.01	0.580406
1157.9	0.941242
1160.79	2.06588
1163.68	1.7922
1166.58	1.92141
1169.47	1.62981
1172.36	1.26099
1175.26	1.13157
1178.15	2.85273
1181.04	2.01764
1183.93	1.13438
1186.83	0.912254
1189.72	1.29831
1192.61	1.05677
1195.5	0.642132
1198.4	1.59506
1201.29	2.03179
1204.18	1.63463
1207.07	0.686455
1209.97	1.79692
1212.86	1.12911
1215.75	1.15377
1218.64	0.062275
1221.54	1.09712
1224.43	0.014313
1227.32	0.052662
1230.22	0.268932
1233.11	1.73601
1236	1.07715
1238.89	0.438957
1241.79	0.512054
1244.68	0.817478
1247.57	0.82346
1250.46	0.763302
1253.36	0.538467
1256.25	0.06649
1259.14	0.298683
1262.04	1.56688
1264.93	1.49916
1267.82	1.54367
1270.71	0.808449
1273.61	0.933723
1276.5	0.326874
1279.39	1.57162
1282.29	1.88086
1285.18	0.581127
1288.07	0.776154
1290.96	1.17967
1293.86	0.984299
1296.75	0.805973
1299.64	0.34782
1302.53	0.001884
