Measurement: Raman, 532 nm, unoriented, Raman Data Processed
Mineral: Sabugalite
Rruff sample: R080028
Ideal chemistry: HAl(UO_2_)_4_(PO_4_)_4_16H_2_O
Locality: Arcu su Linnarbu, Capoterra, Cagliari, Sardinia
Source: Mark N. Feinglos, M.D.
Description: Cluster of yellow plates
Raman shift (cm-1)	intensity
180.187	0
183.08	101.594
185.973	405.65
188.865	827.121
191.758	1314.55
194.651	1630.51
197.543	1576.82
200.436	1354.35
203.329	1086.86
206.221	911.031
209.114	868.795
212.007	887.537
214.9	834.172
217.792	685.047
220.685	550.857
223.578	434.34
226.47	338.992
229.363	153.565
232.256	47.0645
235.149	74.1387
238.041	69.2207
240.934	52.4648
243.827	18.0117
246.719	33.9512
249.612	92.4336
252.505	129.549
255.397	162.34
258.29	170.129
261.183	293.356
264.075	334.801
266.968	434.185
269.861	519.57
272.754	593.412
275.646	687.703
278.539	752.189
281.432	828.604
284.324	933.273
287.217	905.723
290.11	946.203
293.002	811.482
295.895	688.756
298.788	504.199
301.681	373.299
304.573	369.326
307.466	361.502
310.359	292.381
313.251	273.07
316.144	280.135
319.037	305.227
321.93	258.904
324.822	180.606
327.715	129.783
330.608	166.269
333.5	180.81
336.393	125.223
339.286	125.275
342.178	122.184
345.071	132.432
347.964	100.869
350.856	80.1465
353.749	70.0195
356.642	28.4551
359.535	46.1875
362.427	70.3242
365.32	90.709
368.213	29.6094
371.105	22.0645
373.998	5.94727
376.891	0.333984
379.784	7.41602
382.676	50.4043
385.569	85.9414
388.462	45.9199
391.354	58.627
394.247	101.264
397.14	189.203
400.032	254.693
402.925	321.553
405.818	326.793
408.711	209.67
411.603	3.45703
414.496	56.8027
417.389	47.6582
420.281	32.3711
423.174	11.1914
426.067	26.2031
428.959	36.4238
431.852	25.543
434.745	46.123
437.637	33.9863
440.53	48.5859
443.423	63.666
446.316	34.9297
449.208	40.4863
452.101	102.977
454.994	140.738
457.886	162.44
460.779	195.549
463.672	189.205
466.565	257.322
469.457	309.389
472.35	356.682
475.243	427.94
478.135	427.404
481.028	506.453
483.921	558.365
486.813	603.871
489.706	616.852
492.599	727.326
495.491	775.019
498.384	811.199
501.277	823.535
504.17	788.656
507.062	787.348
509.955	780.369
512.848	739.701
515.74	715.369
518.633	683.508
521.526	686.76
524.418	733.234
527.311	674.451
530.204	688.369
533.097	663.803
535.989	697.873
538.882	689.043
541.775	619.383
544.667	576.856
547.56	526.955
550.453	584.029
553.346	553.424
556.238	478.559
559.131	413.352
562.024	402.166
564.916	404.926
567.809	399.039
570.702	359.721
573.594	345.117
576.487	265.1
579.38	244.883
582.273	210.711
585.165	195.644
588.058	195.641
590.951	181.356
593.843	141.297
596.736	91.2422
599.629	89.4219
602.521	92.6797
605.414	60.291
608.307	73.9512
611.199	51.6074
614.092	9.97266
616.985	24.2422
619.878	34.4785
622.77	13.5117
625.663	20.2832
628.556	57.3887
631.448	6.23242
634.341	30.6875
637.234	16.3906
640.126	21.7676
643.019	47.0352
645.912	12.0801
648.805	10.8066
651.697	5.10547
654.59	25.3652
657.483	6.59863
660.375	10.4014
663.268	38.5
666.161	24.0938
669.053	0.072266
671.946	35.1826
674.839	8.18262
677.732	19.0127
680.624	12.2148
683.517	40.169
686.41	12.6113
689.302	16.498
692.195	81.8379
695.088	111.439
697.981	63.8174
700.873	80.9951
703.766	106.743
706.659	74.1611
709.551	121.647
712.444	81.5264
715.337	84.1397
718.229	82.3008
721.122	74.8477
724.015	73.3027
726.907	59.4482
729.8	44.3174
732.693	61.8584
735.586	55.999
738.478	40.4404
741.371	27.6963
744.264	13.6729
747.156	15.292
750.049	15.0449
752.942	22.7256
755.834	20.8613
758.727	33.2666
761.62	63.1455
764.513	129.11
767.405	185.543
770.298	253.284
773.191	294.441
776.083	440.991
778.976	642.93
781.869	943.924
784.761	1309.67
787.654	1753.89
790.547	2263.86
793.439	2918.47
796.332	3595.02
799.225	4151.69
802.118	4569.82
805.01	4935.08
807.903	5285.98
810.796	6035.9
813.688	7431.38
816.581	9634.97
819.474	11532.8
822.366	11904
825.259	11541.4
828.152	9661.72
831.045	6195.22
833.937	3321.46
836.83	1839.63
839.723	936.517
842.615	499.749
845.508	271.765
848.401	144.121
851.293	38.9297
854.186	13.7773
857.079	3.20703
859.972	4.62695
862.864	30.6191
865.757	9.90723
868.65	33.4434
871.542	94.0732
874.435	164.504
877.328	280.923
880.221	419.612
883.113	559.751
886.006	756.856
888.899	878.446
891.791	901.688
894.684	756.317
897.577	642.913
900.469	481.144
903.362	372.935
906.255	220.97
909.148	131.384
912.04	93.7314
914.933	33.958
917.826	47.1221
920.718	20.3135
923.611	19.9219
926.504	17.5488
929.396	8.56445
932.289	6.38184
935.182	26.4238
938.074	45.8848
940.967	77.6582
943.86	116.689
946.753	162.768
949.645	256.097
952.538	379.401
955.431	578.488
958.323	822.926
961.216	1245.39
964.109	1937.54
967.001	2899.73
969.894	4095.45
972.787	5563.91
975.68	7213.66
978.572	8221.49
981.465	7781.93
984.358	6473.07
987.25	5595.98
990.143	5272.47
993.036	5163.74
995.928	5006.61
998.821	4592.55
1001.71	3950.5
1004.61	3393.03
1007.5	3097.57
1010.39	2838.09
1013.28	2362.77
1016.18	1748.38
1019.07	1240.69
1021.96	901.637
1024.86	586.858
1027.75	395.788
1030.64	287.171
1033.53	184.005
1036.43	110.282
1039.32	70.4453
1042.21	55.9062
1045.1	17.1094
1048	7.93066
1050.89	12.4854
1053.78	7.33789
1056.67	8.24121
1059.57	22.0791
1062.46	29.4727
1065.35	0.407227
1068.25	23.7041
1071.14	15.4482
1074.03	32.3828
1076.92	23.041
1079.82	49.2295
1082.71	44.5898
1085.6	42.2832
1088.49	70.5703
1091.39	63.0205
1094.28	90.4727
1097.17	57.8418
1100.07	73.7158
1102.96	70.2148
1105.85	68.9756
1108.74	120.157
1111.64	68.5654
1114.53	87.5606
1117.42	42.0098
1120.32	27.5674
1123.21	34.4004
1126.1	49.9736
1128.99	34.6016
1131.88	33.7773
1134.78	47.084
1137.67	46.4629
1140.56	40.3086
1143.46	34.0117
1146.35	34.123
1149.24	55.7754
1152.13	29.792
1155.03	32.6113
1157.92	30.0654
1160.81	0.330078
1163.7	18.085
1166.6	43.8506
1169.49	20.1709
1172.38	35.6035
1175.28	20.1201
1178.17	25.5088
1181.06	0.549805
1183.95	40.4092
1186.85	0.707031
1189.74	3.63672
1192.63	21.8291
1195.53	26.8232
1198.42	39.0088
1201.31	27.7842
1204.2	8.1543
1207.1	10.9092
1209.99	32.5361
1212.88	36.8955
1215.77	48.8711
1218.67	70.4795
1221.56	80.4834
1224.45	49.417
1227.34	53.25
1230.24	39.0312
1233.13	44.4375
1236.02	43.3789
1238.91	9.91602
1241.81	20.0566
1244.7	57.6572
1247.59	60.7588
1250.49	64.1807
1253.38	43.4756
1256.27	44.0762
1259.16	44.8428
1262.06	70.8799
1264.95	80.1436
1267.84	48.6045
1270.73	70.1064
1273.63	79.6533
1276.52	76.6191
1279.41	66.2363
1282.31	42.3857
1285.2	60.4883
1288.09	65.8125
1290.98	61.1143
1293.88	28.2178
1296.77	1.14648
1299.66	9.46289
1302.56	34.8086
