Measurement: Raman, 780 nm, unoriented, Raman Data Processed
Mineral: Sabugalite
Rruff sample: R080028
Ideal chemistry: HAl(UO_2_)_4_(PO_4_)_4_16H_2_O
Locality: Arcu su Linnarbu, Capoterra, Cagliari, Sardinia
Source: Mark N. Feinglos, M.D.
Description: Cluster of yellow plates
Raman shift (cm-1)	intensity
140.311	0
143.204	1.01625
146.097	0.37048
148.989	7.67457
151.882	16.6956
154.775	37.6342
157.667	53.5388
160.56	71.1122
163.453	108.959
166.345	150.342
169.238	232.099
172.131	347.3
175.024	476.93
177.916	604.757
180.809	750.171
183.702	906.494
186.594	1079.28
189.487	1255.57
192.38	1424.59
195.272	1494.59
198.165	1399.19
201.058	1227.38
203.951	1064.78
206.843	950.633
209.736	858.6
212.629	770.719
215.521	666.208
218.414	569.787
221.307	464.151
224.199	366.297
227.092	281.959
229.985	195.059
232.877	113.102
235.77	57.4719
238.663	20.6642
241.556	5.29992
244.448	1.48464
247.341	3.09219
250.234	4.26957
253.126	1.31726
256.019	2.09487
258.912	7.64032
261.805	20.8979
264.697	34.9172
267.59	51.764
270.483	72.4557
273.375	97.1844
276.268	119.147
279.161	145.899
282.053	172.109
284.946	192.512
287.839	201.091
290.731	193.147
293.624	165.872
296.517	126.169
299.41	88.7684
302.302	54.9796
305.195	33.0245
308.088	23.5591
310.98	8.07354
313.873	7.48843
316.766	2.55195
319.659	0.045504
322.551	0.768063
325.444	2.09737
328.337	4.10802
331.229	1.22166
334.122	2.22892
337.015	3.30114
339.907	3.12513
342.8	6.11388
345.693	5.63635
348.586	7.0339
351.478	12.961
354.371	18.0152
357.264	14.953
360.156	15.7464
363.049	18.5528
365.942	20.2705
368.834	22.8875
371.727	25.9803
374.62	33.3405
377.512	33.3573
380.405	32.7551
383.298	44.9273
386.191	58.933
389.083	77.9738
391.976	84.3896
394.869	102.34
397.761	109.939
400.654	139.785
403.547	168.304
406.44	165.145
409.332	122.987
412.225	63.1479
415.118	42.5419
418.01	27.9216
420.903	17.9168
423.796	21.8589
426.688	20.2411
429.581	22.8052
432.474	21.3041
435.366	20.2906
438.259	24.6709
441.152	24.31
444.045	22.5308
446.937	19.6097
449.83	9.72251
452.723	10.1005
455.615	5.10761
458.508	1.12142
461.401	0.889915
464.293	2.13172
467.186	0.242048
470.079	1.08417
472.972	0.079359
475.864	0.186457
478.757	0.100893
481.65	0.594261
484.542	0.95318
487.435	1.05783
490.328	0.862699
493.221	1.27662
496.113	0.764484
499.006	3.47468
501.899	1.12242
504.791	2.06445
507.684	4.32988
510.577	1.83137
513.469	0.458976
516.362	3.22931
519.255	8.3832
522.148	5.08655
525.04	6.20801
527.933	10.753
530.826	5.82345
533.718	11.4195
536.611	8.18337
539.504	16.4072
542.396	15.1656
545.289	15.0097
548.182	16.8202
551.074	13.7213
553.967	14.55
556.86	16.8253
559.753	19.071
562.645	10.8678
565.538	9.2022
568.431	2.56573
571.323	3.07604
574.216	2.80407
577.109	1.21222
580.001	7.07911
582.894	3.95702
585.787	7.64347
588.68	3.49408
591.572	6.40095
594.465	7.28961
597.358	8.10661
600.25	12.1037
603.143	16.0464
606.036	12.7936
608.928	11.9537
611.821	16.9277
614.714	18.3865
617.607	20.5979
620.499	15.9043
623.392	20.3509
626.285	19.1028
629.177	19.1743
632.07	20.8144
634.963	14.7665
637.856	14.7482
640.748	9.07036
643.641	5.59096
646.534	0.278032
649.426	6.50562
652.319	2.11514
655.212	3.75006
658.104	1.8391
660.997	2.07266
663.89	3.89854
666.783	2.22483
669.675	5.20545
672.568	0.351908
675.461	3.3166
678.353	0.882298
681.246	2.79007
684.139	1.13478
687.031	5.29587
689.924	2.96981
692.817	2.8914
695.71	2.61738
698.602	3.27792
701.495	1.41708
704.388	2.5307
707.28	1.98125
710.173	2.44359
713.066	2.55879
715.958	2.8131
718.851	3.41787
721.744	1.25473
724.636	1.95892
727.529	0.657945
730.422	1.41795
733.315	0.27231
736.207	1.79063
739.1	1.08421
741.993	3.16974
744.885	4.01174
747.778	2.88477
750.671	3.73432
753.563	7.86709
756.456	14.8652
759.349	18.5814
762.242	32.8848
765.134	42.6496
768.027	57.8589
770.92	88.5662
773.812	123.257
776.705	170.634
779.598	238.815
782.49	333.13
785.383	451.541
788.276	603.392
791.169	768.74
794.061	951.676
796.954	1124.9
799.847	1285.9
802.739	1440.61
805.632	1611.41
808.525	1759.47
811.418	2042.78
814.31	2454.69
817.203	2998.19
820.096	3462.8
822.988	3321.22
825.881	3023.14
828.774	2430.58
831.666	1446.41
834.559	703.095
837.452	354.286
840.345	187.627
843.237	103.324
846.13	56.9092
849.023	28.5493
851.915	8.44788
854.808	1.00506
857.701	4.76743
860.593	0.549319
863.486	0.461517
866.379	4.31596
869.271	6.40121
872.164	25.2883
875.057	44.9697
877.95	78.1808
880.842	109.637
883.735	145.398
886.628	175.319
889.52	200.734
892.413	185.215
895.306	152.266
898.198	116.294
901.091	89.1199
903.984	57.019
906.877	27.1152
909.769	14.263
912.662	0.445013
915.555	2.45397
918.447	2.30336
921.34	0.549396
924.233	1.68477
927.125	1.20579
930.018	7.07036
932.911	3.93296
935.804	4.51977
938.696	12.1969
941.589	24.4399
944.482	45.4639
947.374	68.1504
950.267	102.618
953.16	157.059
956.053	232.861
958.945	357.473
961.838	555.996
964.731	830.174
967.623	1153.07
970.516	1528.68
973.409	1962.38
976.301	2368.48
979.194	2535.34
982.087	2291.2
984.98	1903.84
987.872	1709.93
990.765	1630.15
993.658	1637.47
996.55	1617.12
999.443	1497.17
1002.34	1317.23
1005.23	1174.69
1008.12	1070.42
1011.01	986.988
1013.91	782.423
1016.8	568.413
1019.69	406.082
1022.59	283.002
1025.48	184.469
1028.37	119.952
1031.26	82.4588
1034.15	51.3031
1037.05	35.5686
1039.94	21.1363
1042.83	13.623
1045.73	4.85851
1048.62	0.755985
1051.51	0.126235
1054.4	1.00686
1057.3	5.49398
1060.19	2.59528
1063.08	1.55382
1065.97	3.57056
1068.87	2.14424
1071.76	1.07243
1074.65	3.04349
1077.55	0.379457
1080.44	1.95867
1083.33	4.67762
1086.22	8.74072
1089.12	6.96202
1092.01	11.7921
1094.9	15.9475
1097.8	13.1141
1100.69	18.2702
1103.58	21.3003
1106.47	19.503
1109.37	19.4187
1112.26	17.9605
1115.15	14.5605
1118.04	15.2464
1120.94	12.7457
1123.83	7.18512
1126.72	3.57285
1129.62	3.97723
1132.51	3.67461
1135.4	0.671529
1138.29	2.2564
1141.18	1.03862
1144.08	2.22667
1146.97	1.87001
1149.86	0.364767
1152.76	0.537859
1155.65	0.78351
1158.54	2.78186
1161.43	3.4175
1164.33	3.96186
1167.22	4.05218
1170.11	6.24595
1173.01	4.33169
1175.9	3.71093
1178.79	4.97098
1181.68	3.67301
1184.58	7.88976
1187.47	10.3872
1190.36	9.66147
1193.25	9.94491
1196.15	12.4909
1199.04	11.2871
1201.93	12.3619
1204.83	14.1293
1207.72	11.4884
1210.61	12.2166
1213.5	14.1554
1216.4	18.701
1219.29	15.0094
1222.18	15.6684
1225.07	16.8365
1227.97	16.5327
1230.86	16.4367
1233.75	14.5223
1236.64	13.4315
1239.54	8.86923
1242.43	10.9229
1245.32	8.07086
1248.21	5.97972
1251.11	4.61179
1254	3.24551
1256.89	3.70316
1259.79	3.57235
1262.68	1.5419
1265.57	2.48976
1268.46	4.15672
1271.36	0.819615
1274.25	5.53472
1277.14	0.951658
1280.04	3.77626
1282.93	0.925162
1285.82	1.61018
