Measurement: Raman, 532 nm, unoriented, Raman Data Processed
Mineral: Sahamalite-(Ce)
Rruff sample: R080043
Ideal chemistry: Ce_2_Mg(CO_3_)_4_
Locality: Mountain Pass Mine (Sulfide Queen mine; Bastnaesite deposit; Mountain Pass carbonatite), Ivanpah, Mountain Pass District, San Bernardino County, California, USA
Source: Michael Scott
Description: Dull white, semitransparent flat crystal associated with dolomite.
Raman shift (cm-1)	intensity
139.145	0
142.52	0.104084
145.895	2.83304
149.27	8.61926
152.645	20.5418
156.019	47.4563
159.394	86.0215
162.769	114.534
166.144	152.611
169.519	214.705
172.894	332.95
176.268	483.398
179.643	287.76
183.018	101.641
186.393	45.7201
189.768	27.0518
193.143	15.3174
196.517	9.23728
199.892	4.1447
203.267	2.18719
206.642	0.136772
210.017	0.468132
213.391	1.42217
216.766	0.701164
220.141	0.142902
223.516	0.43367
226.891	1.81371
230.265	0.520576
233.64	0.277576
237.015	0.050377
240.39	0.679951
243.765	1.61041
247.139	3.28101
250.514	4.11068
253.889	6.00021
257.264	8.75159
260.639	13.4877
264.014	19.0222
267.388	26.0438
270.763	38.9425
274.138	57.8548
277.513	92.9153
280.888	149.774
284.262	225.289
287.637	306.761
291.012	409.708
294.387	555.325
297.762	707.154
301.137	670.921
304.511	410.082
307.886	212.278
311.261	117.816
314.636	71.2026
318.011	46.8398
321.385	33.1524
324.76	25.2935
328.135	21.0976
331.51	21.2854
334.885	23.6242
338.26	28.1044
341.634	24.2371
345.009	12.1972
348.384	4.57641
351.759	2.43866
355.134	0.547859
358.508	0.251705
361.883	0.623348
365.258	0.88018
368.633	0.528912
372.008	0.388016
375.382	0.188374
378.757	0.076431
382.132	0.560472
385.507	1.20049
388.882	1.64356
392.257	0.885799
395.631	0.597002
399.006	0.667416
402.381	0.043295
405.756	0.296394
409.131	0.296326
412.505	0.027231
415.88	0.330189
419.255	0.126169
422.63	0.217491
426.005	0.622707
429.38	1.44951
432.754	3.34647
436.129	8.10931
439.504	13.5817
442.879	20.3651
446.254	33.1827
449.628	53.2155
453.003	63.9303
456.378	55.5319
459.753	53.8169
463.128	54.674
466.502	22.0778
469.877	8.48101
473.252	4.55615
476.627	2.47372
480.002	1.9925
483.377	1.77188
486.751	1.53591
490.126	1.44976
493.501	1.01381
496.876	0.877296
500.251	0.4261
503.625	0.568987
507	0.58663
510.375	0.790653
513.75	0.017994
517.125	0.407066
520.5	0.072266
523.874	0.491217
527.249	0.111252
530.624	0.044716
533.999	0.217045
537.374	0.233831
540.748	0.617722
544.123	0.534853
547.498	0.633421
550.873	1.00132
554.248	0.851547
557.622	0.880362
560.997	0.90008
564.372	0.454124
567.747	0.611401
571.122	0.728752
574.497	0.403666
577.871	0.316759
581.246	0.099009
584.621	0.126505
587.996	0.192163
591.371	0.033924
594.745	0.126915
598.12	0.780678
601.495	2.52811
604.87	3.51437
608.245	6.12533
611.62	11.7267
614.994	18.141
618.369	21.0606
621.744	13.6204
625.119	8.48717
628.494	7.50759
631.869	7.26525
635.243	5.64842
638.618	5.39064
641.993	7.02621
645.368	10.2673
648.743	10.7005
652.117	4.71611
655.492	0.987133
658.867	0.356464
662.242	0.258678
665.617	0.152863
668.991	0.017601
672.366	0.51088
675.741	1.21024
679.116	1.24197
682.491	2.27059
685.865	2.79952
689.24	3.32973
692.615	4.85222
695.99	6.70568
699.365	8.12539
702.74	11.8004
706.114	18.2458
709.489	28.2238
712.864	45.3958
716.239	65.8972
719.614	96.9662
722.989	130.384
726.363	127.815
729.738	75.0386
733.113	35.7191
736.488	18.7808
739.862	9.90494
743.237	5.99073
746.612	3.88856
749.987	2.29515
753.362	1.3574
756.737	0.842838
760.111	0.761044
763.486	0.27026
766.861	0.338028
770.236	0.117474
773.611	0.068501
776.986	0.072437
780.36	0.000378
783.735	0.003933
787.11	0.160004
790.485	0.110252
793.86	0.03159
797.234	0.570576
800.609	0.551636
803.984	0.708576
807.359	0.444653
810.734	0.464417
814.109	0.391411
817.483	0.512356
820.858	0.216316
824.233	0.608772
827.608	0.533749
830.982	0.396854
834.357	0.847149
837.732	0.171619
841.107	0.2216
844.482	1.02174
847.857	0.918438
851.231	0.775589
854.606	1.27618
857.981	0.955223
861.356	0.714836
864.731	1.01411
868.106	1.69362
871.48	2.32775
874.855	3.69955
878.23	4.91005
881.605	7.99925
884.98	5.18143
888.354	1.80379
891.729	1.58367
895.104	1.70946
898.479	0.845459
901.854	1.3563
905.229	1.27739
908.603	1.23813
911.978	0.872177
915.353	1.4796
918.728	0.520981
922.102	0.567387
925.477	0.566498
928.852	0.573524
932.227	0.439323
935.602	0.151779
938.977	0.489788
942.351	0.483273
945.726	0.45723
949.101	0.011959
952.476	0.083176
955.851	0.423725
959.226	1.4286
962.6	0.978996
965.975	2.26645
969.35	2.82791
972.725	7.2505
976.1	28.8193
979.474	56.7007
982.849	91.5772
986.224	213.489
989.599	333.475
992.974	58.5331
996.348	13.1327
999.723	5.069
1003.1	2.9131
1006.47	0.700119
1009.85	0.303524
1013.22	0.873978
1016.6	0.127674
1019.97	0.569065
1023.35	0.803867
1026.72	0.032227
1030.1	0.121986
1033.47	0.600025
1036.85	1.30046
1040.22	1.45858
1043.6	2.01413
1046.97	3.67845
1050.35	4.92098
1053.72	8.7043
1057.1	12.3633
1060.47	18.5497
1063.85	26.3433
1067.22	39.1726
1070.59	53.8272
1073.97	73.8841
1077.34	97.4318
1080.72	134.475
1084.09	233.251
1087.47	439.96
1090.84	699.172
1094.22	1203.15
1097.59	1883.71
1100.97	1209.09
1104.34	359.831
1107.72	128.065
1111.09	59.3665
1114.47	30.289
1117.84	15.8822
1121.22	8.27602
1124.59	4.9413
1127.97	3.60843
1131.34	4.48959
1134.72	7.76611
1138.09	13.1958
1141.47	12.8276
1144.84	9.01258
1148.21	4.28177
1151.59	0.861938
1154.96	0.598118
1158.34	0.407818
1161.71	1.57873
1165.09	3.9515
1168.46	4.88728
1171.84	2.27675
1175.21	0.127033
1178.59	0.257961
1181.96	0.360142
1185.34	0.994122
1188.71	0.542439
1192.09	0.042046
1195.46	0.060738
1198.84	0.181362
1202.21	1.63851
1205.59	0.900658
1208.96	1.44462
1212.34	1.54139
1215.71	1.70754
1219.09	1.70345
1222.46	1.97864
1225.84	2.1359
1229.21	2.24923
1232.59	2.02655
1235.96	2.18545
1239.34	2.49548
1242.71	1.98196
1246.09	2.05151
1249.46	1.56939
1252.83	0.638779
1256.21	1.21018
1259.58	1.83299
1262.96	0.515095
1266.33	0.875496
1269.71	1.13216
1273.08	0.63089
1276.46	0.835552
1279.83	0.798241
1283.21	1.01177
1286.58	0.89225
1289.96	0.832001
1293.33	0.162476
1296.71	1.55698
1300.08	0.188366
1303.46	0.124252
