Measurement: Raman, 780 nm, unoriented, Raman Data Processed
Mineral: Sahamalite-(Ce)
Rruff sample: R080043
Ideal chemistry: Ce_2_Mg(CO_3_)_4_
Locality: Mountain Pass Mine (Sulfide Queen mine; Bastnaesite deposit; Mountain Pass carbonatite), Ivanpah, Mountain Pass District, San Bernardino County, California, USA
Source: Michael Scott
Description: Dull white, semitransparent flat crystal associated with dolomite.
Raman shift (cm-1)	intensity
136.526	0
139.419	0.296261
142.312	0.586992
145.204	1.83844
148.097	4.77549
150.99	12.6655
153.882	25.7592
156.775	39.5592
159.668	47.5374
162.56	57.2528
165.453	72.5493
168.346	90.9973
171.238	115.822
174.131	141.28
177.024	117.775
179.917	62.1876
182.809	36.2872
185.702	26.6838
188.595	23.8983
191.487	20.5254
194.38	17.8691
197.273	14.5321
200.166	12.3409
203.058	10.1381
205.951	8.22231
208.844	7.13638
211.736	5.2712
214.629	3.70424
217.522	2.689
220.414	1.8109
223.307	1.48843
226.2	0.677105
229.093	0.414829
231.985	0.65007
234.878	0.281292
237.771	0.620571
240.663	0.829056
243.556	0.913906
246.449	0.331959
249.341	0.665939
252.234	0.184563
255.127	1.92146
258.019	3.8699
260.912	6.32387
263.805	9.25636
266.698	13.6593
269.59	20.0421
272.483	29.8682
275.376	43.8885
278.268	64.1605
281.161	87.3771
284.054	105.454
286.947	126.97
289.839	150.496
292.732	176.112
295.625	191.222
298.517	188.436
301.41	142.408
304.303	89.176
307.195	55.737
310.088	36.9659
312.981	27.2988
315.873	22.7141
318.766	18.7046
321.659	18.5047
324.551	16.8355
327.444	15.5183
330.337	15.1138
333.23	13.8972
336.122	14.2956
339.015	12.4586
341.908	9.84568
344.8	6.159
347.693	5.05532
350.586	3.51059
353.478	2.84164
356.371	1.87855
359.264	2.04514
362.157	1.91488
365.049	2.48539
367.942	2.46405
370.835	2.50975
373.727	3.16881
376.62	3.3398
379.513	2.82271
382.406	2.90641
385.298	3.02345
388.191	2.93871
391.084	2.61698
393.976	2.76012
396.869	2.04899
399.762	2.12268
402.654	0.816719
405.547	0.728661
408.44	0.321693
411.332	0.264286
414.225	0.225574
417.118	0.52404
420.011	0.820988
422.903	0.666796
425.796	0.787817
428.689	0.70541
431.581	1.40129
434.474	2.80568
437.367	4.93594
440.26	7.03786
443.152	10.8037
446.045	15.0572
448.938	21.3688
451.83	25.2569
454.723	24.3838
457.616	21.848
460.508	24.8349
463.401	19.977
466.294	8.37324
469.187	3.6066
472.079	1.8833
474.972	1.64864
477.865	1.09718
480.757	0.212917
483.65	0.309338
486.543	0.192602
489.435	0.416166
492.328	0.806482
495.221	0.73716
498.113	0.71455
501.006	1.46555
503.899	1.64357
506.791	2.08949
509.684	2.33228
512.577	2.46792
515.47	2.36976
518.362	2.90185
521.255	2.62186
524.148	3.38464
527.04	2.6117
529.933	3.02961
532.826	2.90543
535.718	2.84458
538.611	3.01343
541.504	2.31929
544.397	2.63615
547.289	2.49564
550.182	2.00949
553.075	2.15181
555.967	2.09538
558.86	1.79117
561.753	1.69227
564.645	1.68285
567.538	1.33271
570.431	1.15391
573.324	1.59165
576.216	0.913433
579.109	0.687803
582.002	0.111593
584.894	0.566725
587.787	0.063913
590.68	0.154566
593.572	0.087957
596.465	0.327267
599.358	0.369898
602.25	0.538033
605.143	1.40875
608.036	2.68206
610.929	3.23063
613.821	5.59918
616.714	7.0131
619.607	5.31456
622.5	3.21681
625.392	2.16409
628.285	2.0183
631.178	1.62444
634.07	1.48738
636.963	1.67424
639.856	1.35856
642.748	2.68965
645.641	3.29398
648.534	3.17798
651.427	1.06389
654.319	0.396845
657.212	0.04192
660.105	0.101723
662.997	0.004625
665.89	0.535732
668.783	0.000486
671.675	0.231684
674.568	0.526955
677.461	0.55377
680.353	0.566776
683.246	0.77046
686.139	0.370876
689.032	1.3632
691.924	1.42275
694.817	1.61873
697.71	2.23912
700.602	3.42871
703.495	4.32581
706.388	6.51825
709.28	10.2816
712.173	13.2858
715.066	16.2651
717.958	20.2019
720.851	25.4844
723.744	26.2834
726.637	20.0873
729.529	11.5083
732.422	5.67045
735.315	3.13705
738.207	1.63157
741.1	1.15312
743.993	0.496996
746.885	0.385666
749.778	0.120394
752.671	0.188711
755.564	0.097265
758.456	0.015541
761.349	0.137228
764.242	0.082422
767.134	0.033264
770.027	0.198479
772.92	0.051865
775.812	0.437443
778.705	0.165962
781.598	0.206181
784.49	0.078907
787.383	0.220442
790.276	0.202576
793.169	0.159555
796.061	0.542931
798.954	0.502506
801.847	0.86829
804.739	0.336933
807.632	0.469368
810.525	0.989956
813.418	0.498163
816.31	0.770277
819.203	0.441603
822.096	0.170961
824.988	0.635277
827.881	0.508347
830.774	0.143093
833.666	0.155128
836.559	0.652678
839.452	0.420427
842.345	0.495892
845.237	0.714397
848.13	0.43096
851.023	0.328293
853.915	0.218639
856.808	0.637407
859.701	0.134827
862.593	0.746264
865.486	0.451498
868.379	1.16027
871.271	0.875067
874.164	0.974476
877.057	1.02243
879.95	1.40309
882.842	1.32225
885.735	0.523863
888.628	0.463358
891.52	0.028572
894.413	0.189053
897.306	0.248627
900.198	0.651514
903.091	0.314678
905.984	0.235775
908.877	0.15921
911.769	0.023073
914.662	0.27405
917.555	0.19335
920.447	0.258665
923.34	0.24999
926.233	0.148031
929.125	0.26515
932.018	0.001638
934.911	0.057713
937.804	0.448509
940.696	0.173622
943.589	0.213076
946.482	0.181501
949.374	0.27607
952.267	0.22949
955.16	0.011215
958.052	0.54138
960.945	0.442904
963.838	1.08255
966.731	1.42582
969.623	2.95432
972.516	6.40728
975.409	17.9857
978.301	22.807
981.194	33.1778
984.087	52.0103
986.979	99.7308
989.872	74.3064
992.765	15.7327
995.658	5.23966
998.55	3.05555
1001.44	2.36447
1004.34	1.71554
1007.23	1.44083
1010.12	1.29159
1013.01	1.0301
1015.91	0.840536
1018.8	0.751574
1021.69	0.756519
1024.58	0.496761
1027.48	0.138107
1030.37	0.586056
1033.26	0.184509
1036.15	0.605991
1039.05	0.226416
1041.94	0.190634
1044.83	0.03788
1047.73	0.453129
1050.62	1.44332
1053.51	1.21697
1056.4	2.23575
1059.3	2.82319
1062.19	4.77943
1065.08	7.15131
1067.97	9.53393
1070.87	12.4724
1073.76	16.0608
1076.65	20.5066
1079.55	29.7369
1082.44	50.9507
1085.33	85.4423
1088.22	120.129
1091.12	164.96
1094.01	227.569
1096.9	252.202
1099.8	155.621
1102.69	57.6969
1105.58	21.8989
1108.47	9.05159
1111.37	3.19297
1114.26	1.55702
1117.15	0.061157
1120.04	0.332565
1122.94	0.628601
1125.83	0.143143
1128.72	0.757797
1131.61	1.41624
1134.51	3.08843
1137.4	5.53867
1140.29	6.58206
1143.18	4.55597
1146.08	2.82909
1148.97	1.84979
1151.86	0.900833
1154.76	0.627281
1157.65	1.67977
1160.54	0.629311
1163.43	1.01843
1166.33	1.44024
