Measurement: Raman, 780 nm, unoriented, Raman Data Processed
Mineral: Sahlinite
Rruff sample: R130115
Ideal chemistry: Pb^2+^_14_O_9_(As^5+^O_4_)_2_Cl_4_
Locality: Langban, Filipstad, Varmland, Sweden
Source: Rock Currier
Description: Compact aggregate of very pale yellow grains with evident cleavage, associated with black hausmannite
Raman shift (cm-1)	intensity
93.1281	0
96.5029	84.8651
99.8777	103.566
103.252	10.4724
106.627	5.69421
110.002	171.549
113.377	599.744
116.752	804.212
120.127	991.484
123.501	1571.45
126.876	2572.26
130.251	3608.82
133.626	4545.77
137.001	4717.25
140.375	6261.7
143.75	7571.5
147.125	5568.28
150.5	3229.97
153.875	2213.83
157.25	1753.21
160.624	1300.33
163.999	833.433
167.374	521.778
170.749	334.614
174.124	213.402
177.498	136.081
180.873	88.5014
184.248	57.6678
187.623	35.0717
190.998	13.222
194.373	4.86652
197.747	2.08008
201.122	0.247253
204.497	3.45935
207.872	10.2383
211.247	14.3062
214.621	18.3364
217.996	14.9418
221.371	8.14548
224.746	8.23065
228.121	26.9074
231.495	51.7058
234.87	77.0663
238.245	100.028
241.62	122.067
244.995	148.531
248.369	163.625
251.744	143.666
255.119	106.856
258.494	90.5621
261.869	92.6638
265.244	113.574
268.618	160.821
271.993	216.289
275.368	252.374
278.743	206.083
282.118	130.35
285.493	94.0789
288.867	111.831
292.242	159.713
295.617	236.699
298.992	319.395
302.366	401.088
305.741	471.131
309.116	508.58
312.491	510.474
315.866	490.27
319.241	429.664
322.615	353.535
325.99	315.637
329.365	326.556
332.74	359.234
336.115	381.234
339.49	376.625
342.864	331.041
346.239	266.658
349.614	212.464
352.989	192.064
356.364	205.413
359.738	267.592
363.113	349.857
366.488	414.286
369.863	369.423
373.238	239.151
376.613	126.284
379.987	35.9507
383.362	13.1773
386.737	31.1353
390.112	24.3897
393.486	2.07159
396.861	48.3773
400.236	108.767
403.611	188.625
406.986	285.317
410.361	380.809
413.735	432.476
417.11	414.729
420.485	359.487
423.86	295.633
427.235	238.568
430.61	193.075
433.984	162.169
437.359	142.577
440.734	123.748
444.109	94.1809
447.484	58.354
450.858	37.178
454.233	26.8942
457.608	21.2685
460.983	14.2881
464.358	3.55505
467.733	1.27515
471.107	2.34677
474.482	2.98415
477.857	0.811539
481.232	2.23891
484.606	5.39423
487.981	6.34975
491.356	7.28356
494.731	9.39858
498.106	9.60713
501.481	12.8167
504.855	16.1747
508.23	18.2302
511.605	20.3933
514.98	23.0022
518.355	25.0163
521.73	26.1117
525.104	26.6519
528.479	23.7374
531.854	21.0243
535.229	18.7464
538.604	16.1782
541.978	16.082
545.353	15.264
548.728	14.1656
552.103	13.3622
555.478	12.3443
558.852	10.7556
562.227	10.0252
565.602	7.28897
568.977	7.37696
572.352	5.64009
575.726	5.8102
579.101	5.1229
582.476	2.74935
585.851	1.80006
589.226	1.86175
592.601	1.46734
595.975	1.79981
599.35	1.87373
602.725	2.4883
606.1	2.9047
609.475	3.20927
612.85	3.04954
616.224	2.53446
619.599	2.07543
622.974	2.03027
626.349	2.28207
629.723	2.26342
633.098	2.50214
636.473	1.40472
639.848	2.12046
643.223	2.28706
646.598	2.06458
649.972	2.11912
653.347	2.74925
656.722	3.13124
660.097	3.64337
663.472	2.53679
666.846	2.72809
670.221	2.04234
673.596	1.11373
676.971	1.74159
680.346	0.771767
683.721	0.538013
687.095	0.262238
690.47	0.758324
693.845	1.41776
697.22	4.08939
700.595	0.037197
703.97	0.300884
707.344	0.434414
710.719	0.341824
714.094	0.793953
717.469	1.15579
720.843	1.8754
724.218	1.75518
727.593	1.51312
730.968	1.03226
734.343	1.11225
737.718	0.879677
741.092	0.316902
744.467	5.31565
747.842	13.4727
751.217	25.2768
754.592	44.4696
757.966	72.5427
761.341	89.9885
764.716	78.7009
768.091	86.0366
771.466	121.141
774.841	182.153
778.215	285.808
781.59	390.268
784.965	326.349
788.34	234.272
791.715	253.923
795.089	308.614
798.464	467.835
801.839	837.219
805.214	1170.82
808.589	913.161
811.963	1124.13
815.338	1690.6
818.713	1784.65
822.088	872.194
825.463	400.598
828.838	224.152
832.212	142.335
835.587	97.885
838.962	71.006
842.337	54.425
845.712	40.7428
849.087	31.4165
852.461	25.9449
855.836	20.2624
859.211	16.0314
862.586	11.9929
865.961	8.56232
869.335	4.78114
872.71	2.73111
876.085	0.719044
879.46	1.46762
882.835	2.01027
886.209	2.21947
889.584	2.80455
892.959	1.91159
896.334	1.76635
899.709	0.064339
903.083	1.94335
906.458	4.16919
909.833	12.5273
913.208	16.015
916.583	22.4043
919.958	14.0907
923.332	6.43253
926.707	3.88635
930.082	3.17662
933.457	3.22734
936.832	3.27014
940.207	2.90922
943.581	2.95021
946.956	2.94423
950.331	3.29988
953.706	2.4807
957.081	2.69204
960.455	3.78267
963.83	4.98805
967.205	6.21341
970.58	6.43504
973.955	6.47321
977.329	6.31087
980.704	6.14938
984.079	5.36091
987.454	4.82271
990.829	4.45086
994.203	3.81556
997.578	2.94791
1000.95	3.74673
1004.33	3.26695
1007.7	3.14295
1011.08	2.48403
1014.45	2.28357
1017.83	1.21863
1021.2	1.38669
1024.58	1.1139
1027.95	0.379623
1031.33	0.765127
1034.7	0.179882
1038.08	0.387932
1041.45	0.443611
1044.83	1.66334
1048.2	1.23037
1051.58	1.92809
1054.95	0.52375
1058.33	0.020426
1061.7	0.060789
1065.08	0.588448
1068.45	0.630299
1071.82	0.360607
1075.2	0.382284
1078.57	0.083103
1081.95	0.438475
1085.32	0.553993
1088.7	2.23459
1092.07	0.121315
1095.45	0.17684
1098.82	0.4601
1102.2	0.57888
1105.57	0.530548
1108.95	0.488041
1112.32	0.870218
1115.7	0.814531
1119.07	0.310974
1122.45	0.514881
1125.82	0.274822
1129.2	0.726667
1132.57	0.568739
1135.95	0.785057
1139.32	6.62113
1142.69	0.305855
1146.07	2.90883
1149.44	0.494005
1152.82	0.068285
1156.19	0.56496
1159.57	0.37764
1162.94	0.402845
1166.32	0.285599
1169.69	0.090124
1173.07	0.322533
1176.44	1.07121
1179.82	0.353149
1183.19	0.652315
1186.57	0.194901
1189.94	0.414694
1193.32	0.558895
1196.69	0.934494
1200.07	1.16887
1203.44	0.447018
1206.82	1.02421
1210.19	0.512955
1213.57	2.90945
1216.94	4.7777
1220.32	9.59518
1223.69	5.52954
1227.07	0.843767
1230.44	0.752678
1233.82	0.776054
1237.19	4.03355
1240.57	0.356987
1243.94	0.027714
1247.32	0.284491
1250.69	0.764278
1254.06	2.66563
1257.44	0.744829
1260.81	0.415272
1264.19	0.137079
1267.56	0.8346
1270.94	0.213205
1274.31	0.665016
1277.69	0.443794
1281.06	0.055241
