Measurement: Raman, 532 nm, unoriented, Raman Data Processed
Mineral: Sahlinite
Rruff sample: R130115
Ideal chemistry: Pb^2+^_14_O_9_(As^5+^O_4_)_2_Cl_4_
Locality: Langban, Filipstad, Varmland, Sweden
Source: Rock Currier
Description: Compact aggregate of very pale yellow grains with evident cleavage, associated with black hausmannite
Raman shift (cm-1)	intensity
172.286	4.92914
175.178	11.8138
178.071	40.089
180.964	123.837
183.857	195.592
186.749	243.385
189.642	287.541
192.535	301.806
195.427	322.217
198.32	327.986
201.213	310.49
204.105	281.359
206.998	264.288
209.891	221.92
212.784	178.641
215.676	134.192
218.569	98.5367
221.462	65.5394
224.354	39.5846
227.247	32.9658
230.14	25.1631
233.032	29.1721
235.925	39.12
238.818	59.7634
241.71	92.2151
244.603	129.81
247.496	173.056
250.389	170.88
253.281	115.419
256.174	44.8746
259.067	3.33508
261.959	25.499
264.852	21.2471
267.745	27.3817
270.637	119.854
273.53	237.599
276.423	305.502
279.316	250.213
282.208	140.016
285.101	66.8769
287.994	60.7028
290.886	118.663
293.779	218.679
296.672	347.37
299.565	475.584
302.457	569.644
305.35	636.868
308.243	669.427
311.135	691.709
314.028	717.694
316.921	726.446
319.813	661.848
322.706	535.952
325.599	429.185
328.491	387.967
331.384	387.815
334.277	414.635
337.17	456.659
340.062	465.098
342.955	425.575
345.848	340.613
348.74	254.414
351.633	209.474
354.526	211.085
357.418	263.678
360.311	399.303
363.204	606.255
366.097	797.458
368.989	821.942
371.882	645.403
374.775	424.539
377.667	236.812
380.56	100.996
383.453	15.7237
386.346	20.6483
389.238	28.8718
392.131	21.4311
395.024	9.0437
397.916	69.2466
400.809	155.401
403.702	285.199
406.594	440.172
409.487	620.053
412.38	774.362
415.272	835.391
418.165	798.649
421.058	712.61
423.951	621.308
426.843	529.249
429.736	442.178
432.629	363.138
435.521	300.183
438.414	265.654
441.307	235.352
444.2	195.399
447.092	143.536
449.985	94.4943
452.878	67.3333
455.77	54.4485
458.663	38.7748
461.556	26.7291
464.448	13.8524
467.341	4.07767
470.234	3.1799
473.127	4.45206
476.019	4.53711
478.912	4.24518
481.805	0.411011
484.697	4.2312
487.59	7.89493
490.483	14.8861
493.375	22.2445
496.268	21.6117
499.161	21.8456
502.053	18.6293
504.946	21.9905
507.839	24.669
510.732	31.8435
513.624	35.7211
516.517	37.2872
519.41	36.5909
522.302	37.2647
525.195	35.7752
528.088	31.1173
530.981	26.7231
533.873	24.5579
536.766	22.8114
539.659	19.1996
542.551	17.5097
545.444	14.121
548.337	13.253
551.229	13.2913
554.122	16.9754
557.015	16.5014
559.908	14.725
562.8	14.2017
565.693	11.3002
568.586	7.46942
571.478	6.00018
574.371	4.0278
577.264	5.36923
580.156	4.7598
583.049	4.69319
585.942	5.58041
588.835	3.68491
591.727	4.2805
594.62	4.35127
597.513	4.2079
600.405	4.48366
603.298	8.10429
606.191	8.75165
609.083	8.83865
611.976	9.60304
614.869	10.5707
617.761	10.0249
620.654	10.7534
623.547	11.9664
626.44	12.521
629.332	10.5351
632.225	9.68556
635.118	9.19652
638.01	8.62985
640.903	9.13462
643.796	12.4624
646.688	14.7337
649.581	12.4584
652.474	10.4306
655.367	11.6166
658.259	8.45121
661.152	7.9732
664.045	9.40278
666.937	8.16373
669.83	9.3514
672.723	7.04988
675.615	6.94852
678.508	6.46758
681.401	3.40936
684.294	1.61256
687.186	0.36174
690.079	0.518311
692.972	0.421295
695.864	0.557014
698.757	3.44455
701.65	2.63887
704.543	0.065765
707.435	2.15468
710.328	2.84619
713.221	2.37389
716.113	3.37004
719.006	4.87065
721.899	4.7977
724.791	3.26897
727.684	2.00793
730.577	3.14569
733.47	1.34885
736.362	0.464493
739.255	3.17673
742.148	7.87132
745.04	23.2283
747.933	51.6118
750.826	90.7292
753.718	145.196
756.611	227.025
759.504	313.231
762.396	332.01
765.289	242.727
768.182	175.795
771.075	182.987
773.967	239.145
776.86	356.052
779.753	540.342
782.645	692.648
785.538	616.88
788.431	441.472
791.323	430.275
794.216	529.571
797.109	700.067
800.002	1156.99
802.894	1984.35
805.787	2723.29
808.68	2157.89
811.572	2309.88
814.465	3303.02
817.358	4372.02
820.25	3721.97
823.143	1893.38
826.036	998.426
828.929	601.824
831.821	399.935
834.714	283.165
837.607	211.824
840.5	162.677
843.392	129.719
846.285	103.461
849.178	74.8971
852.07	59.7762
854.963	46.6525
857.856	37.6933
860.748	31.2731
863.641	26.1442
866.534	19.2058
869.427	14.6826
872.319	8.45644
875.212	7.04822
878.105	1.2023
880.997	3.50064
883.89	5.38235
886.783	6.20096
889.675	4.44015
892.568	4.93568
895.461	4.34798
898.354	2.64319
901.246	1.17133
904.139	2.24995
907.032	6.86852
909.924	12.4132
912.817	23.4248
915.71	37.0114
918.602	36.9934
921.495	21.9475
924.388	13.3456
927.28	8.75849
930.173	8.31053
933.066	8.45339
935.959	9.29653
938.851	10.9828
941.744	9.57288
944.637	10.7512
947.529	10.351
950.422	10.9345
953.315	10.3363
956.207	12.8754
959.1	12.7911
961.993	12.7741
964.886	16.592
967.778	19.7996
970.671	20.5584
973.564	20.0724
976.456	21.1545
979.349	19.2213
982.242	20.8931
985.135	18.7666
988.027	16.2046
990.92	14.1014
993.813	14.4511
996.705	13.6715
999.598	13.8242
1002.49	14.9364
1005.38	14.1413
1008.28	13.45
1011.17	10.2622
1014.06	8.49955
1016.95	6.08537
1019.85	5.31518
1022.74	4.5798
1025.63	4.89201
1028.53	2.91398
1031.42	2.0482
1034.31	0.647308
1037.2	0.473969
1040.1	0.339516
1042.99	0.83403
1045.88	2.14533
1048.77	2.24798
1051.67	3.67648
1054.56	2.38077
1057.45	0.135452
1060.35	1.01898
1063.24	5.04521
1066.13	0.593903
1069.02	0.309017
1071.92	0.13723
1074.81	0.576664
1077.7	0.236698
1080.59	1.44912
1083.49	2.08345
1086.38	1.17405
1089.27	0.814453
1092.16	1.30183
1095.06	0.550289
1097.95	0.41296
1100.84	0.319294
1103.73	0.155148
1106.63	1.59308
1109.52	0.116714
1112.41	0.794361
1115.31	0.919083
1118.2	0.199322
1121.09	0.199894
1123.98	0.581474
1126.88	0.51577
1129.77	1.88638
1132.66	1.37809
1135.56	1.87446
1138.45	1.82374
1141.34	0.799244
1144.23	0.657471
1147.13	0.710842
1150.02	1.14323
1152.91	0.916649
1155.8	1.84565
1158.7	0.581791
1161.59	3.18645
1164.48	0.022953
1167.38	0.327217
1170.27	0.016804
1173.16	0.315117
1176.05	0.149525
1178.94	0.036087
1181.84	0.267681
1184.73	0.63382
1187.62	0.917408
1190.52	1.42393
1193.41	1.95053
1196.3	2.40665
1199.19	2.33888
1202.09	3.31927
1204.98	3.9061
1207.87	3.792
1210.77	2.66661
1213.66	3.19097
1216.55	2.84633
1219.44	3.32266
1222.34	2.6266
1225.23	3.32723
1228.12	2.71914
1231.01	2.04956
1233.91	2.24798
1236.8	1.77893
1239.69	2.72245
1242.59	2.53718
1245.48	2.92122
1248.37	1.82914
1251.26	1.55326
1254.16	1.71177
1257.05	1.70256
1259.94	1.96806
1262.83	1.60695
1265.73	1.65052
1268.62	1.21349
1271.51	2.3585
1274.4	0.675484
1277.3	0.920811
1280.19	0.461258
1283.08	0.400322
1285.97	0.982613
1288.87	1.61203
1291.76	0.428581
1294.65	0.313942
1297.55	0.761623
1300.44	0.297066
