Measurement: Raman, 532 nm, unoriented, Raman Data Processed
Mineral: Sainfeldite
Rruff sample: R060273
Ideal chemistry: Ca_5_(As^5+^O_4_)_2_(As^5+^O_3_OH)_2_4H_2_O
Locality: Grube Gift (Gift mine), Sainte Marie-aux-mines, Alsace, France
Source: Michael Scott
Description: Bladed colorless crystals
Measured chemistry: (Ca_4.98_Mn_0.02_)_Σ=5_(As_1.00_O_4_)_2_(As_1.00_O_3_OH)_2_·4H_2_O
Raman shift (cm-1)	intensity
177.273	0
180.166	16.6987
183.059	48.106
185.951	101.867
188.844	104.382
191.737	117.606
194.629	96.2031
197.522	96.4937
200.415	89.0166
203.308	114.398
206.2	120.673
209.093	135.004
211.986	112.348
214.878	123.295
217.771	135.26
220.664	130.467
223.556	135.773
226.449	117.118
229.342	142.431
232.234	159.102
235.127	127.182
238.02	89.0566
240.913	39.4302
243.805	35.9443
246.698	47.2207
249.591	42.0571
252.483	35.8813
255.376	34.1992
258.269	33.311
261.161	26.8135
264.054	28.2544
266.947	29.1953
269.84	0.837891
272.732	26.187
275.625	21.0049
278.518	19.8936
281.41	8.20361
284.303	8.9043
287.196	56.2393
290.089	102.43
292.981	110.08
295.874	77.0137
298.767	60.7876
301.659	43.9263
304.552	13.6421
307.445	31.3594
310.337	35.1587
313.23	7.68945
316.123	14.7256
319.015	29.2354
321.908	17.6006
324.801	55.6103
327.694	105.636
330.586	129.978
333.479	222.586
336.372	229.46
339.264	258.562
342.157	233.902
345.05	261.348
347.942	302.692
350.835	335.772
353.728	327.454
356.621	319.687
359.513	247.135
362.406	186.272
365.299	143.304
368.191	114.568
371.084	118.911
373.977	186.331
376.87	296.01
379.762	451.366
382.655	552.873
385.548	635.003
388.44	717.4
391.333	723.216
394.226	614.922
397.118	421.81
400.011	235.173
402.904	96.4434
405.796	50.1582
408.689	13.669
411.582	13.3027
414.475	42.7578
417.367	31.2451
420.26	78.4189
423.153	171.207
426.045	211.244
428.938	308.288
431.831	372.823
434.724	403.68
437.616	457.462
440.509	491.071
443.402	477.354
446.294	401.688
449.187	295.542
452.08	240.051
454.972	143.666
457.865	98.4512
460.758	91.085
463.651	88.5869
466.543	67.4561
469.436	35.4033
472.329	15.1435
475.221	5.83106
478.114	25.8867
481.007	4.54199
483.899	14.8438
486.792	5.99609
489.685	4.83984
492.577	8.54004
495.47	2.57812
498.363	8.61621
501.256	45.1006
504.148	20.8896
507.041	50.0078
509.934	30.5664
512.826	40.4482
515.719	58.0537
518.612	34.7353
521.505	39.1055
524.397	45.6523
527.29	48.5185
530.183	38.3398
533.075	50.1094
535.968	49.5576
538.861	25.0059
541.753	9.79395
544.646	2.44727
547.539	9.29004
550.432	10.2568
553.324	1.15332
556.217	3.58398
559.11	11.9336
562.002	16.749
564.895	28.2305
567.788	28.9971
570.68	40.3828
573.573	20.8369
576.466	19.7021
579.359	8.41211
582.251	23.1748
585.144	48.29
588.037	83.4228
590.929	58.0225
593.822	52.7754
596.715	28.0381
599.607	19.3525
602.5	20.668
605.393	8.89551
608.285	42.1162
611.178	39.1094
614.071	37.8691
616.964	25.9004
619.856	3.54199
622.749	19.8135
625.642	27.249
628.534	37.0635
631.427	59.5322
634.32	52.2676
637.212	52.874
640.105	23.9277
642.998	4.93359
645.891	3.56836
648.783	38.541
651.676	36.6465
654.569	53.2627
657.461	41.2617
660.354	53.0547
663.247	37.4717
666.139	49.4297
669.032	60.6435
671.925	64.0547
674.818	94.7217
677.71	104.954
680.603	111.762
683.496	113.116
686.388	98.0225
689.281	92.9492
692.174	83.4688
695.067	89.8789
697.959	69.2441
700.852	64.4639
703.745	42.6914
706.637	28.042
709.53	48.9815
712.423	56.4316
715.315	25.002
718.208	0.832031
721.101	16.5508
723.994	0.71875
726.886	18.1602
729.779	3.9541
732.672	6.51758
735.564	35.7324
738.457	32.5185
741.35	39.1191
744.242	68.5293
747.135	141.894
750.028	168.398
752.92	215.727
755.813	226.505
758.706	234.331
761.599	184.037
764.491	169.261
767.384	88.9092
770.277	42.3857
773.169	28.7246
776.062	7.28027
778.955	12.5078
781.847	17.123
784.74	33.419
787.633	19.5918
790.526	27.6865
793.418	64.9219
796.311	107.601
799.204	115.397
802.096	233.707
804.989	280.108
807.882	436.906
810.774	652.269
813.667	942.158
816.56	1337.66
819.453	1802.65
822.345	2352.27
825.238	2431.64
828.131	1679.54
831.023	1012.16
833.916	718.644
836.809	694.005
839.702	785.894
842.594	1055.79
845.487	1407.44
848.38	1653.26
851.272	1601.71
854.165	1427.68
857.058	1350.66
859.95	1430.36
862.843	1711.01
865.736	1853.78
868.629	1301.09
871.521	644.801
874.414	388.144
877.307	320.421
880.199	333.261
883.092	360.274
885.985	446.588
888.877	574.883
891.77	763.273
894.663	1046.76
897.556	1459.87
900.448	1975.98
903.341	2296.04
906.234	1778.52
909.126	1020.43
912.019	485.106
914.912	228.565
917.804	142.614
920.697	85.8838
923.59	41.8652
926.482	19.7344
929.375	11.7588
932.268	14.1484
935.161	22.3408
938.053	30.1973
940.946	17.542
943.839	4.77148
946.731	26.9668
949.624	0.745117
952.517	30.582
955.409	66.5625
958.302	48.8232
961.195	42.6387
964.088	23.5254
966.98	17.6729
969.873	58.3389
972.766	77.9414
975.658	84.0049
978.551	119.43
981.444	138.676
984.337	124.036
987.229	141.659
990.122	141.961
993.015	97.4297
995.907	61.1348
998.8	24.5381
1001.69	57.252
1004.59	75.3037
1007.48	58.1953
1010.37	66.9121
1013.26	82.7344
1016.16	76.0723
1019.05	88.4922
1021.94	80.7148
1024.83	57.2754
1027.73	60.9795
1030.62	77.4189
1033.51	69.9531
1036.4	87.0156
1039.3	58.8994
1042.19	27.9863
1045.08	6.09277
1047.98	14.0527
1050.87	45.0557
1053.76	48.708
1056.65	36.6543
1059.55	10.0146
1062.44	14.7441
1065.33	0.615234
1068.22	5.41602
1071.12	10.8838
1074.01	4.54492
1076.9	32.9736
1079.8	35.6768
1082.69	34.8545
1085.58	50.6836
1088.47	32.2529
1091.37	29.5127
1094.26	41.749
1097.15	29.8643
1100.04	39.2578
1102.94	15.376
1105.83	38.6758
1108.72	49.377
1111.62	45.5273
1114.51	37.9971
1117.4	10.7744
1120.29	42.0381
1123.19	39.6299
1126.08	11.666
1128.97	12.6152
1131.86	0.291992
1134.76	37.8818
1137.65	40.9522
1140.54	24.1992
1143.43	18.9414
1146.33	17.2793
1149.22	43.9522
1152.11	45.5801
1155.01	53.0703
1157.9	50.8965
1160.79	20.6445
1163.68	5.99121
1166.58	27.6543
1169.47	27.7363
1172.36	52.4463
1175.26	10.209
1178.15	8.34473
1181.04	0.824219
1183.93	2.12891
1186.83	11.6338
1189.72	13.9815
1192.61	9.65723
1195.5	4.4707
1198.4	46.6699
1201.29	40.2598
1204.18	22.1973
1207.07	40.8516
1209.97	46.7119
1212.86	45.2148
1215.75	50.8926
1218.64	25.6045
1221.54	19.3027
1224.43	12.3203
1227.32	0.110352
1230.22	8.96387
1233.11	47.3184
1236	29.7393
1238.89	6.39941
1241.79	25.4326
1244.68	19.0234
1247.57	35.7568
1250.46	56.0684
1253.36	63.8721
1256.25	70.7129
1259.14	68.4502
1262.04	36.877
1264.93	46.7324
1267.82	69.0596
1270.71	73.2549
1273.61	58.083
1276.5	14.2754
1279.39	33.6065
1282.29	15.6846
1285.18	4.48438
1288.07	18.3721
1290.96	21.1729
1293.86	11.9141
1296.75	11.8203
1299.64	56.8565
1302.53	25
