Measurement: Raman, 780 nm, unoriented, Raman Data Processed
Mineral: Sainfeldite
Rruff sample: R060273
Ideal chemistry: Ca_5_(As^5+^O_4_)_2_(As^5+^O_3_OH)_2_4H_2_O
Locality: Grube Gift (Gift mine), Sainte Marie-aux-mines, Alsace, France
Source: Michael Scott
Description: Bladed colorless crystals
Measured chemistry: (Ca_4.98_Mn_0.02_)_Σ=5_(As_1.00_O_4_)_2_(As_1.00_O_3_OH)_2_·4H_2_O
Raman shift (cm-1)	intensity
118.05	0
121.424	6.82092
124.799	11.9728
128.174	7.83997
131.549	10.9847
134.924	17.1605
138.298	23.7958
141.673	44.5541
145.048	64.3292
148.423	70.952
151.798	72.8553
155.173	81.8329
158.547	103.383
161.922	111.405
165.297	128.867
168.672	121.521
172.047	84.411
175.422	46.2388
178.796	38.9024
182.171	32.8658
185.546	37.9979
188.921	32.4799
192.296	28.5651
195.67	21.4322
199.045	8.4762
202.42	10.5734
205.795	10.1855
209.17	21.2913
212.544	25.6492
215.919	20.5726
219.294	14.3241
222.669	18.4479
226.044	15.3021
229.419	10.36
232.793	0.280151
236.168	0.895752
239.543	3.53272
242.918	0.366028
246.293	4.31873
249.667	6.45898
253.042	12.0677
256.417	9.5683
259.792	12.9371
263.167	10.9193
266.542	2.59381
269.916	9.92865
273.291	10.93
276.666	33.8727
280.041	35.5753
283.416	41.5073
286.791	39.9227
290.165	34.5163
293.54	21.6269
296.915	5.67175
300.29	0.74054
303.665	2.07098
307.039	7.72589
310.414	3.19043
313.789	0.888916
317.164	10.4081
320.539	26.08
323.913	56.2535
327.288	94.6102
330.663	147.061
334.038	194.695
337.413	215.213
340.788	229.386
344.162	243.632
347.537	270.357
350.912	270.507
354.287	235.583
357.662	192.19
361.036	152.243
364.411	144.952
367.786	162.89
371.161	219.394
374.536	301.694
377.911	394.78
381.285	437.224
384.66	441.301
388.035	427.234
391.41	354.581
394.785	233.983
398.159	113.315
401.534	38.4144
404.909	14.5642
408.284	8.25452
411.659	32.4616
415.034	69.1582
418.408	116.918
421.783	176.277
425.158	246.045
428.533	302.077
431.908	321.025
435.282	331.153
438.657	332.078
442.032	293.135
445.407	240.168
448.782	148.334
452.156	104.093
455.531	63.4076
458.906	42.0262
462.281	23.7696
465.656	16.7538
469.031	3.276
472.405	6.24243
475.78	7.58148
479.155	1.93927
482.53	0.818665
485.905	0.988586
489.279	2.56287
492.654	0.188354
496.029	2.21027
499.404	7.93903
502.779	3.68097
506.154	8.46777
509.528	5.71295
512.903	9.40643
516.278	9.49835
519.653	8.63318
523.028	7.9151
526.403	12.2256
529.777	17.9185
533.152	13.7443
536.527	14.613
539.902	16.5148
543.277	12.2455
546.651	9.57916
550.026	4.8414
553.401	6.52975
556.776	3.31772
560.151	11.8205
563.525	7.38532
566.9	10.1107
570.275	2.88742
573.65	6.83426
577.025	6.30936
580.399	2.17877
583.774	4.05264
587.149	1.69754
590.524	0.127594
593.899	2.12195
597.274	5.37457
600.649	4.92447
604.023	4.00003
607.398	2.63065
610.773	5.52637
614.148	9.37176
617.523	6.49368
620.897	11.6295
624.272	8.05408
627.647	5.20206
631.022	10.6854
634.397	6.98209
637.771	9.0408
641.146	5.9379
644.521	2.3317
647.896	7.7547
651.271	9.77042
654.646	10.7099
658.02	13.3648
661.395	16.6601
664.77	29.1147
668.145	31.6996
671.52	45.0893
674.894	39.6968
678.269	45.5427
681.644	46.8152
685.019	43.8652
688.394	41.8504
691.769	33.5034
695.143	28.8455
698.518	23.3439
701.893	19.6786
705.268	13.8083
708.643	8.43945
712.018	5.84378
715.392	4.99026
718.767	7.0018
722.142	3.18967
725.517	0.937286
728.891	0.226868
732.266	3.73142
735.641	9.87262
739.016	21.7133
742.391	42.0286
745.766	63.0191
749.14	81.7803
752.515	93.8728
755.89	98.5004
759.265	85.2562
762.64	62.2075
766.014	33.186
769.389	10.886
772.764	3.76697
776.139	7.75781
779.514	11.9465
782.889	14.1111
786.263	8.53815
789.638	11.5539
793.013	40.5111
796.388	69.172
799.763	117.466
803.138	190.511
806.512	300.627
809.887	463.674
813.262	621.734
816.637	787.946
820.012	959.29
823.386	1017.21
826.761	732.506
830.136	509.464
833.511	478.219
836.886	553.353
840.26	671.037
843.635	801.53
847.01	887.409
850.385	875.014
853.76	838.096
857.135	806.458
860.509	830.905
863.884	872.684
867.259	592.102
870.634	301.992
874.009	221.304
877.384	211.907
880.758	238.303
884.133	292.445
887.508	391.399
890.883	531.042
894.258	662.438
897.632	817.099
901.007	927.189
904.382	706.904
907.757	355.41
911.132	144.372
914.506	57.688
917.881	18.6373
921.256	3.57336
924.631	5.79428
928.006	9.60971
931.381	9.21317
934.755	4.16162
938.13	7.68182
941.505	0.777618
944.88	1.13391
948.255	5.69107
951.63	11.1735
955.004	10.3129
958.379	12.9803
961.754	15.3756
965.129	18.2147
968.504	23.208
971.878	30.3699
975.253	30.7898
978.628	28.6894
982.003	29.6385
985.378	34.1122
988.752	27.2253
992.127	25.4297
995.502	22.517
998.877	14.5454
1002.25	20.8786
1005.63	17.5339
1009	13.8148
1012.38	13.2913
1015.75	10.7417
1019.13	10.0659
1022.5	17.6874
1025.88	10.0732
1029.25	9.9603
1032.62	11.4643
1036	9.27713
1039.38	7.62045
1042.75	9.9339
1046.12	5.62018
1049.5	7.46619
1052.87	6.56995
1056.25	0.877899
1059.62	9.34332
1063	4.41983
1066.37	1.95297
1069.75	3.01102
1073.12	1.59393
1076.5	4.43387
1079.87	3.30054
1083.25	9.46082
1086.62	17.3164
1090	10.8062
1093.37	4.30032
1096.75	5.96274
1100.12	2.2323
1103.5	8.08038
1106.87	5.2424
1110.25	4.74918
1113.62	3.9921
1116.99	1.70926
1120.37	3.39514
1123.74	7.32568
1127.12	3.01981
1130.49	0.913879
1133.87	2.86664
1137.24	1.24429
1140.62	4.56522
1143.99	0.579498
1147.37	4.05032
1150.74	2.28912
1154.12	4.29303
1157.49	3.28445
1160.87	1.08282
1164.24	3.77725
1167.62	6.69861
1170.99	1.82959
1174.37	5.74313
1177.74	0.433716
1181.12	2.79309
1184.49	9.39612
1187.87	6.48596
1191.24	9.42212
1194.62	8.98737
1197.99	4.73544
1201.37	9.07437
1204.74	8.98935
1208.12	5.36014
1211.49	7.67078
1214.87	9.32016
1218.24	6.91815
1221.62	7.66907
1224.99	15.373
1228.37	13.3736
1231.74	7.39993
1235.11	11.6621
1238.49	11.2717
1241.86	12.8616
1245.24	14.7255
1248.61	8.59817
1251.99	8.88635
1255.36	6.20676
1258.74	9.90744
1262.11	3.25857
1265.49	1.68887
1268.86	6.46912
1272.24	1.27509
1275.61	3.02896
1278.99	1.20639
1282.36	3.66711
1285.74	0
