Measurement: Raman, 532 nm, unoriented, Raman Data Processed
Mineral: Sakhaite
Rruff sample: R060637
Ideal chemistry: Ca_48_Mg_16_Al(SiO_3_OH)_4_(CO_3_)_16_(BO_3_)_28_(H_2_O)_3_(HCl)_3_
Locality: Titovskoe, Sakha (Yakutia) Republic, Russia
Source: Michael Scott
Description: Dark grey octahedron buried in calcite
Raman shift (cm-1)	intensity
118.148	0
121.523	98.536
124.898	218.88
128.272	246.268
131.647	402.124
135.022	1048.7
138.397	1728.29
141.772	1736.29
145.146	1683.65
148.521	1929.27
151.896	2309.91
155.271	2395.14
158.646	2459.87
162.02	2491.86
165.395	2545.79
168.77	2501.93
172.145	2400.51
175.52	2381.68
178.895	2154.15
182.269	2063.83
185.644	2001.48
189.019	1811.67
192.394	1613.14
195.769	1519.26
199.143	1472.43
202.518	1401.85
205.893	1316.72
209.268	1214.83
212.643	1093.99
216.018	1015.24
219.392	940.374
222.767	780.633
226.142	626.862
229.517	493.123
232.892	355.574
236.266	224.301
239.641	63.275
243.016	2.334
246.391	28.872
249.766	34.908
253.141	100.626
256.515	113.918
259.89	71.309
263.265	29.461
266.64	157.955
270.015	301.145
273.389	519.543
276.764	798.774
280.139	1027.83
283.514	981.955
286.889	757.888
290.263	641.048
293.638	608.422
297.013	571.742
300.388	545.503
303.763	668.208
307.138	743.657
310.512	776.309
313.887	788.548
317.262	787.148
320.637	725.733
324.012	762.651
327.387	799.013
330.761	661.988
334.136	627.627
337.511	406.717
340.886	351.515
344.261	193.772
347.635	14.547
351.01	63.266
354.385	14.652
357.76	41.014
361.135	29.469
364.509	13.216
367.884	105.432
371.259	247.691
374.634	308.194
378.009	394.324
381.384	623.642
384.758	729.586
388.133	847.155
391.508	849.752
394.883	802.467
398.258	837.715
401.632	797.188
405.007	632.657
408.382	617.796
411.757	554.812
415.132	606.194
418.507	635.595
421.881	549.184
425.256	723.649
428.631	721.344
432.006	634.114
435.381	525.91
438.755	379.504
442.13	397.101
445.505	434.88
448.88	317.411
452.255	386.402
455.629	282.213
459.004	178.061
462.379	140.904
465.754	96.61
469.129	105.842
472.504	152.578
475.878	24.325
479.253	61.466
482.628	6.997
486.003	45.191
489.378	17.748
492.752	11.993
496.127	45.231
499.502	26.262
502.877	55.428
506.252	44.501
509.626	21.913
513.001	49.175
516.376	68.899
519.751	139.763
523.126	93.646
526.5	94.134
529.875	95.689
533.25	90.449
536.625	110.702
540	102.898
543.375	78.093
546.75	85.121
550.124	130.76
553.499	75.032
556.874	10.183
560.249	78.386
563.623	53.254
566.998	141.373
570.373	213.827
573.748	282.791
577.123	367.517
580.498	431.683
583.872	462.853
587.247	497.96
590.622	609.543
593.997	546.04
597.372	513.236
600.747	483.655
604.121	575.547
607.496	575.214
610.871	593.209
614.246	627.631
617.621	682.268
620.995	773.746
624.37	879.962
627.745	980.01
631.12	1049.68
634.495	1091.46
637.87	1272.94
641.244	1452.83
644.619	1553.88
647.994	1668.34
651.369	1545.97
654.744	1209.15
658.118	927.771
661.493	595.849
664.868	400.582
668.243	223.27
671.618	146.316
674.992	91.756
678.367	15.363
681.742	9.58
685.117	40.024
688.492	6.968
691.867	66.193
695.241	34.518
698.616	40.978
701.991	94.259
705.366	134.026
708.741	210.747
712.115	435.296
715.49	590.744
718.865	866.317
722.24	1170.64
725.615	1272.99
728.99	1219.88
732.364	931.163
735.739	771.354
739.114	601.789
742.489	451.939
745.864	382.662
749.238	318.225
752.613	274.782
755.988	220.879
759.363	144.784
762.738	119.18
766.112	94.686
769.487	82.535
772.862	69.922
776.237	38.661
779.612	45.707
782.987	28.621
786.361	22.938
789.736	8.453
793.111	21.835
796.486	43.315
799.861	43.021
803.235	70.645
806.61	5.773
809.985	7.59
813.36	30.113
816.735	100.519
820.109	176.6
823.484	280.312
826.859	488.333
830.234	553.892
833.609	615.128
836.984	578.544
840.358	655.479
843.733	743.339
847.108	1006.99
850.483	1069.47
853.858	1057.05
857.232	1023.99
860.607	969.552
863.982	663.993
867.357	443.258
870.732	206.203
874.107	56.133
877.481	11.182
880.856	90.933
884.231	15.517
887.606	40.163
890.981	12.54
894.355	156.678
897.73	246.32
901.105	148.812
904.48	159.758
907.855	210.417
911.229	138.185
914.604	124.403
917.979	190.864
921.354	210.771
924.729	296.556
928.104	312.976
931.478	500.17
934.853	543.932
938.228	718.382
941.603	973.066
944.978	1038.62
948.352	1447.95
951.727	2038.97
955.102	2784.07
958.477	3678.72
961.852	4849.82
965.227	3558.24
968.601	1603.96
971.976	1073.96
975.351	711.623
978.726	674.648
982.101	455.226
985.476	379.429
988.85	238.793
992.225	224.41
995.6	176.324
998.975	157.493
1002.35	26.542
1005.72	73.646
1009.1	2.025
1012.47	63.692
1015.85	108.318
1019.22	147.708
1022.6	164.139
1025.97	156.649
1029.35	229.085
1032.72	239.069
1036.1	167.064
1039.47	157.688
1042.85	173.461
1046.22	193.891
1049.6	224.502
1052.97	218.787
1056.35	196.231
1059.72	56.451
1063.1	26.592
1066.47	0.994
1069.85	77.089
1073.22	37.713
1076.6	15.545
1079.97	69.377
1083.35	123.794
1086.72	177.79
1090.1	231.396
1093.47	334.795
1096.84	659.12
1100.22	1027.77
1103.59	1720.35
1106.97	2704.81
1110.34	3470.93
1113.72	4543.18
1117.09	5438.74
1120.47	6376.02
1123.84	6972.64
1127.22	7146.81
1130.59	7143.44
1133.97	6255.01
1137.34	4822.95
1140.72	3430.69
1144.09	2120.57
1147.47	1742.52
1150.84	1546.08
1154.22	1557.29
1157.59	1608.31
1160.97	1572.47
1164.34	1475.16
1167.71	1394.28
1171.09	1304.9
1174.46	1151.57
1177.84	1023.98
1181.21	1004.99
1184.59	869.632
1187.96	595.377
1191.34	508.803
1194.71	280.718
1198.09	246.825
1201.46	207.735
1204.84	129.146
1208.21	127.516
1211.59	103.099
1214.96	118.795
1218.34	95.187
1221.71	51.202
1225.09	26.09
1228.46	9.109
1231.84	33.236
1235.21	30.052
1238.59	34.164
1241.96	60.022
1245.34	30.914
1248.71	100.098
1252.09	46.145
1255.46	63.896
1258.84	81.186
1262.21	90.574
1265.59	73.829
1268.96	59.075
1272.34	128.364
1275.71	150.295
1279.08	138.637
1282.46	36.665
1285.83	150.793
1289.21	132.238
1292.58	115.836
1295.96	41.824
1299.33	85.224
