Measurement: Raman, 780 nm, unoriented, Raman Data Processed
Mineral: Sakhaite
Rruff sample: R060637
Ideal chemistry: Ca_48_Mg_16_Al(SiO_3_OH)_4_(CO_3_)_16_(BO_3_)_28_(H_2_O)_3_(HCl)_3_
Locality: Titovskoe, Sakha (Yakutia) Republic, Russia
Source: Michael Scott
Description: Dark grey octahedron buried in calcite
Raman shift (cm-1)	intensity
94.4526	0
97.8274	3.51593
101.202	5.6665
104.577	8.16205
107.952	15.9411
111.327	3.46887
114.701	0.531555
118.076	2.00494
121.451	3.47461
124.826	18.4064
128.201	24.8477
131.576	41.6906
134.95	50.9428
138.325	75.7026
141.7	99.2615
145.075	116.549
148.45	140.157
151.825	164.085
155.199	188.821
158.574	207.226
161.949	219.716
165.324	227.223
168.698	225.518
172.073	221.616
175.448	206.13
178.823	195.609
182.198	178.673
185.573	163.691
188.947	148.248
192.322	134.416
195.697	121.468
199.072	112.546
202.447	106.059
205.821	97.0439
209.196	85.6965
212.571	75.2493
215.946	68.1227
219.321	58.1228
222.696	46.5343
226.07	36.2195
229.445	27.6375
232.82	18.1125
236.195	11.9075
239.57	7.67084
242.945	4.426
246.319	0.691223
249.694	3.2334
253.069	3.92075
256.444	3.01648
259.818	2.44537
263.193	0.523071
266.568	2.60986
269.943	6.91409
273.318	10.8372
276.693	19.6739
280.067	26.7238
283.442	33.0694
286.817	43.0343
290.192	48.19
293.567	53.4522
296.942	58.568
300.316	59.8087
303.691	60.754
307.066	59.7766
310.441	59.016
313.816	58.5831
317.19	56.3683
320.565	56.0728
323.94	53.5919
327.315	51.4728
330.69	47.1046
334.065	44.688
337.439	37.9524
340.814	32.3197
344.189	26.688
347.564	18.4676
350.938	11.8831
354.313	6.30229
357.688	5.38384
361.063	4.98637
364.438	6.55328
367.813	10.8344
371.187	14.7647
374.562	20.9161
377.937	25.5748
381.312	33.2548
384.687	39.0537
388.062	43.8779
391.436	47.145
394.811	45.1387
398.186	43.818
401.561	40.4616
404.935	36.9877
408.31	32.5085
411.685	27.8102
415.06	22.9144
418.435	18.4879
421.81	14.5231
425.184	9.90669
428.559	7.16344
431.934	3.09703
435.309	0.056244
438.684	1.05167
442.058	0.632431
445.433	1.60031
448.808	2.04977
452.183	0.907608
455.558	0.132233
458.933	2.03958
462.307	2.02451
465.682	3.17924
469.057	5.36526
472.432	4.86114
475.807	4.47739
479.182	2.44158
482.556	2.03311
485.931	0.448494
489.306	0.435127
492.681	0.258072
496.055	0.665123
499.43	0.177162
502.805	0.559639
506.18	2.21008
509.555	2.17421
512.93	1.40047
516.304	2.7935
519.679	4.78293
523.054	5.51373
526.429	6.49758
529.804	7.08266
533.178	7.5218
536.553	7.68684
539.928	8.31302
543.303	6.23395
546.678	3.95415
550.053	2.08308
553.427	1.34603
556.802	0.291969
560.177	0.634163
563.552	1.94019
566.927	2.41
570.302	3.36285
573.676	1.36254
577.051	0.331322
580.426	1.49644
583.801	2.71094
587.176	4.11051
590.55	6.30661
593.925	8.56883
597.3	12.9465
600.675	16.2291
604.05	18.0565
607.424	21.7706
610.799	23.7003
614.174	26.7801
617.549	29.8026
620.924	34.3073
624.298	37.426
627.673	41.5517
631.048	47.3442
634.423	53.4306
637.798	58.7892
641.173	63.2961
644.547	67.3401
647.922	68.4433
651.297	67.3337
654.672	57.7235
658.047	44.9494
661.421	30.2477
664.796	18.5162
668.171	10.6191
671.546	5.84118
674.921	2.82906
678.295	0.664024
681.67	0.414848
685.045	1.08376
688.42	1.36941
691.795	0.192627
695.17	0.34198
698.544	0.685036
701.919	1.91077
705.294	4.05537
708.669	7.9529
712.044	16.0077
715.418	28.0108
718.793	48.2004
722.168	75.4139
725.543	88.9647
728.918	82.4453
732.293	70.1516
735.667	56.4042
739.042	41.1953
742.417	28.3296
745.792	17.0007
749.167	11.033
752.541	7.19721
755.916	5.24401
759.291	3.92897
762.666	4.27636
766.041	2.97585
769.415	2.77198
772.79	2.76865
776.165	2.70641
779.54	1.40464
782.915	0.849037
786.29	1.13167
789.664	0.072868
793.039	0.294807
796.414	0.266319
799.789	0.282066
803.164	0.456535
806.538	1.23175
809.913	0.073395
813.288	0.151855
816.663	0.161369
820.038	1.50269
823.413	1.76393
826.787	2.57552
830.162	2.35239
833.537	3.10984
836.912	4.95379
840.287	6.52474
843.661	10.9753
847.036	17.6295
850.411	23.4455
853.786	24.7778
857.161	19.7484
860.535	15.0664
863.91	9.3876
867.285	6.07994
870.66	1.08739
874.035	0.827225
877.409	1.90558
880.784	1.13706
884.159	0.668983
887.534	0.605019
890.909	2.45697
894.284	3.57505
897.658	5.79295
901.033	6.90806
904.408	8.53939
907.783	9.82462
911.158	12.6113
914.533	16.0756
917.907	20.6584
921.282	27.6485
924.657	33.6683
928.032	36.902
931.407	37.5922
934.781	38.5919
938.156	42.6135
941.531	48.7091
944.906	54.7791
948.281	60.993
951.655	67.3261
955.03	71.5407
958.405	74.5818
961.78	75.1192
965.155	71.7099
968.529	64.2488
971.904	55.8416
975.279	47.3022
978.654	39.245
982.029	32.9436
985.404	26.0052
988.778	21.4449
992.153	15.5745
995.528	12.5431
998.903	10.9029
1002.28	5.32989
1005.65	4.03422
1009.03	1.22593
1012.4	0.081322
1015.78	0.046349
1019.15	1.1097
1022.53	1.55877
1025.9	2.85111
1029.28	2.2161
1032.65	3.14379
1036.03	2.4312
1039.4	2.57094
1042.78	3.18848
1046.15	1.9694
1049.53	1.3315
1052.9	0.206703
1056.28	1.12338
1059.65	0.245857
1063.02	0.385887
1066.4	0.710854
1069.77	1.47768
1073.15	1.40871
1076.52	1.73496
1079.9	1.90976
1083.27	1.17399
1086.65	4.3588
1090.02	11.3687
1093.4	27.6324
1096.77	52.3914
1100.15	82.5628
1103.52	123.204
1106.9	175.108
1110.27	230.946
1113.65	288.646
1117.02	339.937
1120.4	394.718
1123.77	413.702
1127.15	397.061
1130.52	377.278
1133.9	347.176
1137.27	275.402
1140.64	185.92
1144.02	112.073
1147.39	69.7229
1150.77	54.9171
1154.14	49.6009
1157.52	50.1955
1160.89	52.2487
1164.27	54.4467
1167.64	57.4226
1171.02	57.6059
1174.39	58.0179
1177.77	55.7037
1181.14	52.0694
1184.52	47.0294
1187.89	43.2912
1191.27	37.6652
1194.64	32.8475
1198.02	29.0151
1201.39	23.9499
1204.77	17.1923
1208.14	11.2814
1211.52	7.54907
1214.89	2.77002
1218.27	0.523041
1221.64	2.56665
1225.02	1.84848
1228.39	1.0516
1231.77	1.08362
1235.14	3.06326
1238.52	7.99271
1241.89	10.7968
1245.26	15.9832
1248.64	19.6729
1252.01	24.0927
1255.39	23.0056
1258.76	21.3885
1262.14	21.9303
1265.51	18.8988
1268.89	16.114
1272.26	10.2006
1275.64	4.67297
1279.01	0.225159
1282.39	0.012848
