Measurement: Raman, 785 nm, unoriented, Raman Data Processed
Mineral: Salammoniac
Rruff sample: R061022
Ideal chemistry: NH_4_Cl
Locality: Schoeller mine, Kladno, Bohemia, Czech Republic
Source: Michael Scott
Description: A crust of colorless tabular crystals
Measured chemistry: NH_4_Cl_1.00_ ; N, H not measured but estimated by stoichiometry
Raman shift (cm-1)	intensity
128.76	0
131.652	463.349
134.545	664.21
137.438	154.302
140.33	721.686
143.223	2411.12
146.116	4709.7
149.008	5898.57
151.901	5868.35
154.794	5212.19
157.686	4905.67
160.579	5220.42
163.472	6136.71
166.365	6956.75
169.257	7239.6
172.15	6571.22
175.043	5538.48
177.935	4528.53
180.828	3840.07
183.721	3385.3
186.613	3144.13
189.506	2932.99
192.399	2747.92
195.292	2603.67
198.184	2440.88
201.077	2229.64
203.97	1978.62
206.862	1601.72
209.755	1312.62
212.648	952.669
215.541	799.042
218.433	613.669
221.326	560.668
224.219	412.382
227.111	342.521
230.004	252.349
232.897	168.085
235.79	119.314
238.682	79.2568
241.575	25.0962
244.468	36.9375
247.36	91.7044
250.253	85.5823
253.146	94.853
256.038	79.9246
258.931	24.4517
261.824	5.97436
264.716	27.3157
267.609	48.1575
270.502	87.7493
273.395	138.98
276.287	148.57
279.18	242.425
282.073	259.43
284.965	355.69
287.858	335.797
290.751	415.846
293.644	414.141
296.536	491.567
299.429	539.125
302.322	584.981
305.214	578.304
308.107	489.136
311	438.167
313.892	383.911
316.785	384.303
319.678	275.325
322.57	282.956
325.463	308.214
328.356	372.902
331.249	348.188
334.141	346.592
337.034	319.318
339.927	348.438
342.819	366.615
345.712	353.924
348.605	422.8
351.498	452.005
354.39	493.55
357.283	531.699
360.176	466.013
363.068	522.572
365.961	506.899
368.854	455.55
371.746	412.454
374.639	362.505
377.532	375.81
380.425	238.845
383.317	239.868
386.21	121.236
389.103	118.803
391.995	109.513
394.888	74.9177
397.781	78.8308
400.673	66.9219
403.566	2.26147
406.459	15.3023
409.351	35.3967
412.244	39.7344
415.137	6.3916
418.03	10.3884
420.922	9.07642
423.815	11.5518
426.708	14.9868
429.6	20.9817
432.493	47.9629
435.386	4.11426
438.279	59.1221
441.171	94.7695
444.064	111.52
446.957	124.248
449.849	182.359
452.742	183.892
455.635	202.938
458.527	237.257
461.42	272.014
464.313	260.779
467.205	253.133
470.098	340.965
472.991	340.512
475.884	434.456
478.776	442.439
481.669	485.902
484.562	500.656
487.454	505.092
490.347	470.588
493.24	424.495
496.132	384.998
499.025	352.432
501.918	311.113
504.811	301.074
507.703	314.293
510.596	244.052
513.489	275.399
516.381	269.767
519.274	227.954
522.167	240.879
525.059	183.188
527.952	142.875
530.845	130.819
533.738	108.476
536.63	115.703
539.523	97.4072
542.416	88.3291
545.308	55.7275
548.201	53.8967
551.094	103.093
553.986	104.877
556.879	80.2659
559.772	29.3723
562.665	49.6636
565.557	1.39258
568.45	49.6995
571.343	16.8127
574.235	3.94043
577.128	23.5935
580.021	36.2371
582.914	69.8731
585.806	139.69
588.699	166.813
591.592	302.695
594.484	402.876
597.377	569.981
600.27	622.804
603.163	591.068
606.055	461.219
608.948	317.24
611.841	251.409
614.733	154.415
617.626	72.8545
620.519	73.4905
623.411	66.5601
626.304	17.6287
629.197	18.4053
632.09	17.2239
634.982	27.428
637.875	24.3523
640.768	28.9875
643.66	33.1672
646.553	1.88232
649.446	39.5384
652.338	30.3401
655.231	9.56274
658.124	18.5446
661.016	28.2732
663.909	26.0703
666.802	26.5111
669.695	30.9669
672.587	15.3536
675.48	81.0955
678.373	59.6248
681.265	47.8323
684.158	66.9026
687.051	3.453
689.943	34.4342
692.836	48.7824
695.729	57.4154
698.622	36.2357
701.514	74.7627
704.407	23.5472
707.3	40.8661
710.192	28.5467
713.085	35.9105
715.978	6.6156
718.87	26.4893
721.763	13.208
724.656	30.7602
727.549	53.4179
730.441	76.7759
733.334	102.283
736.227	75.2662
739.119	29.3141
742.012	49.6423
744.905	6.80127
747.798	26.5204
750.69	19.2671
753.583	28.9083
756.476	2.04895
759.368	2.59204
762.261	11.426
765.154	39.1018
768.046	3.53394
770.939	30.1115
773.832	50.6585
776.725	29.2696
779.617	57.3851
782.51	27.3842
785.403	14.8256
788.295	61.9218
791.188	104.149
794.081	98.5491
796.973	128.808
799.866	183.722
802.759	345.015
805.652	626.93
808.544	1163.88
811.437	1813.98
814.33	1665.22
817.222	715.052
820.115	297.989
823.008	149.137
825.9	76.0443
828.793	79.0846
831.686	21.0525
834.578	26.748
837.471	46.8068
840.364	49.0972
843.257	65.3743
846.149	37.0455
849.042	51.0115
851.935	16.0806
854.827	59.3396
857.72	40.4305
860.613	11.5792
863.505	17.6676
866.398	20.2189
869.291	10.0544
872.184	14.7835
875.076	14.0595
877.969	62.2705
880.862	41.3398
883.754	16.111
886.647	4.44324
889.54	1.73779
892.433	4.32849
895.325	34.8512
898.218	26.8635
901.111	27.0053
904.003	52.7854
906.896	120.985
909.789	146.663
912.682	110.738
915.574	83.3899
918.467	62.234
921.36	83.7836
924.252	71.3588
927.145	66.093
930.038	57.4344
932.93	131.62
935.823	59.0061
938.716	92.1363
941.609	95.6054
944.501	86.2496
947.394	134.189
950.287	133.829
953.179	216.92
956.072	244.589
958.965	306.87
961.857	375.948
964.75	425.847
967.643	453.325
970.535	401.321
973.428	380.503
976.321	398.359
979.214	412.888
982.106	420.821
984.999	478.382
987.892	441.955
990.784	408.813
993.677	381.64
996.57	376.042
999.462	312.744
1002.36	242.301
1005.25	135.698
1008.14	50.0907
1011.03	18.7506
1013.93	5.65149
1016.82	3.28491
1019.71	3.60693
1022.6	12.2156
1025.5	9.03174
1028.39	15.0664
1031.28	38.7584
1034.17	29.6703
1037.07	50.4844
1039.96	40.3783
1042.85	51.181
1045.75	52.3719
1048.64	64.9667
1051.53	83.629
1054.42	65.3201
1057.32	99.2434
1060.21	153.935
1063.1	108.642
1065.99	112.337
1068.89	109.827
1071.78	116.355
1074.67	119.141
1077.57	111.317
1080.46	87.438
1083.35	69.5427
1086.24	93.4027
1089.14	109.838
1092.03	71.2754
1094.92	98.6931
1097.81	96.7871
1100.71	75.6533
1103.6	101.327
1106.49	87.3378
1109.38	94.7769
1112.28	74.9847
1115.17	126.327
1118.06	111.479
1120.96	132.528
1123.85	165.419
1126.74	129.405
1129.63	105.06
1132.53	26.0664
1135.42	1.24597
1138.31	0.554565
1141.2	20.613
1144.1	17.1534
1146.99	27.0222
1149.88	7.0072
1152.78	38.0617
1155.67	44.0715
1158.56	87.0886
1161.45	34.7341
1164.35	33.6647
1167.24	50.7139
1170.13	26.0373
1173.03	73.0502
1175.92	59.8639
1178.81	78.4749
1181.7	69.2253
1184.6	78.0986
1187.49	103.078
1190.38	84.9762
1193.27	89.0411
1196.17	88.7887
1199.06	53.3894
1201.95	33.7614
1204.84	10.2804
1207.74	6.52588
1210.63	26.3217
1213.52	16.5923
1216.41	7.92822
1219.31	2.31348
1222.2	52.2006
1225.09	32.5513
1227.99	47.2456
1230.88	54.9773
1233.77	53.0015
1236.66	51.8402
1239.56	44.052
1242.45	104.268
1245.34	71.6184
1248.23	71.2876
1251.13	49.2538
1254.02	21.1831
1256.91	32.3119
1259.81	47.243
1262.7	4.02197
