Measurement: Raman, 780 nm, unoriented, Raman Data Processed
Mineral: Saleeite
Rruff sample: R070618
Ideal chemistry: Mg(UO_2_)_2_(PO_4_)_2_10H_2_O
Locality: Shinkolobwe mine, near Kolweze, Katanga, Zaire
Source: James Shigley
Description: Lemon-yellow platy aggregates, associated with green metatorbernite
Measured chemistry: Mg_1.00_(UO_2_)_1.96_(PO_4_)_2.04_Â·5.01H_2_O
Raman shift (cm-1)	intensity
136.875	0
139.768	24.0692
142.661	11.2041
145.554	76.6737
148.446	155.088
151.339	357.073
154.232	607.197
157.124	836.3
160.017	1070.53
162.91	1297.68
165.803	1390.15
168.695	1415.63
171.588	1470.23
174.481	1708.8
177.373	2251.87
180.266	3227.95
183.159	4538.34
186.051	6399.73
188.944	9041.4
191.837	12414.9
194.73	12699.1
197.622	9529.13
200.515	6694.38
203.408	4335.03
206.3	2630.96
209.193	1645.03
212.086	1080.13
214.978	769.515
217.871	644.599
220.764	566.397
223.656	478.819
226.549	465.658
229.442	380.44
232.335	315.786
235.227	175.084
238.12	24.6346
241.013	53.3667
243.905	63.115
246.798	19.0934
249.691	5.36414
252.583	85.43
255.476	248.51
258.369	406.475
261.262	518.902
264.154	565.485
267.047	639.404
269.94	791.035
272.832	972.361
275.725	1259.52
278.618	1579.49
281.51	1849.61
284.403	1881.3
287.296	1466.05
290.189	1035.92
293.081	690.829
295.974	435.808
298.867	278.703
301.759	193.957
304.652	121.65
307.545	71.3052
310.438	57.0778
313.33	46.0616
316.223	76.6706
319.116	33.305
322.008	30.8151
324.901	21.3538
327.794	15.2398
330.686	12.5298
333.579	31.2184
336.472	10.6968
339.365	3.53827
342.257	10.1544
345.15	1.98621
348.043	26.2611
350.935	3.27618
353.828	16.6014
356.721	44.7219
359.613	41.2862
362.506	52.9353
365.399	72.5615
368.291	84.9166
371.184	100.588
374.077	99.09
376.97	80.2211
379.862	80.9302
382.755	64.7018
385.648	68.4062
388.54	67.0118
391.433	82.739
394.326	106.787
397.219	162.234
400.111	236.964
403.004	343.312
405.897	286.543
408.789	153.132
411.682	58.0892
414.575	30.4626
417.467	3.89227
420.36	21.6014
423.253	19.9357
426.146	33.9473
429.038	24.9057
431.931	23.9096
434.824	21.2158
437.716	27.1102
440.609	21.1056
443.502	13.2789
446.394	22.6485
449.287	23.0538
452.18	29.0888
455.072	6.90631
457.965	1.76254
460.858	12.3495
463.751	7.57636
466.643	10.3687
469.536	6.34409
472.429	11.4363
475.322	7.86774
478.214	8.80008
481.107	10.2987
484	1.0401
486.892	0.519897
489.785	0.052795
492.678	0.723846
495.57	10.3833
498.463	10.2407
501.356	26.2981
504.248	4.58835
507.141	19.039
510.034	11.1187
512.927	21.6984
515.819	16.2441
518.712	17.3031
521.605	11.93
524.497	9.91013
527.39	7.47351
530.283	30.8717
533.176	25.3033
536.068	12.0898
538.961	24.8184
541.854	32.9481
544.746	39.3983
547.639	86.1998
550.532	100.067
553.424	150.345
556.317	142.572
559.21	174.959
562.102	145.203
564.995	85.2411
567.888	51.8975
570.781	37.9146
573.673	34.1678
576.566	16.2649
579.459	16.19
582.351	18.2803
585.244	14.077
588.137	0.541992
591.029	15.8595
593.922	23.3391
596.815	16.6384
599.708	11.0242
602.6	11.6629
605.493	8.32642
608.386	24.6886
611.278	42.1254
614.171	40.7327
617.064	40.4967
619.957	53.068
622.849	27.9137
625.742	25.33
628.635	31.167
631.527	32.6343
634.42	26.2698
637.313	29.7364
640.205	31.8028
643.098	46.8658
645.991	45.5206
648.884	45.4423
651.776	51.2355
654.669	34.8455
657.562	30.9266
660.454	39.3716
663.347	33.8773
666.24	34.7533
669.132	35.9094
672.025	39.057
674.918	24.4905
677.811	43.0395
680.703	53.6942
683.596	24.6695
686.489	29.1553
689.381	25.4041
692.274	24.1241
695.167	15.7086
698.059	0.742401
700.952	14.6497
703.845	9.87988
706.737	24.7126
709.63	17.499
712.523	0.556061
715.416	4.79099
718.308	3.09262
721.201	3.07931
724.094	16.6906
726.986	4.29922
729.879	15.4612
732.772	2.66965
735.664	6.10162
738.557	9.4754
741.45	12.0993
744.343	16.2023
747.235	3.02142
750.128	28.4781
753.021	9.51538
755.913	24.8484
758.806	38.7172
761.699	41.0185
764.591	73.3753
767.484	81.1158
770.377	125.862
773.27	148.501
776.162	193.815
779.055	251.779
781.948	306.494
784.84	385.553
787.733	491.641
790.626	644.605
793.519	760.133
796.411	964.457
799.304	1170.71
802.197	1341.02
805.089	1565.95
807.982	1808.03
810.875	2142.35
813.767	2638.42
816.66	3378.13
819.553	4593.69
822.446	6784.51
825.338	11148.2
828.231	18856.1
831.124	30714.3
834.016	47131.2
836.909	53054
839.802	31765
842.694	13882.3
845.587	6326.55
848.48	3384.01
851.373	2022.88
854.265	1284.39
857.158	834.664
860.051	514.962
862.943	332.2
865.836	205.543
868.729	91.4601
871.621	40.1284
874.514	4.05811
877.407	13.6568
880.3	27.8815
883.192	15.9977
886.085	34.0626
888.978	9.99478
891.87	31.3152
894.763	93.8671
897.656	182.225
900.548	312.938
903.441	512.239
906.334	757.774
909.227	1045.43
912.119	1199.64
915.012	1124.96
917.905	854.986
920.797	560.364
923.69	325.692
926.583	227.359
929.476	147.748
932.368	81.1396
935.261	67.3323
938.154	34.2446
941.046	17.4201
943.939	9.3902
946.832	16.4031
949.724	9.65851
952.617	1.48975
955.51	11.7018
958.403	15.1344
961.295	48.1366
964.188	56.4104
967.081	99.9306
969.973	143.841
972.866	226.151
975.759	366.946
978.651	627.199
981.544	1057.92
984.437	1632.02
987.33	2249.77
990.222	2551.81
993.115	2332.8
996.008	1911.63
998.9	1478.58
1001.79	1060.48
1004.69	734.389
1007.58	465.297
1010.47	315.102
1013.36	201.829
1016.26	122.101
1019.15	97.275
1022.04	59.9003
1024.93	58.9473
1027.83	175.501
1030.72	22.1935
1033.61	21.8426
1036.51	17.7256
1039.4	6.99338
1042.29	5.25688
1045.18	12.3356
1048.08	4.25412
1050.97	13.1467
1053.86	13.9988
1056.75	7.10915
1059.65	0.314285
1062.54	10.0057
1065.43	6.72057
1068.33	21.6985
1071.22	1.69341
1074.11	0.809586
1077	5.51291
1079.9	0.487137
1082.79	0.693909
1085.68	15.331
1088.57	16.6868
1091.47	9.07794
1094.36	15.6757
1097.25	18.3508
1100.14	13.0415
1103.04	19.3468
1105.93	12.2546
1108.82	22.0561
1111.72	25.9447
1114.61	15.1352
1117.5	27.4427
1120.39	22.7919
1123.29	11.7425
1126.18	12.0941
1129.07	15.3874
1131.96	13.8456
1134.86	4.06789
1137.75	16.2173
1140.64	1.83376
1143.54	5.26205
1146.43	11.57
1149.32	10.6094
1152.21	13.7054
1155.11	3.07986
1158	0.285629
1160.89	20.798
1163.78	15.1319
1166.68	20.951
1169.57	14.8054
1172.46	12.6261
1175.36	14.4893
1178.25	25.3072
1181.14	18.6246
1184.03	16.1161
1186.93	16.2347
1189.82	17.1162
1192.71	25.1582
1195.6	32.4887
1198.5	16.1717
1201.39	28.5294
1204.28	15.4134
1207.17	19.6004
1210.07	18.2494
1212.96	12.675
1215.85	3.31204
1218.74	20.1566
1221.64	10.079
1224.53	7.80113
1227.42	17.9637
1230.32	16.6277
1233.21	9.64716
1236.1	11.0849
1238.99	24.3783
1241.89	23.5627
1244.78	17.1522
1247.67	13.1999
1250.57	19.9115
1253.46	3.25618
1256.35	1.71464
1259.24	20.0465
1262.14	12.3744
1265.03	8.53381
1267.92	2.67235
1270.81	17.7449
1273.71	8.67076
1276.6	9.27701
1279.49	14.3886
1282.38	3.0197
