Measurement: Raman, 532 nm, unoriented, Raman Data Processed
Mineral: Salesite
Rruff sample: R050170
Ideal chemistry: Cu(IO_3_)(OH)
Locality: Chuquicamata, Chile
Source: Marcus Origlieri
Description: Green crystalline crust
Raman shift (cm-1)	intensity
118.816	0
122.191	190.297
125.566	1876.21
128.941	8162.32
132.315	6979.76
135.69	2767.92
139.065	3077.14
142.44	4591.96
145.815	8679.97
149.19	13901
152.564	6369.92
155.939	1914.46
159.314	558.863
162.689	132.768
166.064	41.1816
169.438	78.3479
172.813	67.6559
176.188	65.3657
179.563	6.00342
182.938	110.571
186.312	363.023
189.687	770.34
193.062	560.502
196.437	641.67
199.812	725.651
203.187	1033.6
206.561	1688.39
209.936	2415.24
213.311	1308.67
216.686	580.966
220.061	316.274
223.435	264.777
226.81	114.959
230.185	56.0445
233.56	5.90143
236.935	16.2899
240.31	1.24777
243.684	2.99829
247.059	81.5953
250.434	144.943
253.809	206.031
257.184	373.429
260.558	768.671
263.933	1302.01
267.308	1740.81
270.683	2357.2
274.058	3429.92
277.433	5430.14
280.807	6382.93
284.182	3171.65
287.557	1176.53
290.932	436.961
294.307	182.309
297.681	12.8791
301.056	23.3955
304.431	192.99
307.806	391.408
311.181	528.219
314.555	827.206
317.93	1497.12
321.305	3136.42
324.68	2930.78
328.055	523.099
331.43	82.2451
334.804	30.2213
338.179	3.60895
341.554	28.6232
344.929	118.451
348.304	236.968
351.678	481.8
355.053	757.073
358.428	1157.56
361.803	1696.14
365.178	2320.87
368.553	2882.23
371.927	3210.96
375.302	3053.18
378.677	2341.92
382.052	1471.32
385.427	823.023
388.801	541.452
392.176	448.297
395.551	328.249
398.926	165.255
402.301	55.8533
405.675	3.78958
409.05	6.54266
412.425	12.732
415.8	1.05743
419.175	19.9032
422.55	21.9114
425.924	3.55606
429.299	33.7288
432.674	68.1403
436.049	109.364
439.424	182.625
442.798	271.731
446.173	426.02
449.548	665.172
452.923	1035.21
456.298	1509.87
459.673	2081.27
463.047	2956.78
466.422	4097.27
469.797	5072.18
473.172	4605.48
476.547	3568.74
479.921	3245.78
483.296	3040.17
486.671	2281.27
490.046	1415.4
493.421	881.047
496.796	567.99
500.17	396.715
503.545	283.631
506.92	226.342
510.295	138.677
513.67	119.032
517.044	106.716
520.419	89.9093
523.794	83.0443
527.169	69.7774
530.544	74.9499
533.918	50.4867
537.293	86.2045
540.668	105.31
544.043	91.6588
547.418	84.2529
550.793	59.7001
554.167	76.4936
557.542	83.0152
560.917	82.4485
564.292	94.186
567.667	48.9699
571.042	26.0886
574.416	18.8066
577.791	1.57489
581.166	20.274
584.541	23.3517
587.915	39.35
591.29	46.1435
594.665	29.0726
598.04	10.7662
601.415	17.3958
604.79	37.55
608.164	33.4561
611.539	56.5227
614.914	85.7839
618.289	94.8041
621.664	108.773
625.038	103.353
628.413	201.566
631.788	257.619
635.163	346.146
638.538	489.993
641.913	819.285
645.287	1244.9
648.662	1928.2
652.037	2880.79
655.412	4304.93
658.787	5910.73
662.162	8003.32
665.536	10156.1
668.911	11884.6
672.286	11824.7
675.661	11011.6
679.036	11259
682.41	12324.9
685.785	13644.3
689.16	14881.8
692.535	15281.2
695.91	14129.9
699.284	11494.7
702.659	8198.98
706.034	5683.82
709.409	3787.77
712.784	2383.34
716.159	1476.74
719.533	877.165
722.908	480.983
726.283	215.978
729.658	22.3203
733.033	70.3207
736.408	106.696
739.782	37.1925
743.157	20.98
746.532	201.657
749.907	500.235
753.282	1168.2
756.656	3280.79
760.031	8144.28
763.406	12235.3
766.781	21622.5
770.156	43541.8
773.53	58242.6
776.905	17803.3
780.28	4905.44
783.655	2150.04
787.03	1135.56
790.404	653.944
793.779	376.359
797.154	299.013
800.529	416.878
803.904	512.979
807.279	821.951
810.653	1764.7
814.028	2571.1
817.403	715.866
820.778	105.346
824.153	18.2401
827.528	1.45242
830.902	23.8068
834.277	14.605
837.652	5.08661
841.027	23.42
844.402	26.0654
847.776	39.8402
851.151	45.2577
854.526	61.6865
857.901	77.0391
861.276	76.6669
864.65	79.5718
868.025	83.8877
871.4	91.9423
874.775	105.42
878.15	96.7917
881.524	120.833
884.899	99.5605
888.274	96.0327
891.649	85.1832
895.024	55.7293
898.399	62.9643
901.773	31.9493
905.148	57.2705
908.523	35.3382
911.898	16.7326
915.273	43.3342
918.648	24.4518
922.022	14.4468
925.397	4.57498
928.772	14.8976
932.147	3.11092
935.522	6.64938
938.896	1.72481
942.271	10.6801
945.646	0.163513
949.021	4.83684
952.396	5.74886
955.77	13.2873
959.145	16.6373
962.52	23.9477
965.895	18.4568
969.27	26.0592
972.645	43.7972
976.019	47.3583
979.394	52.3399
982.769	74.8957
986.144	63.5764
989.519	43.9419
992.893	22.5538
996.268	35.4927
999.643	32.6064
1003.02	13.4392
1006.39	13.7573
1009.77	8.51521
1013.14	15.7218
1016.52	10.2297
1019.89	11.5441
1023.27	13.0867
1026.64	5.80951
1030.02	5.48361
1033.39	7.86716
1036.77	1.82951
1040.14	2.90564
1043.52	8.01625
1046.89	0.719955
1050.27	2.44301
1053.64	12.1518
1057.02	9.1517
1060.39	9.35333
1063.77	17.8095
1067.14	17.3985
1070.51	25.1833
1073.89	15.792
1077.26	18.8266
1080.64	24.7962
1084.01	18.6123
1087.39	32.5217
1090.76	22.7883
1094.14	19.8787
1097.51	20.523
1100.89	0.335724
1104.26	14.4328
1107.64	8.79298
1111.01	17.2854
1114.39	4.86908
1117.76	2.34357
1121.14	13.6345
1124.51	8.70093
1127.89	6.08408
1131.26	10.9649
1134.64	6.57221
1138.01	15.388
1141.38	7.57817
1144.76	3.15245
1148.13	17.9516
1151.51	8.49962
1154.88	9.00896
1158.26	10.0935
1161.63	20.2633
1165.01	22.9148
1168.38	17.5535
1171.76	17.3376
1175.13	36.5675
1178.51	19.9183
1181.88	27.4669
1185.26	26.6127
1188.63	19.6935
1192.01	25.3196
1195.38	23.0889
1198.76	24.3275
1202.13	22.3797
1205.51	19.1984
1208.88	9.3739
1212.26	19.9467
1215.63	6.67851
1219.01	10.8233
1222.38	26.2168
1225.76	5.11526
1229.13	10.2753
1232.51	8.48807
1235.88	28.8682
1239.26	6.24022
1242.63	26.2893
1246.01	22.1072
1249.38	13.0659
1252.75	16.0356
1256.13	8.82515
1259.5	1.85905
1262.88	18.6101
1266.25	24.791
1269.63	9.74073
1273	17.6425
1276.38	17.4632
1279.75	2.78433
1283.13	21.1833
1286.5	8.84809
1289.88	1.68771
1293.25	28.9735
1296.63	4.8429
