Measurement: Raman, 780 nm, unoriented, Raman Data Processed
Mineral: Salesite
Rruff sample: R050170
Ideal chemistry: Cu(IO_3_)(OH)
Locality: Chuquicamata, Chile
Source: Marcus Origlieri
Description: Green crystalline crust
Raman shift (cm-1)	intensity
116.126	0
119.501	6.63236
122.876	24.13
126.251	44.7445
129.625	35.254
133	19.1462
136.375	26.6375
139.75	40.8008
143.125	42.1336
146.5	37.6607
149.874	16.099
153.249	3.30181
156.624	0.539963
159.999	2.22411
163.374	1.23449
166.749	0.382781
170.123	0.662222
173.498	2.60816
176.873	5.22789
180.248	8.2524
183.623	12.3867
186.997	17.7147
190.372	17.2877
193.747	18.7091
197.122	21.7024
200.497	23.0755
203.871	21.7301
207.246	18.7563
210.621	12.6454
213.996	8.72787
217.371	6.15488
220.746	4.05126
224.12	2.13284
227.495	2.92158
230.87	2.07408
234.245	2.1465
237.62	2.72427
240.994	2.69958
244.369	2.56023
247.744	3.65498
251.119	5.12122
254.494	8.13524
257.869	12.4876
261.243	14.8771
264.618	15.8419
267.993	18.6305
271.368	18.1226
274.743	15.8236
278.118	11.0884
281.492	4.47624
284.867	1.74144
288.242	0.328155
291.617	0.887365
294.991	0.832044
298.366	0.742883
301.741	6.03956
305.116	8.94719
308.491	9.69373
311.866	12.3964
315.24	13.8216
318.615	13.2534
321.99	9.95537
325.365	2.52411
328.74	0.031424
332.115	0.175655
335.489	0.96115
338.864	2.38835
342.239	4.43123
345.614	6.74432
348.989	11.0485
352.363	15.5087
355.738	18.9211
359.113	20.8665
362.488	21.9572
365.863	21.2322
369.238	19.0958
372.612	15.4993
375.987	11.7013
379.362	8.19786
382.737	5.50609
386.112	4.08441
389.486	3.35373
392.861	1.84149
396.236	0.350319
399.611	0.386309
402.986	0.078761
406.361	0.358969
409.735	0.043997
413.11	0.131606
416.485	0.053562
419.86	0.062992
423.235	0.84059
426.609	1.67122
429.984	2.02889
433.359	3.44035
436.734	4.14004
440.109	6.41141
443.483	9.38542
446.858	13.608
450.233	19.6488
453.608	25.2488
456.983	31.4114
460.358	37.0812
463.732	42.2919
467.107	43.0866
470.482	41.9263
473.857	37.4266
477.232	33.1794
480.606	26.8109
483.981	18.956
487.356	12.3339
490.731	8.24106
494.106	6.5169
497.481	4.53592
500.855	2.86535
504.23	3.00916
507.605	1.8754
510.98	1.72975
514.355	1.13852
517.729	0.721413
521.104	1.45233
524.479	1.00652
527.854	0.193662
531.229	0.395598
534.604	0.32419
537.978	0.076819
541.353	0.603531
544.728	0.367495
548.103	0.708936
551.478	0.587115
554.852	0.9548
558.227	0.800238
561.602	0.178623
564.977	0.200025
568.352	0.377229
571.726	0.097369
575.101	0.249151
578.476	0.350794
581.851	0.230186
585.226	0.091416
588.601	0.161071
591.975	0.086642
595.35	0.153135
598.725	0.708415
602.1	0.041018
605.475	0.283303
608.849	0.719154
612.224	0.631447
615.599	0.840425
618.974	1.17452
622.349	1.37713
625.723	2.83023
629.098	3.49425
632.473	4.31733
635.848	6.64028
639.223	10.2803
642.598	16.0006
645.972	22.5257
649.347	34.8686
652.722	50.7501
656.097	64.7456
659.472	79.4608
662.846	91.6098
666.221	96.4404
669.596	98.8654
672.971	97.1776
676.346	99.4299
679.721	103.012
683.095	102.758
686.47	96.3509
689.845	87.2168
693.22	70.035
696.595	52.0433
699.97	36.1874
703.344	24.9695
706.719	16.8575
710.094	11.0794
713.469	6.18318
716.844	3.14477
720.218	1.67231
723.593	0.200571
726.968	0.335981
730.343	0.728328
733.718	0.805266
737.092	0.032213
740.467	1.01159
743.842	2.10707
747.217	5.18399
750.592	12.4394
753.967	32.2568
757.341	81.9097
760.716	109.752
764.091	135.583
767.466	153.013
770.841	132.182
774.216	63.3941
777.59	20.6894
780.965	9.14944
784.34	4.62564
787.715	2.31866
791.09	1.50032
794.464	1.48609
797.839	6.12661
801.214	8.67401
804.589	8.78085
807.964	10.7948
811.338	9.28202
814.713	3.49421
818.088	0.507015
821.463	0.109947
824.838	0.338426
828.212	0.577075
831.587	0.005504
834.962	0.342678
838.337	0.273358
841.712	0.484927
845.087	0.52228
848.461	0.467443
851.836	0.538003
855.211	0.74509
858.586	0.427849
861.961	0.772774
865.336	0.607587
868.71	0.799154
872.085	0.865459
875.46	0.989251
878.835	1.26172
882.21	0.534247
885.584	0.249815
888.959	0.437511
892.334	0.24304
895.709	0.248613
899.084	0.120193
902.458	0.174935
905.833	0.421247
909.208	0.149395
912.583	0.2035
915.958	0.095306
919.332	0.325974
922.707	0.346323
926.082	0.095206
929.457	0.158233
932.832	0.244535
936.207	0.621549
939.581	0.183607
942.956	0.477249
946.331	0.402923
949.706	0.322834
953.081	0.426928
956.456	0.348831
959.83	0.036325
963.205	0.185964
966.58	0.252761
969.955	0.589094
973.33	0.280676
976.704	0.348614
980.079	0.447442
983.454	0.308714
986.829	0.141926
990.204	0.14563
993.578	0.406227
996.953	0.269734
1000.33	0.295245
1003.7	0.12089
1007.08	0.115909
1010.45	0.194146
1013.83	0.107136
1017.2	0.10404
1020.58	0.305141
1023.95	0.473594
1027.33	0.183496
1030.7	0.486622
1034.08	0.220775
1037.45	0.235498
1040.83	0.116871
1044.2	0.158067
1047.58	0.367239
1050.95	0.005392
1054.33	0.272315
1057.7	0.166682
1061.08	0.388619
1064.45	0.257365
1067.82	0.110182
1071.2	0.086429
1074.57	0.063231
1077.95	0.11577
1081.32	0.478818
1084.7	0.697724
1088.07	0.201922
1091.45	0.042656
1094.82	0.694862
1098.2	0.394302
1101.57	0.345752
1104.95	0.715945
1108.32	0.326602
1111.7	0.416124
1115.07	0.363948
1118.45	0.384831
1121.82	0.650059
1125.2	0.184343
1128.57	0.417252
1131.95	0.92424
1135.32	0.321588
1138.7	0.008244
1142.07	0.708822
1145.44	0.523389
1148.82	0.507023
1152.19	0.286529
1155.57	0.037717
1158.94	0.314417
1162.32	0.429816
1165.69	0.25299
1169.07	0.425461
1172.44	0.544168
1175.82	0.667814
1179.19	0.245738
1182.57	0.706161
1185.94	1.15046
1189.32	0.729764
1192.69	0.432201
1196.07	0.787951
1199.44	0.88555
1202.82	0.267264
1206.19	0.726343
1209.57	0.594892
1212.94	0.264936
1216.32	0.214823
1219.69	0.491677
1223.07	0.362808
1226.44	0.716367
1229.82	0.568479
1233.19	0.443544
1236.57	0.381502
1239.94	0.187895
1243.32	0.103227
1246.69	0.584435
1250.07	0.629084
1253.44	0.568282
1256.81	0.549767
1260.19	0.641139
1263.56	0.645333
1266.94	0.24915
1270.31	0.237207
1273.69	0.715098
1277.06	0.053073
1280.44	0.291608
