Measurement: Raman, 514 nm, unoriented, Raman Data Processed
Mineral: Salesite
Rruff sample: R050170
Ideal chemistry: Cu(IO_3_)(OH)
Locality: Chuquicamata, Chile
Source: Marcus Origlieri
Description: Green crystalline crust
Raman shift (cm-1)	intensity
83.723	0
87.91	66.268
92.096	164.995
96.279	63.653
100.461	186.84
104.64	490.723
108.817	1689.57
112.992	928.248
117.166	633.335
121.337	913.994
125.506	3731.44
129.673	6496.5
133.838	2814.39
138.001	1345.01
142.162	2497.8
146.321	6703.41
150.478	5778.85
154.633	2249
158.786	868.001
162.937	467.027
167.086	346.625
171.233	261.007
175.378	288.021
179.521	311.069
183.662	473.398
187.8	846.569
191.937	597.261
196.072	528.49
200.205	584.947
204.336	1518.14
208.465	2558.14
212.591	1657.65
216.716	598.271
220.839	233.478
224.96	152.461
229.079	23.224
233.195	10.179
237.31	49.726
241.423	74.493
245.534	49.707
249.643	10.38
253.75	35.163
257.855	46.597
261.958	180.574
266.059	245.281
270.158	761.479
274.255	1967.03
278.35	3729.16
282.443	2578.65
286.534	985.758
290.623	389.768
294.71	176.62
298.795	116.304
302.878	75.811
306.959	77.138
311.038	130.264
315.116	539.208
319.191	2278.99
323.264	2524.59
327.336	746.839
331.405	218.611
335.473	64.059
339.538	37.281
343.602	101.327
347.663	152.204
351.723	305.916
355.78	450.461
359.836	794.806
363.89	1434.93
367.942	2138.99
371.992	2588.67
376.04	2178.52
380.086	1323.18
384.13	766.464
388.172	515.857
392.212	372.98
396.25	249.376
400.286	113.96
404.321	5.161
408.353	22.412
412.384	52.106
416.412	57.769
420.439	79.506
424.464	24.811
428.486	0.594
432.507	48.344
436.526	14.71
440.543	62.672
444.558	167.899
448.572	287.986
452.583	413.936
456.592	804.749
460.6	1691.98
464.605	2927.11
468.609	4055.62
472.61	3667.12
476.61	3401.31
480.608	3880.38
484.604	3327.33
488.598	2153.18
492.59	1116.93
496.58	633.019
500.569	464.002
504.555	341.779
508.54	243.937
512.522	237.246
516.503	81.477
520.482	131.634
524.459	22.721
528.434	60.739
532.407	4.683
536.378	8.544
540.348	2.289
544.315	9.939
548.281	25.517
552.244	39.045
556.206	87.556
560.166	37.951
564.124	96.853
568.08	145.815
572.035	126.498
575.987	28.145
579.938	54.314
583.886	30.403
587.833	17.321
591.778	48.301
595.721	85.228
599.662	68.708
603.602	99.786
607.539	204.986
611.475	305.222
615.408	301.502
619.34	386.856
623.27	456.311
627.199	440.822
631.125	540.424
635.049	633.105
638.972	784.838
642.893	1020.63
646.811	1378.47
650.728	2090.38
654.644	2967.34
658.557	4779.4
662.468	7882.53
666.378	12570.7
670.286	12609
674.192	9957.37
678.096	8735.79
681.998	9044.19
685.898	10212.8
689.797	11680.4
693.694	12248.9
697.589	10634.5
701.482	7882.52
705.373	5461.35
709.262	3716.25
713.15	2475.94
717.035	1798.33
720.919	1323.21
724.801	1023.85
728.682	824.151
732.56	664.99
736.437	645.448
740.311	683.802
744.184	651
748.055	827.722
751.925	1181.94
755.792	1335.94
759.658	1773.02
763.522	4027.16
767.384	17892.4
771.244	47735.4
775.102	18360.6
778.959	4702.01
782.814	1863.51
786.667	1109.18
790.518	712.794
794.367	582.46
798.215	553.181
802.061	568.958
805.905	848.825
809.747	3892.13
813.587	3883.14
817.426	1133.22
821.263	338.419
825.098	107.416
828.931	63.875
832.762	14.17
836.592	49.509
840.42	43.886
844.246	104.33
848.07	47.815
851.892	39.379
855.713	18.986
859.532	15.629
863.349	37.714
867.164	43.097
870.978	6.546
874.789	18.042
878.599	34.601
882.408	3.767
886.214	26.92
890.019	33.274
893.822	58.556
897.623	68.488
901.422	1.471
905.22	14.551
909.015	28.671
912.809	40.808
916.602	55.793
920.392	5.071
924.181	12.775
927.968	77.287
931.753	20.364
935.536	90.09
939.318	41.66
943.098	84.485
946.876	54.322
950.653	39.284
954.427	35.782
958.2	83.615
961.971	123.333
965.741	122.939
969.508	42.385
973.274	160.858
977.039	128.219
980.801	198.992
984.562	180.77
988.321	230.316
992.078	136.062
995.833	131.384
999.587	163.718
1003.34	142.3
1007.09	178.542
1010.84	220.767
1014.58	119.12
1018.33	134.302
1022.07	92.983
1025.81	147.926
1029.55	175.599
1033.29	129.685
1037.03	103.843
1040.76	84.769
1044.5	159.107
1048.23	73.637
1051.96	80.815
1055.68	190.154
1059.41	177.293
1063.13	98.412
1066.86	36.598
1070.58	45.313
1074.3	22.312
1078.02	55.635
1081.73	82.438
1085.44	71.947
1089.16	65.319
1092.87	44.821
1096.58	44.607
1100.28	35.14
1103.99	38.6
1107.69	19.983
1111.39	55.59
1115.1	50.603
1118.8	54.478
1122.49	139.822
1126.19	33.801
1129.88	16.966
1133.57	41.902
1137.26	103.364
1140.95	75.658
1144.64	42.551
1148.32	54.213
1152.01	73.839
1155.69	133.076
1159.37	82.884
1163.05	78.699
1166.72	124.331
1170.4	55.553
1174.07	87.313
1177.74	149.332
1181.41	130.016
1185.08	81.311
1188.75	57.914
1192.41	59.546
1196.08	66.15
1199.74	137.709
1203.4	110.874
1207.06	125.873
1210.71	96.807
1214.37	128.521
1218.02	152.108
1221.67	108.352
1225.32	115.947
1228.97	154.244
1232.62	204.769
1236.26	180.236
1239.9	99.171
1243.55	75.074
1247.18	58.618
1250.82	17.319
1254.46	95.529
1258.1	145.915
1261.73	62.569
1265.36	2.633
1268.99	106.635
1272.62	81.234
1276.24	27.777
1279.87	4.561
1283.49	21.323
1287.11	75.278
1290.73	2.035
1294.35	84.824
1297.97	113.215
1301.58	7.214
1305.2	28.985
1308.81	20.138
1312.42	38.249
1316.03	17.142
1319.63	82.032
1323.24	103.942
1326.84	27.707
1330.44	77.262
1334.05	138.715
1337.64	140.831
1341.24	8.69
1344.84	106.168
1348.43	34.718
1352.02	150.357
1355.61	139.851
1359.2	127.072
1362.79	138.703
1366.37	106.564
1369.96	201.59
1373.54	182.592
1377.12	76.134
1380.7	79.988
1384.28	49.171
1387.85	47.545
1391.43	82.091
1395	129.972
1398.57	140.349
1402.14	207.078
1405.71	121.648
1409.28	143.653
1412.84	123.273
1416.4	119.512
1419.96	153.689
1423.52	183.259
1427.08	144.918
1430.64	109.205
1434.19	127.107
1437.75	140.486
1441.3	141.143
1444.85	129.235
1448.4	72.295
1451.94	136.648
1455.49	154.729
1459.03	17.399
1462.58	21.271
1466.12	136.292
1469.65	29.718
1473.19	55.687
1476.73	29.69
1480.26	73.57
1483.8	53.904
1487.33	12.455
1490.86	78.014
1494.38	0
