Measurement: Raman, 532 nm, unoriented, Raman Data Processed
Mineral: Saleeite
Rruff sample: R070618
Ideal chemistry: Mg(UO_2_)_2_(PO_4_)_2_10H_2_O
Locality: Shinkolobwe mine, near Kolweze, Katanga, Zaire
Source: James Shigley
Description: Lemon-yellow platy aggregates, associated with green metatorbernite
Measured chemistry: Mg_1.00_(UO_2_)_1.96_(PO_4_)_2.04_Â·5.01H_2_O
Raman shift (cm-1)	intensity
142.324	0
145.217	75.0957
148.109	245.202
151.002	56.8916
153.895	101.839
156.788	53.8027
159.68	184.115
162.573	218.567
165.466	457.798
168.358	436.008
171.251	688.354
174.144	964.845
177.036	1624.76
179.929	2313.05
182.822	3293.44
185.715	4322.41
188.607	5797.37
191.5	7216.93
194.393	6854.26
197.285	5237.79
200.178	3700.88
203.071	2420.54
205.963	1315.2
208.856	864.23
211.749	571.088
214.642	592.996
217.534	255.83
220.427	370.305
223.32	453.213
226.212	436.264
229.105	269.1
231.998	172.268
234.89	95.5234
237.783	39.0957
240.676	65.6133
243.569	47.1855
246.461	48.7715
249.354	180.449
252.247	78.0664
255.139	31.4453
258.032	91.0586
260.925	90.1914
263.817	186.824
266.71	321.039
269.603	345.125
272.495	461.369
275.388	631.928
278.281	775.82
281.174	981.436
284.066	966.856
286.959	644.945
289.852	433.088
292.744	618.26
295.637	45.4453
298.53	95.3789
301.423	86.8965
304.315	82.1348
307.208	27.9395
310.101	176.463
312.993	358.816
315.886	463.231
318.779	568.481
321.671	931.84
324.564	1064.18
327.457	1159.14
330.349	1407.85
333.242	1518.62
336.135	1663.59
339.027	1950.1
341.92	2231.05
344.813	2325.8
347.706	2538.25
350.598	2457.7
353.491	2548.09
356.384	2692.12
359.276	2712.06
362.169	2720.47
365.062	2731.56
367.954	2644.35
370.847	2720.4
373.74	2502.91
376.633	2464.7
379.525	2459.94
382.418	2353.6
385.311	2326.04
388.203	2335.51
391.096	2263.44
393.989	2054.95
396.882	1961.21
399.774	2184.72
402.667	2084.92
405.56	1755.29
408.452	1437.39
411.345	1200.79
414.238	1118.64
417.13	974.162
420.023	1034.62
422.916	810.268
425.808	812.127
428.701	772.068
431.594	810.088
434.486	775.58
437.379	610.67
440.272	520.996
443.165	567.748
446.057	548.344
448.95	523.734
451.843	500.08
454.735	330.107
457.628	367.69
460.521	343.947
463.413	214.469
466.306	353.639
469.199	234.844
472.092	37.5684
474.984	128.293
477.877	130.027
480.77	9.90039
483.662	17.1953
486.555	7.07617
489.448	206.148
492.341	121.049
495.233	24.1523
498.126	8.89062
501.019	0.083984
503.911	64.9922
506.804	8.29297
509.697	22.2129
512.589	65.4668
515.482	41.1875
518.375	89.9746
521.268	63.1035
524.16	82.5352
527.053	182.894
529.946	203.783
532.838	199.654
535.731	131.144
538.624	233.559
541.516	262.51
544.409	224.523
547.302	276.232
550.194	228.584
553.087	252.742
555.98	371.475
558.873	326.523
561.765	257.83
564.658	186.201
567.551	144.697
570.443	216.533
573.336	231.688
576.229	248.582
579.121	313.309
582.014	274.42
584.907	177.853
587.799	341.572
590.692	377.418
593.585	303.322
596.478	239.244
599.37	262.943
602.263	272.797
605.156	280.908
608.048	285.729
610.941	274.629
613.834	314.28
616.726	316.173
619.619	235.444
622.512	241.461
625.405	211.703
628.297	246.778
631.19	228.141
634.083	132.332
636.975	148.791
639.868	160.703
642.761	116.828
645.653	167.352
648.546	242.527
651.439	162.02
654.332	178.45
657.224	176.752
660.117	148.228
663.01	83.7275
665.902	64.6064
668.795	36.5166
671.688	204.747
674.58	142.623
677.473	144.474
680.366	93.4814
683.259	31.582
686.151	93.3144
689.044	60.7158
691.937	54.1406
694.829	116.984
697.722	27.1973
700.615	58.9971
703.507	101.875
706.4	160.537
709.293	99.4131
712.186	6.48926
715.078	42.8174
717.971	34.8613
720.864	8.42383
723.756	12.7168
726.649	110.208
729.542	56.4639
732.434	71.4141
735.327	4.27637
738.22	44.709
741.112	42.1865
744.005	2.46582
746.898	81.8955
749.791	56.6035
752.683	7.27246
755.576	19.1562
758.469	64.4092
761.361	2.19043
764.254	68.7256
767.147	105.47
770.039	112.904
772.932	162.536
775.825	217.922
778.717	231.817
781.61	259.335
784.503	378.631
787.396	462.205
790.288	605.926
793.181	719.682
796.074	902.94
798.966	1054.31
801.859	1223.66
804.752	1381.18
807.644	1664.24
810.537	2059.94
813.43	2642.57
816.323	3716.8
819.215	5491.84
822.108	8975.2
825.001	14562.6
827.893	21578.3
830.786	30796
833.679	41529.9
836.572	44474.9
839.464	25249.6
842.357	10573.7
845.25	4905.03
848.142	2579.38
851.035	1528.67
853.928	1004.59
856.82	607.611
859.713	376.92
862.606	154.472
865.499	75.6841
868.391	23.4453
871.284	12.7461
874.177	10.6362
877.069	25.793
879.962	62.5
882.855	22.3594
885.747	3.15332
888.64	30.2539
891.533	44.6006
894.426	108.793
897.318	207.393
900.211	385.103
903.104	524.561
905.996	782.069
908.889	919.138
911.782	937.66
914.674	892.519
917.567	639.289
920.46	447.633
923.352	272.141
926.245	154.405
929.138	101.802
932.03	102.228
934.923	52.7685
937.816	75.9492
940.709	38.749
943.601	14.2871
946.494	9.07812
949.387	12.2788
952.279	1.55811
955.172	34.1392
958.065	30.1753
960.957	116.87
963.85	148.447
966.743	357.673
969.636	526.851
972.528	890.049
975.421	1523.14
978.314	2451.71
981.206	3727.01
984.099	5345.07
986.992	6931.69
989.885	7531.77
992.777	6431.15
995.67	4826.89
998.563	3457.11
1001.46	2221.14
1004.35	1448.61
1007.24	945.092
1010.13	700.234
1013.03	500.647
1015.92	332.813
1018.81	298.407
1021.7	272.071
1024.6	247.746
1027.49	149.71
1030.38	100.779
1033.28	66.9966
1036.17	111.696
1039.06	157.154
1041.95	143.707
1044.85	88.0391
1047.74	69.4258
1050.63	85.9688
1053.52	16.2241
1056.42	78.1133
1059.31	1.5376
1062.2	26.6284
1065.1	28.7427
1067.99	5.9126
1070.88	35.2368
1073.77	17.9204
1076.66	16.7197
1079.56	43.5478
1082.45	104.924
1085.34	21.4185
1088.24	79.8882
1091.13	3.56787
1094.02	75.7788
1096.91	1.9375
1099.81	12.4854
1102.7	37.6973
1105.59	22.6016
1108.48	41.6816
1111.38	41.0986
1114.27	15.7549
1117.16	66.8574
1120.06	34.9209
1122.95	112.364
1125.84	114.051
1128.73	127.963
1131.63	97.542
1134.52	164.377
1137.41	251.791
1140.31	327.711
1143.2	358.554
1146.09	419.997
1148.98	504.328
1151.88	503.05
1154.77	551.855
1157.66	619.033
1160.55	680.995
1163.45	766.23
1166.34	899.575
1169.23	854.891
1172.12	868.687
1175.02	881.296
1177.91	1060.92
1180.8	1040.71
1183.69	1042.16
1186.59	1029.5
1189.48	1030.74
1192.37	1095.57
1195.27	1108.85
1198.16	1047.91
1201.05	1095.78
1203.94	1150.24
1206.84	1115.1
1209.73	1122.64
1212.62	987.095
1215.52	993.324
1218.41	1013.04
1221.3	897.546
1224.19	889.738
1227.09	842.461
1229.98	814.433
1232.87	849.803
1235.76	852.992
1238.66	734.454
1241.55	750.787
1244.44	673.129
1247.34	616.108
1250.23	561.93
1253.12	412.873
1256.01	385.049
1258.9	280.917
1261.8	259.681
1264.69	284.975
1267.58	245.074
1270.48	128.289
1273.37	165.929
1276.26	57.9248
1279.15	34.8955
1282.05	39.2031
1284.94	37.6103
1287.83	0.524414
1290.72	16.4561
