Measurement: Raman, 532 nm, unoriented, Raman Data Processed
Mineral: Saltonseaite
Rruff sample: R120131
Ideal chemistry: K_3_NaMnCl_6_
Locality: Salton Sea, Imperial County, California, USA
Source: Anthony R. Kampf
Description: Orange fragments from holotype
Raman shift (cm-1)	intensity
194.945	0
197.838	2.85284
200.731	2.79892
203.623	0.780426
206.516	13.9015
209.409	19.456
212.301	45.1437
215.194	73.1067
218.087	98.6923
220.98	140.556
223.872	193.911
226.765	272.712
229.658	357.497
232.55	455.735
235.443	462.579
238.336	358.744
241.228	238.164
244.121	147.249
247.014	93.9104
249.906	66.5697
252.799	46.066
255.692	29.0895
258.585	24.0663
261.477	16.333
264.37	3.03528
267.263	11.3947
270.155	3.89102
273.048	6.67892
275.941	2.66754
278.834	4.78754
281.726	7.53467
284.619	2.89181
287.512	6.1503
290.404	4.52914
293.297	9.1767
296.19	6.94702
299.082	14.0196
301.975	13.8198
304.868	15.6101
307.76	15.8394
310.653	15.4535
313.546	17.2058
316.439	13.1028
319.331	11.7226
322.224	7.65619
325.117	11.7411
328.009	8.38507
330.902	10.0312
333.795	13.1612
336.688	6.3942
339.58	6.09335
342.473	6.26758
345.366	4.46368
348.258	3.25861
351.151	0.127502
354.044	4.70706
356.936	0.349213
359.829	2.28439
362.722	3.57217
365.615	6.30817
368.507	7.75452
371.4	1.73587
374.293	9.77008
377.185	10.6825
380.078	11.6288
382.971	12.8788
385.863	13.6856
388.756	19.221
391.649	16.6697
394.541	20.2215
397.434	10.5219
400.327	7.17441
403.22	11.4922
406.112	12.1595
409.005	10.576
411.898	10.0385
414.79	13.0235
417.683	6.75119
420.576	9.302
423.469	7.64142
426.361	9.26413
429.254	3.61353
432.147	3.62466
435.039	0.190613
437.932	5.40524
440.825	5.33337
443.717	1.20236
446.61	5.81714
449.503	5.50308
452.396	2.59808
455.288	0.573456
458.181	1.44214
461.074	3.48074
463.966	0.985718
466.859	2.76764
469.752	4.22607
472.644	7.07632
475.537	8.95004
478.43	11.993
481.322	6.49503
484.215	5.58203
487.108	0.203979
490.001	16.7595
492.893	4.63324
495.786	0.275208
498.679	2.13794
501.571	10.203
504.464	0.074097
507.357	2.78461
510.25	3.70551
513.142	7.2215
516.035	10.59
518.928	5.60419
521.82	9.90533
524.713	6.32025
527.606	12.1514
530.498	8.90277
533.391	5.69824
536.284	10.8366
539.177	12.4393
542.069	10.6722
544.962	12.2994
547.855	9.06958
550.747	6.86511
553.64	2.73218
556.533	10.9378
559.425	0.637085
562.318	0.253784
565.211	1.88855
568.104	1.11176
570.996	3.46143
573.889	11.1365
576.782	1.5907
579.674	0.959717
582.567	1.22607
585.46	1.362
588.352	8.39258
591.245	5.72571
594.138	5.22662
597.03	5.83087
599.923	10.2026
602.816	6.62366
605.709	4.10577
608.601	8.0296
611.494	8.35889
614.387	9.8692
617.279	12.3398
620.172	10.8248
623.065	8.0788
625.957	8.56506
628.85	6.21265
631.743	8.21997
634.636	6.4342
637.528	0.713867
640.421	1.72064
643.314	1.41925
646.206	2.62402
649.099	3.06323
651.992	1.16736
654.885	4.07135
657.777	0.150879
660.67	7.88086
663.563	9.69354
666.455	13.8928
669.348	4.99493
672.241	1.17017
675.133	10.1614
678.026	5.12061
680.919	4.20032
683.812	7.17737
686.704	9.34406
689.597	11.9634
692.49	8.12341
695.382	6.83667
698.275	9.25568
701.168	9.45941
704.06	9.51135
706.953	10.9875
709.846	11.0967
712.739	6.5755
715.631	4.80231
718.524	15.2704
721.417	13.6621
724.309	15.9923
727.202	4.52692
730.095	8.69952
732.987	9.30505
735.88	11.6691
738.773	7.9563
741.665	0.889099
744.558	9.69238
747.451	5.95941
750.344	2.19537
753.236	1.23889
756.129	0.001282
759.022	8.06604
761.914	5.70935
764.807	4.2439
767.7	5.90832
770.592	2.64648
773.485	0.618347
776.378	3.21765
779.271	8.14563
782.163	0.56073
785.056	8.30762
787.949	0.35907
790.841	10.1742
793.734	5.6936
796.627	9.35303
799.519	6.78186
802.412	7.37256
805.305	8.02942
808.198	17.67
811.09	3.66894
813.983	7.69824
816.876	10.563
819.768	5.02856
822.661	10.9359
825.554	8.45666
828.447	10.4858
831.339	3.29663
834.232	3.89783
837.125	9.75537
840.017	7.18774
842.91	7.5
845.803	9.53406
848.695	2.70496
851.588	8.20264
854.481	0.827148
857.374	8.28601
860.266	10.7429
863.159	7.80725
866.052	5.91992
868.944	0.828247
871.837	1.59595
874.73	11.4916
877.622	9.17505
880.515	1.9834
883.408	7.797
886.301	1.78381
889.193	13.0378
892.086	5.47803
894.979	9.59326
897.871	7.22082
900.764	7.92261
903.657	4.46655
906.549	3.3009
909.442	6.89294
912.335	9.29517
915.227	2.44116
918.12	7.11585
921.013	14.8852
923.906	5.50085
926.798	14.6429
929.691	9.51685
932.584	2.50854
935.476	9.40991
938.369	8.03748
941.262	17.1395
944.154	10.1478
947.047	10.4367
949.94	3.12256
952.833	3.96484
955.725	1.76807
958.618	4.59143
961.511	0.331665
964.403	3.09326
967.296	5.18189
970.189	6.96289
973.082	13.5791
975.974	10.1587
978.867	3.70288
981.76	8.65515
984.652	1.38525
987.545	5.87646
990.438	11.8113
993.33	3.57617
996.223	5.42944
999.116	16.0499
1002.01	4.24988
1004.9	7.31165
1007.79	8.73132
1010.69	3.34082
1013.58	14.8066
1016.47	10.554
1019.37	18.75
1022.26	10.1362
1025.15	7.71204
1028.04	19.7366
1030.94	12.9429
1033.83	9.81714
1036.72	11.3661
1039.61	5.46753
1042.51	18.2255
1045.4	17.4161
1048.29	24.4825
1051.18	22.222
1054.08	8.27942
1056.97	11.5892
1059.86	0.60022
1062.76	6.29883
1065.65	2.15503
1068.54	5.60913
1071.43	6.29224
1074.33	6.0697
1077.22	7.65161
1080.11	9.61816
1083	13.0948
1085.9	17.2849
1088.79	24.1682
1091.68	16.307
1094.58	15.1663
1097.47	15.0936
1100.36	24.8491
1103.25	9.68555
1106.15	14.9623
1109.04	5.04858
1111.93	9.6272
1114.82	3.16479
1117.72	12.5909
1120.61	6.4596
1123.5	9.65662
1126.39	18.4169
1129.29	18.0011
1132.18	9.93018
1135.07	11.8118
1137.96	9.9956
1140.86	7.08008
1143.75	7.72803
1146.64	12.6374
1149.54	23.5454
1152.43	9.53101
1155.32	8.2229
1158.21	0.55957
1161.11	3.25464
1164	13.2322
1166.89	5.28369
1169.79	5.21045
1172.68	10.5532
1175.57	10.9805
1178.46	6.69727
1181.36	18.1851
1184.25	12.3291
1187.14	6.53027
1190.03	4.74707
1192.93	7.99658
1195.82	1.97314
1198.71	17.3093
1201.61	4.03735
1204.5	8.77222
1207.39	18.8733
1210.28	24.7185
1213.18	13.5605
1216.07	13.6604
1218.96	16.5188
1221.85	7.37451
1224.75	16.4497
1227.64	6.75439
1230.53	13.407
1233.42	4.86206
1236.32	0.375977
1239.21	9.39648
1242.1	16.7793
1244.99	19.2593
1247.89	8.28906
1250.78	8.56787
1253.67	11.2354
1256.57	13.9595
1259.46	13.8713
1262.35	33.2002
1265.24	8.32373
1268.14	1.52612
1271.03	18.7778
1273.92	9.56396
1276.82	4.47388
1279.71	0.078613
1282.6	9.44385
1285.49	12.3635
1288.39	10.9363
1291.28	11.2307
1294.17	10.8547
1297.06	1.09448
1299.96	0.063477
