Measurement: Raman, 780 nm, unoriented, Raman Data Processed
Mineral: Saltonseaite
Rruff sample: R120131
Ideal chemistry: K_3_NaMnCl_6_
Locality: Salton Sea, Imperial County, California, USA
Source: Anthony R. Kampf
Description: Orange fragments from holotype
Raman shift (cm-1)	intensity
98.9134	0
102.288	15.2253
105.663	14.1006
109.038	0.417778
112.413	4.03123
115.787	21.3142
119.162	21.5246
122.537	15.4601
125.912	14.4016
129.287	23.8099
132.662	36.7445
136.036	60.1393
139.411	79.1767
142.786	82.6242
146.161	103.006
149.536	146.006
152.911	209.966
156.285	256.908
159.66	221.868
163.035	171.506
166.41	129.19
169.785	63.3806
173.159	30.4462
176.534	18.338
179.909	15.0174
183.284	14.562
186.659	12.2127
190.033	6.0179
193.408	1.25767
196.783	0.527802
200.158	1.4569
203.533	0.684978
206.907	2.55931
210.282	7.20966
213.657	14.4542
217.032	25.8538
220.407	40.9786
223.782	60.8707
227.156	91.1912
230.531	126.916
233.906	145.09
237.281	115.041
240.656	70.5384
244.03	40.0762
247.405	24.9222
250.78	15.8811
254.155	8.74317
257.53	6.42548
260.904	3.2932
264.279	2.05776
267.654	0.646172
271.029	0.398743
274.404	0.05711
277.779	0.044676
281.153	0.342472
284.528	0.13265
287.903	0.208939
291.278	0.49972
294.653	0.162128
298.027	0.161095
301.402	1.15887
304.777	1.29881
308.152	1.08712
311.527	1.5973
314.902	1.13838
318.276	1.43373
321.651	1.71352
325.026	1.75978
328.401	1.48095
331.776	1.90666
335.151	1.30017
338.525	1.21707
341.9	1.19401
345.275	0.865978
348.65	0.258413
352.024	0.103886
355.399	0.696724
358.774	0.167286
362.149	0.69993
365.524	0.11792
368.899	0.204059
372.273	0.329199
375.648	0.684437
379.023	0.363748
382.398	0.612949
385.773	0.852879
389.147	0.247913
392.522	0.577209
395.897	0.304501
399.272	0.610555
402.647	0.381598
406.022	0.254827
409.396	0.679359
412.771	0.538408
416.146	0.308349
419.521	0.011031
422.896	0.249872
426.27	0.09879
429.645	0.334543
433.02	0.494443
436.395	0.188003
439.77	0.1635
443.144	0.230534
446.519	0.340794
449.894	0.162561
453.269	0.134339
456.644	0.464087
460.019	0.503172
463.393	0.380277
466.768	0.61937
470.143	0.65536
473.518	0.225405
476.893	0.074789
480.267	0.266657
483.642	0.401205
487.017	0.687059
490.392	0.695333
493.767	0.304396
497.142	0.557386
500.516	0.558606
503.891	0.109908
507.266	0.612324
510.641	0.763607
514.016	0.446702
517.39	0.06326
520.765	0.323295
524.14	0.543277
527.515	0.147194
530.89	0.39026
534.264	0.404589
537.639	0.670062
541.014	0.003654
544.389	0.411616
547.764	0.557471
551.139	0.441669
554.513	0.029752
557.888	0.416728
561.263	0.436954
564.638	0.384346
568.013	0.378716
571.388	0.193542
574.762	0.568995
578.137	0.254325
581.512	0.648938
584.887	0.214482
588.261	0.602633
591.636	0.232133
595.011	0.53298
598.386	0.688593
601.761	0.969656
605.136	0.675741
608.51	0.452666
611.885	0.357778
615.26	0.147799
618.635	0.399591
622.01	0.583529
625.385	0.513808
628.759	0.404869
632.134	0.63499
635.509	0.238527
638.884	0.151015
642.259	0.404595
645.633	0.42787
649.008	0.384907
652.383	0.528411
655.758	0.373587
659.133	0.562819
662.507	1.29042
665.882	0.708794
669.257	0.0625
672.632	0.542366
676.007	0.173035
679.381	0.530931
682.756	0.338626
686.131	0.20881
689.506	0.13293
692.881	0.469275
696.256	0.617452
699.63	0.704885
703.005	0.090108
706.38	0.33091
709.755	0.325557
713.13	0.149287
716.505	0.027709
719.879	0.209476
723.254	0.287499
726.629	0.424739
730.004	0.106739
733.379	0.001699
736.753	0.210727
740.128	0.070104
743.503	0.005264
746.878	0.035305
750.253	0.498579
753.627	0.019275
757.002	0.552085
760.377	0.024387
763.752	0.453143
767.127	0.299179
770.501	0.441884
773.876	0.388427
777.251	0.530585
780.626	0.246973
784.001	0.058436
787.376	0.64
790.75	0.641416
794.125	0.383605
797.5	0.760598
800.875	0.871494
804.25	0.24998
807.625	0.540663
810.999	0.913509
814.374	0.668534
817.749	0.698084
821.124	1.09498
824.499	0.769365
827.873	0.943985
831.248	1.02448
834.623	1.53473
837.998	0.736893
841.373	1.06855
844.747	1.09626
848.122	1.01667
851.497	1.40912
854.872	1.39885
858.247	0.977788
861.621	1.20035
864.996	1.39404
868.371	1.14802
871.746	1.01823
875.121	1.00475
878.495	0.916063
881.87	0.502019
885.245	0.752649
888.62	0.499003
891.995	0.54355
895.37	0.212735
898.744	0.293366
902.119	0.40515
905.494	0.418984
908.869	0.253178
912.244	0.038475
915.619	0.28047
918.993	0.628995
922.368	0.221581
925.743	0.141479
929.118	0.057225
932.493	0.143731
935.867	0.077754
939.242	0.022706
942.617	0.012424
945.992	0.27539
949.367	0.706938
952.741	0.602596
956.116	0.6106
959.491	0.066433
962.866	0.078086
966.241	0.41381
969.615	0.335383
972.99	0.18205
976.365	0.151708
979.74	0.311832
983.115	0.370713
986.49	0.476623
989.864	0.356582
993.239	0.193748
996.614	0.675279
999.989	0.607584
1003.36	0.405996
1006.74	0.421314
1010.11	0.464194
1013.49	0.331805
1016.86	0.594136
1020.24	0.696343
1023.61	0.187958
1026.99	0.196451
1030.36	0.519003
1033.74	0.282733
1037.11	0.278388
1040.49	0.416572
1043.86	0.552531
1047.24	0.647695
1050.61	0.356047
1053.99	0.438046
1057.36	0.404252
1060.74	0.597193
1064.11	0.459441
1067.48	0.551933
1070.86	0.406759
1074.23	0.539126
1077.61	0.362025
1080.98	0.533613
1084.36	0.229573
1087.73	0.124192
1091.11	0.305219
1094.48	0.801752
1097.86	0.421927
1101.23	0.109443
1104.61	0.073185
1107.98	0.585804
1111.36	0.654166
1114.73	0.310767
1118.11	0.233399
1121.48	0.465892
1124.86	0.119545
1128.23	0.480367
1131.61	0.00563
1134.98	0.110396
1138.36	0.157254
1141.73	0.665505
1145.11	0.021124
1148.48	0.418332
1151.86	0.412317
1155.23	0.371942
1158.61	0.435701
1161.98	0.308719
1165.36	0.206183
1168.73	0.385813
1172.1	0.401071
1175.48	0.358375
1178.85	0.167799
1182.23	0.294325
1185.6	0.595021
1188.98	0.067326
1192.35	0.195104
1195.73	0.519841
1199.1	0.213505
1202.48	0.348089
1205.85	0.146657
1209.23	0.375857
1212.6	0.337117
1215.98	0.386205
1219.35	0.207551
1222.73	0.182664
1226.1	0.102839
1229.48	0.331961
1232.85	0.083898
1236.23	0.222988
1239.6	0.453775
1242.97	0.080665
1246.35	0.273268
1249.72	0.006258
1253.1	0.456604
1256.47	0.162478
1259.85	0.590441
1263.22	0.244992
1266.6	0.494433
1269.97	0.228336
1273.35	0.575892
1276.72	0.304953
1280.1	0.574254
1283.47	0.078281
