Measurement: Raman, 532 nm, unoriented, Raman Data Processed
Mineral: Sampleite
Rruff sample: R090072
Ideal chemistry: NaCaCu_5_(PO_4_)_4_Cl5H_2_O
Locality: Engaño Feliz mine, Las Pintadas dist., Tierra Amarilla, Copiapó Province, Chile
Source: Bob Jenkins
Description: Blue bladed crystals in radial aggregates associated with elongated, forest-green libethenite and dark-green atacamite. This is the polymorph or polytype described in Giester et al (2007)
Raman shift (cm-1)	intensity
120.523	0
123.898	0.280167
127.273	30.4657
130.647	73.5998
134.022	117.956
137.397	209.98
140.772	382.825
144.147	189.601
147.522	134.424
150.896	126.085
154.271	140.181
157.646	149.127
161.021	153.894
164.396	154.513
167.77	145.313
171.145	138.12
174.52	113.018
177.895	120.547
181.27	170.075
184.644	242.537
188.019	309.993
191.394	411.336
194.769	529.326
198.144	359.859
201.519	165.413
204.893	89.7805
208.268	43.4083
211.643	27.4072
215.018	24.3953
218.393	42.2953
221.768	63.7678
225.142	95.4254
228.517	100.239
231.892	65.7841
235.267	30.7563
238.642	11.6797
242.016	8.91255
245.391	2.53904
248.766	7.25053
252.141	1.35938
255.516	7.72726
258.89	3.71955
262.265	2.0553
265.64	11.8896
269.015	37.6932
272.39	79.8234
275.764	127.921
279.139	192.94
282.514	304.401
285.889	393.098
289.264	351.589
292.639	271.4
296.013	210.315
299.388	155.336
302.763	105.883
306.138	65.1832
309.513	40.2965
312.887	21.7742
316.262	11.557
319.637	8.13859
323.012	7.70711
326.387	4.44628
329.762	10.3923
333.136	10.5166
336.511	13.949
339.886	21.1581
343.261	20.1287
346.636	25.1963
350.01	21.6255
353.385	21.171
356.76	21.6024
360.135	20.6189
363.51	19.1796
366.885	8.04217
370.259	1.78351
373.634	0.703773
377.009	0.856689
380.384	1.60321
383.759	8.34001
387.134	10.3346
390.508	9.88039
393.883	11.2698
397.258	7.78899
400.633	8.45055
404.007	5.82291
407.382	8.81817
410.757	2.76924
414.132	3.88476
417.507	0.999903
420.882	2.31821
424.256	4.92056
427.631	6.34278
431.006	6.63837
434.381	8.15517
437.756	15.517
441.13	28.1152
444.505	50.7455
447.88	76.9609
451.255	128.543
454.63	180.493
458.005	175.897
461.379	88.9999
464.754	34.2458
468.129	19.4727
471.504	12.6671
474.879	11.4953
478.253	6.49015
481.628	5.77616
485.003	7.50106
488.378	5.06008
491.753	3.82904
495.128	6.38757
498.502	5.71692
501.877	0.072529
505.252	0.380636
508.627	2.50051
512.002	1.61316
515.376	1.15082
518.751	3.81778
522.126	1.40954
525.501	0.198935
528.876	2.63461
532.25	1.25235
535.625	1.3453
539	3.54702
542.375	8.25788
545.75	7.43416
549.125	15.3002
552.5	15.3611
555.874	21.8219
559.249	21.5941
562.624	15.2924
565.999	7.50566
569.374	3.85497
572.748	1.32116
576.123	1.68442
579.498	0.867104
582.873	3.41099
586.248	8.22353
589.622	11.4009
592.997	14.5586
596.372	13.8391
599.747	13.9279
603.122	14.1269
606.496	16.777
609.871	20.9582
613.246	19.1044
616.621	27.4348
619.996	32.6236
623.37	45.8249
626.745	68.2186
630.12	95.5065
633.495	129.177
636.87	178.605
640.245	224.201
643.619	246.682
646.994	224.786
650.369	179.701
653.744	128.508
657.119	92.225
660.494	64.6991
663.868	43.3022
667.243	33.3625
670.618	24.6893
673.993	13.5335
677.368	15.2721
680.742	12.8379
684.117	11.3154
687.492	11.9711
690.867	9.72676
694.242	4.99543
697.616	6.12318
700.991	5.17013
704.366	5.54543
707.741	2.46033
711.116	0.116863
714.491	2.77272
717.865	3.4285
721.24	3.03308
724.615	2.27494
727.99	2.03402
731.365	1.11065
734.74	1.17602
738.114	1.73358
741.489	0.522358
744.864	2.06437
748.239	1.81975
751.614	1.8771
754.988	1.04893
758.363	1.16661
761.738	3.46572
765.113	3.23942
768.488	5.41838
771.862	2.35926
775.237	7.29634
778.612	5.71264
781.987	6.08383
785.362	4.49039
788.736	3.51197
792.111	1.57881
795.486	5.80506
798.861	4.00433
802.236	5.06292
805.611	4.07947
808.985	2.95769
812.36	2.82735
815.735	2.48597
819.11	1.70954
822.485	0.872272
825.86	1.16263
829.234	3.66938
832.609	3.97329
835.984	4.71669
839.359	4.56502
842.734	4.56066
846.108	5.10581
849.483	6.46651
852.858	0.94718
856.233	3.53011
859.608	3.66921
862.982	0.857803
866.357	2.85672
869.732	1.10377
873.107	0.117918
876.482	2.05075
879.857	0.188246
883.231	2.74475
886.606	0.618568
889.981	0.553606
893.356	0.530056
896.731	1.86728
900.106	2.53957
903.48	3.00038
906.855	2.51855
910.23	7.46659
913.605	10.0114
916.98	8.21122
920.354	16.8238
923.729	33.3689
927.104	39.2882
930.479	43.355
933.854	53.0699
937.229	73.7268
940.603	101.195
943.978	125.144
947.353	131.834
950.728	120.446
954.102	122.079
957.477	135.909
960.852	159.553
964.227	165.175
967.602	139.251
970.977	97.3286
974.351	62.6889
977.726	45.0459
981.101	37.0805
984.476	32.8826
987.851	42.9684
991.226	57.3042
994.6	90.011
997.975	131.047
1001.35	138.302
1004.73	60.8776
1008.1	22.8763
1011.47	8.48027
1014.85	6.37535
1018.22	6.19075
1021.6	7.83113
1024.97	0.934198
1028.35	3.12919
1031.72	1.21035
1035.1	0.592268
1038.47	1.11624
1041.85	1.13926
1045.22	1.98634
1048.6	0.218969
1051.97	5.33829
1055.35	5.60112
1058.72	2.91498
1062.1	4.65476
1065.47	6.73036
1068.85	6.9354
1072.22	8.13481
1075.6	10.105
1078.97	11.8552
1082.35	15.0095
1085.72	25.0936
1089.1	29.1787
1092.47	27.8438
1095.85	27.1941
1099.22	23.9341
1102.59	22.4741
1105.97	26.4452
1109.34	31.8047
1112.72	31.5537
1116.09	25.6702
1119.47	16.4818
1122.84	10.1088
1126.22	4.05773
1129.59	2.11698
1132.97	3.80532
1136.34	10.9721
1139.72	19.5574
1143.09	43.6519
1146.47	73.7701
1149.84	102.79
1153.22	108.626
1156.59	89.3597
1159.97	64.6546
1163.34	61.7118
1166.72	52.7237
1170.09	43.81
1173.47	32.16
1176.84	21.9737
1180.21	11.5927
1183.59	8.32302
1186.96	4.86936
1190.34	3.19725
1193.71	1.49901
1197.09	1.41392
1200.46	1.8294
1203.84	2.22655
1207.21	1.69457
1210.59	0.31117
1213.96	1.14498
1217.34	1.96739
1220.71	2.8336
1224.09	1.46378
1227.46	0.96698
1230.84	0.211796
1234.21	4.00704
1237.59	5.64089
1240.96	2.49325
1244.34	1.34436
1247.71	4.23505
1251.09	3.43918
1254.46	2.97313
1257.84	4.56654
1261.21	2.39707
1264.59	4.26503
1267.96	5.13557
1271.34	3.8393
1274.71	3.41045
1278.09	3.49865
1281.46	3.55307
1284.83	4.75402
1288.21	3.94421
1291.58	2.68959
1294.96	3.1782
1298.33	3.03607
1301.71	2.77638
