Measurement: Raman, 532 nm, unoriented, Raman Data Processed
Mineral: Sampleite
Rruff sample: R050572
Ideal chemistry: NaCaCu_5_(PO_4_)_4_Cl5H_2_O
Locality: Chuquicamata pit, Chuquicamata, Chile
Source: University of Arizona Mineral Museum
Description: Blue massive crust, associated with green atacamite
Measured chemistry: (Na_0.95_K_0.05_)_Σ=1_Ca_1.00_Cu_5.00_(P_1.00_O_4_)_4_Cl_1.00_·5H_2_O
Raman shift (cm-1)	intensity
152.826	0
155.719	0.305038
158.612	2.2345
161.504	15.9757
164.397	39.1797
167.29	37.867
170.183	12.9528
173.075	0.37825
175.968	4.59065
178.861	8.15971
181.753	16.0832
184.646	32.3621
187.539	41.4468
190.431	58.0513
193.324	73.7306
196.217	68.9784
199.109	52.971
202.002	29.5585
204.895	15.1188
207.788	10.166
210.68	10.2886
213.573	8.8432
216.466	17.8693
219.358	29.8769
222.251	37.7137
225.144	31.4394
228.036	22.2178
230.929	11.743
233.822	8.07596
236.715	8.24535
239.607	3.60452
242.5	2.72166
245.393	1.29617
248.286	0.888229
251.178	2.4612
254.071	2.48701
256.964	0.081955
259.856	1.05184
262.749	4.50468
265.642	8.68077
268.534	12.8225
271.427	21.6972
274.32	30.0289
277.212	40.3927
280.105	54.1173
282.998	64.8059
285.891	65.6201
288.783	65.6376
291.676	62.8759
294.569	51.2366
297.461	41.9165
300.354	30.4559
303.247	22.9477
306.14	18.5684
309.032	13.6054
311.925	10.0583
314.818	6.49958
317.71	8.09721
320.603	7.01657
323.496	6.31487
326.389	7.392
329.281	6.28769
332.174	8.69851
335.067	7.44543
337.959	14.3514
340.852	15.6501
343.745	20.4595
346.637	25.8347
349.53	27.4576
352.423	34.0686
355.315	40.311
358.208	40.7116
361.101	31.1625
363.994	19.7277
366.886	10.7657
369.779	6.09505
372.672	1.45656
375.565	0.590408
378.457	0.701302
381.35	1.30801
384.243	0.086548
387.135	2.76106
390.028	0.532951
392.921	3.19952
395.813	2.10488
398.706	0.881088
401.599	2.97259
404.491	0.961441
407.384	4.2859
410.277	3.23613
413.17	6.00679
416.062	2.80997
418.955	2.02672
421.848	2.85902
424.74	4.58059
427.633	7.93955
430.526	6.65974
433.418	12.0626
436.311	19.7759
439.204	27.8855
442.097	44.3474
444.989	60.1283
447.882	83.5689
450.775	110.197
453.667	112.248
456.56	81.905
459.453	46.5212
462.346	27.0032
465.238	16.7167
468.131	9.59599
471.024	6.73445
473.916	6.6517
476.809	2.10546
479.702	2.51195
482.594	0.269493
485.487	0.684746
488.38	1.33465
491.273	0.350662
494.165	0.992615
497.058	0.69825
499.951	0.834686
502.843	0.075623
505.736	0.851921
508.629	1.46454
511.522	0.505157
514.414	0.573608
517.307	1.12252
520.2	2.51425
523.092	1.13021
525.985	2.36561
528.878	3.28332
531.77	6.15195
534.663	10.1633
537.556	13.9287
540.448	20.8518
543.341	28.6967
546.234	39.1508
549.127	50.5479
552.019	62.1814
554.912	62.5069
557.805	55.1728
560.697	37.0501
563.59	17.8835
566.483	7.60107
569.376	1.56307
572.268	1.22648
575.161	2.08572
578.054	1.75822
580.946	6.77628
583.839	16.7382
586.732	27.0329
589.625	28.8076
592.517	24.5327
595.41	25.9417
598.303	28.1004
601.195	30.26
604.088	30.4489
606.981	25.1526
609.874	21.243
612.766	21.5982
615.659	24.9853
618.552	31.0354
621.444	41.4971
624.337	58.8671
627.23	78.3441
630.122	107.724
633.015	135.673
635.908	170.04
638.801	199.482
641.693	210.687
644.586	195.311
647.479	166.712
650.371	137.048
653.264	106.629
656.157	84.9905
659.049	65.0636
661.942	46.7478
664.835	37.8655
667.727	25.2244
670.62	19.4706
673.513	13.5553
676.406	12.798
679.298	5.88354
682.191	4.40524
685.084	4.59616
687.976	4.95541
690.869	0.604179
693.762	0.462013
696.654	0.120293
699.547	0.141655
702.44	0.458092
705.333	0.807068
708.225	1.41299
711.118	0.791725
714.011	1.91771
716.904	0.184319
719.796	1.07436
722.689	2.66746
725.582	1.63006
728.474	2.01044
731.367	3.00729
734.26	2.11641
737.152	3.10628
740.045	1.72884
742.938	4.32804
745.831	2.97119
748.723	1.8924
751.616	3.14872
754.509	3.91762
757.401	4.00501
760.294	1.32109
763.187	3.49047
766.08	2.9187
768.972	4.52584
771.865	2.60838
774.758	4.12689
777.65	2.04461
780.543	0.271271
783.436	1.02642
786.328	1.063
789.221	0.422249
792.114	1.21604
795.006	3.74336
797.899	2.22508
800.792	2.10241
803.685	2.8543
806.577	4.47857
809.47	3.43523
812.363	2.95385
815.255	4.44728
818.148	5.73187
821.041	2.90198
823.933	5.69622
826.826	6.54813
829.719	7.87391
832.612	6.62981
835.504	7.78869
838.397	6.47581
841.29	10.1339
844.182	9.78495
847.075	8.31774
849.968	8.023
852.861	6.66142
855.753	5.8895
858.646	5.63524
861.539	5.95505
864.431	4.52818
867.324	7.14887
870.217	5.31847
873.11	4.49016
876.002	3.94981
878.895	0.680542
881.788	0.299805
884.68	0.326569
887.573	1.18392
890.466	0.098366
893.358	2.6494
896.251	0.516975
899.144	0.272034
902.037	3.93772
904.929	6.88969
907.822	12.4093
910.715	21.8352
913.607	33.1167
916.5	43.7681
919.393	56.8191
922.285	59.1739
925.178	53.0459
928.071	39.3146
930.964	27.3138
933.856	19.6641
936.749	15.4073
939.642	11.0311
942.534	10.2258
945.427	8.55358
948.32	7.82561
951.212	7.4753
954.105	6.86911
956.998	8.40708
959.891	8.78415
962.783	6.65784
965.676	5.49551
968.569	3.8475
971.461	3.76083
974.354	5.72723
977.247	8.3861
980.139	14.8882
983.032	26.9831
985.925	47.1622
988.818	74.7642
991.71	113.369
994.603	134.629
997.496	105.296
1000.39	55.0085
1003.28	29.235
1006.17	19.91
1009.07	22.0056
1011.96	21.72
1014.85	19.4457
1017.75	11.174
1020.64	5.50137
1023.53	1.35018
1026.42	0.216263
1029.32	1.02975
1032.21	0.471443
1035.1	4.96078
1037.99	3.52692
1040.89	4.67337
1043.78	4.08012
1046.67	1.38494
1049.56	0.786224
1052.46	1.79561
1055.35	1.54381
1058.24	7.36106
1061.13	8.84945
1064.03	13.8155
1066.92	18.9321
1069.81	22.264
1072.71	21.058
1075.6	25.6668
1078.49	31.7832
1081.38	38.2327
1084.28	34.622
1087.17	24.8924
1090.06	19.6653
1092.95	14.1882
1095.85	15.4938
1098.74	13.2935
1101.63	13.8906
1104.53	12.5602
1107.42	10.8838
1110.31	7.13256
1113.2	5.99862
1116.1	3.24559
1118.99	0.280403
1121.88	1.90576
1124.78	0.082924
1127.67	1.286
1130.56	0.265564
1133.45	4.3205
1136.35	5.77762
1139.24	11.2467
1142.13	16.0919
1145.02	21.1084
1147.92	26.1767
1150.81	28.027
1153.7	28.6084
1156.59	31.744
1159.49	37.3797
1162.38	44.8115
1165.27	45.8285
1168.16	43.3947
1171.06	32.8865
1173.95	21.2793
1176.84	17.2993
1179.74	9.41568
1182.63	7.09331
1185.52	3.45621
1188.41	5.22785
1191.31	2.47186
1194.2	0.921387
1197.09	0.519844
1199.98	1.13552
1202.88	4.21716
1205.77	1.16648
1208.66	0.274696
1211.56	1.05703
1214.45	2.4091
1217.34	0.202705
1220.23	3.14844
1223.13	2.79112
1226.02	3.63928
1228.91	0.519165
1231.81	3.5853
1234.7	2.86475
1237.59	4.16085
1240.48	0.325081
1243.38	3.04864
1246.27	3.27512
1249.16	2.09638
1252.05	3.63934
1254.95	0.724907
1257.84	3.04739
1260.73	1.14962
1263.62	3.34795
1266.52	1.30081
1269.41	1.78945
1272.3	1.40803
1275.19	0.952202
1278.09	2.05959
1280.98	1.7596
1283.87	0.440826
1286.77	0.884415
1289.66	4.25704
1292.55	0.368912
1295.44	1.02655
1298.34	2.44251
1301.23	0.548126
