Measurement: Raman, 532 nm, unoriented, Raman Data Processed
Mineral: Sampleite
Rruff sample: R070018
Ideal chemistry: NaCaCu_5_(PO_4_)_4_Cl5H_2_O
Locality: Endeavour 26 Open Cut, Northparkes mine, Goonumbla, NSW, Australia
Source: Mark Mauthner
Description: Electric-blue platy crystals on limonitic matrix
Raman shift (cm-1)	intensity
175.734	0
178.627	269.289
181.52	668.918
184.412	1226.6
187.305	1726.22
190.198	2397.29
193.09	2429.07
195.983	1569.65
198.876	877.318
201.769	468.945
204.661	309.053
207.554	178.602
210.447	205.297
213.339	477.861
216.232	942.322
219.125	1359.65
222.018	1569.03
224.91	1548.42
227.803	1321.74
230.696	849.223
233.588	536.029
236.481	110.113
239.374	166.68
242.266	39.8906
245.159	30.3691
248.052	51.5859
250.945	111.963
253.837	95.3906
256.73	70.6406
259.623	12.3965
262.515	212.029
265.408	318.902
268.301	630.576
271.193	1046.2
274.086	1604.09
276.979	2322.25
279.871	3156.08
282.764	4067.74
285.657	4413.77
288.55	4272.06
291.442	4199.35
294.335	4184.5
297.228	3701.77
300.12	2973.71
303.013	2104.52
305.906	1355.66
308.798	953.377
311.691	516.242
314.584	331.102
317.476	313.94
320.369	162.002
323.262	225.168
326.155	149.992
329.047	248.893
331.94	375.156
334.833	418.397
337.725	520.182
340.618	480.742
343.511	613.178
346.403	465.074
349.296	596.594
352.189	437.074
355.082	645.953
357.974	323.367
360.867	317.467
363.76	204.647
366.652	235.627
369.545	115.389
372.438	77.1172
375.33	44.127
378.223	59.6016
381.116	32.9531
384.009	63.4199
386.901	69.2324
389.794	61.2422
392.687	12.9121
395.579	75.5195
398.472	8.42383
401.365	61.8418
404.257	104.834
407.15	88.6269
410.043	149.082
412.935	150.42
415.828	127.012
418.721	152.398
421.614	57.0449
424.506	65.416
427.399	354.803
430.292	320.346
433.184	469.549
436.077	1124.41
438.97	968.453
441.862	1671.94
444.755	2143.78
447.648	3013.95
450.541	3668.73
453.433	4128.5
456.326	3759.16
459.219	2311.17
462.111	1395.68
465.004	870.387
467.897	531.887
470.789	298.894
473.682	297.945
476.575	332.617
479.467	239.938
482.36	132.344
485.253	372.488
488.146	118.332
491.038	191.121
493.931	47.7188
496.824	161.137
499.716	65.707
502.609	63.8398
505.502	18.4766
508.394	4.73828
511.287	24.6797
514.18	17.5742
517.073	106.75
519.965	4.53906
522.858	148.984
525.751	24.3555
528.643	124.809
531.536	101.891
534.429	56.9297
537.321	235.144
540.214	407.027
543.107	686.016
546	798.422
548.892	1128
551.785	1169.09
554.678	1274
557.57	1131.24
560.463	982.906
563.356	610.492
566.248	397.824
569.141	93.0508
572.034	66.6914
574.927	283.547
577.819	55.5703
580.712	24.0898
583.605	298.203
586.497	484.648
589.39	602.375
592.283	537.121
595.175	631.133
598.068	681.188
600.961	863.438
603.854	817.707
606.746	1013.68
609.639	1015.45
612.532	1121.49
615.424	1377.99
618.317	1416.64
621.21	1822.05
624.102	2333.82
626.995	2789.8
629.888	3699.7
632.78	4712.97
635.673	5771.89
638.566	6566.1
641.458	7081.15
644.351	6949.48
647.244	5985.32
650.137	5128.06
653.029	4285.78
655.922	3620.36
658.815	2847.97
661.707	2256.24
664.6	1804.67
667.493	1462.1
670.385	1334.96
673.278	855.652
676.171	804.82
679.063	601.441
681.956	482.777
684.849	269.981
687.742	393.414
690.634	113.703
693.527	241.547
696.42	130.852
699.312	11.4102
702.205	76.168
705.098	8.82031
707.99	104.062
710.883	120.016
713.776	99.2383
716.669	36.7188
719.561	105.148
722.454	89.1328
725.347	137.902
728.239	64.9922
731.132	72.2852
734.025	143.723
736.918	6.25781
739.81	150.531
742.703	111.617
745.596	74.1562
748.488	93.8125
751.381	34.8477
754.274	220.832
757.166	136.023
760.059	195.035
762.952	134.199
765.845	178.199
768.737	328.285
771.63	309.574
774.523	255.418
777.415	190.418
780.308	167.035
783.201	238.008
786.093	173.383
788.986	330.496
791.879	306.82
794.771	416.195
797.664	164.75
800.557	386.059
803.449	286.652
806.342	245.5
809.235	276.43
812.128	188.609
815.02	359.559
817.913	396.973
820.806	312.238
823.698	292.519
826.591	292.887
829.484	195.461
832.376	206.574
835.269	186.953
838.162	196.648
841.055	199.648
843.947	200.859
846.84	180.113
849.733	89.4258
852.625	205.008
855.518	183.519
858.411	79.8359
861.303	23.1914
864.196	73.6836
867.089	38.2227
869.981	4.59766
872.874	7.17578
875.767	28.9492
878.66	52.1094
881.552	53
884.445	67.0977
887.338	15.3125
890.23	139.992
893.123	32.332
896.016	159.285
898.909	127.578
901.801	172.805
904.694	310.742
907.587	458.891
910.479	532.676
913.372	707.746
916.265	1067.02
919.157	1466.8
922.05	1455.05
924.943	1479.42
927.835	1581.97
930.728	1621.46
933.621	1888
936.514	2030.86
939.406	2300.31
942.299	2491.38
945.192	2453.97
948.084	2568.94
950.977	2605.14
953.87	2760.08
956.763	2781.59
959.655	3103.15
962.548	3041.26
965.441	3056.28
968.333	2469.18
971.226	2219.13
974.119	1623.61
977.011	1557.01
979.904	1426.45
982.797	1261.86
985.689	1456.98
988.582	1685.09
991.475	2264.17
994.367	2996.41
997.26	3261
1000.15	2829.1
1003.05	2122.14
1005.94	1607.36
1008.83	842.551
1011.72	776.09
1014.62	552.422
1017.51	433.793
1020.4	185.57
1023.29	205.879
1026.19	92.7969
1029.08	59.5547
1031.97	97.707
1034.87	39.5312
1037.76	101.047
1040.65	11.5547
1043.54	26.4102
1046.44	31.4297
1049.33	58.5781
1052.22	191.273
1055.11	60.2734
1058.01	241.406
1060.9	138.973
1063.79	266.664
1066.68	401.973
1069.58	628.398
1072.47	616.887
1075.36	837.461
1078.26	996.074
1081.15	1210.63
1084.04	1461.16
1086.93	1516.73
1089.83	1569.43
1092.72	1571.46
1095.61	1493.26
1098.51	1326.03
1101.4	1072.41
1104.29	831.477
1107.18	761.051
1110.08	694.457
1112.97	470.668
1115.86	582.977
1118.75	479.613
1121.65	497.773
1124.54	657.527
1127.43	360.512
1130.32	455.809
1133.22	447.008
1136.11	626.906
1139	634.188
1141.89	1125.06
1144.79	1310.85
1147.68	1613.66
1150.57	1616.3
1153.47	1777.18
1156.36	1815.58
1159.25	1950.26
1162.14	1995.01
1165.04	1809
1167.93	1577.69
1170.82	1371.62
1173.71	909.668
1176.61	746.391
1179.5	565.91
1182.39	477.328
1185.29	284.785
1188.18	337.266
1191.07	437.262
1193.96	182.68
1196.86	358.141
1199.75	144.731
1202.64	244.504
1205.53	347.082
1208.43	114.191
1211.32	2.86719
1214.21	43.2617
1217.11	197.195
1220	48.3438
1222.89	11.7656
1225.78	6.20703
1228.68	88.1406
1231.57	11.1875
1234.46	16.8242
1237.35	117.144
1240.25	155.777
1243.14	173.969
1246.03	57.9531
1248.92	1.49219
1251.82	170.644
1254.71	254.75
1257.6	342.152
1260.5	247.219
1263.39	256.211
1266.28	97.0117
1269.17	311.434
1272.07	64.5234
1274.96	276.473
1277.85	285.543
1280.74	415.969
1283.64	172.418
1286.53	245.707
1289.42	166.387
1292.32	136.148
1295.21	221.57
1298.1	37.3164
1300.99	187.039
