Measurement: Raman, 532 nm, unoriented, Raman Data Processed
Mineral: Samsonite
Rruff sample: R060998
Ideal chemistry: Ag_4_MnSb_2_S_6_
Locality: Samson Vein, St. Andreasberg, Harz, Germany
Source: Michael Scott
Description: Deep red to black metallic elongated and striated prismatic crystals associated with quartz
Measured chemistry: Ag_4.00_Mn_1.00_Sb_2.00_S_6.00_; trace amounts of Fe
Raman shift (cm-1)	intensity
142.253	0
145.146	7.45544
148.038	2.78247
150.931	18.1414
153.824	20.8798
156.717	12.2203
159.609	54.1923
162.502	59.7005
165.395	60.2414
168.287	81.1959
171.18	74.6395
174.073	57.4039
176.965	92.7986
179.858	70.4869
182.751	40.6102
185.644	65.4586
188.536	57.9338
191.429	31.4133
194.322	39.5107
197.214	3.75745
200.107	29.1299
203	9.79273
205.893	17.8601
208.785	52.8618
211.678	38.9012
214.571	0.379089
217.463	41.9963
220.356	4.12354
223.249	16.7251
226.141	19.5251
229.034	10.306
231.927	41.1239
234.82	8.13635
237.712	9.86798
240.605	3.37872
243.498	6.24744
246.39	31.9242
249.283	38.1929
252.176	10.9862
255.068	21.975
257.961	29.712
260.854	54.4398
263.747	15.1225
266.639	53.9711
269.532	45.6223
272.425	53.3445
275.317	90.4031
278.21	107.243
281.103	148.34
283.995	141.162
286.888	205.039
289.781	293.334
292.673	375.912
295.566	451.42
298.459	542.387
301.352	670.897
304.244	808.814
307.137	969.255
310.03	1085.93
312.922	1218.59
315.815	1272.97
318.708	1384.15
321.601	1564.13
324.493	1519.1
327.386	1001.2
330.279	678.489
333.171	490.003
336.064	379.516
338.957	300.326
341.849	213.323
344.742	144.332
347.635	101.529
350.527	68.683
353.42	65.182
356.313	26.0544
359.205	25.9807
362.098	23.353
364.991	15.5892
367.884	23.4267
370.776	0.206787
373.669	9.63568
376.562	12.1357
379.454	4.40002
382.347	8.89667
385.24	10.7688
388.132	17.5308
391.025	3.198
393.918	10.8505
396.811	7.0542
399.703	18.8859
402.596	16.8192
405.489	33.2803
408.381	17.1395
411.274	45.6746
414.167	31.0406
417.06	10.7272
419.952	45.5369
422.845	22.6473
425.738	20.6661
428.63	34.2004
431.523	30.6685
434.416	46.7473
437.308	45.0934
440.201	42.7615
443.094	59.6202
445.986	45.5633
448.879	49.6266
451.772	49.0256
454.665	7.35193
457.557	54.5366
460.45	2.4043
463.343	25.9203
466.235	20.0344
469.128	39.0304
472.021	24.254
474.913	15.7317
477.806	20.4267
480.699	29.2087
483.592	11.9409
486.484	31.1693
489.377	30.7676
492.27	30.6705
495.162	35.1242
498.055	6.79181
500.948	10.3801
503.841	4.37061
506.733	10.3674
509.626	9.9845
512.519	16.0661
515.411	6.37073
518.304	30.1864
521.197	13.3657
524.089	8.12671
526.982	51.2169
529.875	15.0897
532.768	3.8128
535.66	36.5209
538.553	0.355835
541.446	14.7066
544.338	27.8536
547.231	24.1888
550.124	1.60437
553.016	6.01453
555.909	22.2839
558.802	13.555
561.694	18.5428
564.587	25.605
567.48	14.2242
570.373	23.3638
573.265	46.5102
576.158	24.2524
579.051	4.25623
581.943	15.8254
584.836	39.1039
587.729	12.1714
590.621	38.5015
593.514	2.12805
596.407	43.5013
599.299	50.6407
602.192	0.357422
605.085	43.9016
607.978	47.5503
610.87	62.3011
613.763	57.5938
616.656	50.7422
619.548	73.4773
622.441	71.4153
625.334	66.779
628.226	40.1064
631.119	24.9966
634.012	29.5634
636.905	43.6113
639.797	33.1003
642.69	38.0435
645.583	55.2661
648.475	44.7524
651.368	61.3489
654.261	73.76
657.154	41.3747
660.046	42.6412
662.939	49.9013
665.832	52.0802
668.724	59.7604
671.617	64.6185
674.51	29.9365
677.402	77.8372
680.295	40.1451
683.188	44.4284
686.081	70.3081
688.973	36.4849
691.866	40.9562
694.759	25.2405
697.651	26.8494
700.544	5.94324
703.437	5.35284
706.329	9.6803
709.222	6.08972
712.115	3.90717
715.007	37.68
717.9	26.6218
720.793	28.3986
723.686	14.7573
726.578	47.7234
729.471	8.58752
732.364	5.25067
735.256	36.2322
738.149	34.9327
741.042	39.8925
743.934	12.3878
746.827	29.8813
749.72	31.191
752.612	34.5723
755.505	40.3652
758.398	39.653
761.291	17.4133
764.183	9.74609
767.076	13.5986
769.969	36.4937
772.861	5.34082
775.754	13.3301
778.647	45.1016
781.54	12.8721
784.432	43.7859
787.325	17.2291
790.218	47.97
793.11	23.8704
796.003	7.16669
798.896	4.37671
801.788	2.20905
804.681	28.9318
807.574	13.2782
810.466	21.572
813.359	31.7065
816.252	53.0021
819.145	32.2294
822.037	21.2184
824.93	13.2979
827.823	21.803
830.715	39.6621
833.608	27.2611
836.501	18.5401
839.394	26.3411
842.286	31.9614
845.179	20.1368
848.072	18.1753
850.964	3.01269
853.857	6.73614
856.75	31.0201
859.642	7.35657
862.535	40.1679
865.428	24.0187
868.321	16.4942
871.213	16.9086
874.106	19.7588
876.999	4.21155
879.891	13.5352
882.784	21.5484
885.677	42.1855
888.569	22.2073
891.462	52.6282
894.355	52.8726
897.247	26.4112
900.14	23.0454
903.033	19.0737
905.926	17.543
908.818	33.2636
911.711	50.7462
914.604	30.5657
917.496	15.653
920.389	37.1221
923.282	36.8226
926.174	46.1749
929.067	30.2451
931.96	42.3387
934.852	36.8297
937.745	17.7651
940.638	11.4819
943.531	27.2929
946.423	12.493
949.316	21.9703
952.209	43.5887
955.101	19.3531
957.994	47.0218
960.887	29.8151
963.779	39.9277
966.672	40.3434
969.565	2.79272
972.458	32.5283
975.35	34.3986
978.243	19.1371
981.136	24.6743
984.028	0.111206
986.921	23.8273
989.814	43.8719
992.707	47.0579
995.599	2.03687
998.492	58.699
1001.38	51.7846
1004.28	38.2797
1007.17	22.6092
1010.06	4.43347
1012.96	22.4273
1015.85	12.6339
1018.74	28.0518
1021.63	15.1256
1024.53	40.0497
1027.42	43.5027
1030.31	35.0191
1033.2	2.37341
1036.1	38.3941
1038.99	44.7153
1041.88	22.4427
1044.78	10.0934
1047.67	11.9035
1050.56	39.7442
1053.45	24.946
1056.35	7.67358
1059.24	25.4513
1062.13	28.2373
1065.02	40.705
1067.92	55.2499
1070.81	47.603
1073.7	37.2936
1076.6	36.0844
1079.49	22.7017
1082.38	45.8986
1085.27	3.34125
1088.17	15.564
1091.06	15.06
1093.95	32.011
1096.84	30.4243
1099.74	9.98126
1102.63	36.9643
1105.52	42.1248
1108.41	8.85998
1111.31	42.1754
1114.2	17.0947
1117.09	0.527832
1119.98	3.20294
1122.88	14.1548
1125.77	39.4279
1128.66	27.7628
1131.56	7.22302
1134.45	34.2737
1137.34	1.80902
1140.23	8.9931
1143.13	12.2417
1146.02	26.7615
1148.91	1.6275
1151.81	63.9519
1154.7	29.0297
1157.59	47.2779
1160.48	16.6905
1163.38	8.10138
1166.27	32.8267
1169.16	24.472
1172.05	44.9903
1174.95	47.3674
1177.84	41.0873
1180.73	25.7707
1183.62	13.7353
1186.52	23.9227
1189.41	31.2558
1192.3	33.6192
1195.19	15.3254
1198.09	52.2546
1200.98	34.8174
1203.87	56.9138
1206.77	51.7243
1209.66	73.9865
1212.55	54.5465
1215.44	10.9573
1218.34	18.3143
1221.23	23.5874
1224.12	35.5833
1227.02	18.2831
1229.91	47.3759
1232.8	34.6616
1235.69	44.1879
1238.59	11.1112
1241.48	58.8116
1244.37	73.3698
1247.26	39.2872
1250.16	33.2576
1253.05	43.2231
1255.94	22.7963
1258.84	11.3684
1261.73	31.1808
