Measurement: Raman, 785 nm, unoriented, Raman Data Processed
Mineral: Samsonite
Rruff sample: R060998
Ideal chemistry: Ag_4_MnSb_2_S_6_
Locality: Samson Vein, St. Andreasberg, Harz, Germany
Source: Michael Scott
Description: Deep red to black metallic elongated and striated prismatic crystals associated with quartz
Measured chemistry: Ag_4.00_Mn_1.00_Sb_2.00_S_6.00_; trace amounts of Fe
Raman shift (cm-1)	intensity
123.939	0
126.831	103.47
129.724	176.272
132.617	319.089
135.509	93.7948
138.402	69.9229
141.295	38.4066
144.188	130.844
147.08	347.507
149.973	345.415
152.866	277.362
155.758	194.589
158.651	203.145
161.544	273.087
164.436	370.797
167.329	494.357
170.222	592.437
173.114	579.743
176.007	581.091
178.9	677.555
181.793	632.966
184.685	569.579
187.578	534.292
190.471	511.1
193.363	386.428
196.256	335.614
199.149	292.662
202.042	283.409
204.934	298.869
207.827	297.525
210.72	320.356
213.612	331.605
216.505	371.501
219.398	459.312
222.29	469.715
225.183	388.203
228.076	271.089
230.969	155.414
233.861	104.85
236.754	22.5778
239.647	65.5952
242.539	26.9336
245.432	50.2329
248.325	18.603
251.217	10.3717
254.11	120.21
257.003	76.52
259.896	244.776
262.788	346.116
265.681	646.014
268.574	828.195
271.466	1116.31
274.359	1417.55
277.252	1772.03
280.144	2221.32
283.037	2416.67
285.93	2853.15
288.822	3695.39
291.715	5221.74
294.608	7053.04
297.5	8884.5
300.393	10050.3
303.286	9572.41
306.179	9776.64
309.071	11132.1
311.964	12947.9
314.857	14195.3
317.749	15558.4
320.642	17624.3
323.535	22447.8
326.428	25279.8
329.32	12292.7
332.213	4918.62
335.106	2501.25
337.998	1532.78
340.891	1002.57
343.784	813.822
346.676	561.166
349.569	366.743
352.462	145.668
355.354	86.6714
358.247	177.886
361.14	26.265
364.033	10.2141
366.925	10.8366
369.818	14.4498
372.711	46.6992
375.603	16.6474
378.496	8.38757
381.389	16.9284
384.281	75.0416
387.174	41.3614
390.067	30.1658
392.96	33.1605
395.852	29.9971
398.745	14.9785
401.638	35.7451
404.53	52.7072
407.423	114.239
410.316	25.5451
413.209	13.445
416.101	131.39
418.994	107.453
421.887	137.34
424.779	72.6374
427.672	173.24
430.565	157.013
433.457	66.2717
436.35	107.882
439.243	109.351
442.135	69.9666
445.028	70.5519
447.921	121.358
450.814	71.7329
453.706	77.4092
456.599	130.566
459.492	61.964
462.384	52.9019
465.277	50.9245
468.17	10.9083
471.062	81.302
473.955	78.3692
476.848	39.7102
479.74	17.7462
482.633	9.60672
485.526	13.1664
488.419	23.2308
491.311	33.1184
494.204	97.521
497.097	74.2352
499.989	20.7034
502.882	70.8341
505.775	56.9067
508.668	138.758
511.56	46.1681
514.453	79.8248
517.346	22.8926
520.238	32.3741
523.131	52.3233
526.024	23.7615
528.916	97.0442
531.809	29.4274
534.702	26.7951
537.595	20.6065
540.487	24.2893
543.38	94.0145
546.273	69.7578
549.165	3.59937
552.058	1.51618
554.951	73.4507
557.843	67.6323
560.736	44.2293
563.629	45.7361
566.521	27.9914
569.414	66.7488
572.307	55.8896
575.2	32.5119
578.092	123.712
580.985	87.0597
583.878	81.2996
586.77	95.2532
589.663	43.5539
592.556	11.0762
595.448	17.0635
598.341	141.605
601.234	23.8185
604.127	175.446
607.019	114.457
609.912	113.814
612.805	84.6458
615.697	6.64337
618.59	116.93
621.483	63.5974
624.375	157.982
627.268	159.268
630.161	79.8556
633.053	84.3488
635.946	74.83
638.839	71.087
641.732	69.9723
644.624	22.8345
647.517	71.3672
650.41	82.0296
653.302	66.0786
656.195	113.839
659.088	30.1234
661.981	80.4925
664.873	140.763
667.766	4.91123
670.659	3.2732
673.551	97.909
676.444	180.623
679.337	102.713
682.229	101.257
685.122	161.185
688.015	83.9708
690.908	154.256
693.8	63.8391
696.693	55.4207
699.586	122.857
702.478	86.6748
705.371	121.858
708.264	6.72438
711.156	30.2302
714.049	87.2076
716.942	106.009
719.835	77.2897
722.727	73.2327
725.62	20.142
728.513	63.242
731.405	47.744
734.298	15.797
737.191	33.0149
740.083	122.678
742.976	71.6094
745.869	99.1518
748.761	112.069
751.654	81.9453
754.547	64.4384
757.44	16.0164
760.332	128.726
763.225	23.7057
766.118	132.797
769.01	93.8357
771.903	99.928
774.796	40.2079
777.688	73.9109
780.581	49.079
783.474	10.2224
786.367	89.8158
789.259	25.796
792.152	127.534
795.045	14.0784
797.937	12.5245
800.83	32.8127
803.723	14.6929
806.615	76.8673
809.508	135.88
812.401	71.994
815.294	43.9494
818.186	9.35003
821.079	27.6857
823.972	16.6855
826.864	43.2943
829.757	4.93642
832.65	80.741
835.542	117.05
838.435	28.2186
841.328	59.4483
844.221	26.1723
847.113	44.8209
850.006	103.891
852.899	98.4529
855.791	75.767
858.684	34.7974
861.577	68.9867
864.469	55.3004
867.362	78.1718
870.255	1.45478
873.148	116.927
876.04	72.8961
878.933	104.221
881.826	81.3443
884.718	78.3922
887.611	55.1328
890.504	47.0753
893.396	9.63795
896.289	37.417
899.182	77.695
902.074	46.3073
904.967	4.88357
907.86	34.8436
910.753	137.681
913.645	110.814
916.538	44.9964
919.431	42.9506
922.323	44.5561
925.216	31.3728
928.109	12.569
931.001	100.383
933.894	81.827
936.787	188.062
939.68	60.6439
942.572	83.0355
945.465	9.15163
948.358	90.5535
951.25	102.834
954.143	60.1688
957.036	23.2333
959.928	105.989
962.821	121.085
965.714	35.1775
968.607	72.1487
971.499	67.9998
974.392	199.673
977.285	79.5537
980.177	22.6578
983.07	58.5652
985.963	133.557
988.856	151.198
991.748	45.4609
994.641	44.62
997.534	99.0354
1000.43	4.07166
1003.32	11.3102
1006.21	79.0568
1009.1	92.1134
1012	164.538
1014.89	146.24
1017.78	10.0329
1020.67	79.9523
1023.57	99.2211
1026.46	6.39682
1029.35	92.0647
1032.25	170.389
1035.14	73.0435
1038.03	32.3241
1040.92	101.09
1043.82	60.449
1046.71	134.532
1049.6	38.7621
1052.49	157.888
1055.39	108.115
1058.28	2.59002
1061.17	79.6473
1064.07	120.385
1066.96	74.4906
1069.85	74.6681
1072.74	96.092
1075.64	87.4836
1078.53	8.77683
1081.42	20.283
1084.31	141.953
1087.21	72.9016
1090.1	56.6748
1092.99	46.2638
1095.88	112.317
1098.78	19.7283
1101.67	114.672
1104.56	34.317
1107.46	110.623
1110.35	98.2953
1113.24	81.4907
1116.13	68.0193
1119.03	175.015
1121.92	57.1563
1124.81	10.6251
1127.7	48.255
1130.6	102.63
1133.49	75.0449
1136.38	165.749
1139.28	168.49
1142.17	126.255
1145.06	34.9599
1147.95	102.559
1150.85	175.364
1153.74	104.166
1156.63	118.306
1159.53	153.886
1162.42	86.4261
1165.31	69.4039
1168.2	161.328
1171.1	204.597
1173.99	220.914
1176.88	150.166
1179.77	121.91
1182.67	78.8298
1185.56	134.411
1188.45	150.277
1191.34	34.2505
1194.24	184.653
1197.13	134.373
1200.02	117.095
1202.91	87.868
1205.81	165.929
1208.7	105.415
1211.59	36.6415
1214.49	146.411
1217.38	46.6931
1220.27	174.269
1223.16	102.527
1226.06	105.162
1228.95	64.024
1231.84	168.767
1234.73	185.968
1237.63	82.8098
1240.52	50.9373
1243.41	123.366
1246.31	121.641
1249.2	88.0855
1252.09	135.504
1254.98	43.5477
1257.88	22.4218
1260.77	92.3779
1263.66	59.6776
1266.56	39.579
1269.45	20.1061
