Measurement: Raman, 532 nm, unoriented, Raman Data Processed
Mineral: Samuelsonite
Rruff sample: R080081
Ideal chemistry: Ca_9_Mn^2+^_4_Al_2_(PO_4_)_10_(OH)_2_
Locality: Buranga pegmatite,  Gatumba District,  Gisenyi Province,  Rwanda
Source: Michael Scott
Description: Golden brown, flattened, striated crystals associated with blue trolleite
Raman shift (cm-1)	intensity
154.065	0
156.957	4.28369
159.85	13.9333
162.743	30.4472
165.635	38.9676
168.528	40.6972
171.421	39.4543
174.313	34.0765
177.206	25.9137
180.099	16.4715
182.992	6.06839
185.884	1.55887
188.777	3.08853
191.67	2.65344
194.562	0.336151
197.455	6.7706
200.348	14.8739
203.24	27.0917
206.133	39.1673
209.026	51.2428
211.918	69.2093
214.811	79.2432
217.704	91.4692
220.596	102.248
223.489	108.655
226.382	109.39
229.275	103.826
232.167	91.457
235.06	75.6562
237.953	57.6648
240.845	46.3906
243.738	39.255
246.631	32.6336
249.524	27.1316
252.416	25.2765
255.309	27.2076
258.202	29.0678
261.094	34.0382
263.987	40.0819
266.88	44.26
269.772	49.7516
272.665	53.2444
275.558	55.8066
278.451	55.9447
281.343	52.2644
284.236	46.688
287.129	44.8475
290.021	45.0637
292.914	44.7661
295.807	45.2848
298.7	44.1502
301.592	44.6381
304.485	34.9977
307.378	28.479
310.27	17.3318
313.163	9.42514
316.056	2.5318
318.948	1.23538
321.841	2.30542
324.734	0.937805
327.627	3.15521
330.519	4.04184
333.412	8.06045
336.305	12.4619
339.197	12.9826
342.09	13.8331
344.983	13.3591
347.875	9.63431
350.768	7.03757
353.661	7.4173
356.553	8.43677
359.446	9.33597
362.339	12.5785
365.231	6.87161
368.124	3.95819
371.017	4.68381
373.91	7.28238
376.802	3.87466
379.695	0.959991
382.588	5.85513
385.48	13.0435
388.373	20.627
391.266	30.9598
394.159	46.0147
397.051	69.4828
399.944	100.721
402.837	135.591
405.729	180.566
408.622	221.938
411.515	250.528
414.407	246.173
417.3	208.799
420.193	173.2
423.086	152.253
425.978	146.996
428.871	154.333
431.764	170.334
434.656	188.807
437.549	214.175
440.442	234.453
443.334	242.368
446.227	245.249
449.12	254.749
452.012	260.372
454.905	268.523
457.798	276.085
460.691	275.74
463.583	254.508
466.476	221.53
469.369	181.525
472.261	146.201
475.154	117.457
478.047	99.1396
480.94	87.3855
483.832	86.9167
486.725	89.7206
489.618	92.5409
492.51	89.3694
495.403	81.6114
498.296	67.4295
501.188	51.9656
504.081	36.0512
506.974	23.2901
509.866	10.7767
512.759	4.14389
515.652	1.86334
518.545	6.48535
521.437	6.80896
524.33	7.04678
527.223	4.30475
530.115	0.149811
533.008	5.36868
535.901	8.80627
538.794	11.2766
541.686	17.1032
544.579	23.4652
547.472	30.7155
550.364	46.6227
553.257	66.1476
556.15	88.9863
559.043	114.04
561.935	140.124
564.828	159.893
567.721	172.37
570.613	178.174
573.506	181.482
576.399	177.756
579.291	175.109
582.184	183.145
585.077	200.026
587.969	200.682
590.862	171.949
593.755	145.929
596.648	137.489
599.54	140.03
602.433	132.054
605.326	120.597
608.218	109.997
611.111	102.651
614.004	104.258
616.896	110.596
619.789	115.082
622.682	118.605
625.574	118.852
628.467	123.588
631.36	123.989
634.253	126.179
637.145	110.388
640.038	79.9466
642.931	52.2386
645.823	32.6854
648.716	21.9765
651.609	11.9739
654.501	7.47144
657.394	3.60278
660.287	1.38003
663.18	0.602051
666.072	1.25446
668.965	1.36255
671.858	3.2511
674.75	3.59946
677.643	2.21939
680.536	0.639343
683.428	0.286865
686.321	0.771545
689.214	0.18985
692.107	0.628296
694.999	2.82413
697.892	1.11346
700.785	2.48573
703.677	2.2594
706.57	2.5311
709.463	4.15646
712.356	4.66751
715.248	2.90573
718.141	4.19739
721.034	4.88551
723.926	3.45265
726.819	2.75253
729.712	3.63347
732.604	2.9801
735.497	2.74701
738.39	2.33182
741.283	2.02493
744.175	2.87584
747.068	3.75322
749.961	3.5973
752.853	3.53099
755.746	3.53065
758.639	4.40352
761.531	4.40521
764.424	6.80035
767.317	5.22244
770.21	6.51492
773.102	4.19623
775.995	5.72968
778.888	4.14572
781.78	2.95438
784.673	6.04144
787.566	4.82782
790.458	3.90826
793.351	2.79886
796.244	2.17542
799.136	1.17859
802.029	1.82596
804.922	1.91486
807.815	2.18393
810.707	4.1395
813.6	4.35239
816.493	6.32825
819.385	9.22711
822.278	9.1748
825.171	11.5316
828.063	9.14572
830.956	10.7289
833.849	10.9468
836.742	10.0517
839.634	9.5936
842.527	8.73059
845.42	7.5531
848.312	6.99841
851.205	6.71503
854.098	6.90515
856.99	5.85785
859.883	3.89929
862.776	2.13733
865.669	0.062805
868.561	0.599426
871.454	3.69196
874.347	3.17322
877.239	1.51492
880.132	4.61038
883.025	10.6052
885.918	20.4537
888.81	38.4337
891.703	56.376
894.596	76.5304
897.488	98.4108
900.381	126.576
903.274	174.003
906.166	245.98
909.059	331.284
911.952	418.669
914.845	471.711
917.737	433.61
920.63	308.994
923.523	162.984
926.415	56.4633
929.308	2.4783
932.201	15.0906
935.093	5.59836
937.986	33.4484
940.879	116.276
943.771	265.698
946.664	499.704
949.557	804.488
952.45	1156.62
955.342	1388.52
958.235	1240.53
961.128	828.094
964.02	477.975
966.913	284.687
969.806	216.306
972.698	233.758
975.591	291.21
978.484	334.933
981.377	360.61
984.269	376.404
987.162	397.373
990.055	381.577
992.947	318.397
995.84	251.518
998.733	208.577
1001.63	185.347
1004.52	164.632
1007.41	136.962
1010.3	108.464
1013.2	93.6856
1016.09	87.4319
1018.98	79.6391
1021.87	56.6412
1024.77	30.7087
1027.66	9.4118
1030.55	0.492249
1033.44	0.2211
1036.34	6.47617
1039.23	15.0628
1042.12	16.7473
1045.02	16.3318
1047.91	11.6878
1050.8	4.87463
1053.69	4.7214
1056.59	6.45755
1059.48	6.6011
1062.37	11.6483
1065.27	13.9969
1068.16	17.0068
1071.05	16.6277
1073.94	13.2931
1076.84	9.0174
1079.73	5.99735
1082.62	2.74664
1085.51	1.30106
1088.41	3.11728
1091.3	5.599
1094.19	3.73044
1097.09	3.10529
1099.98	0.670258
1102.87	0.253052
1105.76	0.12912
1108.65	0.062286
1111.55	2.03775
1114.44	2.64969
1117.33	4.89893
1120.23	7.34451
1123.12	11.743
1126.01	14.8157
1128.9	20.7829
1131.8	26.6471
1134.69	34.0195
1137.58	40.8034
1140.47	48.9579
1143.37	58.6301
1146.26	62.1409
1149.15	63.9792
1152.05	59.8286
1154.94	55.9264
1157.83	52.7717
1160.72	50.2056
1163.62	45.7098
1166.51	38.5394
1169.4	30.9726
1172.3	26.0862
1175.19	17.9658
1178.08	13.8249
1180.97	11.0843
1183.87	6.88834
1186.76	6.4223
1189.65	5.34177
1192.54	4.95105
1195.44	3.96967
1198.33	4.9671
1201.22	2.34711
1204.12	3.23163
1207.01	2.11417
1209.9	4.54877
1212.79	3.05658
1215.68	6.86951
1218.58	4.08814
1221.47	3.77872
1224.36	5.55463
1227.26	5.25955
1230.15	6.38852
1233.04	7.09769
1235.93	6.25287
1238.83	6.25748
1241.72	6.01926
1244.61	5.33038
1247.51	5.9917
1250.4	4.52112
1253.29	5.56558
1256.18	3.10135
1259.08	2.05393
1261.97	2.40811
1264.86	2.55948
1267.75	1.82977
1270.65	0.469757
1273.54	1.00259
1276.43	0.643433
1279.33	1.12006
1282.22	4.68008
1285.11	0.932312
1288	1.4429
1290.9	0.65152
1293.79	1.72482
1296.68	1.04291
1299.57	0.204987
1302.47	0.3508
