Measurement: Raman, 780 nm, unoriented, Raman Data Processed
Mineral: Samuelsonite
Rruff sample: R080081
Ideal chemistry: Ca_9_Mn^2+^_4_Al_2_(PO_4_)_10_(OH)_2_
Locality: Buranga pegmatite,  Gatumba District,  Gisenyi Province,  Rwanda
Source: Michael Scott
Description: Golden brown, flattened, striated crystals associated with blue trolleite
Raman shift (cm-1)	intensity
155.681	0
158.573	0.90078
161.466	1.42659
164.359	3.99544
167.251	4.34075
170.144	5.9305
173.037	6.16575
175.93	7.60229
178.822	5.53728
181.715	3.67303
184.608	2.18299
187.5	0.20755
190.393	0.593727
193.286	1.66491
196.179	0.235779
199.071	2.26697
201.964	3.62847
204.857	8.83711
207.749	14.8918
210.642	20.9264
213.535	28.2034
216.427	34.508
219.32	39.6758
222.213	42.6294
225.106	45.1278
227.998	44.0936
230.891	39.4841
233.784	33.0007
236.676	26.6097
239.569	22.0716
242.462	15.4864
245.354	12.9968
248.247	9.88737
251.14	8.74034
254.032	7.63358
256.925	8.93768
259.818	11.6844
262.711	13.7225
265.603	15.1126
268.496	17.3022
271.389	20.0555
274.281	22.5069
277.174	23.8332
280.067	24.1897
282.959	23.6177
285.852	22.6442
288.745	22.4308
291.638	22.1681
294.53	21.7833
297.423	20.4552
300.316	18.4815
303.208	17.4564
306.101	15.4218
308.994	13.8049
311.887	9.96785
314.779	9.23703
317.672	6.75912
320.565	6.41886
323.457	5.73608
326.35	6.01913
329.243	4.66328
332.135	3.92294
335.028	3.20654
337.921	2.93736
340.813	3.55201
343.706	1.79591
346.599	2.32489
349.492	1.6699
352.384	0.870548
355.277	0.853214
358.17	0.861679
361.062	0.863476
363.955	0.215786
366.848	1.5271
369.74	2.4289
372.633	1.94923
375.526	0.925472
378.419	0.479939
381.311	1.26017
384.204	1.73821
387.097	4.92397
389.989	7.07393
392.882	11.9228
395.775	17.7091
398.668	25.1077
401.56	32.8142
404.453	42.8762
407.346	55.027
410.238	63.2721
413.131	66.5389
416.024	60.631
418.916	45.8276
421.809	37.7978
424.702	32.3868
427.594	29.868
430.487	29.2465
433.38	31.4219
436.273	34.6644
439.165	37.8989
442.058	40.6444
444.951	41.4445
447.843	41.1287
450.736	42.3726
453.629	42.7953
456.522	45.8046
459.414	47.0919
462.307	45.6849
465.2	40.9928
468.092	35.036
470.985	29.8833
473.878	28.6186
476.77	27.3731
479.663	26.9572
482.556	30.0647
485.449	33.6311
488.341	37.5847
491.234	40.9031
494.127	41.6748
497.019	39.7394
499.912	34.3739
502.805	27.3073
505.697	20.0614
508.59	13.5525
511.483	7.55151
514.375	3.24125
517.268	0.705791
520.161	0.963993
523.054	1.29084
525.946	1.5132
528.839	1.40682
531.732	0.552597
534.624	0.281136
537.517	0.190639
540.41	1.44955
543.303	2.77957
546.195	3.8951
549.088	7.10891
551.981	10.9525
554.873	17.2152
557.766	23.3464
560.659	29.4112
563.551	32.9528
566.444	36.1206
569.337	37.7761
572.23	41.4081
575.122	45.4856
578.015	50.4761
580.908	57.3477
583.8	67.9183
586.693	74.9734
589.586	62.9554
592.478	45.4336
595.371	34.737
598.264	30.6833
601.156	28.0826
604.049	25.9161
606.942	24.1354
609.835	22.1565
612.727	22.7026
615.62	24.3025
618.513	28.7057
621.405	34.6334
624.298	41.4543
627.191	47.5369
630.083	53.8634
632.976	62.1277
635.869	62.3661
638.761	46.6444
641.654	28.4433
644.547	17.4326
647.44	11.521
650.332	7.54443
653.225	5.57795
656.118	3.78704
659.01	2.64154
661.903	1.01215
664.796	0.487118
667.688	0.259808
670.581	0.117897
673.474	0.565857
676.367	0.176731
679.259	0.282825
682.152	0.097622
685.045	0.243332
687.937	0.768482
690.83	0.620853
693.723	0.160862
696.615	0.665848
699.508	0.070393
702.401	0.732197
705.294	0.201363
708.186	0.417976
711.079	1.51498
713.972	1.12817
716.864	1.28268
719.757	1.50701
722.65	1.98348
725.543	1.99368
728.435	1.81913
731.328	1.65893
734.221	1.57454
737.113	2.15005
740.006	1.85556
742.899	1.77476
745.791	2.13473
748.684	2.37169
751.577	2.55157
754.47	2.16919
757.362	1.78136
760.255	2.03888
763.148	1.59033
766.04	1.75951
768.933	1.80439
771.826	1.73009
774.718	1.80491
777.611	1.96834
780.504	1.94782
783.396	2.19914
786.289	2.88234
789.182	2.46035
792.075	3.22832
794.967	2.84679
797.86	3.2042
800.753	3.45364
803.645	2.93036
806.538	3.77627
809.431	4.02799
812.323	5.03018
815.216	5.26224
818.109	4.96094
821.002	4.8979
823.894	4.89321
826.787	4.27011
829.68	4.15217
832.572	3.78408
835.465	3.55699
838.358	2.94532
841.25	2.34911
844.143	1.54877
847.036	1.03286
849.929	0.794762
852.821	0.719814
855.714	0.215805
858.607	0.5284
861.5	0.392639
864.392	1.13597
867.285	0.773602
870.178	1.07652
873.07	0.305004
875.963	0.463718
878.856	0.550716
881.748	2.51724
884.641	5.85503
887.534	9.32841
890.427	14.1448
893.319	19.0976
896.212	26.3382
899.105	33.6316
901.997	44.8146
904.89	60.761
907.783	78.19
910.675	97.2721
913.568	108.226
916.461	102.241
919.353	74.7014
922.246	41.3888
925.139	14.6565
928.032	1.43046
930.924	3.27326
933.817	0.149879
936.71	11.5214
939.602	31.0512
942.495	63.4473
945.388	105.768
948.28	159.152
951.173	223.127
954.066	274.698
956.958	265.932
959.851	192.469
962.744	114.757
965.637	66.7105
968.529	45.9136
971.422	45.2591
974.315	58.0515
977.207	71.2984
980.1	78.5542
982.993	81.7156
985.885	85.8423
988.778	86.8213
991.671	76.9519
994.564	59.9522
997.456	48.3614
1000.35	42.4396
1003.24	39.174
1006.13	35.2453
1009.03	28.3325
1011.92	23.5415
1014.81	20.4247
1017.71	18.4389
1020.6	14.2289
1023.49	10.1308
1026.38	6.04572
1029.28	4.02491
1032.17	4.76875
1035.06	5.37555
1037.95	7.32272
1040.85	7.69111
1043.74	7.34019
1046.63	5.83276
1049.53	2.30346
1052.42	0.034317
1055.31	0.809109
1058.2	2.39043
1061.1	1.03107
1063.99	0.93536
1066.88	0.265835
1069.77	0.505131
1072.67	0.270695
1075.56	0.137955
1078.45	1.02832
1081.35	2.10397
1084.24	1.95424
1087.13	2.22918
1090.02	1.68586
1092.91	1.23328
1095.81	0.24017
1098.7	0.44492
1101.59	0.332874
1104.49	1.11243
1107.38	1.09437
1110.27	1.27382
1113.16	2.02034
1116.06	2.79068
1118.95	3.60321
1121.84	3.50507
1124.73	4.37603
1127.63	4.80944
1130.52	5.37529
1133.41	5.99176
1136.31	7.30482
1139.2	8.13327
1142.09	8.61187
1144.98	8.41277
1147.88	9.52549
1150.77	8.88
1153.66	7.69923
1156.56	6.90457
1159.45	5.83464
1162.34	4.49512
1165.23	4.32994
1168.13	4.13987
1171.02	2.99589
1173.91	2.41019
1176.8	2.00745
1179.7	1.38664
1182.59	1.11898
1185.48	0.71703
1188.38	0.884573
1191.27	0.060108
1194.16	0.022488
1197.05	0.422213
1199.94	0.059704
1202.84	0.301247
1205.73	0.061777
1208.62	0.395761
1211.52	0.377985
1214.41	0.555573
1217.3	1.10401
1220.19	0.989906
1223.09	0.737339
1225.98	1.11024
1228.87	1.15796
1231.77	1.53994
1234.66	0.951492
1237.55	1.9701
1240.44	1.11176
1243.34	1.39785
1246.23	1.14735
1249.12	0.962152
1252.01	0.65201
1254.91	0.685228
1257.8	0.811354
1260.69	0.765516
1263.59	0.541216
1266.48	0.128586
1269.37	0.653303
1272.26	0.446157
1275.16	0.403355
1278.05	0.722677
1280.94	0.734423
1283.83	0.042366
