Measurement: Raman, 532 nm, unoriented, Raman Data Processed
Mineral: Sanbornite
Rruff sample: R050001
Ideal chemistry: BaSi_2_O_5_
Locality: Empire #1 mine, Fresno County, California, USA
Source: University of Arizona Mineral Museum
Description: An aggregate of white to colorless pearly anhedral plates
Measured chemistry: Ba_1.00_Si_2.00_O_5_
Raman shift (cm-1)	intensity
123.145	0
126.52	2.93942
129.895	50.5759
133.27	115.36
136.645	223.831
140.019	378.691
143.394	636.882
146.769	1100.43
150.144	1124.63
153.519	515.155
156.894	221.602
160.268	104.907
163.643	69.6082
167.018	50.0826
170.393	28.0953
173.768	16.1913
177.143	20.9702
180.517	41.3156
183.892	56.7825
187.267	112.24
190.642	193.935
194.017	222.021
197.391	266.09
200.766	182.832
204.141	36.1071
207.516	14.4505
210.891	3.87756
214.266	2.35263
217.64	15.6655
221.015	50.8389
224.39	38.9607
227.765	8.71857
231.14	20.9104
234.514	22.4611
237.889	5.55853
241.264	36.9392
244.639	81.2334
248.014	171.153
251.388	299.215
254.763	541.618
258.138	899.915
261.513	1533.55
264.888	2619.98
268.263	3208.2
271.637	1784.18
275.012	1092.61
278.387	1143.08
281.762	1464.98
285.137	2025.98
288.512	2735.2
291.886	3005.3
295.261	2334.36
298.636	1359.35
302.011	724.266
305.386	413.403
308.76	294.761
312.135	279.399
315.51	468.771
318.885	896.54
322.26	1503.89
325.635	2863.89
329.009	5348.16
332.384	10114
335.759	3857.31
339.134	1090.68
342.509	524.907
345.883	255.862
349.258	111.865
352.633	53.1745
356.008	14.428
359.383	6.22543
362.757	6.0936
366.132	1.17307
369.507	0.272339
372.882	6.27548
376.257	3.23325
379.632	10.8866
383.006	9.78687
386.381	13.14
389.756	0.211212
393.131	7.53851
396.506	5.81213
399.88	2.76163
403.255	0.352203
406.63	1.39526
410.005	0.872559
413.38	5.43146
416.755	14.9768
420.129	7.28915
423.504	6.22201
426.879	0.233429
430.254	4.82965
433.629	8.57758
437.003	8.47748
440.378	60.3404
443.753	148.371
447.128	329.25
450.503	651.539
453.878	1085.52
457.252	733.462
460.627	575.115
464.002	411.4
467.377	546.293
470.752	913.52
474.127	1860.87
477.501	2181.28
480.876	347.454
484.251	148.371
487.626	201.28
491.001	378.137
494.375	330.012
497.75	61.5207
501.125	10.1776
504.5	58.553
507.875	88.741
511.25	205.923
514.624	372.676
517.999	717.254
521.374	1384.44
524.749	2512.64
528.124	4179.48
531.498	6557.88
534.873	7986.6
538.248	5073.35
541.623	2311.89
544.998	1156.01
548.372	592.18
551.747	381.273
555.122	230.528
558.497	140.534
561.872	90.0362
565.247	73.6208
568.621	54.2083
571.996	15.7504
575.371	24.2869
578.746	15.7451
582.121	5.51849
585.495	2.36169
588.87	5.30194
592.245	8.37936
595.62	23.9706
598.995	21.8708
602.37	11.0571
605.744	0.123108
609.119	1.74734
612.494	2.29791
615.869	1.70633
619.244	3.92288
622.619	5.51721
625.993	24.707
629.368	0.482361
632.743	16.4486
636.118	20.0214
639.493	26.8783
642.867	26.3828
646.242	44.8599
649.617	40.303
652.992	26.1197
656.367	25.227
659.741	21.9688
663.116	27.1089
666.491	15.3981
669.866	12.6994
673.241	7.82803
676.616	9.90079
679.99	4.38794
683.365	21.6477
686.74	5.31085
690.115	18.2123
693.49	13.3604
696.865	2.06869
700.239	18.0811
703.614	13.658
706.989	8.12659
710.364	13.8051
713.739	9.58395
717.113	15.2103
720.488	0.640106
723.863	1.32111
727.238	4.71515
730.613	12.988
733.987	25.9093
737.362	46.7245
740.737	70.1085
744.112	131.613
747.487	229.215
750.862	380.963
754.236	552.431
757.611	517.14
760.986	304.125
764.361	171.236
767.736	102.904
771.111	73.8019
774.485	51.867
777.86	36.2274
781.235	42.2953
784.61	38.6395
787.985	26.1827
791.359	19.7682
794.734	31.6606
798.109	24.1265
801.484	4.09961
804.859	14.842
808.234	7.26544
811.608	0.256744
814.983	17.1273
818.358	8.69482
821.733	1.0834
825.108	3.12488
828.482	7.71829
831.857	3.79398
835.232	6.07935
838.607	10.2926
841.982	0.27951
845.356	21.5945
848.731	11.7881
852.106	9.62415
855.481	21.009
858.856	22.154
862.231	7.83377
865.605	5.10034
868.98	19.3184
872.355	6.60242
875.73	12.5492
879.105	14.0442
882.48	28.3069
885.854	27.6132
889.229	25.4693
892.604	4.08929
895.979	10.5453
899.354	19.2707
902.729	27.9836
906.103	16.5253
909.478	29.1564
912.853	19.0394
916.228	29.5619
919.602	15.3036
922.977	22.5803
926.352	13.8723
929.727	18.7763
933.102	20.9726
936.477	16.7592
939.851	17.8692
943.226	19.3604
946.601	23.584
949.976	14.502
953.351	1.06647
956.726	5.77216
960.1	0.114258
963.475	6.12347
966.85	20.3698
970.225	29.4348
973.6	40.3605
976.974	69.7909
980.349	72.557
983.724	120.489
987.099	237.126
990.474	424.041
993.848	839.099
997.223	1501.47
1000.6	1225.03
1003.97	364.934
1007.35	130.506
1010.72	65.202
1014.1	50.4175
1017.47	42.6009
1020.85	14.2316
1024.22	20.6438
1027.6	2.4516
1030.97	7.82483
1034.35	9.0885
1037.72	20.2186
1041.1	57.1937
1044.47	53.7684
1047.85	94.6906
1051.22	147.56
1054.6	239.994
1057.97	361.673
1061.35	665.046
1064.72	1392.02
1068.09	3563.29
1071.47	7834.21
1074.84	15033.8
1078.22	13707
1081.59	4075.7
1084.97	1563.82
1088.34	887.324
1091.72	667.679
1095.09	681.861
1098.47	830.382
1101.84	471.321
1105.22	187.11
1108.59	130.048
1111.97	75.7579
1115.34	61.0193
1118.72	31.957
1122.09	11.8533
1125.47	26.5012
1128.84	4.46069
1132.22	8.52234
1135.59	8.40515
1138.97	2.75311
1142.34	4.72223
1145.71	9.16321
1149.09	1.57965
1152.46	5.75403
1155.84	6.03247
1159.21	14.5844
1162.59	7.21845
1165.96	23.9078
1169.34	39.4905
1172.71	2.64685
1176.09	20.5202
1179.46	24.8419
1182.84	27.5916
1186.21	15.4509
1189.59	21.4467
1192.96	28.0757
1196.34	30.5587
1199.71	31.384
1203.09	29.827
1206.46	15.6798
1209.84	14.584
1213.21	17.9226
1216.59	6.64984
1219.96	26.391
1223.34	25.1184
1226.71	9.8053
1230.09	3.07214
1233.46	28.9236
1236.84	17.9648
1240.21	6.02063
1243.59	13.0493
1246.96	15.3137
1250.34	18.7652
1253.71	13.9197
1257.08	19.9346
1260.46	13.728
1263.83	21.9185
1267.21	13.6795
1270.58	13.5449
1273.96	4.21002
1277.33	27.7598
1280.71	5.58136
1284.08	4.50604
1287.46	20.7832
1290.83	16.0278
1294.21	17.1561
1297.58	32.4619
1300.96	0
