Measurement: Raman, 532 nm, unoriented, Raman Data Processed
Mineral: Sanbornite
Rruff sample: R060489
Ideal chemistry: BaSi_2_O_5_
Locality: Big Creek, Fresno County, California, USA
Source: Michael Scott
Description: Colorless cleavage plate
Measured chemistry: Ba_1.00_Si_1.97_O_5_
Raman shift (cm-1)	intensity
88.256	0
91.631	22.98
95.005	68.906
98.38	24.362
101.755	7.484
105.13	11.68
108.505	107.504
111.879	606.58
115.254	1529.64
118.629	3768.24
122.004	5689
125.379	3245.86
128.753	1432.63
132.128	922.041
135.503	877.434
138.878	1211.07
142.253	1974.05
145.628	3518.8
149.002	5015.33
152.377	2531.72
155.752	1056.27
159.127	501.318
162.502	342.887
165.876	192.73
169.251	119.223
172.626	54.608
176.001	71.462
179.376	113.77
182.751	221.067
186.125	384.187
189.5	642.817
192.875	1056.82
196.25	1617.04
199.625	1773.89
202.999	779.816
206.374	250.359
209.749	77.694
213.124	22.822
216.499	2.254
219.874	0.883
223.248	5.748
226.623	3.154
229.998	40.497
233.373	52.365
236.748	27.719
240.122	14.341
243.497	96.636
246.872	242.492
250.247	402.956
253.622	738.195
256.997	1414.47
260.371	2740.66
263.746	4971.17
267.121	8434.8
270.496	6255.79
273.871	3210.7
277.246	2556.76
280.62	3080.35
283.995	4455.75
287.37	6550.72
290.745	8632.78
294.12	8008.79
297.494	5073.09
300.869	2738.42
304.244	1527.44
307.619	944.353
310.994	661.915
314.369	614.34
317.743	806.112
321.118	1720.18
324.493	3914.23
327.868	8136.9
331.243	21992.7
334.617	18041
337.992	4095.7
341.367	1700.31
344.742	1151.58
348.117	424.818
351.491	237.351
354.866	123.554
358.241	60.014
361.616	16.626
364.991	6.919
368.366	8.14
371.741	1.698
375.115	7.543
378.49	0.388
381.865	0.835
385.24	10.962
388.615	8.268
391.989	17.28
395.364	4.654
398.739	4.089
402.114	2.919
405.489	4.968
408.863	8.382
412.238	0.4
415.613	12.945
418.988	4.349
422.363	22.777
425.738	27.241
429.112	12.878
432.487	19.492
435.862	7.268
439.237	66.553
442.612	220.136
445.987	520.066
449.361	1097.37
452.736	1809.74
456.111	2536.53
459.486	2821.92
462.861	1454.83
466.235	1044.07
469.61	1366.71
472.985	2936.31
476.36	7806.31
479.735	1655.08
483.109	390.807
486.484	305.364
489.859	578.651
493.234	1048.89
496.609	321.817
499.984	134.901
503.358	210.606
506.733	333.115
510.108	579.928
513.483	1014.09
516.858	1768.5
520.232	3180.56
523.607	5770.25
526.982	10190.6
530.357	18009.2
533.732	28252.9
537.107	23483.2
540.481	11179.2
543.856	5326.4
547.231	2850.96
550.606	1653.13
553.981	1030.55
557.356	642.654
560.73	481.92
564.105	305.248
567.48	241.28
570.855	164.004
574.23	113.172
577.604	75.914
580.979	47.485
584.354	11.521
587.729	7.816
591.104	6.724
594.479	5.623
597.853	4.519
601.228	27.571
604.603	26.22
607.978	11.527
611.353	14.684
614.727	9.188
618.102	19.379
621.477	33.165
624.852	13.783
628.227	24.225
631.602	57.826
634.976	44.649
638.351	55.369
641.726	51.827
645.101	40.591
648.476	51.464
651.851	62.505
655.225	77.228
658.6	57.654
661.975	41.873
665.35	39.726
668.724	19.236
672.099	24.65
675.474	2.557
678.849	27.606
682.224	18.696
685.599	14.272
688.973	1.288
692.348	11.761
695.723	23.42
699.098	10.56
702.473	34.851
705.847	27.543
709.222	27.202
712.597	5.929
715.972	27.177
719.347	28.879
722.722	25.609
726.096	23.42
729.471	17.498
732.846	39.376
736.221	57.386
739.596	71.623
742.971	162.166
746.345	269.348
749.72	513.99
753.095	883.868
756.47	1075.3
759.845	826.386
763.219	415.899
766.594	218.273
769.969	162.755
773.344	101.018
776.719	76.159
780.094	87.582
783.468	50.049
786.843	50.605
790.218	52.024
793.593	22.13
796.968	31.803
800.343	16.3
803.717	22.634
807.092	17.885
810.467	1.642
813.842	8.399
817.217	1.742
820.591	3.302
823.966	0.979
827.341	5.989
830.716	10.445
834.091	3.58
837.466	17.656
840.84	3.916
844.215	23.223
847.59	12.787
850.965	13.017
854.34	19.956
857.714	20.342
861.089	23.358
864.464	13.636
867.839	15.79
871.214	35.251
874.589	28.25
877.963	22.686
881.338	30.312
884.713	31.901
888.088	23.97
891.463	22.704
894.837	3.949
898.212	16.824
901.587	37.37
904.962	51.74
908.337	48.983
911.711	63.464
915.086	54.529
918.461	68.719
921.836	42.741
925.211	40.144
928.586	60.694
931.96	39.864
935.335	9.272
938.71	30.467
942.085	7.681
945.46	13.245
948.834	17.318
952.209	4.931
955.584	2.06
958.959	13.758
962.334	20.673
965.709	7.036
969.083	1.025
972.458	38.993
975.833	101.077
979.208	119.366
982.583	211.988
985.958	367.535
989.332	539.446
992.707	1002.5
996.082	2298.43
999.457	3688.16
1002.83	1290.12
1006.21	401.16
1009.58	164.556
1012.96	93.373
1016.33	52.6
1019.71	28.67
1023.08	25.062
1026.45	14.673
1029.83	14.577
1033.2	9.533
1036.58	35.11
1039.95	99.183
1043.33	182.357
1046.7	265.769
1050.08	444.544
1053.45	685.928
1056.83	1057.82
1060.2	1740.77
1063.58	3279.61
1066.95	7038.75
1070.33	15127.1
1073.7	36165.4
1077.08	70267.4
1080.45	24124.4
1083.83	7762
1087.2	3809.65
1090.58	2324.96
1093.95	1756.22
1097.33	1856.36
1100.7	1625.49
1104.08	733.422
1107.45	415.55
1110.83	297.454
1114.2	191.482
1117.58	137.832
1120.95	94.12
1124.33	62.844
1127.7	42.364
1131.08	22.96
1134.45	17.045
1137.82	12.987
1141.2	7.107
1144.57	9.112
1147.95	4.721
1151.32	2.62
1154.7	16.367
1158.07	3.362
1161.45	1.792
1164.82	6.381
1168.2	16.999
1171.57	28.874
1174.95	25.323
1178.32	19.113
1181.7	23.952
1185.07	27.396
1188.45	31.521
1191.82	48.019
1195.2	37.927
1198.57	55.058
1201.95	42.625
1205.32	52.085
1208.7	57.689
1212.07	52.075
1215.44	51.645
1218.82	45.788
1222.19	28.651
1225.57	29.756
1228.94	31.96
1232.32	21.507
1235.69	15.831
1239.07	22.421
1242.44	33.695
1245.82	25.357
1249.19	26.724
1252.57	33.679
1255.94	18.285
1259.32	13.764
1262.69	0.146
1266.07	12.177
1269.44	7.696
1272.82	25.543
1276.19	5.234
1279.57	30.825
1282.94	1.438
1286.32	1.713
1289.69	18.077
1293.07	14.92
1296.44	6.663
1299.82	0
