Measurement: Raman, 514 nm, unoriented, Raman Data Processed
Mineral: Sanbornite
Rruff sample: R050001
Ideal chemistry: BaSi_2_O_5_
Locality: Empire #1 mine, Fresno County, California, USA
Source: University of Arizona Mineral Museum
Description: An aggregate of white to colorless pearly anhedral plates
Measured chemistry: Ba_1.00_Si_2.00_O_5_
Raman shift (cm-1)	intensity
101.732	0
105.908	220.687
110.082	2382.08
114.254	6508.22
118.424	3769.95
122.592	2747.47
126.758	1390.81
130.922	783.908
135.083	1009.53
139.243	1420.71
143.401	2238.12
147.557	1850.78
151.711	994.82
155.863	632.964
160.013	334.366
164.161	322.431
168.308	244.624
172.452	207.332
176.594	210.371
180.734	357.654
184.872	513.226
189.008	1102.12
193.143	1439.31
197.275	1165.93
201.405	1006.06
205.534	549.834
209.66	472.327
213.784	439.438
217.907	747.627
222.027	1241.59
226.146	1449.38
230.263	826.881
234.377	408.147
238.49	257.289
242.601	138.609
246.709	216.082
250.816	350.044
254.921	130.415
259.024	109.104
263.125	419.371
267.224	742.523
271.321	525.511
275.416	359.594
279.51	346.285
283.601	529.904
287.69	976.358
291.778	1376.57
295.863	1352.2
299.947	628.023
304.029	326.824
308.108	222.477
312.186	210.841
316.262	458.817
320.336	291.315
324.408	246.386
328.478	766.027
332.546	1675.71
336.612	1051.28
340.677	571.928
344.739	151.607
348.799	16.617
352.858	55.26
356.915	54.994
360.969	44.818
365.022	137.275
369.073	60.428
373.122	53.664
377.169	190
381.215	146.82
385.258	110.842
389.299	305.869
393.339	60.936
397.376	120.727
401.412	144.166
405.446	230.338
409.478	8.492
413.508	45.617
417.536	94.062
421.562	84.514
425.586	117.469
429.609	160.99
433.629	44.475
437.648	128.797
441.665	150.049
445.68	165.18
449.693	296.24
453.704	385.26
457.713	745.957
461.721	566.812
465.726	250.393
469.73	177.492
473.731	529.152
477.731	922.68
481.729	199.844
485.725	96.818
489.72	184.627
493.712	231.363
497.703	22.57
501.691	349.119
505.678	148.943
509.663	350.109
513.646	472.076
517.627	587.934
521.607	935.92
525.584	1609.16
529.56	3711.86
533.534	7154.29
537.506	7447
541.476	3717.31
545.444	1469.42
549.41	871.736
553.375	532.072
557.337	386.223
561.298	348.414
565.257	293.432
569.214	535.312
573.17	249.363
577.123	268.475
581.075	100.426
585.024	337.703
588.972	296.873
592.918	454.512
596.863	813.906
600.805	509.186
604.746	285.162
608.685	329.078
612.621	116.582
616.557	429.709
620.49	328.77
624.421	594.285
628.351	95.775
632.279	94.125
636.205	452.973
640.129	312.562
644.051	441.965
647.972	293.889
651.89	285.041
655.807	367.441
659.722	341.926
663.636	137.336
667.547	133.871
671.457	72.559
675.365	361.117
679.271	236.291
683.175	8.826
687.077	260.277
690.978	194.594
694.877	265.072
698.774	282.799
702.669	205.783
706.562	409.064
710.454	40.213
714.344	548.08
718.232	22.014
722.118	249.246
726.002	199.59
729.885	73.107
733.766	164.473
737.645	175.92
741.522	447.016
745.397	261.01
749.271	72.041
753.143	260.287
757.013	408.619
760.881	2.527
764.748	326.162
768.613	518.811
772.476	363.963
776.337	1.875
780.196	223.705
784.054	171.475
787.91	451.754
791.764	108.75
795.616	14.502
799.467	279.025
803.316	318.291
807.163	242.785
811.008	122.977
814.851	33.072
818.693	11.4
822.533	205.023
826.371	143.873
830.208	133.107
834.042	77.771
837.875	246.514
841.706	243.689
845.536	200.125
849.363	394.863
853.189	311.854
857.013	234.035
860.836	173.293
864.656	75.707
868.475	390.711
872.292	11.445
876.108	350.234
879.922	480.723
883.733	156.76
887.544	128.414
891.352	89.945
895.159	113.988
898.964	90.535
902.767	278.691
906.568	89.605
910.368	299.547
914.166	574.891
917.962	469.449
921.757	403.469
925.55	453.449
929.341	413.707
933.13	361.793
936.918	430.957
940.703	200.332
944.488	292.949
948.27	193.777
952.051	384.906
955.83	165.711
959.607	449.867
963.383	276.023
967.156	276.367
970.928	323.805
974.699	423.434
978.468	416.641
982.234	527.723
986	145.75
989.763	334.676
993.525	552.219
997.285	875.773
1001.04	469.637
1004.8	544.758
1008.55	681.246
1012.31	498.68
1016.06	390.875
1019.81	670.867
1023.56	740.262
1027.31	392.648
1031.05	912.879
1034.79	607.977
1038.53	837.984
1042.27	989.16
1046.01	884.18
1049.75	1028.19
1053.48	1054.4
1057.22	671.148
1060.95	1049.84
1064.68	1252.34
1068.4	1580.34
1072.13	3337.33
1075.86	12204.6
1079.58	15239.5
1083.3	4985.08
1087.02	2466.51
1090.74	1565.19
1094.45	895.953
1098.17	550.688
1101.88	870.621
1105.59	521.637
1109.3	546.188
1113.01	365.145
1116.71	192.887
1120.42	358.195
1124.12	694.391
1127.82	183.676
1131.52	210.719
1135.22	232.023
1138.91	235.312
1142.61	109.348
1146.3	365.812
1149.99	243.09
1153.68	102.281
1157.37	191.781
1161.06	52.695
1164.74	97.172
1168.42	140.363
1172.1	481.637
1175.78	330.066
1179.46	10.547
1183.14	32.73
1186.81	40.586
1190.48	219.098
1194.15	419.215
1197.83	142.062
1201.49	491.988
1205.16	128.5
1208.82	305.777
1212.49	411.609
1216.15	211.07
1219.81	568.148
1223.46	506.844
1227.12	805.152
1230.78	703.508
1234.43	223.414
1238.08	313.496
1241.73	819.68
1245.38	555.305
1249.03	521.559
1252.67	330.934
1256.31	282.738
1259.95	672.406
1263.6	270.004
1267.23	438.152
1270.87	637.57
1274.51	505.754
1278.14	505.621
1281.77	381.648
1285.4	221.301
1289.03	192.059
1292.66	684.043
1296.28	424.848
1299.91	509.102
1303.53	387.934
1307.15	241.367
1310.77	154.945
1314.38	286.879
1318	591.812
1321.61	646.238
1325.23	466.141
1328.84	314.992
1332.45	553.648
1336.06	535.598
1339.66	465.668
1343.27	318.621
1346.87	287.609
