Measurement: Raman, 780 nm, unoriented, Raman Data Processed
Mineral: Sanbornite
Rruff sample: R060489
Ideal chemistry: BaSi_2_O_5_
Locality: Big Creek, Fresno County, California, USA
Source: Michael Scott
Description: Colorless cleavage plate
Measured chemistry: Ba_1.00_Si_1.97_O_5_
Raman shift (cm-1)	intensity
91.5599	0
94.9347	38.5071
98.3096	60.9906
101.684	454.663
105.059	1583.13
108.434	210.361
111.809	16.843
115.184	35.2237
118.558	153.497
121.933	316.85
125.308	239.131
128.683	58.9554
132.058	49.1123
135.433	121.256
138.807	262.653
142.182	520.062
145.557	1059.12
148.932	2005.31
152.307	1668.57
155.681	588.06
159.056	222.859
162.431	102.468
165.806	45.6996
169.181	20.4714
172.555	0.718964
175.93	15.8067
179.305	12.7152
182.68	8.49075
186.055	4.93842
189.43	17.5216
192.804	34.9652
196.179	57.3393
199.554	77.838
202.929	43.7313
206.304	12.046
209.678	0.114136
213.053	3.91928
216.428	6.74182
219.803	13.1632
223.178	15.0513
226.553	15.8044
229.927	10.517
233.302	3.453
236.677	1.04858
240.052	3.94342
243.427	24.7795
246.801	77.4803
250.176	163.917
253.551	259.01
256.926	400.547
260.301	668.602
263.675	1195.07
267.05	2176.12
270.425	2524.68
273.8	1332.97
277.175	828.088
280.55	794.068
283.924	1004.86
287.299	1431.46
290.674	2027
294.049	2260.32
297.424	1729.02
300.798	970.411
304.173	502.499
307.548	273.285
310.923	194.926
314.298	236.77
317.673	412.274
321.047	529.836
324.422	865.252
327.797	1637.79
331.172	3787.21
334.547	6833.03
337.921	2398.9
341.296	706.445
344.671	344.433
348.046	151.168
351.421	70.9712
354.796	30.4532
358.17	10.6677
361.545	4.47408
364.92	7.38385
368.295	11.29
371.67	9.22421
375.044	6.37099
378.419	1.06404
381.794	0.591705
385.169	5.09918
388.544	7.34914
391.918	10.858
395.293	14.8122
398.668	17.2927
402.043	19.5535
405.418	23.7415
408.793	25.5546
412.167	24.8964
415.542	23.2852
418.917	21.7136
422.292	16.0809
425.667	7.55035
429.041	0.996429
432.416	6.44266
435.791	7.07936
439.166	4.33922
442.541	19.5079
445.915	52.94
449.29	125.978
452.665	342.027
456.04	519.126
459.415	369.018
462.789	323.358
466.164	213.835
469.539	267.267
472.914	535.959
476.289	1517.99
479.664	1540.59
483.038	258.273
486.413	103.043
489.788	117.566
493.163	230.825
496.538	178.864
499.913	37.2185
503.287	14.9397
506.662	22.1316
510.037	51.3177
513.412	98.8151
516.787	192.813
520.161	357.928
523.536	601.892
526.911	1012.61
530.286	1791.2
533.661	3109.2
537.035	3855.24
540.41	2405.54
543.785	1099.65
547.16	538.457
550.535	295.912
553.909	176.466
557.284	110.963
560.659	70.5789
564.034	48.0262
567.409	30.46
570.784	21.9171
574.158	16.6696
577.533	10.4264
580.908	8.28323
584.283	1.50275
587.658	0.917435
591.033	3.34252
594.407	3.51803
597.782	2.02699
601.157	1.9249
604.532	3.81838
607.907	3.7003
611.281	0.992889
614.656	1.13314
618.031	4.38513
621.406	4.59211
624.781	7.79535
628.155	8.03634
631.53	8.73069
634.905	12.4822
638.28	13.7877
641.655	12.1455
645.029	13.8202
648.404	14.2616
651.779	15.2683
655.154	13.4004
658.529	12.3681
661.904	10.4265
665.278	7.88216
668.653	4.75999
672.028	3.37184
675.403	1.91642
678.778	1.72175
682.153	2.39953
685.527	2.36178
688.902	3.73874
692.277	2.06098
695.652	1.06455
699.027	1.2791
702.401	3.55881
705.776	0.089813
709.151	1.20438
712.526	1.84679
715.901	0.91227
719.275	1.58278
722.65	0.909576
726.025	1.96619
729.4	2.03641
732.775	3.91334
736.149	5.5452
739.524	11.9796
742.899	24.5097
746.274	44.7222
749.649	84.9607
753.024	164.8
756.398	239.248
759.773	208.536
763.148	121.493
766.523	60.9861
769.898	34.6936
773.273	23.6535
776.647	14.8663
780.022	10.1522
783.397	8.80798
786.772	5.32709
790.146	4.06656
793.521	3.63242
796.896	2.74881
800.271	1.64082
803.646	2.15435
807.021	0.746933
810.395	1.34096
813.77	0.006424
817.145	0.693138
820.52	0.398438
823.895	0.87999
827.269	1.66686
830.644	1.75993
834.019	1.89613
837.394	1.76785
840.769	3.00341
844.144	4.01975
847.518	5.51368
850.893	5.4053
854.268	5.08684
857.643	4.04603
861.018	4.86196
864.393	4.25111
867.767	3.55085
871.142	3.34727
874.517	3.09597
877.892	3.53326
881.266	1.12789
884.641	1.67219
888.016	0.026413
891.391	0.696777
894.766	0.015396
898.141	0.334251
901.515	0.211472
904.89	1.82529
908.265	1.86187
911.64	1.59258
915.015	0.564194
918.389	2.14095
921.764	1.40873
925.139	2.09585
928.514	1.94247
931.889	3.32049
935.264	1.56039
938.638	3.66304
942.013	1.92887
945.388	0.325699
948.763	0.565201
952.138	0.719727
955.512	0.128647
958.887	0.099312
962.262	0.899193
965.637	0.725006
969.012	0.970612
972.386	4.69898
975.761	12.0481
979.136	14.9791
982.511	18.0727
985.886	30.1091
989.261	56.9487
992.635	96.0737
996.01	197.887
999.385	436.171
1002.76	369.198
1006.13	111.882
1009.51	38.7615
1012.88	18.2388
1016.26	10.4835
1019.63	6.22569
1023.01	4.77502
1026.38	2.26654
1029.76	0.778801
1033.13	2.33626
1036.51	0.366028
1039.88	4.25539
1043.26	8.5153
1046.63	15.319
1050.01	25.0773
1053.38	43.135
1056.76	68.5183
1060.13	120.001
1063.51	227.209
1066.88	493.031
1070.26	959.849
1073.63	2172.6
1077.01	5457.8
1080.38	5089.36
1083.76	1459.01
1087.13	543.872
1090.51	285.694
1093.88	188.173
1097.26	175.079
1100.63	226.918
1104	116.981
1107.38	46.2313
1110.75	20.6909
1114.13	10.6708
1117.5	3.83079
1120.88	0.274338
1124.25	2.03757
1127.63	1.86079
1131	1.06419
1134.38	0.438667
1137.75	3.11275
1141.13	2.42587
1144.5	4.24437
1147.88	8.8924
1151.25	11.4744
1154.63	15.2762
1158	20.4526
1161.38	23.4296
1164.75	26.1792
1168.13	29.8029
1171.5	31.1945
1174.88	33.6467
1178.25	29.3848
1181.62	25.5891
1185	21.7907
1188.38	19.4754
1191.75	16.6802
1195.12	16.1424
1198.5	13.3575
1201.87	12.6097
1205.25	10.169
1208.62	8.38841
1212	6.03214
1215.37	5.66647
1218.75	2.9152
1222.12	1.04534
1225.5	1.41126
1228.87	0.874306
1232.25	1.71011
1235.62	1.73008
1239	4.52421
1242.37	8.13441
1245.75	11.0678
1249.12	17.4507
1252.5	24.6301
1255.87	27.7873
1259.25	29.8574
1262.62	32.8557
1265.99	37.3112
1269.37	37.6324
1272.74	33.2216
1276.12	24.9795
1279.49	13.1905
1282.87	3.31644
