Measurement: Raman, 785 nm, unoriented, Raman Data Processed
Mineral: Sanbornite
Rruff sample: R050001
Ideal chemistry: BaSi_2_O_5_
Locality: Empire #1 mine, Fresno County, California, USA
Source: University of Arizona Mineral Museum
Description: An aggregate of white to colorless pearly anhedral plates
Measured chemistry: Ba_1.00_Si_2.00_O_5_
Raman shift (cm-1)	intensity
115.716	0
118.609	3.95515
121.501	1.00245
124.394	1.19755
127.287	7.06863
130.18	22.6667
133.072	44.4785
135.965	80.7732
138.858	108.969
141.75	160.7
144.643	274.291
147.536	505.626
150.429	559.551
153.321	344.426
156.214	192.346
159.107	96.1386
161.999	77.8355
164.892	53.7416
167.785	44.0564
170.677	29.6155
173.57	28.1151
176.463	42.1517
179.356	40.3516
182.248	56.9543
185.141	81.3053
188.034	116.823
190.926	171.532
193.819	221.768
196.712	298.087
199.604	290.269
202.497	180.689
205.39	66.1259
208.282	20.8573
211.175	8.11299
214.068	8.39713
216.961	7.11771
219.853	19.4834
222.746	24.5366
225.639	14.9866
228.531	2.72296
231.424	1.4377
234.317	11.4452
237.209	6.86464
240.102	4.8477
242.995	11.0001
245.888	38.0002
248.78	70.0881
251.673	120.824
254.566	197.026
257.458	313.82
260.351	460.266
263.244	717.667
266.137	1101.78
269.029	1172.38
271.922	730.878
274.815	498.917
277.707	468.036
280.6	560.139
283.493	712.083
286.385	972.014
289.278	1236.65
292.171	1368.73
295.063	1133.27
297.956	761.223
300.849	449.084
303.742	268.326
306.634	164.387
309.527	116.268
312.42	128.088
315.312	167.872
318.205	290.336
321.098	450.254
323.99	691.929
326.883	1141.81
329.776	2143.97
332.669	3464.93
335.561	1937.25
338.454	591.513
341.347	257.871
344.239	143.536
347.132	66.5867
350.025	43.1405
352.918	10.8204
355.81	16.2676
358.703	1.95606
361.596	3.28406
364.488	1.20704
367.381	1.305
370.274	8.30267
373.166	1.42245
376.059	0.652916
378.952	6.2209
381.844	8.01353
384.737	8.00723
387.63	7.43269
390.523	3.61756
393.415	1.7412
396.308	6.80528
399.201	0.550232
402.093	8.42069
404.986	0.161003
407.879	2.68221
410.772	7.93293
413.664	8.99742
416.557	3.45103
419.45	4.47375
422.342	1.15874
425.235	2.18362
428.128	2.35921
431.02	6.70689
433.913	4.11755
436.806	3.00546
439.699	16.5163
442.591	36.3948
445.484	86.5638
448.377	155.622
451.269	300.625
454.162	439.016
457.055	423.01
459.947	396.86
462.84	269.092
465.733	189.653
468.625	205.995
471.518	333.38
474.411	690.156
477.304	904.373
480.196	248.01
483.089	56.7498
485.982	36.8415
488.874	63.6619
491.767	138.84
494.66	113.159
497.553	28.4505
500.445	11.9817
503.338	15.2362
506.231	31.2316
509.123	75.4054
512.016	120.274
514.909	220.66
517.802	358.093
520.694	607.12
523.587	1016.77
526.48	1623.94
529.372	2495.83
532.265	3774.18
535.158	4434.96
538.05	3278.65
540.943	1728.87
543.836	902.765
546.729	527.426
549.621	313.583
552.514	204.767
555.407	137.009
558.299	98.4309
561.192	59.1706
564.085	44.4115
566.977	33.6901
569.87	30.9361
572.763	20.1675
575.655	7.50929
578.548	13.1007
581.441	2.1908
584.333	2.7932
587.226	3.19841
590.119	3.86128
593.012	12.1494
595.904	13.6402
598.797	1.1952
601.69	8.40554
604.582	7.80484
607.475	5.42281
610.368	3.17344
613.26	2.29736
616.153	3.92472
619.046	0.505653
621.939	1.47398
624.831	6.0563
627.724	8.70729
630.617	7.23267
633.509	1.64421
636.402	1.84358
639.295	8.46377
642.188	11.0965
645.08	15.5146
647.973	11.9136
650.866	12.2705
653.758	10.4626
656.651	11.2754
659.544	9.61589
662.436	9.19642
665.329	7.22342
668.222	4.33845
671.115	8.08942
674.007	3.19785
676.9	10.1615
679.793	3.69746
682.685	6.32106
685.578	4.13726
688.471	0.086292
691.363	6.86085
694.256	5.89988
697.149	4.74387
700.042	7.76736
702.934	7.92684
705.827	9.18906
708.72	9.11118
711.612	0.788742
714.505	7.5557
717.398	2.28178
720.29	11.273
723.183	4.58146
726.076	1.17765
728.968	5.16824
731.861	3.59588
734.754	5.10084
737.647	10.8286
740.539	20.4639
743.432	31.5002
746.325	40.9221
749.217	70.9646
752.11	121.149
755.003	156.507
757.895	141.199
760.788	108.781
763.681	59.8573
766.574	38.6243
769.466	25.9896
772.359	21.2079
775.252	18.1021
778.144	10.4629
781.037	7.58336
783.93	13.4969
786.822	11.7903
789.715	9.79739
792.608	6.21316
795.501	7.41486
798.393	6.93067
801.286	5.01699
804.179	0.34753
807.071	5.9862
809.964	2.48571
812.857	1.8275
815.75	5.63904
818.642	0.917015
821.535	1.94328
824.428	7.72052
827.32	1.1474
830.213	3.80449
833.106	2.07863
835.998	7.54294
838.891	0.848583
841.784	6.52562
844.677	0.486355
847.569	2.58382
850.462	7.79888
853.355	3.59538
856.247	4.43568
859.14	4.08324
862.033	5.69953
864.925	3.95929
867.818	5.2622
870.711	0.457268
873.604	8.06244
876.496	5.66718
879.389	3.35352
882.282	3.46928
885.174	1.17477
888.067	5.1493
890.96	5.71098
893.852	7.75277
896.745	7.55786
899.638	6.58616
902.53	2.46553
905.423	11.3295
908.316	16.0845
911.209	9.10891
914.101	8.28484
916.994	11.1555
919.887	10.4578
922.779	10.2467
925.672	8.1294
928.565	5.8327
931.457	0.11187
934.35	6.13056
937.243	6.33895
940.136	1.33464
943.028	4.61558
945.921	5.28403
948.814	3.14078
951.706	2.09806
954.599	5.71606
957.492	2.35257
960.385	1.47669
963.277	0.105778
966.17	0.277977
969.063	2.84475
971.955	4.81267
974.848	10.4749
977.741	22.0684
980.633	25.7734
983.526	32.3112
986.419	56.3683
989.312	96.2494
992.204	149.412
995.097	278.825
997.99	448.195
1000.88	351.053
1003.77	141.882
1006.67	53.3694
1009.56	36.5147
1012.45	13.1092
1015.35	0.235565
1018.24	7.33677
1021.13	2.93593
1024.02	2.6604
1026.92	5.0388
1029.81	2.90434
1032.7	4.21876
1035.6	3.3474
1038.49	6.86432
1041.38	12.9066
1044.27	20.9499
1047.17	35.4069
1050.06	47.4005
1052.95	63.0663
1055.84	100.334
1058.74	149.162
1061.63	240.9
1064.52	451.893
1067.41	1002.32
1070.31	1927.15
1073.2	3765.34
1076.09	6553.95
1078.98	4755.46
1081.88	1767.32
1084.77	731.883
1087.66	389.479
1090.56	263.393
1093.45	212.707
1096.34	229.401
1099.23	253.925
1102.13	158.026
1105.02	91.835
1107.91	53.2847
1110.81	45.3368
1113.7	34.8535
1116.59	28.4161
1119.48	16.512
1122.38	7.84993
1125.27	8.99767
1128.16	7.76821
1131.05	2.26207
1133.95	3.19771
1136.84	2.67454
1139.73	0.455811
1142.62	5.48321
1145.52	4.79697
1148.41	0.143356
1151.3	3.73091
1154.19	4.0802
1157.09	3.83247
1159.98	5.20653
1162.87	5.95815
1165.77	1.97658
1168.66	7.29197
1171.55	2.67551
1174.44	11.1397
1177.34	7.44016
1180.23	10.7824
1183.12	5.19356
1186.02	7.77027
1188.91	16.4112
1191.8	17.8514
1194.69	19.8197
1197.59	18.4295
1200.48	4.11931
1203.37	10.5032
1206.26	10.2388
1209.16	5.68751
1212.05	4.20595
1214.94	10.6298
1217.84	6.6043
1220.73	2.46323
1223.62	8.22785
1226.51	2.94206
1229.41	2.86121
1232.3	4.84946
1235.19	3.27762
