Measurement: Raman, 532 nm, unoriented, Raman Data Processed
Mineral: Saneroite
Rruff sample: R060488
Ideal chemistry: Na_2_(Mn^2+^,Mn^3+^)_10_V^5+^Si_11_O_34_(OH)_4_
Locality: Molinello mine, Val Graveglia (Graveglia Valley), Ne, Genova, Liguria, Italy
Source: Michael Scott
Description: Orange colored blebs associated with white quartz, black braunite and brown parsettensite
Raman shift (cm-1)	intensity
90.2653	0
93.6401	16.8497
97.0149	9.37264
100.39	0.878342
103.765	0.371487
107.139	10.5107
110.514	9.20763
113.889	0.213645
117.264	8.90864
120.639	17.0357
124.013	23.6743
127.388	1.58867
130.763	6.97512
134.138	7.85831
137.513	9.48438
140.888	16.3652
144.262	4.45992
147.637	0.178138
151.012	0.813921
154.387	4.36831
157.762	10.8827
161.137	6.9475
164.511	0.666863
167.886	1.55997
171.261	1.64764
174.636	14.2433
178.011	9.48568
181.385	9.93704
184.76	14.4215
188.135	21.1725
191.51	23.9652
194.885	29.3251
198.26	37.1188
201.634	49.6178
205.009	60.4496
208.384	63.0934
211.759	64.6307
215.133	65.9962
218.508	68.2194
221.883	69.9149
225.258	65.3833
228.633	56.0953
232.008	39.4619
235.382	22.9983
238.757	5.6962
242.132	2.48377
245.507	0.606748
248.882	0.82954
252.256	5.64784
255.631	18.8449
259.006	32.3929
262.381	48.3553
265.756	63.1784
269.131	79.1223
272.505	97.6136
275.88	112.417
279.255	120.63
282.63	120.669
286.005	115.931
289.38	106.113
292.754	95.0196
296.129	80.5913
299.504	65.4108
302.879	44.354
306.254	24.8279
309.628	11.0837
313.003	3.28774
316.378	0.232816
319.753	0.211256
323.128	4.07127
326.502	14.5007
329.877	37.9741
333.252	66.6946
336.627	107.041
340.002	144.83
343.377	165.501
346.751	163.74
350.126	150.648
353.501	129.28
356.876	114.431
360.251	103.572
363.625	99.6877
367	108.531
370.375	131.451
373.75	166.244
377.125	198.962
380.5	207.913
383.874	176.606
387.249	126.636
390.624	85.3858
393.999	56.6508
397.374	37.3366
400.748	24.282
404.123	16.8403
407.498	10.3331
410.873	3.8344
414.248	0.440685
417.623	1.28911
420.997	4.89545
424.372	6.67235
427.747	14.356
431.122	25.3865
434.497	25.2945
437.872	22.1593
441.246	18.266
444.621	11.6886
447.996	5.538
451.371	0.608464
454.745	3.23194
458.12	0.225259
461.495	0.490729
464.87	0.357055
468.245	2.38741
471.62	0.719185
474.994	0.536954
478.369	0.696824
481.744	5.62229
485.119	14.5217
488.494	23.8824
491.868	24.9892
495.243	26.2487
498.618	29.0099
501.993	28.089
505.368	24.323
508.743	20.6538
512.117	18.5232
515.492	18.1258
518.867	20.3348
522.242	20.5956
525.617	21.8826
528.991	19.1502
532.366	16.123
535.741	13.0346
539.116	11.0817
542.491	7.90867
545.866	7.43407
549.24	7.40975
552.615	7.12559
555.99	5.86131
559.365	4.54136
562.74	2.8371
566.115	1.35356
569.489	0.175014
572.864	1.03966
576.239	0.849982
579.614	0.015779
582.989	0.23868
586.363	1.4894
589.738	2.25356
593.113	5.47534
596.488	3.16327
599.863	5.21383
603.237	20.8333
606.612	50.7019
609.987	92.1225
613.362	148.285
616.737	210.298
620.112	234.902
623.486	197.298
626.861	129.746
630.236	79.0895
633.611	55.2237
636.986	49.8871
640.361	64.0024
643.735	98.1718
647.11	148.586
650.485	213.324
653.86	291.418
657.235	402.318
660.609	519.345
663.984	540.042
667.359	391.949
670.734	234.404
674.109	146.268
677.484	80.3574
680.858	36.9077
684.233	15.7335
687.608	11.9332
690.983	20.9391
694.357	35.5521
697.732	51.0585
701.107	59.6683
704.482	61.0228
707.857	56.3845
711.232	44.3998
714.606	31.4236
717.981	19.9965
721.356	12.4895
724.731	8.43332
728.106	8.54509
731.481	12.0306
734.855	13.9151
738.23	8.41573
741.605	3.12869
744.98	0.11123
748.355	2.65855
751.729	3.70159
755.104	1.41225
758.479	3.78854
761.854	10.0199
765.229	16.9322
768.604	17.9232
771.978	16.3296
775.353	0.963954
778.728	6.98664
782.103	6.03915
785.478	11.6539
788.852	8.85808
792.227	5.93078
795.602	5.03702
798.977	67.184
802.352	174.496
805.726	343.87
809.101	586.956
812.476	880.287
815.851	1173.72
819.226	1474.33
822.601	1815.38
825.975	2057.09
829.35	1983.08
832.725	1594.35
836.1	1194.81
839.475	954.192
842.85	814.851
846.224	705.777
849.599	597.924
852.974	545.597
856.349	603.603
859.724	746.781
863.098	809.749
866.473	672.985
869.848	420.448
873.223	193.953
876.598	65.9327
879.972	8.35375
883.347	13.5132
886.722	10.585
890.097	29.0041
893.472	107.23
896.847	240.331
900.221	439.947
903.596	682.977
906.971	907.575
910.346	973.296
913.721	841.415
917.096	651.987
920.47	525.827
923.845	453.955
927.22	409.219
930.595	383.827
933.97	386.989
937.344	393.001
940.719	372.716
944.094	317.842
947.469	235.501
950.844	147.32
954.218	70.4233
957.593	17.6803
960.968	13.8644
964.343	1.2912
967.718	7.07595
971.092	7.81097
974.467	2.58249
977.842	5.75482
981.217	12.1567
984.592	42.0311
987.967	77.6747
991.341	121.109
994.716	170.44
998.091	228.607
1001.47	286.661
1004.84	349.197
1008.22	410.166
1011.59	447.136
1014.97	422.24
1018.34	345.271
1021.72	249.509
1025.09	168.278
1028.46	106.531
1031.84	62.0362
1035.21	30.0845
1038.59	14.5546
1041.96	7.84549
1045.34	5.22614
1048.71	3.30453
1052.09	3.08623
1055.46	3.64732
1058.84	3.19738
1062.21	1.4191
1065.59	0.585799
1068.96	0.604131
1072.34	1.65435
1075.71	1.22936
1079.09	0.587525
1082.46	0.255977
1085.84	0.224612
1089.21	2.18491
1092.59	3.40341
1095.96	3.04702
1099.34	6.1638
1102.71	6.80615
1106.09	6.89889
1109.46	7.68847
1112.84	6.74751
1116.21	7.05067
1119.58	5.80882
1122.96	6.03512
1126.33	5.65361
1129.71	5.74675
1133.08	5.9587
1136.46	4.43458
1139.83	1.63903
1143.21	0.708762
1146.58	0.163333
1149.96	0.305453
1153.33	0.672396
1156.71	0.005382
1160.08	0.590369
1163.46	0.047214
1166.83	0.298173
1170.21	0.00814
1173.58	0.923667
1176.96	1.15254
1180.33	1.8162
1183.71	2.36879
1187.08	3.74857
1190.46	4.08983
1193.83	5.07369
1197.2	6.76098
1200.58	5.70234
1203.95	6.86333
1207.33	6.91469
1210.7	7.46284
1214.08	7.06841
1217.45	6.22223
1220.83	6.32112
1224.2	6.49318
1227.58	4.68657
1230.95	5.70897
1234.33	4.53695
1237.7	3.41274
1241.08	3.38593
1244.45	2.43015
1247.83	1.46007
1251.2	2.36378
1254.58	1.42685
1257.95	0.960417
1261.33	0.206344
1264.7	0.467243
1268.08	0.302193
1271.45	0.308411
1274.83	0.945574
1278.2	1.38924
1281.58	1.06714
1284.95	1.50307
1288.33	1.057
1291.7	0.545306
1295.08	0.917221
1298.45	0.116067
1301.83	0
