Measurement: Raman, 780 nm, unoriented, Raman Data Processed
Mineral: Saneroite
Rruff sample: R060488
Ideal chemistry: Na_2_(Mn^2+^,Mn^3+^)_10_V^5+^Si_11_O_34_(OH)_4_
Locality: Molinello mine, Val Graveglia (Graveglia Valley), Ne, Genova, Liguria, Italy
Source: Michael Scott
Description: Orange colored blebs associated with white quartz, black braunite and brown parsettensite
Raman shift (cm-1)	intensity
91.5599	0
94.9347	34.0947
98.3096	2.3031
101.684	12.3356
105.059	45.1986
108.434	62.1467
111.809	29.9521
115.184	6.87677
118.558	5.33746
121.933	4.86554
125.308	15.4888
128.683	17.5009
132.058	34.7451
135.433	62.3739
138.807	77.0054
142.182	48.2526
145.557	23.4132
148.932	26.3921
152.307	49.7616
155.681	74.6763
159.056	80.3782
162.431	59.1091
165.806	25.1036
169.181	4.12726
172.555	0.306824
175.93	1.75769
179.305	8.991
182.68	17.1445
186.055	27.6679
189.43	38.7086
192.804	47.2644
196.179	53.1281
199.554	61.5997
202.929	75.7659
206.304	92.3657
209.678	98.3684
213.053	110.374
216.428	120.907
219.803	125.019
223.178	130.062
226.553	114.387
229.927	78.9526
233.302	43.3586
236.677	17.3277
240.052	2.91132
243.427	8.26419
246.801	3.0022
250.176	10.4576
253.551	26.8909
256.926	45.7255
260.301	65.3138
263.675	76.5842
267.05	82.4737
270.425	94.1165
273.8	114.176
277.175	133.96
280.55	143.523
283.924	148.504
287.299	152.984
290.674	160.364
294.049	161.66
297.424	156.31
300.798	134.238
304.173	92.7051
307.548	54.3471
310.923	25.1591
314.298	4.82498
317.673	3.49771
321.047	5.63715
324.422	27.8238
327.797	62.445
331.172	99.6179
334.547	133.334
337.921	182.939
341.296	233.512
344.671	282.786
348.046	301.538
351.421	292.379
354.795	268.507
358.17	228.756
361.545	182.662
364.92	139.486
368.295	110.403
371.67	101.242
375.044	103.475
378.419	111.414
381.794	103.763
385.169	82.3809
388.544	59.9558
391.918	42.4228
395.293	28.3811
398.668	16.3749
402.043	8.29767
405.418	5.99927
408.793	2.31546
412.167	1.78842
415.542	0.8573
418.917	1.68164
422.292	0.352295
425.666	1.7756
429.041	1.5285
432.416	8.72488
435.791	14.2494
439.166	14.0993
442.541	14.4523
445.915	13.285
449.29	13.187
452.665	9.93489
456.04	7.65492
459.415	10.1224
462.789	24.0368
466.164	39.0977
469.539	26.2249
472.914	9.58607
476.289	2.69446
479.664	1.28155
483.038	1.71722
486.413	9.23762
489.788	18.0194
493.163	23.8462
496.538	23.0488
499.912	21.685
503.287	21.2147
506.662	20.281
510.037	23.6148
513.412	26.6266
516.787	29.5446
520.161	33.4586
523.536	35.9396
526.911	34.8794
530.286	30.8198
533.661	23.059
537.035	15.0643
540.41	8.92244
543.785	5.76935
547.16	5.03096
550.535	4.80061
553.909	4.9146
557.284	5.50778
560.659	4.91385
564.034	1.58452
567.409	0.947067
570.784	3.96271
574.158	0.226166
577.533	1.79303
580.908	1.54846
584.283	0.90065
587.658	3.56967
591.032	2.33853
594.407	1.66751
597.782	2.1633
601.157	6.14421
604.532	16.0232
607.907	30.3012
611.281	52.0411
614.656	81.662
618.031	120.506
621.406	144.941
624.781	124.955
628.155	86.603
631.53	59.0205
634.905	44.8313
638.28	43.301
641.655	55.072
645.029	81.791
648.404	130.585
651.779	194.318
655.154	282.796
658.529	413.712
661.904	567.542
665.278	614.242
668.653	461.384
672.028	294.817
675.403	193.431
678.778	128.298
682.152	81.6976
685.527	54.9651
688.902	44.9499
692.277	48.0105
695.652	52.0614
699.027	57.8191
702.401	61.5275
705.776	61.7639
709.151	58.4324
712.526	52.3453
715.901	48.7507
719.275	40.8873
722.65	33.5661
726.025	25.8792
729.4	19.2148
732.775	14.685
736.149	9.64621
739.524	5.39714
742.899	2.6566
746.274	0.239304
749.649	0.372467
753.024	0.411606
756.398	0.359314
759.773	0.28508
763.148	3.52167
766.523	5.62051
769.898	6.19086
773.272	4.66695
776.647	1.41106
780.022	6.02016
783.397	10.1524
786.772	8.42931
790.146	1.53567
793.521	14.8122
796.896	44.389
800.271	97.5639
803.646	179.607
807.021	314.624
810.395	506.616
813.77	720.596
817.145	874.388
820.52	967.078
823.895	1034.91
827.269	1049.17
830.644	940.614
834.019	726.841
837.394	541.004
840.769	420.867
844.144	342.466
847.518	282.416
850.893	229.629
854.268	193.068
857.643	204.771
861.018	253.107
864.392	281.568
867.767	232.387
871.142	138.829
874.517	62.2764
877.892	26.841
881.266	10.7534
884.641	10.5185
888.016	17.4758
891.391	31.5438
894.766	56.7737
898.14	100.47
901.515	172.122
904.89	274.203
908.265	381.446
911.64	419.841
915.015	363.553
918.389	285.118
921.764	233.321
925.139	202.888
928.514	184.632
931.889	173.119
935.264	170.051
938.638	171.788
942.013	158.25
945.388	131.125
948.763	93.7423
952.138	54.7099
955.512	20.8625
958.887	2.99002
962.262	6.89163
965.637	10.7021
969.012	7.42207
972.386	0.581268
975.761	9.29114
979.136	15.1095
982.511	27.4698
985.886	46.6796
989.26	74.4463
992.635	107.2
996.01	145.441
999.385	190.27
1002.76	230.636
1006.13	273.375
1009.51	318.641
1012.88	347.894
1016.26	333.807
1019.63	268.85
1023.01	189.634
1026.38	117.955
1029.76	71.3285
1033.13	43.0658
1036.51	26.8451
1039.88	16.9448
1043.26	11.355
1046.63	9.12906
1050.01	7.53984
1053.38	6.28163
1056.76	3.57962
1060.13	1.28279
1063.51	0.345734
1066.88	0.172852
1070.26	0.977386
1073.63	0.413849
1077.01	0.847305
1080.38	3.29509
1083.76	5.57042
1087.13	11.4165
1090.51	11.5987
1093.88	6.26815
1097.26	3.71499
1100.63	4.45719
1104	5.92537
1107.38	6.19103
1110.75	6.50277
1114.13	4.9537
1117.5	3.93974
1120.88	2.52827
1124.25	1.64794
1127.63	2.46252
1131	1.70949
1134.38	1.14232
1137.75	2.70834
1141.13	1.64231
1144.5	1.71951
1147.88	2.16797
1151.25	2.12372
1154.63	2.46857
1158	2.43603
1161.38	2.80612
1164.75	0.82032
1168.13	1.25687
1171.5	0.560028
1174.88	0.089912
1178.25	0.219284
1181.62	0.225273
1185	0.00119
1188.38	0.775764
1191.75	0.76931
1195.12	0.514374
1198.5	0.45636
1201.87	0.812744
1205.25	0.70636
1208.62	0.315003
1212	0.878098
1215.37	1.0366
1218.75	1.22018
1222.12	1.49356
1225.5	2.52548
1228.87	1.95858
1232.25	1.41957
1235.62	1.08723
1239	0.981956
1242.37	0.623024
1245.75	1.06911
1249.12	0.511848
1252.5	0.185471
1255.87	1.49094
1259.25	0.111778
1262.62	0.026398
1265.99	1.24804
1269.37	0.111305
1272.74	0.904587
1276.12	0.502876
1279.49	0.366501
1282.87	0.087883
