Measurement: Raman, 532 nm, unoriented, Raman Data Processed
Mineral: Sanidine
Rruff sample: R060313
Ideal chemistry: KAlSi_3_O_8_
Locality: Eifel Mountains, Rhineland-Palatinate, Germany
Source: Herb Obodda
Description: Pale yellow transparent cleavage fragment. Crystal structure given below.
Measured chemistry: (K_0.85_Na_0.14_Ba_0.01_)_Î£=1_Al_1.04_Si_2.96_O_8_
Raman shift (cm-1)	intensity
90.4922	0
93.867	5.13268
97.2418	4.69309
100.617	13.7982
103.992	12.6901
107.366	15.5604
110.741	23.9027
114.116	22.0177
117.491	14.4064
120.865	7.3441
124.24	2.22149
127.615	2.56126
130.99	1.99326
134.365	0.047194
137.74	20.5926
141.114	66.8083
144.489	130.854
147.864	210.421
151.239	351.452
154.614	575.709
157.988	794.779
161.363	902.947
164.738	919.304
168.113	821.391
171.488	678.513
174.863	520.25
178.237	367.639
181.612	277.789
184.987	228.084
188.362	206.354
191.737	210.006
195.112	218.703
198.486	181.563
201.861	107.66
205.236	61.596
208.611	39.3959
211.986	22.5725
215.36	13.8255
218.735	8.66803
222.11	4.33929
225.485	1.2222
228.86	4.1544
232.234	3.94365
235.609	0.689804
238.984	5.81253
242.359	13.8245
245.734	32.0204
249.109	52.1072
252.483	84.2957
255.858	119.384
259.233	161.161
262.608	212.636
265.983	275.794
269.358	343.389
272.732	431.302
276.107	539.246
279.482	635.02
282.857	663.164
286.232	600.534
289.606	468.104
292.981	314.543
296.356	204.955
299.731	127.249
303.106	77.2691
306.481	43.5835
309.855	23.2463
313.23	11.5419
316.605	5.63261
319.98	5.44089
323.355	3.65123
326.729	3.20702
330.104	4.97059
333.479	4.92995
336.854	5.48905
340.229	5.97704
343.603	2.46201
346.978	3.69576
350.353	1.35182
353.728	1.75348
357.103	3.40636
360.478	1.62584
363.852	1.97479
367.227	1.58827
370.602	1.79617
373.977	0.650658
377.352	1.42344
380.726	0.923027
384.101	1.03653
387.476	1.86425
390.851	2.52103
394.226	4.13087
397.601	6.38115
400.975	9.13597
404.35	12.0585
407.725	6.41878
411.1	3.71152
414.475	1.30225
417.849	3.64356
421.224	3.76016
424.599	3.09001
427.974	0.550041
431.349	7.43023
434.724	20.3734
438.098	37.0819
441.473	64.8962
444.848	98.9874
448.223	146.868
451.598	186.272
454.972	208.006
458.347	206.903
461.722	216.187
465.097	256.607
468.472	346.114
471.846	441.429
475.221	432.231
478.596	325.5
481.971	219.717
485.346	170.783
488.721	157.815
492.095	171.281
495.47	223.628
498.845	336.045
502.22	539.455
505.595	893.057
508.969	1447.71
512.344	2005.21
515.719	1832.04
519.094	1076.49
522.469	565.691
525.844	316.029
529.218	186.935
532.593	118.336
535.968	75.993
539.343	48.7714
542.718	26.2233
546.092	15.6365
549.467	6.64853
552.842	1.17441
556.217	1.7533
559.592	3.64624
562.967	4.10225
566.341	2.38315
569.716	0.635002
573.091	1.64083
576.466	5.53893
579.841	4.6484
583.216	3.10126
586.59	1.02937
589.965	2.26708
593.34	2.2103
596.715	1.40246
600.09	0.716972
603.464	1.30859
606.839	2.98145
610.214	2.99723
613.589	3.26785
616.964	1.828
620.338	3.81905
623.713	5.01414
627.088	4.2098
630.463	7.13255
633.838	8.10018
637.212	7.00875
640.587	4.81205
643.962	3.84868
647.337	2.42704
650.712	2.79345
654.087	3.44619
657.461	3.5654
660.836	2.39873
664.211	2.06428
667.586	1.84054
670.961	1.57519
674.335	0.4468
677.71	1.46323
681.085	1.0046
684.46	1.36605
687.835	0.404293
691.21	0.835091
694.584	1.49107
697.959	1.56686
701.334	2.70416
704.709	6.08874
708.084	8.74573
711.458	11.4443
714.833	12.9916
718.208	14.0524
721.583	15.2966
724.958	15.7831
728.332	18.1149
731.707	17.4274
735.082	20.4055
738.457	26.0062
741.832	27.5354
745.207	30.0415
748.581	32.2121
751.956	34.3185
755.331	36.8945
758.706	41.0719
762.081	47.6801
765.456	50.545
768.83	50.9069
772.205	47.7472
775.58	45.767
778.955	41.5987
782.33	38.1729
785.704	39.454
789.079	42.2465
792.454	50.3351
795.829	56.1858
799.204	61.0412
802.578	64.6424
805.953	67.2252
809.328	63.6394
812.703	52.1099
816.078	35.3252
819.453	18.9756
822.827	7.99569
826.202	2.75403
829.577	0.75285
832.952	0.01054
836.327	0.142181
839.702	1.19819
843.076	0.183569
846.451	0.988989
849.826	1.77551
853.201	0.206633
856.576	2.37033
859.95	0.412634
863.325	1.34935
866.7	1.83933
870.075	0.959555
873.45	1.31124
876.824	1.98377
880.199	2.19338
883.574	2.43242
886.949	1.98628
890.324	2.13943
893.698	1.84381
897.073	1.55302
900.448	2.21349
903.823	2.81287
907.198	1.468
910.573	2.53589
913.947	1.26464
917.322	1.56978
920.697	1.04011
924.072	0.32313
927.447	0.260595
930.822	0.111301
934.196	0.338697
937.571	0.668009
940.946	0.671036
944.321	0.894836
947.696	1.2827
951.07	0.366055
954.445	1.66562
957.82	2.45936
961.195	2.71741
964.57	4.39034
967.944	6.407
971.319	6.21695
974.694	7.54381
978.069	9.2529
981.444	11.8161
984.819	14.6907
988.193	14.4559
991.568	15.4364
994.943	16.2347
998.318	15.6573
1001.69	16.1964
1005.07	16.5753
1008.44	16.6969
1011.82	15.635
1015.19	14.3392
1018.57	14.6049
1021.94	14.8799
1025.32	13.2189
1028.69	15.5984
1032.07	12.7033
1035.44	9.7318
1038.82	7.90416
1042.19	5.94313
1045.57	4.01662
1048.94	1.63279
1052.32	1.23635
1055.69	0.549522
1059.07	1.7399
1062.44	3.12779
1065.81	1.1682
1069.19	1.31543
1072.56	7.11146
1075.94	11.3057
1079.31	16.5803
1082.69	20.4594
1086.06	24.7696
1089.44	26.8411
1092.81	31.6757
1096.19	33.7658
1099.56	36.3739
1102.94	38.1419
1106.31	38.8964
1109.69	42.4583
1113.06	44.4078
1116.44	47.2487
1119.81	50.0476
1123.19	55.5217
1126.56	56.4855
1129.94	58.2638
1133.31	57.8623
1136.68	55.7898
1140.06	52.1451
1143.43	49.2749
1146.81	42.5511
1150.18	38.3278
1153.56	32.3054
1156.93	27.1699
1160.31	22.3331
1163.68	22.4606
1167.06	16.9667
1170.43	15.6959
1173.81	17.558
1177.18	10.8587
1180.56	9.75261
1183.93	7.37615
1187.31	4.72156
1190.68	3.45368
1194.06	2.84008
1197.43	0.869951
1200.81	1.06088
1204.18	1.4895
1207.56	0.762943
1210.93	0.114235
1214.31	0.609762
1217.68	1.21984
1221.06	0.023266
1224.43	0.736546
1227.81	0.702936
1231.18	1.43688
1234.56	1.71713
1237.93	2.51766
1241.31	4.47846
1244.68	2.83149
1248.05	3.05794
1251.43	3.65314
1254.8	3.98656
1258.18	3.93441
1261.55	3.37401
1264.93	0.945772
1268.3	3.36816
1271.68	1.98245
1275.05	2.6828
1278.43	3.20267
1281.8	0.683899
1285.18	1.61889
1288.55	0.964249
1291.93	2.0998
1295.3	1.0957
1298.68	0.633911
1302.05	0.527834
