Measurement: Raman, 780 nm, unoriented, Raman Data Processed
Mineral: Sanidine
Rruff sample: R060313
Ideal chemistry: KAlSi_3_O_8_
Locality: Eifel Mountains, Rhineland-Palatinate, Germany
Source: Herb Obodda
Description: Pale yellow transparent cleavage fragment. Crystal structure given below.
Measured chemistry: (K_0.85_Na_0.14_Ba_0.01_)_Î£=1_Al_1.04_Si_2.96_O_8_
Raman shift (cm-1)	intensity
96.3544	0
99.7292	3.39038
103.104	11.2953
106.479	46.7673
109.854	72.0816
113.228	91.172
116.603	141.577
119.978	185.713
123.353	152.482
126.728	65.1089
130.102	10.2286
133.477	2.56302
136.852	8.94769
140.227	22.6275
143.602	22.5738
146.977	33.9802
150.351	80.6485
153.726	152.265
157.101	200.151
160.476	190.254
163.851	165.299
167.226	132.497
170.6	111.348
173.975	91.1918
177.35	54.3038
180.725	29.0115
184.1	14.7333
187.474	14.1793
190.849	22.2908
194.224	45.0731
197.599	43.8434
200.974	18.2217
204.349	0.152199
207.723	2.80202
211.098	1.81299
214.473	0.96965
217.848	1.37414
221.223	5.82678
224.597	7.10553
227.972	9.21622
231.347	10.9012
234.722	20.074
238.097	22.6615
241.471	30.1501
244.846	38.927
248.221	51.7277
251.596	67.6436
254.971	85.1566
258.346	105.792
261.72	128.545
265.095	144.796
268.47	165.333
271.845	188.01
275.22	221.72
278.594	261.153
281.969	283.57
285.344	262.781
288.719	206.853
292.094	144.769
295.469	95.3263
298.843	63.4273
302.218	41.8471
305.593	27.3575
308.968	16.3057
312.343	11.0118
315.717	6.80487
319.092	3.89953
322.467	2.81935
325.842	2.0067
329.217	0.556606
332.592	0.177517
335.966	0.429028
339.341	1.18492
342.716	0.148979
346.091	0.331413
349.466	2.01181
352.841	7.98636
356.215	15.0818
359.59	21.1886
362.965	28.9891
366.34	29.4026
369.715	28.5596
373.089	23.4318
376.464	19.2748
379.839	20.9618
383.214	19.8403
386.589	26.0212
389.964	33.4629
393.338	44.0559
396.713	54.6713
400.088	66.5588
403.463	64.6525
406.838	45.2501
410.212	22.2962
413.587	7.41813
416.962	1.63248
420.337	2.76825
423.712	6.02201
427.087	2.12386
430.461	2.24258
433.836	14.1825
437.211	33.0336
440.586	61.1093
443.961	102.646
447.335	162.749
450.71	221.767
454.085	251.256
457.46	242.285
460.835	215.464
464.209	200.162
467.584	217.057
470.959	254.351
474.334	264.987
477.709	218.489
481.084	157.633
484.458	122.675
487.833	111.064
491.208	118.301
494.583	144.165
497.958	209.86
501.332	344.206
504.707	589.692
508.082	986.48
511.457	1443.37
514.832	1477.72
518.207	920.234
521.581	485.295
524.956	266.657
528.331	155.868
531.706	98.9816
535.081	63.8767
538.455	40.6299
541.83	22.4984
545.205	13.5268
548.58	4.57457
551.955	0.30117
555.33	0.956627
558.704	3.97934
562.079	2.18486
565.454	2.12788
568.829	0.478935
572.204	1.77425
575.578	4.26495
578.953	3.40886
582.328	4.76862
585.703	2.37637
589.078	3.78913
592.452	5.22908
595.827	4.39484
599.202	4.01958
602.577	2.7267
605.952	2.98393
609.327	3.33971
612.701	2.22375
616.076	1.46704
619.451	1.28204
622.826	1.7109
626.201	0.439232
629.576	3.06392
632.95	2.9903
636.325	2.79183
639.7	2.20706
643.075	3.80827
646.45	3.99986
649.824	4.01329
653.199	4.69684
656.574	4.29669
659.949	6.51177
663.324	4.83816
666.698	3.65952
670.073	2.35581
673.448	0.699326
676.823	1.46916
680.198	0.10211
683.573	0.239128
686.947	2.04299
690.322	0.478415
693.697	0.692625
697.072	2.35486
700.447	2.42867
703.822	7.17144
707.196	11.0209
710.571	12.6919
713.946	15.2904
717.321	17.9781
720.696	19.002
724.07	21.519
727.445	21.9007
730.82	27.5126
734.195	31.8836
737.57	37.8011
740.944	41.4045
744.319	50.3235
747.694	50.8015
751.069	54.5368
754.444	54.0999
757.818	55.8511
761.193	55.0462
764.568	55.2671
767.943	54.9402
771.318	52.7957
774.693	51.8239
778.067	46.6999
781.442	47.0037
784.817	48.668
788.192	54.8935
791.567	63.3431
794.942	70.1366
798.316	76.7178
801.691	80.6377
805.066	81.6632
808.441	78.4412
811.816	65.8605
815.19	41.9701
818.565	22.1173
821.94	9.56714
825.315	2.23041
828.69	0.057693
832.064	0.41972
835.439	1.87449
838.814	0.275118
842.189	1.42207
845.564	0.555294
848.939	0.062845
852.313	0.688835
855.688	0.204531
859.063	0.321534
862.438	0.178419
865.813	1.5199
869.188	2.36794
872.562	2.79426
875.937	4.09547
879.312	3.40128
882.687	3.22409
886.062	2.03624
889.436	4.5004
892.811	5.03919
896.186	2.15222
899.561	1.72906
902.936	3.17449
906.311	2.96998
909.685	2.18545
913.06	1.48318
916.435	0.527614
919.81	0.061336
923.185	1.05526
926.559	0.002508
929.934	0.167475
933.309	0.024082
936.684	1.14054
940.059	1.11595
943.433	0.177979
946.808	1.64562
950.183	0.453331
953.558	1.53819
956.933	1.22818
960.308	4.35307
963.682	2.59554
967.057	5.88771
970.432	6.69321
973.807	8.174
977.182	8.37283
980.557	14.1777
983.931	17.5861
987.306	17.6319
990.681	19.5144
994.056	21.4837
997.431	18.0259
1000.8	18.9112
1004.18	18.4351
1007.55	14.3891
1010.93	14.7693
1014.3	13.4221
1017.68	13.3358
1021.05	9.57199
1024.43	7.76786
1027.8	6.41893
1031.18	5.74644
1034.55	6.40025
1037.93	3.32555
1041.3	5.67805
1044.68	5.75124
1048.05	5.57805
1051.43	3.62824
1054.8	5.02221
1058.18	2.7826
1061.55	0.36002
1064.93	2.13607
1068.3	1.59941
1071.68	1.08333
1075.05	3.04727
1078.43	5.11571
1081.8	10.374
1085.18	11.4715
1088.55	15.4665
1091.92	17.2833
1095.3	17.7705
1098.67	23.8318
1102.05	23.9203
1105.42	23.8179
1108.8	24.1221
1112.17	24.9442
1115.55	24.0708
1118.92	24.0017
1122.3	24.2849
1125.67	24.4525
1129.05	22.4875
1132.42	21.3983
1135.8	18.9999
1139.17	19.2558
1142.55	16.994
1145.92	14.7453
1149.3	13.8122
1152.67	9.99712
1156.05	8.78695
1159.42	6.80035
1162.8	3.54429
1166.17	3.82713
1169.55	3.39416
1172.92	2.18108
1176.3	3.27667
1179.67	2.10636
1183.05	1.86214
1186.42	0.198843
1189.8	0.509654
1193.17	1.12665
1196.55	0.184353
1199.92	0.018338
1203.29	0.012818
1206.67	0.477108
1210.04	1.0942
1213.42	7.39104
1216.79	0.79437
1220.17	1.7931
1223.54	2.96555
1226.92	2.46546
1230.29	3.03442
1233.67	3.82251
1237.04	3.35901
1240.42	4.19193
1243.79	4.7792
1247.17	3.99264
1250.54	0.790243
1253.92	2.6917
1257.29	3.52148
1260.67	3.37073
1264.04	1.53813
1267.42	2.32609
1270.79	1.1269
1274.17	2.36314
1277.54	0.882715
1280.91	1.90712
1284.29	0.032541
