Measurement: Raman, 780 nm, unoriented, Raman Data Processed
Mineral: Santaclaraite
Rruff sample: R060346
Ideal chemistry: CaMn^2+^_4_Si_5_O_14_(OH)_2_H_2_O
Locality: Pennsylvania mine, Santa Clara County, California, USA
Source: Michael Scott
Description: Pink radiating thin prismatic crystals
Measured chemistry: (Ca_0.92_Mn^+2^_0.04_Na_0.04_)_Σ=1_(Mn^2+^_3.92_Mn^3+^_0.04_Mg_0.04_)_Σ=4_Si_5.00_O_14_(OH)_2_·1.21H_2_O; OH by stoichiometry; Mn^3+^ by charge balance; H_2_O by difference
Raman shift (cm-1)	intensity
109.371	0
112.746	2.12534
116.121	3.94742
119.496	0.43898
122.871	21.0026
126.246	18.1148
129.62	17.637
132.995	31.6092
136.37	45.4027
139.745	64.5698
143.12	68.9155
146.494	74.8779
149.869	67.5959
153.244	43.5559
156.619	49.6842
159.994	48.1968
163.369	39.3888
166.743	37.0664
170.118	53.3858
173.493	46.2315
176.868	29.073
180.243	29.7909
183.618	21.2022
186.992	12.5245
190.367	15.5489
193.742	2.09492
197.117	6.8461
200.492	1.26269
203.866	1.43211
207.241	0.508789
210.616	7.4115
213.991	8.90086
217.366	9.00024
220.74	22.6568
224.115	25.6418
227.49	12.5879
230.865	6.69212
234.24	6.826
237.615	11.0904
240.989	20.5626
244.364	26.195
247.739	33.6019
251.114	47.5625
254.489	63.4554
257.863	68.4502
261.238	58.9132
264.613	50.84
267.988	51.455
271.363	46.4543
274.738	51.8438
278.112	50.37
281.487	40.6028
284.862	17.8947
288.237	8.47611
291.612	2.33508
294.986	0.454712
298.361	5.55122
301.736	3.91554
305.111	12.9508
308.486	18.5039
311.861	32.1962
315.235	35.6441
318.61	35.6688
321.985	33.6446
325.36	31.5031
328.735	37.1204
332.109	32.6632
335.484	28.1126
338.859	30.7284
342.234	32.948
345.609	26.7198
348.984	19.3747
352.358	12.0234
355.733	11.0248
359.108	12.9351
362.483	11.8306
365.858	21.848
369.233	24.8422
372.607	28.5456
375.982	26.9856
379.357	25.4339
382.732	17.5069
386.106	4.48351
389.481	0.84137
392.856	1.69316
396.231	6.94504
399.606	1.9987
402.981	8.23305
406.355	13.6372
409.73	20.3516
413.105	33.6574
416.48	35.6517
419.855	48.8338
423.229	56.7946
426.604	47.675
429.979	30.9578
433.354	12.1
436.729	6.08261
440.104	7.80986
443.478	4.86436
446.853	5.4759
450.228	5.69295
453.603	3.02045
456.978	0.218994
460.353	1.58083
463.727	4.2851
467.102	0.787865
470.477	1.19531
473.852	6.00499
477.227	8.5973
480.601	13.8069
483.976	17.7562
487.351	15.3372
490.726	14.7098
494.101	14.2777
497.476	15.9958
500.85	9.61986
504.225	12.1307
507.6	15.2753
510.975	7.78458
514.35	14.8729
517.724	11.301
521.099	9.46117
524.474	14.9341
527.849	16.3177
531.224	24.184
534.598	19.4473
537.973	15.8595
541.348	9.93362
544.723	8.95252
548.098	10.1909
551.472	10.0814
554.847	5.38602
558.222	4.48291
561.597	2.69281
564.972	4.93077
568.347	3.28744
571.721	0.18763
575.096	1.14022
578.471	0.715172
581.846	3.09799
585.221	2.56128
588.596	3.24313
591.97	8.85848
595.345	8.66821
598.72	10.5791
602.095	10.6281
605.47	9.00049
608.845	12.5478
612.219	8.95493
615.594	13.3124
618.969	15.7829
622.344	18.3427
625.719	26.3193
629.093	30.1596
632.468	38.0797
635.843	52.6875
639.218	94.2083
642.593	144.702
645.967	201.478
649.342	268.241
652.717	358.31
656.092	393.659
659.467	312.1
662.842	190.189
666.216	127.248
669.591	82.4799
672.966	58.3817
676.341	38.3948
679.716	25.8107
683.091	16.9731
686.465	9.8474
689.84	12.8591
693.215	9.48592
696.59	7.47018
699.965	10.7387
703.339	7.37101
706.714	5.44563
710.089	3.2996
713.464	7.86818
716.839	5.89872
720.213	2.17609
723.588	0.873795
726.963	1.02929
730.338	3.56576
733.713	2.01493
737.087	0.99839
740.462	5.442
743.837	6.42239
747.212	2.79849
750.587	7.18782
753.962	3.79398
757.336	2.03012
760.711	5.59859
764.086	3.48592
767.461	0.40033
770.836	0.707481
774.211	1.57092
777.585	2.51104
780.96	2.39187
784.335	2.91464
787.71	1.26134
791.085	1.42059
794.459	0.4897
797.834	4.8045
801.209	3.70125
804.584	6.20615
807.959	9.77463
811.333	4.2818
814.708	9.04739
818.083	5.41556
821.458	1.39488
824.833	4.361
828.208	5.95446
831.582	5.2964
834.957	4.44845
838.332	6.06396
841.707	4.15967
845.082	0.830429
848.457	3.82146
851.831	3.66507
855.206	2.11314
858.581	4.99256
861.956	5.29219
865.331	4.14667
868.705	3.73053
872.08	2.28259
875.455	5.0862
878.83	4.77056
882.205	1.92031
885.58	2.90415
888.954	0.930473
892.329	5.59861
895.704	6.10858
899.079	2.55135
902.454	0.797645
905.828	2.48834
909.203	3.31535
912.578	5.15475
915.953	0.088463
919.328	0.626526
922.702	7.56149
926.077	10.7369
929.452	16.7381
932.827	18.6527
936.202	23.2033
939.577	24.6149
942.951	30.1291
946.326	33.2565
949.701	43.0939
953.076	47.915
956.451	60.1413
959.825	56.552
963.2	44.3246
966.575	40.3387
969.95	43.7189
973.325	48.9382
976.699	36.87
980.074	28.7278
983.449	20.1744
986.824	28.7437
990.199	40.1452
993.574	52.4145
996.948	82.8932
1000.32	100.189
1003.7	117.62
1007.07	113.559
1010.45	110.203
1013.82	130.997
1017.2	140.486
1020.57	108.927
1023.95	78.0773
1027.32	48.5916
1030.7	34.8523
1034.07	18.2061
1037.45	11.3227
1040.82	4.90762
1044.2	7.21291
1047.57	3.76694
1050.94	1.86925
1054.32	7.11585
1057.69	4.11741
1061.07	9.35741
1064.44	4.34349
1067.82	2.16612
1071.19	1.03953
1074.57	0.930046
1077.94	0.434448
1081.32	5.30392
1084.69	3.63764
1088.07	3.41666
1091.44	1.09182
1094.82	0.163174
1098.19	3.59601
1101.57	5.0761
1104.94	0.312496
1108.32	6.75024
1111.69	6.2889
1115.07	5.5624
1118.44	9.56264
1121.82	5.63751
1125.19	2.49259
1128.57	12.0905
1131.94	1.90944
1135.32	6.22602
1138.69	5.1878
1142.07	2.42374
1145.44	2.6219
1148.82	7.57927
1152.19	8.55534
1155.57	1.01119
1158.94	8.09638
1162.31	4.1848
1165.69	10.8744
1169.06	3.38579
1172.44	5.98875
1175.81	3.62776
1179.19	5.23987
1182.56	6.68368
1185.94	3.06433
1189.31	3.7188
1192.69	4.84254
1196.06	5.09514
1199.44	4.9673
1202.81	9.53864
1206.19	0.239395
1209.56	1.73385
1212.94	3.84648
1216.31	3.95644
1219.69	6.46355
1223.06	2.52346
1226.44	6.26079
1229.81	3.09173
1233.19	2.9177
1236.56	6.28186
1239.93	3.70585
1243.31	5.84174
1246.68	11.3378
1250.06	6.90289
1253.43	0.849319
1256.81	2.64161
1260.18	2.58513
1263.56	5.01662
1266.93	2.78393
1270.31	1.43073
1273.68	3.04707
1277.06	5.24071
1280.43	4.15482
1283.81	0.002899
