Measurement: Raman, 532 nm, unoriented, Raman Data Processed
Mineral: Santaclaraite
Rruff sample: R060346
Ideal chemistry: CaMn^2+^_4_Si_5_O_14_(OH)_2_H_2_O
Locality: Pennsylvania mine, Santa Clara County, California, USA
Source: Michael Scott
Description: Pink radiating thin prismatic crystals
Measured chemistry: (Ca_0.92_Mn^+2^_0.04_Na_0.04_)_Σ=1_(Mn^2+^_3.92_Mn^3+^_0.04_Mg_0.04_)_Σ=4_Si_5.00_O_14_(OH)_2_·1.21H_2_O; OH by stoichiometry; Mn^3+^ by charge balance; H_2_O by difference
Raman shift (cm-1)	intensity
129.544	0
132.918	3.89394
136.293	4.38346
139.668	2.14992
143.043	33.7414
146.418	40.3025
149.792	66.9475
153.167	105.362
156.542	177.871
159.917	186.405
163.292	199.716
166.667	222.065
170.041	281.758
173.416	275.518
176.791	213.539
180.166	195.062
183.541	191.308
186.916	193.109
190.29	182.716
193.665	128.761
197.04	102.757
200.415	92.843
203.79	88.101
207.164	92.4404
210.539	96.8782
213.914	90.5172
217.289	92.7274
220.664	117.893
224.038	127.66
227.413	84.1963
230.788	49.5876
234.163	39.7262
237.538	29.711
240.913	22.9359
244.287	33.4607
247.662	39.7457
251.037	63.4468
254.412	88.5969
257.787	87.4447
261.161	80.7281
264.536	64.3329
267.911	69.353
271.286	62.2531
274.661	70.987
278.036	73.0046
281.41	59.4484
284.785	19.5533
288.16	1.06128
291.535	8.32352
294.91	6.28531
298.284	5.97559
301.659	11.8526
305.034	19.0133
308.409	22.6417
311.784	23.8206
315.159	26.1589
318.533	28.7354
321.908	23.1436
325.283	19.8068
328.658	30.4662
332.033	33.1392
335.408	23.791
338.782	32.4385
342.157	39.3709
345.532	28.4886
348.907	16.9476
352.281	9.76694
355.656	4.78482
359.031	1.49087
362.406	11.2736
365.781	11.7189
369.156	9.30081
372.53	19.0999
375.905	24.748
379.28	30.7011
382.655	29.9436
386.03	9.29797
389.404	2.04443
392.779	6.14722
396.154	6.43973
399.529	2.72528
402.904	13.1464
406.279	28.2644
409.653	50.5685
413.028	87.3551
416.403	111.756
419.778	146.691
423.153	174.22
426.527	152.172
429.902	101.183
433.277	50.6
436.652	22.6673
440.027	18.3683
443.402	12.7788
446.776	13.0565
450.151	14.3383
453.526	10.9438
456.901	9.46744
460.276	17.1869
463.651	22.7228
467.025	8.95358
470.4	0.816925
473.775	0.894623
477.15	4.33322
480.525	13.7148
483.899	14.006
487.274	16.1317
490.649	17.0311
494.024	19.39
497.399	22.6619
500.774	17.2534
504.148	25.4006
507.523	31.4659
510.898	22.5864
514.273	28.0093
517.648	24.9182
521.022	22.5513
524.397	35.6419
527.772	40.104
531.147	45.5123
534.522	41.053
537.896	36.6365
541.271	22.057
544.646	15.8497
548.021	11.1413
551.396	17.3305
554.771	6.25076
558.145	7.11829
561.52	0.39444
564.895	3.56677
568.27	2.979
571.645	4.73248
575.019	4.84293
578.394	0.202362
581.769	1.85718
585.144	4.2327
588.519	6.08627
591.894	10.7365
595.268	17.3984
598.643	19.1452
602.018	17.5473
605.393	15.1713
608.768	22.9661
612.142	28.9723
615.517	38.1633
618.892	45.2895
622.267	52.7716
625.642	65.3186
629.016	73.2885
632.391	90.0739
635.766	118.933
639.141	177.122
642.516	283.624
645.891	448.136
649.265	656.85
652.64	915.566
656.015	1089.28
659.39	936.51
662.765	599.932
666.139	369.428
669.514	246.584
672.889	162.2
676.264	107.049
679.639	69.7478
683.014	47.4628
686.388	37.9599
689.763	29.1569
693.138	26.349
696.513	23.7206
699.888	19.9783
703.263	14.7177
706.637	11.9377
710.012	9.54285
713.387	4.37189
716.762	7.03372
720.136	0.86087
723.511	2.51993
726.886	4.16843
730.261	2.28928
733.636	0.46994
737.011	1.78525
740.385	5.49683
743.76	9.20096
747.135	9.69028
750.51	4.08627
753.885	7.04767
757.26	5.41812
760.634	0.154541
764.009	2.88663
767.384	4.77127
770.759	2.89175
774.134	1.28122
777.508	0.770203
780.883	5.44318
784.258	1.88254
787.633	2.80707
791.008	0.152222
794.383	6.95743
797.757	7.7424
801.132	8.60284
804.507	12.3374
807.882	10.4468
811.257	10.7528
814.631	15.4191
818.006	12.8409
821.381	13.4887
824.756	15.0214
828.131	15.5876
831.505	11.5861
834.88	6.82489
838.255	5.99347
841.63	7.80029
845.005	10.2348
848.38	4.2945
851.754	1.11298
855.129	5.07849
858.504	1.83139
861.879	0.092163
865.254	3.41504
868.629	7.43787
872.003	10.7614
875.378	7.62698
878.753	9.93643
882.128	8.19064
885.503	1.38635
888.877	0.265015
892.252	5.22009
895.627	10.362
899.002	10.9998
902.377	0.008057
905.751	4.35803
909.126	0.898956
912.501	3.88446
915.876	0.133789
919.251	1.39035
922.625	2.2161
926	13.5886
929.375	25.4894
932.75	34.4321
936.125	42.2098
939.5	55.9079
942.875	75.4407
946.249	84.3821
949.624	102.083
952.999	131.81
956.374	184.53
959.749	190.762
963.123	143.836
966.498	99.1516
969.873	98.7186
973.248	99.2474
976.623	86.2388
979.997	62.9851
983.372	56.3061
986.747	79.3092
990.122	112.6
993.497	156.173
996.871	229.148
1000.25	314.422
1003.62	364.442
1007	332.739
1010.37	295.289
1013.75	324.183
1017.12	350.584
1020.5	285.034
1023.87	190.588
1027.24	125.032
1030.62	72.0626
1033.99	40.7456
1037.37	14.7795
1040.74	5.59161
1044.12	1.55554
1047.49	1.73724
1050.87	1.35767
1054.24	16.5633
1057.62	24.3901
1060.99	30.9037
1064.37	32.269
1067.74	10.4853
1071.12	4.71405
1074.49	5.13809
1077.87	2.64392
1081.24	11.6183
1084.62	18.7026
1087.99	16.9757
1091.37	8.06183
1094.74	1.10507
1098.12	0.876831
1101.49	1.61911
1104.87	0.720551
1108.24	0.98053
1111.62	9.48142
1114.99	10.5872
1118.37	14.2938
1121.74	15.99
1125.12	15.6002
1128.49	9.63428
1131.86	3.49146
1135.24	9.81882
1138.61	7.13403
1141.99	9.46753
1145.36	4.02985
1148.74	8.22107
1152.11	10.6859
1155.49	8.59589
1158.86	6.97012
1162.24	11.5256
1165.61	8.28332
1168.99	4.08786
1172.36	10.9116
1175.74	3.80502
1179.11	9.43045
1182.49	4.25491
1185.86	9.28937
1189.24	3.25394
1192.61	7.26056
1195.99	4.94482
1199.36	4.10446
1202.73	7.51035
1206.11	4.3743
1209.48	6.52368
1212.86	7.24573
1216.23	1.83639
1219.61	3.9913
1222.98	4.58682
1226.36	3.32407
1229.73	6.87576
1233.11	4.58893
1236.48	4.21506
1239.86	0.380707
1243.23	4.62686
1246.61	1.84427
1249.98	1.12292
1253.36	1.31369
1256.73	1.30054
1260.11	2.01001
1263.48	4.65378
1266.86	2.87048
1270.23	0.855927
1273.61	5.82761
1276.98	1.24963
1280.36	2.27063
1283.73	3.74466
1287.11	4.48462
1290.48	2.67819
1293.86	0.179504
1297.23	0.749939
1300.61	0.101593
