Measurement: Raman, 780 nm, unoriented, Raman Data Processed
Mineral: Santafeite
Rruff sample: R080054
Ideal chemistry: (Ca,Sr,Na)_3_(Mn^2+^,Fe^3+^)_2_Mn^4+^_2_(VO_4_)_4_(OH,O)_5_2H_2_O
Locality: Marble Canyon, Gunnison County, Colorado, USA
Source: James Shigley
Description: Black blocky crystals, associated with elongated groutite, R070583
Measured chemistry: (Ca_1.63_Na_1.34_Sr_0.02_)_Σ=2.99_Mn^+2^_1.84_Mn^+4^_1.96_(V_0.98_As_0.0025_O_4_)_4_OH_5_·2H_2_O
Raman shift (cm-1)	intensity
126.232	0
129.607	2.34732
132.982	7.46475
136.356	14.6694
139.731	22.3426
143.106	30.4886
146.481	32.6934
149.856	33.4926
153.23	30.2847
156.605	24.8297
159.98	21.4238
163.355	17.7978
166.73	20.6587
170.105	25.5059
173.479	28.3783
176.854	28.4606
180.229	27.1148
183.604	28.2383
186.978	23.687
190.353	21.9772
193.728	14.2937
197.103	11.5361
200.478	5.78268
203.853	0.684326
207.227	1.29777
210.602	2.70883
213.977	0.406326
217.352	0.293381
220.727	0.680405
224.101	4.37578
227.476	6.65859
230.851	8.28613
234.226	7.93431
237.601	11.3972
240.976	9.15529
244.35	6.94374
247.725	5.03653
251.1	2.00117
254.475	0.147949
257.85	0.659668
261.224	0.000534
264.599	2.71388
267.974	2.39345
271.349	6.40477
274.724	9.12192
278.099	13.498
281.473	22.9252
284.848	28.6057
288.223	35.1743
291.598	40.37
294.973	46.0849
298.347	42.5894
301.722	41.2614
305.097	37.1755
308.472	33.9366
311.847	34.8368
315.221	36.5846
318.596	39.9965
321.971	42.2516
325.346	50.2716
328.721	55.1409
332.096	63.74
335.47	66.0386
338.845	62.9088
342.22	61.9369
345.595	57.7707
348.97	54.8954
352.344	50.122
355.719	42.2825
359.094	38.4107
362.469	33.9108
365.844	26.7635
369.219	20.0746
372.593	15.971
375.968	6.77774
379.343	2.18089
382.718	1.15978
386.093	2.3681
389.467	0.255661
392.842	3.24445
396.217	7.29158
399.592	7.02212
402.967	6.48851
406.342	4.7076
409.716	2.92654
413.091	4.71849
416.466	5.53293
419.841	5.90826
423.216	9.02091
426.59	10.2993
429.965	14.26
433.34	11.2478
436.715	10.553
440.09	5.9863
443.464	3.11787
446.839	0.667618
450.214	1.2518
453.589	0.138306
456.964	2.38582
460.339	2.20235
463.713	3.7195
467.088	4.53841
470.463	2.24646
473.838	4.42439
477.213	2.3087
480.587	2.86537
483.962	2.71542
487.337	0.234955
490.712	4.09836
494.087	1.71149
497.462	2.6944
500.836	1.30548
504.211	1.80002
507.586	1.80777
510.961	0.403183
514.336	0.998123
517.71	1.31648
521.085	0.355759
524.46	1.01077
527.835	3.47682
531.21	3.57283
534.585	3.40189
537.959	5.87419
541.334	5.97052
544.709	5.01427
548.084	7.51924
551.459	6.6344
554.833	6.17804
558.208	5.33087
561.583	5.70622
564.958	4.26895
568.333	5.05624
571.707	2.06152
575.082	1.13699
578.457	0.743164
581.832	1.0506
585.207	0.46814
588.582	1.19999
591.956	0.073074
595.331	0.94059
598.706	2.20327
602.081	0.434868
605.456	0.222702
608.83	1.71125
612.205	1.77496
615.58	1.29323
618.955	2.27996
622.33	0.820557
625.705	0.231949
629.079	1.78455
632.454	2.04769
635.829	1.27226
639.204	2.35211
642.579	2.55523
645.953	0.827034
649.328	1.5497
652.703	1.73978
656.078	1.22073
659.453	2.64309
662.827	2.57916
666.202	1.7513
669.577	3.33018
672.952	4.04511
676.327	4.11785
679.702	5.40961
683.076	3.8341
686.451	4.08585
689.826	5.6863
693.201	7.82937
696.576	5.68995
699.951	5.83748
703.325	6.05094
706.7	8.71851
710.075	8.89806
713.45	9.74594
716.825	10.77
720.199	9.28677
723.574	8.34162
726.949	7.79849
730.324	6.28025
733.699	7.00678
737.073	6.27835
740.448	5.21981
743.823	5.97253
747.198	4.5976
750.573	3.32864
753.947	3.03082
757.322	1.54332
760.697	1.35717
764.072	0.08075
767.447	2.65009
770.822	1.38245
774.196	0.127258
777.571	1.5957
780.946	6.29991
784.321	13.3035
787.696	23.0231
791.071	34.0877
794.445	51.0704
797.82	65.9067
801.195	79.3093
804.57	84.2879
807.945	90.7854
811.319	82.0041
814.694	78.1064
818.069	71.0991
821.444	63.3455
824.819	56.4994
828.193	43.8683
831.568	38.5266
834.943	29.2727
838.318	20.6109
841.693	13.0153
845.068	3.03659
848.442	1.26768
851.817	2.48715
855.192	0.707123
858.567	3.67369
861.942	9.27835
865.317	20.7737
868.691	27.9445
872.066	38.7378
875.441	54.4665
878.816	73.3768
882.191	97.9234
885.565	132.258
888.94	176.041
892.315	222.862
895.69	265.83
899.065	293.693
902.439	292.659
905.814	268.175
909.189	226.979
912.564	194.296
915.939	178.156
919.313	176.748
922.688	189.897
926.063	213.325
929.438	243.211
932.813	272.134
936.188	278.884
939.562	260.842
942.937	217.297
946.312	159.749
949.687	101.269
953.062	63.7566
956.437	36.846
959.811	22.9153
963.186	14.0427
966.561	6.37763
969.936	2.98917
973.311	0.499565
976.685	0.633202
980.06	0.59726
983.435	1.73132
986.81	2.7141
990.185	1.30859
993.559	1.61684
996.934	2.07956
1000.31	1.72553
1003.68	2.97457
1007.06	4.63103
1010.43	4.73825
1013.81	7.20448
1017.18	7.43985
1020.56	8.04801
1023.93	10.443
1027.31	10.2729
1030.68	10.4625
1034.06	10.4989
1037.43	12.0861
1040.81	11.2731
1044.18	10.0351
1047.56	8.73283
1050.93	7.87388
1054.31	6.9517
1057.68	6.60081
1061.06	7.20279
1064.43	6.43652
1067.81	6.74947
1071.18	5.02047
1074.56	5.3156
1077.93	4.94746
1081.31	3.92107
1084.68	3.7812
1088.05	1.88612
1091.43	3.34259
1094.8	0.537849
1098.18	4.02827
1101.55	4.17246
1104.93	1.31027
1108.3	1.66617
1111.68	1.34605
1115.05	1.80681
1118.43	1.42182
1121.8	0.172531
1125.18	2.19442
1128.55	0.842239
1131.93	0.782875
1135.3	0.897575
1138.68	0.495163
1142.05	0.87381
1145.43	0.203506
1148.8	1.24191
1152.18	1.04532
1155.55	0.106239
1158.92	1.04253
1162.3	0.966904
1165.67	0.055893
1169.05	1.57746
1172.42	0.093353
1175.8	0.254044
1179.17	2.87183
1182.55	1.80547
1185.92	0.955032
1189.3	1.07897
1192.67	0.99041
1196.05	0.930244
1199.42	1.01092
1202.8	1.58888
1206.17	0.489059
1209.55	0.626976
1212.92	1.65822
1216.3	0.20182
1219.67	0.306221
1223.05	1.37685
1226.42	0.355423
1229.8	1.437
1233.17	0.068558
1236.55	2.16039
1239.92	2.43371
1243.3	1.96158
1246.67	1.86946
1250.05	1.49548
1253.42	0.7314
1256.8	0.679893
1260.17	1.30356
1263.55	1.19216
1266.92	0.12635
1270.29	1.08041
1273.67	0.609291
1277.04	0.771393
1280.42	1.08593
1283.79	1.27675
