Measurement: Raman, 532 nm, unoriented, Raman Data Processed
Mineral: Sapphirine
Rruff sample: R100143
Ideal chemistry: Mg_4_(Mg_3_Al_9_)O_4_[Si_3_Al_9_O_36_]
Locality: Unknown
Source: William W. Pinch
Description: Pale purple cut gemstones
Raman shift (cm-1)	intensity
134.908	0
138.283	0.008057
141.657	6.30692
145.032	24.3556
148.407	53.9274
151.782	114.196
155.157	197.846
158.532	264.352
161.906	326.662
165.281	414.64
168.656	449.13
172.031	425.849
175.406	363.872
178.78	285.561
182.155	227.7
185.53	200.043
188.905	187.992
192.28	173.765
195.655	166.941
199.029	172.407
202.404	199.083
205.779	226.962
209.154	259.625
212.529	305.234
215.904	345.916
219.278	365.944
222.653	318.376
226.028	259.655
229.403	240.138
232.778	215.459
236.152	184.702
239.527	170.41
242.902	156.617
246.277	147.877
249.652	130.361
253.026	127.115
256.401	123.928
259.776	113.847
263.151	85.7029
266.526	53.8505
269.901	22.7644
273.276	8.42859
276.65	4.6507
280.025	6.94836
283.4	14.5945
286.775	5.70471
290.15	4.48261
293.524	5.08032
296.899	14.9271
300.274	24.8004
303.649	33.0981
307.024	24.8282
310.399	26.7541
313.773	17.9606
317.148	20.5794
320.523	24.6271
323.898	33.0991
327.273	51.6652
330.647	59.5954
334.022	64.8234
337.397	48.6379
340.772	30.0408
344.147	14.4407
347.522	5.23297
350.896	1.29071
354.271	5.29602
357.646	10.2527
361.021	1.41718
364.396	7.99029
367.77	21.5048
371.145	51.4997
374.52	77.4091
377.895	100.724
381.27	124.723
384.644	132.593
388.019	142.661
391.394	152.618
394.769	164.856
398.144	184.598
401.519	188.645
404.894	196.118
408.268	178.206
411.643	173.671
415.018	148.897
418.393	133.344
421.767	112.717
425.142	83.3623
428.517	63.8684
431.892	36.1121
435.267	30.5957
438.642	24.478
442.017	16.5715
445.391	16.6793
448.766	27.1761
452.141	32.5342
455.516	51.7202
458.891	79.5448
462.265	118.715
465.64	164.796
469.015	198.361
472.39	224.407
475.765	224.934
479.139	197.985
482.514	163.548
485.889	144.105
489.264	140.165
492.639	149.175
496.014	151.819
499.388	154.052
502.763	125.113
506.138	81.6849
509.513	42.2521
512.888	17.7551
516.263	5.84699
519.637	9.86975
523.012	4.49579
526.387	6.68878
529.762	4.06604
533.137	1.73956
536.511	6.64825
539.886	9.32141
543.261	20.0914
546.636	35.053
550.011	51.5883
553.386	83.1122
556.76	114.774
560.135	136.401
563.51	159.049
566.885	164.407
570.26	161.349
573.635	148.67
577.009	166.863
580.384	199.031
583.759	244.544
587.134	290.341
590.509	318.638
593.883	291.978
597.258	213.455
600.633	157.784
604.008	120.922
607.383	89.6975
610.758	82.7217
614.132	61.4008
617.507	40.3702
620.882	21.7078
624.257	7.51825
627.632	0.091797
631.006	3.30035
634.381	10.587
637.756	1.9165
641.131	4.23254
644.506	15.7944
647.881	19.502
651.255	27.7373
654.63	49.4511
658.005	81.7607
661.38	111.76
664.755	148.498
668.13	204.274
671.504	269.615
674.879	365.407
678.254	476.034
681.629	588.985
685.004	678.576
688.378	718.814
691.753	652.857
695.128	534.673
698.503	420.318
701.878	335.295
705.253	286.87
708.627	235.235
712.002	203.691
715.377	183.782
718.752	155.783
722.127	142.6
725.501	132.991
728.876	135.001
732.251	130.131
735.626	121.322
739.001	109.544
742.375	93.7007
745.75	77.1509
749.125	63.9717
752.5	50.3614
755.875	35.5896
759.25	33.8877
762.625	22.525
765.999	12.3278
769.374	15.687
772.749	2.56128
776.124	2.79993
779.499	2.47217
782.873	2.87561
786.248	0.718262
789.623	9.09888
792.998	5.48401
796.373	2.58752
799.747	4.96912
803.122	17.5135
806.497	17.2825
809.872	22.7806
813.247	32.7487
816.621	34.2871
819.996	34.1435
823.371	33.162
826.746	25.5126
830.121	18.9326
833.496	16.3771
836.87	11.8402
840.245	8.98926
843.62	6.07092
846.995	7.25183
850.37	10.2362
853.745	12.0027
857.119	32.9971
860.494	41.072
863.869	54.3409
867.244	65.0336
870.619	84.9932
873.994	98.0685
877.368	118.766
880.743	134.61
884.118	158.095
887.493	170.044
890.868	197.098
894.242	214.807
897.617	242.108
900.992	267.722
904.367	303.059
907.742	320.388
911.116	345.915
914.491	339.351
917.866	291.995
921.241	203.884
924.616	135.336
927.991	72.4052
931.365	41.7544
934.74	27.8625
938.115	24.3265
941.49	7.22632
944.865	18.3209
948.24	33.5824
951.614	35.6316
954.989	27.5753
958.364	17.1984
961.739	12.907
965.114	10.4015
968.489	5.11475
971.863	2.11902
975.238	3.72315
978.613	3.85388
981.988	6.62456
985.362	2.23059
988.737	0.427734
992.112	2.92334
995.487	3.03125
998.862	2.10144
1002.24	1.14062
1005.61	0.604004
1008.99	9.7052
1012.36	4.36939
1015.74	4.92212
1019.11	0.999023
1022.49	9.38489
1025.86	2.71228
1029.23	5.39661
1032.61	10.4325
1035.98	16.595
1039.36	14.2833
1042.73	11.2927
1046.11	24.7242
1049.48	24.5511
1052.86	18.8716
1056.23	19.3766
1059.61	21.073
1062.98	17.2577
1066.36	11.9647
1069.73	5.20862
1073.11	11.9539
1076.48	6.96265
1079.86	7.04736
1083.23	8.35767
1086.61	4.09778
1089.98	9.21765
1093.36	8.68726
1096.73	4.56897
1100.11	6.20471
1103.48	5.97876
1106.86	15.3271
1110.23	9.59631
1113.61	9.30335
1116.98	9.8501
1120.36	15.6433
1123.73	6.08887
1127.11	17.501
1130.48	11.5044
1133.86	19.7231
1137.23	15.9114
1140.6	13.2847
1143.98	10.3132
1147.35	5.04517
1150.73	11.7668
1154.1	4.64502
1157.48	0.938232
1160.85	13.7239
1164.23	13.0059
1167.6	9.96265
1170.98	10.7073
1174.35	13.2837
1177.73	3.06152
1181.1	8.43921
1184.48	11.3286
1187.85	14.7615
1191.23	14.8982
1194.6	7.64893
1197.98	15.8193
1201.35	16.5476
1204.73	10.5723
1208.1	6.69067
1211.48	11.5586
1214.85	19.9004
1218.22	5.86011
1221.6	5.88818
1224.97	12.5347
1228.35	2.96826
1231.72	9.73389
1235.1	3.29009
1238.47	4.49097
1241.85	3.47217
1245.22	3.80835
1248.6	7.61133
1251.97	10.6069
1255.35	6.23486
1258.72	12.688
1262.1	14.4971
1265.47	16.2451
1268.85	21.7971
1272.22	19.5505
1275.6	26.6748
1278.97	10.7837
1282.35	12.3015
1285.72	14.0652
1289.1	9.96069
1292.47	12.2251
1295.85	10.9507
1299.22	1.03272
1302.6	0
