Measurement: Raman, 532 nm, unoriented, Raman Data Processed
Mineral: Sapphirine
Rruff sample: R060556
Ideal chemistry: Mg_4_(Mg_3_Al_9_)O_4_[Si_3_Al_9_O_36_]
Locality: unknown
Source: Gemological Institute of America
Description: Dark blue massive
Measured chemistry: Mg_4_(Mg_3.18_Al_8.52_Fe^2+^_0.32_)O_4_(Si_3.42_Al_8.58_O_36_)
Raman shift (cm-1)	intensity
150.931	0
153.824	3.16
156.716	33.796
159.609	228.22
162.502	779.646
165.394	965.97
168.287	1131.15
171.18	1135.04
174.072	727.941
176.965	874.667
179.858	1195.62
182.751	622.076
185.643	126.711
188.536	17.726
191.429	61.825
194.321	42.271
197.214	5.883
200.107	71.942
202.999	180.249
205.892	336.048
208.785	654.726
211.678	1015.39
214.57	1603.83
217.463	2200.59
220.356	2017.61
223.248	1358.69
226.141	936.357
229.034	929.121
231.926	911.229
234.819	912.991
237.712	886.178
240.605	900.226
243.497	553.775
246.39	482.999
249.283	406.383
252.176	497.9
255.068	604.059
257.961	765.568
260.854	911.241
263.746	774.231
266.639	487.426
269.532	276.8
272.424	166.851
275.317	12.194
278.21	37.351
281.103	4.637
283.995	53.269
286.888	29.296
289.781	13.86
292.673	184.986
295.566	407.026
298.459	688.317
301.351	975.404
304.244	1005.73
307.137	825.697
310.03	593.219
312.922	428.884
315.815	335.171
318.708	353.623
321.6	428.381
324.493	578.199
327.386	749.272
330.278	690.972
333.171	654.051
336.064	461.037
338.957	312.41
341.849	154.861
344.742	9.827
347.635	5.478
350.527	8.362
353.42	7.91
356.313	15.523
359.205	2.584
362.098	149.684
364.991	239.363
367.884	304.706
370.776	502.701
373.669	608.415
376.562	596.663
379.454	475.64
382.347	218.795
385.24	78.079
388.132	6.159
391.025	13.752
393.918	154.56
396.81	339.615
399.703	540.861
402.596	835.032
405.489	1130.61
408.381	1284.71
411.274	1303.12
414.167	1126.48
417.06	923.995
419.952	601.283
422.845	400.721
425.738	283.594
428.63	247.147
431.523	225.363
434.416	263.877
437.308	409.823
440.201	523.927
443.094	623.954
445.987	708.265
448.879	733.861
451.772	747.767
454.665	721.739
457.557	667.335
460.45	594.104
463.343	640.626
466.235	694.094
469.128	660.342
472.021	569.055
474.914	291.727
477.806	29.947
480.699	0.922
483.592	14.798
486.484	41.597
489.377	192.44
492.27	471.873
495.162	846.375
498.055	1089.93
500.948	1150.06
503.841	971.791
506.733	665.537
509.626	376.574
512.519	181.645
515.411	66.832
518.304	15.258
521.197	32.725
524.089	26.409
526.982	1.26
529.875	57.804
532.768	149.562
535.66	244.422
538.553	385.459
541.446	535.414
544.338	635.947
547.231	806.337
550.124	993.128
553.016	1457.42
555.909	2047.2
558.802	2881.85
561.695	3956.28
564.587	4531.81
567.48	4304.55
570.373	3507.61
573.265	2784.21
576.158	2353.27
579.051	2312.41
581.943	2510.21
584.836	2654.95
587.729	3048.75
590.622	2920.97
593.514	2358.26
596.407	1664.36
599.3	1288.68
602.192	1023.38
605.085	907.593
607.978	768.047
610.87	620.39
613.763	425.431
616.656	245.369
619.549	106.332
622.441	0.735
625.334	51.61
628.227	28.606
631.119	2.268
634.012	37.003
636.905	24.1
639.797	60.455
642.69	22.435
645.583	5.691
648.476	56.031
651.368	221.542
654.261	391.157
657.154	600.28
660.046	911.602
662.939	1125.91
665.832	1540.84
668.724	2486.58
671.617	2946.82
674.51	3730.49
677.403	4789.63
680.295	6050.57
683.188	7001.34
686.081	7421.52
688.973	6752.41
691.866	5626.07
694.759	4586.05
697.652	3733.33
700.544	3058.06
703.437	2454.63
706.33	2137.36
709.222	1857.35
712.115	1610.67
715.008	1390.68
717.901	1207.23
720.793	1036.64
723.686	1031.84
726.579	907.793
729.471	905.236
732.364	901.578
735.257	818.809
738.149	854.931
741.042	872.502
743.935	860.141
746.828	823.325
749.72	699.534
752.613	655.418
755.506	569.4
758.398	540.171
761.291	448.332
764.184	413.016
767.076	303.68
769.969	132.902
772.862	56.781
775.755	0.299
778.647	74.85
781.54	64.603
784.433	15.764
787.325	0.314
790.218	22.178
793.111	34.975
796.003	3.652
798.896	105.277
801.789	195.742
804.682	339.391
807.574	421.979
810.467	678.779
813.36	970.96
816.252	1370.29
819.145	1899.18
822.038	2245.78
824.93	2345.54
827.823	2195.63
830.716	1746.01
833.609	1266.03
836.501	836.439
839.394	552.859
842.287	245.173
845.179	105.449
848.072	3.978
850.965	2.581
853.857	24.995
856.75	0.976
859.643	57.148
862.536	128.638
865.428	136.376
868.321	213.57
871.214	342.312
874.106	391.719
876.999	533.529
879.892	657.113
882.784	788.424
885.677	852.653
888.57	864.503
891.463	881.1
894.355	944.955
897.248	1098.83
900.141	1306.85
903.033	1579.2
905.926	1914.69
908.819	2373.37
911.711	2811.57
914.604	2731.65
917.497	2053.66
920.39	1400.38
923.282	812.263
926.175	734.156
929.068	225.164
931.96	63
934.853	7.257
937.746	16.006
940.638	79.062
943.531	77.814
946.424	88.725
949.317	85.653
952.209	56.98
955.102	10.764
957.995	31.462
960.888	26.374
963.78	103.119
966.673	247.999
969.566	434.508
972.458	534.053
975.351	735.992
978.244	919.831
981.136	1138.16
984.029	1082.59
986.922	1021.38
989.815	812.492
992.707	553.489
995.6	399.756
998.493	258.152
1001.38	188.063
1004.28	131.277
1007.17	80.316
1010.06	63.299
1012.96	16.434
1015.85	29.907
1018.74	9.194
1021.63	36.807
1024.53	2.85
1027.42	12.987
1030.31	22.71
1033.2	56.107
1036.1	27.078
1038.99	85.584
1041.88	25.217
1044.78	99.84
1047.67	78.25
1050.56	95.246
1053.45	89.303
1056.35	98.388
1059.24	105.884
1062.13	73.003
1065.03	95.394
1067.92	43.623
1070.81	52.544
1073.7	131.315
1076.6	41.642
1079.49	26.754
1082.38	36.752
1085.27	51.49
1088.17	33.148
1091.06	45.359
1093.95	6.389
1096.84	63.37
1099.74	52.346
1102.63	57.771
1105.52	14.894
1108.41	72.684
1111.31	56.623
1114.2	2.33
1117.09	81.004
1119.99	94.948
1122.88	30.481
1125.77	43.537
1128.66	85.26
1131.56	88.548
1134.45	60.655
1137.34	100.295
1140.23	66.723
1143.13	71.69
1146.02	65.011
1148.91	7.269
1151.81	50.802
1154.7	31.642
1157.59	61.6
1160.48	71.456
1163.38	72.094
1166.27	7.382
1169.16	23.202
1172.06	27.949
1174.95	9.512
1177.84	7.648
1180.73	33.579
1183.62	13.619
1186.52	10.874
1189.41	17.767
1192.3	57.696
1195.2	46.321
1198.09	3.741
1200.98	41.647
1203.87	2.351
1206.77	8.851
1209.66	7.776
1212.55	47.079
1215.44	92.52
1218.34	2.253
1221.23	19.823
1224.12	14.163
1227.02	38.496
1229.91	45.823
1232.8	68.83
1235.69	52.783
1238.59	43.081
1241.48	65.758
1244.37	96.682
1247.27	101.744
1250.16	1.572
1253.05	71.658
1255.94	26.672
1258.84	21.856
1261.73	1.279
1264.62	11.246
1267.51	4.435
1270.41	21.675
1273.3	67.012
1276.19	8.015
1279.09	43.201
1281.98	35.828
1284.87	17.443
