Measurement: Raman, 532 nm, unoriented, Raman Data Processed
Mineral: Sapphirine
Rruff sample: R060073
Ideal chemistry: Mg_4_(Mg_3_Al_9_)O_4_[Si_3_Al_9_O_36_]
Locality: Androy, Madagascar
Source: Marcus Origlieri
Description: Dark blue massive
Measured chemistry: Mg_4_(Mg_3.32_Al_8.34_Fe^2+^_0.42_)O_4_(Si_3.5_Al_8.5_O_36_)
Raman shift (cm-1)	intensity
191.754	0
194.647	0.391167
197.54	0.46981
200.433	2.24351
203.325	6.82732
206.218	10.6868
209.111	16.3125
212.003	25.3852
214.896	36.5286
217.789	46.5554
220.681	38.818
223.574	24.1017
226.467	16.7621
229.359	14.8286
232.252	16.1511
235.145	20.4893
238.038	23.0297
240.93	20.8355
243.823	15.6463
246.716	13.088
249.608	11.4339
252.501	13.8706
255.394	17.5104
258.286	23.5231
261.179	24.8897
264.072	21.0294
266.965	13.1201
269.857	8.07858
272.75	5.06958
275.643	0.605804
278.535	0.010368
281.428	2.04514
284.321	1.63637
287.214	0.198845
290.106	2.33551
292.999	6.26897
295.892	11.7968
298.784	18.7763
301.677	23.5491
304.57	23.8494
307.462	20.0729
310.355	15.4966
313.248	9.96712
316.14	8.32562
319.033	8.82341
321.926	8.79144
324.819	10.9505
327.711	14.7564
330.604	15.0662
333.497	14.9054
336.389	12.0483
339.282	8.5616
342.175	3.87053
345.067	0.666733
347.96	1.05812
350.853	1.79428
353.746	0.769333
356.638	1.8351
359.531	2.23834
362.424	6.50334
365.316	9.65901
368.209	14.6811
371.102	20.4688
373.995	25.9372
376.887	26.7403
379.78	20.3242
382.673	15.385
385.565	11.8186
388.458	9.118
391.351	10.4374
394.243	12.8105
397.136	16.3871
400.029	20.3058
402.921	26.8168
405.814	30.7868
408.707	34.2666
411.6	31.1697
414.492	25.4311
417.385	20.0516
420.278	15.4013
423.17	10.7166
426.063	9.81303
428.956	12.0027
431.849	13.9704
434.741	17.4374
437.634	20.7666
440.527	25.8566
443.419	31.1412
446.312	39.1241
449.205	48.0189
452.097	52.8642
454.99	56.9251
457.883	58.2175
460.776	57.36
463.668	55.0457
466.561	51.3278
469.454	43.0537
472.346	31.0547
475.239	18.4912
478.132	4.7036
481.024	2.0773
483.917	5.75258
486.81	4.51674
489.702	0.283234
492.595	5.77309
495.488	12.7548
498.381	17.5531
501.273	21.0336
504.166	20.6117
507.059	18.0975
509.951	15.6399
512.844	15.0075
515.737	15.1502
518.63	17.4299
521.522	18.0795
524.415	16.0062
527.308	18.0864
530.2	19.9636
533.093	23.7274
535.986	27.1098
538.878	30.111
541.771	33.0381
544.664	32.1563
547.557	34.3154
550.449	38.4914
553.342	44.6017
556.235	56.1458
559.127	70.7751
562.02	87.8733
564.913	94.5647
567.805	85.8426
570.698	75.711
573.591	70.3987
576.484	69.7427
579.376	74.2777
582.269	85.26
585.162	95.0444
588.054	99.052
590.947	90.1896
593.84	74.4795
596.732	57.8176
599.625	47.9746
602.518	40.8432
605.41	35.5427
608.303	28.8457
611.196	22.2647
614.088	16.2771
616.981	8.86821
619.874	2.8327
622.767	0.034828
625.659	2.66863
628.552	2.44733
631.445	2.68459
634.337	1.80469
637.23	0.243965
640.123	1.11217
643.015	2.14305
645.908	4.41676
648.801	5.18861
651.694	8.54653
654.586	12.7638
657.479	18.771
660.372	26.1822
663.264	34.6536
666.157	44.7258
669.05	61.1019
671.942	82.1383
674.835	105.818
677.728	135.615
680.621	160.519
683.513	176.155
686.406	170.145
689.299	145.997
692.191	119.441
695.084	97.7002
697.977	80.9512
700.87	70.7684
703.762	62.3265
706.655	56.1332
709.548	50.1437
712.44	43.7602
715.333	37.81
718.226	33.6787
721.118	32.4815
724.011	29.8408
726.904	29.655
729.797	28.5826
732.689	26.8037
735.582	25.8498
738.475	24.1282
741.367	23.9895
744.26	21.0991
747.153	18.7244
750.045	17.6791
752.938	15.5261
755.831	12.8687
758.723	9.83648
761.616	7.61962
764.509	4.39897
767.402	2.85577
770.294	0.646164
773.187	0.991486
776.08	1.02628
778.972	0.689278
781.865	2.73685
784.758	1.00926
787.65	1.15318
790.543	0.347092
793.436	0.984436
796.329	2.38296
799.221	3.50107
802.114	6.64085
805.007	9.53346
807.899	12.2434
810.792	17.3286
813.685	21.0483
816.577	28.233
819.47	33.125
822.363	36.6956
825.256	36.5844
828.148	33.0184
831.041	28.89
833.934	23.2848
836.826	19.1095
839.719	16.4041
842.612	14.8947
845.505	14.0108
848.397	13.7929
851.29	14.9957
854.183	15.4124
857.075	16.5674
859.968	19.9172
862.861	18.991
865.753	19.8819
868.646	19.8221
871.539	20.303
874.432	21.4376
877.324	23.7548
880.217	25.0952
883.11	24.8631
886.002	25.5992
888.895	24.1677
891.788	26.5084
894.68	25.6855
897.573	28.2345
900.466	31.2802
903.359	38.5924
906.251	48.3684
909.144	58.8177
912.037	65.3185
914.929	59.2947
917.822	44.677
920.715	31.9047
923.607	17.609
926.5	6.85797
929.393	2.41222
932.285	0.876114
935.178	1.54033
938.071	0.829399
940.964	0.283249
943.856	0.294586
946.749	0.874374
949.642	1.84565
952.534	1.89071
955.427	1.79471
958.32	1.50745
961.212	1.44372
964.105	3.47109
966.998	5.06872
969.891	7.58566
972.783	10.7361
975.676	12.6768
978.569	16.0362
981.461	18.733
984.354	18.2512
987.247	17.5576
990.139	13.3724
993.032	10.878
995.925	7.75276
998.817	6.22874
1001.71	4.93596
1004.6	4.42057
1007.5	3.55575
1010.39	3.56393
1013.28	2.32536
1016.17	2.34158
1019.07	1.28581
1021.96	0.560982
1024.85	0.23391
1027.74	0.891258
1030.64	0.151489
1033.53	0.339806
1036.42	0.316086
1039.32	1.21016
1042.21	2.02903
1045.1	2.57443
1047.99	3.4783
1050.89	3.54632
1053.78	2.77434
1056.67	2.97514
1059.56	2.211
1062.46	2.84739
1065.35	2.41939
1068.24	1.70057
1071.13	1.85011
1074.03	3.13924
1076.92	2.66209
1079.81	3.41715
1082.71	2.71736
1085.6	2.62071
1088.49	2.33247
1091.38	2.26478
1094.28	1.82555
1097.17	1.98165
1100.06	1.96636
1102.95	1.48726
1105.85	1.51601
1108.74	2.69966
1111.63	1.82188
1114.53	2.25237
1117.42	2.1575
1120.31	2.46898
1123.2	1.99497
1126.1	2.32379
1128.99	2.0151
1131.88	2.40912
1134.77	1.80476
1137.67	2.24615
1140.56	2.41454
1143.45	0.645134
1146.35	1.50726
1149.24	1.42326
1152.13	2.84225
1155.02	1.8352
1157.92	2.31339
1160.81	0.830414
1163.7	1.15781
1166.59	1.81114
1169.49	1.21523
1172.38	1.12139
1175.27	1.7649
1178.16	0.152084
1181.06	0.362579
1183.95	2.179
1186.84	0.470818
1189.74	0.762741
1192.63	0.367104
1195.52	0.388969
1198.41	0.129028
1201.31	0.675186
1204.2	1.16567
1207.09	0.781097
1209.98	0.142876
1212.88	0.570877
1215.77	0.524384
1218.66	0.456505
1221.56	0.257782
1224.45	0.784599
1227.34	0.14772
1230.23	0.041702
1233.13	0.346161
1236.02	0.097931
1238.91	0.540138
1241.8	0.502075
1244.7	0.153458
1247.59	0.27739
1250.48	0.657188
1253.38	0.418259
1256.27	0.017921
1259.16	0.148567
1262.05	0.441681
1264.95	0.859879
1267.84	0.53389
1270.73	0.799736
1273.62	1.06312
1276.52	0.422562
1279.41	0.142036
1282.3	0.549553
1285.19	0.420547
1288.09	1.42896
1290.98	0.245697
1293.87	0.382248
1296.77	0.092377
1299.66	0.293335
1302.55	0
