Measurement: Raman, 780 nm, unoriented, Raman Data Processed
Mineral: Sapphirine
Rruff sample: R060556
Ideal chemistry: Mg_4_(Mg_3_Al_9_)O_4_[Si_3_Al_9_O_36_]
Locality: unknown
Source: Gemological Institute of America
Description: Dark blue massive
Measured chemistry: Mg_4_(Mg_3.18_Al_8.52_Fe^2+^_0.32_)O_4_(Si_3.42_Al_8.58_O_36_)
Raman shift (cm-1)	intensity
152.307	0
155.199	5.33002
158.092	4.39441
160.985	12.0411
163.877	29.964
166.77	28.2908
169.663	22.9369
172.555	15.3874
175.448	8.76025
178.341	3.26898
181.234	6.74103
184.126	2.6972
187.019	0.593079
189.912	0.89325
192.804	5.33838
195.697	13.4409
198.59	28.712
201.482	42.3947
204.375	52.5652
207.268	62.6108
210.161	79.1966
213.053	107.051
215.946	141.089
218.839	172.857
221.731	163.312
224.624	129.05
227.517	100.996
230.409	89.0327
233.302	75.5263
236.195	57.9283
239.088	45.2703
241.98	42.3212
244.873	39.4827
247.766	40.4381
250.658	37.3898
253.551	38.3343
256.444	46.0308
259.336	56.5635
262.229	56.3196
265.122	41.5406
268.014	20.9874
270.907	5.4234
273.8	4.27405
276.693	0.110657
279.585	1.89331
282.478	1.08099
285.371	6.02972
288.263	7.58795
291.156	12.3424
294.049	22.2383
296.942	31.7808
299.834	46.5702
302.727	58.8201
305.62	52.071
308.512	30.533
311.405	16.5985
314.298	11.1229
317.19	8.63678
320.083	10.3595
322.976	17.0637
325.868	21.7459
328.761	25.8957
331.654	25.6044
334.547	19.0697
337.439	12.877
340.332	7.12335
343.225	4.90051
346.117	0.984009
349.01	1.31122
351.903	1.48138
354.796	0.776794
357.688	4.67542
360.581	7.25915
363.474	8.53668
366.366	16.584
369.259	18.6565
372.152	18.3798
375.044	19.8464
377.937	20.5275
380.83	22.5696
383.722	22.9554
386.615	27.2394
389.508	27.928
392.401	31.0221
395.293	31.7371
398.186	32.4772
401.079	33.065
403.971	29.2995
406.864	28.8933
409.757	29.8641
412.649	28.2676
415.542	28.1891
418.435	21.598
421.327	19.9376
424.22	14.0526
427.113	6.45349
430.006	5.07785
432.898	1.81229
435.791	0.68869
438.684	3.41309
441.576	0.341461
444.469	3.51092
447.362	3.17245
450.255	0.904968
453.147	1.64908
456.04	9.06528
458.933	12.0861
461.825	18.6666
464.718	22.4883
467.611	31.7938
470.503	35.5991
473.396	33.0477
476.289	31.775
479.182	25.5369
482.074	22.7734
484.967	18.4669
487.86	21.2061
490.752	23.3219
493.645	27.3352
496.538	31.8186
499.43	32.7606
502.323	28.0048
505.216	18.4772
508.108	11.4903
511.001	4.90189
513.894	1.97314
516.787	1.71649
519.679	1.06631
522.572	0.88031
525.465	1.56158
528.357	1.71164
531.25	0.599792
534.143	4.15573
537.035	4.72055
539.928	4.75595
542.821	9.32223
545.713	10.1241
548.606	12.7473
551.499	19.0534
554.392	24.7878
557.284	31.1316
560.177	42.0912
563.07	54.8761
565.962	58.5928
568.855	58.5397
571.748	53.8802
574.64	50.469
577.533	53.3529
580.426	60.6494
583.319	73.7726
586.211	93.2552
589.104	107.146
591.997	104.057
594.889	87.555
597.782	64.3619
600.675	46.5712
603.567	37.7093
606.46	28.752
609.353	27.3586
612.246	21.6989
615.138	12.4263
618.031	10.6941
620.924	5.57095
623.816	2.76379
626.709	2.26562
629.602	0.149689
632.494	1.88403
635.387	1.29428
638.28	1.77661
641.173	1.12018
644.065	0.80188
646.958	3.42386
649.851	4.53143
652.743	9.05289
655.636	13.8627
658.529	21.6975
661.421	32.6317
664.314	46.0919
667.207	64.1032
670.1	86.2322
672.992	115.662
675.885	148.64
678.778	192.818
681.67	234.963
684.563	268.699
687.456	275.383
690.348	248.162
693.241	202.988
696.134	156.311
699.027	121.868
701.919	96.9936
704.812	76.6004
707.705	63.466
710.597	53.8572
713.49	50.6773
716.383	50.1484
719.275	49.7677
722.168	52.3271
725.061	53.0174
727.953	56.1506
730.846	54.8619
733.739	53.6869
736.632	52.2383
739.524	47.9403
742.417	45.1839
745.31	39.4985
748.202	36.8474
751.095	32.5724
753.988	28.1595
756.88	26.669
759.773	18.042
762.666	16.9107
765.559	15.6605
768.451	12.9912
771.344	10.0796
774.237	9.99029
777.129	8.95474
780.022	6.42816
782.915	4.76822
785.808	3.6264
788.7	1.03616
791.593	1.32849
794.486	0.47229
797.378	4.5296
800.271	0.316925
803.164	0.249664
806.056	0.210754
808.949	1.40085
811.842	1.35022
814.734	1.66269
817.627	3.77396
820.52	4.8551
823.413	6.07275
826.305	6.62387
829.198	7.01874
832.091	7.27975
834.983	5.73694
837.876	4.90607
840.769	6.37939
843.661	8.21472
846.554	10.132
849.447	14.3976
852.34	16.5209
855.232	18.7867
858.125	17.8317
861.018	20.029
863.91	23.6881
866.803	26.1369
869.696	27.629
872.588	30.73
875.481	34.1403
878.374	37.7629
881.266	43.1096
884.159	46.7648
887.052	53.0868
889.945	56.2764
892.837	60.2876
895.73	65.0948
898.623	69.4825
901.515	79.9116
904.408	90.6041
907.301	106.035
910.193	126.034
913.086	140.714
915.979	131.313
918.872	100.392
921.764	69.4787
924.657	44.8871
927.55	20.2715
930.442	10.1861
933.335	3.92001
936.228	0.69043
939.12	1.00897
942.013	1.72537
944.906	0.04361
947.799	2.60031
950.691	1.75449
953.584	2.79312
956.477	7.88037
959.369	9.95712
962.262	12.1401
965.155	15.654
968.047	20.398
970.94	31.3436
973.833	35.0967
976.726	38.603
979.618	37.3787
982.511	36.5101
985.404	35.1786
988.296	35.5736
991.189	29.8206
994.082	28.3125
996.974	23.6864
999.867	20.6277
1002.76	13.5462
1005.65	11.5094
1008.54	10.3723
1011.44	5.25528
1014.33	5.21719
1017.22	3.7731
1020.12	5.74234
1023.01	3.02478
1025.9	3.27257
1028.79	1.95653
1031.69	1.09305
1034.58	0.165527
1037.47	0.903671
1040.37	1.35057
1043.26	1.75192
1046.15	5.299
1049.04	3.2132
1051.94	1.59029
1054.83	2.13856
1057.72	1.79523
1060.61	1.46037
1063.51	0.169128
1066.4	1.10649
1069.29	0.373276
1072.18	0.651474
1075.08	0.644623
1077.97	1.51042
1080.86	0.319504
1083.76	1.6566
1086.65	1.27274
1089.54	0.516388
1092.43	0.602905
1095.33	4.77803
1098.22	0.372253
1101.11	1.62187
1104	0.452362
1106.9	0.884537
1109.79	3.34837
1112.68	4.47882
1115.58	3.84146
1118.47	1.93063
1121.36	3.43491
1124.25	1.63954
1127.15	2.77597
1130.04	1.89656
1132.93	3.62582
1135.82	3.56058
1138.72	2.51535
1141.61	2.94965
1144.5	2.67845
1147.39	3.7605
1150.29	4.59445
1153.18	1.89093
1156.07	3.23804
1158.97	1.86108
1161.86	1.23132
1164.75	2.76366
1167.64	4.72438
1170.54	3.29793
1173.43	4.15729
1176.32	4.01143
1179.21	1.79192
1182.11	3.43332
1185	3.30306
1187.89	2.526
1190.79	2.9772
1193.68	3.17557
1196.57	2.4785
1199.46	2.37344
1202.36	1.23895
1205.25	3.88618
1208.14	1.56432
1211.03	2.79048
1213.93	2.53554
1216.82	2.28255
1219.71	4.73427
1222.61	1.85901
1225.5	0.838318
1228.39	1.07082
1231.28	1.39528
1234.18	0.98111
1237.07	0.739105
1239.96	0.732925
1242.85	1.08276
1245.75	1.35455
1248.64	0.369232
1251.53	1.84634
1254.42	2.18347
1257.32	1.5968
1260.21	0.270935
1263.1	0.116821
1265.99	1.57194
1268.89	1.91191
1271.78	4.61754
1274.67	2.06699
1277.57	0.866745
1280.46	1.51614
1283.35	0.316483
