Measurement: Raman, 785 nm, unoriented, Raman Data Processed
Mineral: Sarabauite
Rruff sample: R060495
Ideal chemistry: CaSb^3+^_10_O_10_S_6_
Locality: Sarabau mine, near Bau, Sarawak, Borneo (Malaysia)
Source: Michael Scott
Description: Red tabular crystals associated with white wollastonite
Measured chemistry: Ca_1.00_Sb^3+^_10.00_O_10_S_6.00_
Raman shift (cm-1)	intensity
94.529	0
97.904	53.782
101.278	213.741
104.653	427.263
108.028	104.363
111.403	24.727
114.778	17.932
118.152	228.224
121.527	42.493
124.902	289.138
128.277	2975.98
131.652	8357.22
135.027	13609.2
138.401	11693.2
141.776	6513.87
145.151	9879.01
148.526	13808.4
151.901	19242.1
155.275	20116
158.65	13884.8
162.025	13038.1
165.4	11114.4
168.775	8926.7
172.15	8841.74
175.524	8493.32
178.899	4590.99
182.274	1799.7
185.649	755.189
189.024	689.846
192.398	1368.34
195.773	2734.76
199.148	4811.05
202.523	3203.48
205.898	498.311
209.273	57.688
212.647	271.579
216.022	19.726
219.397	79.911
222.772	104.816
226.147	1566.9
229.521	5123.49
232.896	11936.5
236.271	14161.3
239.646	2803.48
243.021	274.291
246.396	149.171
249.77	161.548
253.145	303.212
256.52	875.553
259.895	2277.73
263.27	2907.39
266.645	4199.28
270.019	7899.77
273.394	13193.7
276.769	16434.1
280.144	14910.9
283.519	14575.6
286.893	18970.9
290.268	23638
293.643	20857.2
297.018	10488.9
300.393	5406.59
303.767	7214.89
307.142	16478.9
310.517	35729.3
313.892	59414.2
317.267	78466.3
320.642	78382.6
324.016	40372.3
327.391	17660.5
330.766	10416
334.141	10169.5
337.516	14708.4
340.891	23274.7
344.265	38054.3
347.64	61558.8
351.015	73761.5
354.39	42588.6
357.765	19806.3
361.139	6399.07
364.514	1267.45
367.889	324.895
371.264	147.967
374.639	213.18
378.013	182.387
381.388	155.053
384.763	58.529
388.138	109.99
391.513	238.476
394.888	922.826
398.262	1831.63
401.637	2365.42
405.012	2290.96
408.387	1827.75
411.762	1689.56
415.137	1761.72
418.511	1677.18
421.886	1363.94
425.261	1119.11
428.636	781.109
432.011	506.707
435.385	218.523
438.76	29.64
442.135	3.531
445.51	59.157
448.885	40.314
452.259	17.82
455.634	69.37
459.009	153.929
462.384	290.389
465.759	344.245
469.134	413.7
472.508	491.652
475.883	573.955
479.258	797.773
482.633	1151.57
486.008	1435.94
489.382	1622.87
492.757	1667.63
496.132	1778.06
499.507	2066.06
502.882	2828.36
506.257	4075.13
509.631	5868.88
513.006	8025.41
516.381	9893.18
519.756	10508
523.131	9308.7
526.505	7044.84
529.88	4760.34
533.255	2976.08
536.63	1749.11
540.005	949.634
543.38	420.412
546.754	152.16
550.129	16.338
553.504	39.53
556.879	21.58
560.254	0.029
563.628	8.877
567.003	22.832
570.378	296.606
573.753	647.032
577.128	844.984
580.503	778.106
583.877	367.089
587.252	18.465
590.627	19.685
594.002	84.855
597.377	40.107
600.752	69.824
604.126	432.801
607.501	1075.82
610.876	1904.14
614.251	2908.33
617.625	3530.55
621	3220.76
624.375	2140.31
627.75	1134.22
631.125	536.952
634.5	211.858
637.875	68.701
641.249	16.335
644.624	2.503
647.999	0.101
651.374	0.069
654.748	0.405
658.123	123.267
661.498	307.531
664.873	584.594
668.248	732.405
671.623	595.488
674.997	403.998
678.372	213.184
681.747	156.698
685.122	183.764
688.497	273.589
691.872	425.454
695.246	674.718
698.621	851.387
701.996	851.439
705.371	716.93
708.746	552.823
712.12	338.26
715.495	188.846
718.87	106.213
722.245	55.898
725.62	11.934
728.995	1.82
732.369	3.483
735.744	1.644
739.119	4.092
742.494	2.043
745.869	6.742
749.243	14.008
752.618	0.439
755.993	1.05
759.368	2.476
762.743	2.433
766.117	0.573
769.492	8.917
772.867	9.508
776.242	19.787
779.617	36.303
782.992	26.822
786.366	30.399
789.741	48.46
793.116	21.68
796.491	15.072
799.866	0.139
803.24	0.156
806.615	7.543
809.99	7.295
813.365	4.28
816.74	0.049
820.115	1.672
823.489	4.57
826.864	8.797
830.239	6.447
833.614	10.132
836.989	23.211
840.364	26.557
843.738	20.488
847.113	28.954
850.488	24.145
853.863	15.748
857.237	1.259
860.612	24.854
863.987	11.003
867.362	6.978
870.737	0.106
874.112	8.167
877.487	0.258
880.861	17.681
884.236	4.219
887.611	7.412
890.986	0.036
894.36	4.943
897.735	4.869
901.11	17.013
904.485	18.525
907.86	215.646
911.235	238.39
914.609	320.086
917.984	20.999
921.359	7.334
924.734	14.924
928.109	23.675
931.484	28.098
934.858	16.291
938.233	22.147
941.608	9.051
944.983	27.794
948.358	27.675
951.732	14.099
955.107	7.72
958.482	6.133
961.857	20.01
965.232	1.164
968.607	1.048
971.981	9.821
975.356	2.307
978.731	8.639
982.106	0.376
985.481	6.415
988.856	9.153
992.23	1.442
995.605	1.417
998.98	0.763
1002.36	22.503
1005.73	11.329
1009.1	20.678
1012.48	13.693
1015.85	27.504
1019.23	9.438
1022.6	18.031
1025.98	9.555
1029.35	11.535
1032.73	18.32
1036.1	30.316
1039.48	12.488
1042.85	5.671
1046.23	11.137
1049.6	13.957
1052.98	14.852
1056.35	6.341
1059.73	12.556
1063.1	3.746
1066.48	1.724
1069.85	27.458
1073.23	22.275
1076.6	35.865
1079.98	17.466
1083.35	22.576
1086.72	22.57
1090.1	24.29
1093.47	1.952
1096.85	16.705
1100.22	24.917
1103.6	1.284
1106.97	2.658
1110.35	4.347
1113.72	0.777
1117.1	1.59
1120.47	2.96
1123.85	0.295
1127.22	0.691
1130.6	0.123
1133.97	3.758
1137.35	6.41
1140.72	5.135
1144.1	19.828
1147.47	32.672
1150.85	65.414
1154.22	99.533
1157.6	147.817
1160.97	250.546
1164.35	350.577
1167.72	492.857
1171.1	759.563
1174.47	1164.11
1177.85	1607.15
1181.22	2233.41
1184.6	2666.59
1187.97	2877.9
1191.34	2722.06
1194.72	2285.47
1198.09	1730.62
1201.47	1259.84
1204.84	918.061
1208.22	669.549
1211.59	489.843
1214.97	388.05
1218.34	300.916
1221.72	235.581
1225.09	194.407
1228.47	157.986
1231.84	138.2
1235.22	102.698
1238.59	107.051
1241.97	81.962
1245.34	32.836
1248.72	16.464
1252.09	2.001
1255.47	0.238
1258.84	2.049
1262.22	19.174
1265.59	0.224
1268.96	9.227
