Measurement: Raman, 780 nm, unoriented, Raman Data Processed
Mineral: Sarabauite
Rruff sample: R060495
Ideal chemistry: CaSb^3+^_10_O_10_S_6_
Locality: Sarabau mine, near Bau, Sarawak, Borneo (Malaysia)
Source: Michael Scott
Description: Red tabular crystals associated with white wollastonite
Measured chemistry: Ca_1.00_Sb^3+^_10.00_O_10_S_6.00_
Raman shift (cm-1)	intensity
91.5599	0
94.9347	65914.8
98.3096	26771
101.684	41561.1
105.059	67749.9
108.434	11194.6
111.809	4644.21
115.184	5025.44
118.558	32833.4
121.933	81676.4
125.308	79934.1
128.683	49127.2
132.058	69879.6
135.433	132712
138.807	208031
142.182	122557
145.557	75212.7
148.932	69070.4
152.307	59982.5
155.681	70859.7
159.056	61366.5
162.431	55976
165.806	56052.9
169.181	31719.1
172.555	27533.6
175.93	37583.8
179.305	24811.9
182.68	6643.54
186.055	331.123
189.43	2454.65
192.804	2315.06
196.179	850.365
199.554	2444.03
202.929	4996
206.304	288.928
209.678	2685.78
213.053	2669.04
216.428	335.414
219.803	3407.88
223.178	3547.68
226.553	5464.73
229.927	9406.22
233.302	18266.2
236.677	36204.2
240.052	28159.2
243.427	18525.5
246.801	19825.3
250.176	21135.1
253.551	22991.1
256.926	30643
260.301	43648.3
263.675	52416.4
267.05	51097
270.425	63879.5
273.8	95906.3
277.175	127665
280.55	141387
283.924	137835
287.299	154243
290.674	197666
294.049	221352
297.424	157953
300.798	81249.8
304.173	54651.1
307.548	56478
310.923	80704.8
314.298	129348
317.673	178937
321.047	229284
324.422	177788
327.797	87957.5
331.172	52172.6
334.547	51093
337.921	65704.4
341.296	86699.9
344.671	112136
348.046	167097
351.421	255264
354.796	224701
358.17	103918
361.545	41406.2
364.92	12446.5
368.295	2617.3
371.67	1148.51
375.044	2698.32
378.419	3121.58
381.794	2760.2
385.169	1904.1
388.544	638.644
391.918	526.382
395.293	1695.92
398.668	3267.47
402.043	5136.9
405.418	6325.97
408.793	6304.21
412.167	6425.98
415.542	7329.41
418.917	7787.35
422.292	6984.79
425.667	5872.79
429.041	5149.89
432.416	4403.85
435.791	3370.72
439.166	2329.98
442.541	1451.05
445.915	906.755
449.29	809.676
452.665	907.564
456.04	1103.01
459.415	1239.74
462.789	1397.36
466.164	1598.54
469.539	1697.4
472.914	1676.66
476.289	1661.19
479.664	1814.81
483.038	2242.91
486.413	2787.51
489.788	3247.76
493.163	3562.7
496.538	3798.87
499.913	4456.37
503.287	5796.88
506.662	7914.12
510.037	10887.5
513.412	14498.9
516.787	18283.7
520.161	20909.4
523.536	20281.7
526.911	16765.9
530.286	12123.2
533.661	7881.45
537.035	4703.43
540.41	2586.96
543.785	1206.54
547.16	429.446
550.535	76.5366
553.909	82.7939
557.284	180.329
560.659	232.99
564.034	220.537
567.409	37.3852
570.784	361.772
574.158	958.017
577.533	1607.44
580.908	2013.61
584.283	1721.94
587.658	922.003
591.033	239.798
594.407	54.125
597.782	1.30469
601.157	437.807
604.532	1222.49
607.907	2466.35
611.281	4217.35
614.656	6353.09
618.031	7901.6
621.406	7854.26
624.781	5994.69
628.155	3402.4
631.53	1535.22
634.905	565.84
638.28	104.665
641.655	42.0283
645.029	72.5503
648.404	39.5772
651.779	53.8149
655.154	257.698
658.529	623.339
661.904	1112.17
665.278	1910.21
668.653	2770
672.028	2884.06
675.403	2015.38
678.778	1087.31
682.153	579.891
685.527	420.916
688.902	531.941
692.277	762.706
695.652	1192.05
699.027	1765.97
702.401	1982.02
705.776	1609.41
709.151	1200.45
712.526	832.727
715.901	532.693
719.275	287.393
722.65	156.507
726.025	65.4825
729.4	31.7953
732.775	13.1207
736.149	18.5061
739.524	7.52173
742.899	21.1655
746.274	33.7308
749.649	34.8728
753.024	65.0012
756.398	60.59
759.773	55.4429
763.148	72.2559
766.523	92.454
769.898	89.1195
773.273	115.082
776.647	121.433
780.022	137.371
783.397	134.113
786.772	114.764
790.146	119.788
793.521	105.593
796.896	74.8992
800.271	78.3469
803.646	86.9178
807.021	84.5972
810.395	72.6985
813.77	82.6587
817.145	67.6071
820.52	59.8112
823.895	63.523
827.269	49.6512
830.644	27.0438
834.019	35.5646
837.394	26.5264
840.769	28.8514
844.144	26.5775
847.518	19.4521
850.893	20.387
854.268	16.2157
857.643	83.9808
861.018	10.0009
864.393	8.28784
867.767	9.05029
871.142	3.41748
874.517	5.52924
877.892	2.64777
881.266	18.3168
884.641	4.36194
888.016	7.84582
891.391	8.8208
894.766	4.64239
898.141	5.92395
901.515	4.74298
904.89	14.8794
908.265	26.2664
911.64	30.123
915.015	28.6565
918.389	41.0723
921.764	47.8748
925.139	47.6545
928.514	47.5207
931.889	19.1435
935.264	29.8753
938.638	21.2002
942.013	24.0998
945.388	7.62781
948.763	3.78552
952.138	7.02039
955.512	1.01569
958.887	11.9027
962.262	14.0363
965.637	12.5054
969.012	29.0366
972.386	35.7013
975.761	32.1138
979.136	25.6267
982.511	23.1764
985.886	20.525
989.261	16.8702
992.635	4.58508
996.01	10.0304
999.385	14.3141
1002.76	14.689
1006.13	12.913
1009.51	1.94879
1012.88	0.445801
1016.26	4.04053
1019.63	1.15991
1023.01	5.92523
1026.38	3.72894
1029.76	1.09247
1033.13	1.40942
1036.51	11.5734
1039.88	10.3459
1043.26	5.81903
1046.63	4.47711
1050.01	3.93262
1053.38	2.72522
1056.76	1.69958
1060.13	1.14453
1063.51	9.81744
1066.88	0.864868
1070.26	2.6828
1073.63	1.81763
1077.01	5.33295
1080.38	0.787292
1083.76	19.9533
1087.13	8.10077
1090.51	13.0765
1093.88	16.6211
1097.26	28.3784
1100.63	24.3452
1104	36.1766
1107.38	40.3699
1110.75	46.5603
1114.13	44.1738
1117.5	63.5715
1120.88	73.6656
1124.25	84.2689
1127.63	91.1439
1131	103.096
1134.38	119.952
1137.75	117.103
1141.13	130.11
1144.5	140.481
1147.88	148.373
1151.25	168.632
1154.63	169.099
1158	180.418
1161.38	201.79
1164.75	241.039
1168.13	262.768
1171.5	281.075
1174.88	281.176
1178.25	266.235
1181.62	237.928
1185	229.954
1188.38	214.614
1191.75	190.88
1195.12	164.642
1198.5	143.194
1201.87	108.107
1205.25	72.3721
1208.62	50.8034
1212	20.066
1215.37	10.454
1218.75	26.6573
1222.12	54.1368
1225.5	45.943
1228.87	15.2566
1232.25	20.3462
1235.62	134.549
1239	273.486
1242.37	509.73
1245.75	864.641
1249.12	1389.37
1252.5	2076.83
1255.87	2910.18
1259.25	3784.57
1262.62	4321.74
1265.99	4226.08
1269.37	3476.8
1272.74	2386.04
1276.12	1284.69
1279.49	476.487
1282.87	27.0911
