Measurement: Raman, 532 nm, unoriented, Raman Data Processed
Mineral: Sarabauite
Rruff sample: R060495
Ideal chemistry: CaSb^3+^_10_O_10_S_6_
Locality: Sarabau mine, near Bau, Sarawak, Borneo (Malaysia)
Source: Michael Scott
Description: Red tabular crystals associated with white wollastonite
Measured chemistry: Ca_1.00_Sb^3+^_10.00_O_10_S_6.00_
Raman shift (cm-1)	intensity
90.2653	0
93.6401	96.537
97.0149	34.5132
100.39	9.06055
103.765	22.599
107.139	43.1813
110.514	136.545
113.889	247.039
117.264	454.933
120.639	590.161
124.013	564.273
127.388	607.812
130.763	809.511
134.138	1105.96
137.513	1268.44
140.888	911.536
144.262	556.85
147.637	376.775
151.012	259.927
154.387	216.312
157.762	191.379
161.137	167.734
164.511	129.355
167.886	82.2434
171.261	71.2257
174.636	55.1935
178.011	21.7532
181.385	1.36615
184.76	5.65503
188.135	3.69849
191.51	5.04565
194.885	18.86
198.26	33.4905
201.634	17.4109
205.009	8.58917
208.384	18.8879
211.759	15.79
215.133	0.286011
218.508	17.0952
221.883	25.1374
225.258	45.2673
228.633	78.5669
232.008	122.701
235.382	136.107
238.757	91.1494
242.132	74.1738
245.507	70.9816
248.882	80.5947
252.256	100.549
255.631	129.205
259.006	165.12
262.381	195.039
265.756	220.778
269.131	264.716
272.505	327.91
275.88	367.838
279.255	383.086
282.63	383.634
286.005	389.973
289.38	382.531
292.754	343.914
296.129	289.311
299.504	281.478
302.879	344.96
306.254	460.235
309.628	625.475
313.003	807.201
316.378	926.288
319.753	871.292
323.128	635.132
326.502	447.467
329.877	372.52
333.252	387.956
336.627	458.449
340.002	558.615
343.377	675.295
346.751	763.778
350.126	696.062
353.501	470.181
356.876	253.785
360.251	116.688
363.625	39.4202
367	6.73608
370.375	7.52478
373.75	15.9448
377.125	12.1483
380.5	10.5832
383.874	6.40002
387.249	2.40466
390.624	5.33264
393.999	8.07111
397.374	16.4445
400.748	20.0693
404.123	19.4743
407.498	19.2195
410.873	13.7205
414.248	13.4612
417.623	16.0079
420.997	17.1511
424.372	14.1332
427.747	12.8188
431.122	10.4706
434.497	4.55206
437.872	2.68872
441.246	5.20032
444.621	1.40546
447.996	8.38001
451.371	8.47656
454.745	11.7375
458.12	14.494
461.495	16.6414
464.87	17.2654
468.245	20.5361
471.62	20.846
474.994	17.7648
478.369	17.9747
481.744	18.1791
485.119	17.8607
488.494	20.5629
491.868	19.7692
495.243	18.7705
498.618	23.9518
501.993	30.3274
505.368	37.0627
508.743	46.0472
512.117	55.2535
515.492	61.8398
518.867	59.3738
522.242	53.8331
525.617	43.8157
528.991	30.9435
532.366	21.6268
535.741	12.7538
539.116	5.92425
542.491	0.353333
545.866	0.013306
549.24	0.00592
552.615	2.35907
555.99	3.64703
559.365	0.99646
562.74	2.60895
566.115	8.95734
569.489	7.367
572.864	13.723
576.239	17.0047
579.614	17.3576
582.989	16.7844
586.363	14.9735
589.738	11.9171
593.113	14.1071
596.488	17.6133
599.863	22.6956
603.237	34.2429
606.612	44.7134
609.987	49.5034
613.362	51.5751
616.737	44.6992
620.112	34.0836
623.486	22.0836
626.861	13.3943
630.236	6.17752
633.611	1.14731
636.986	0.342773
640.361	0.38623
643.735	0.045532
647.11	0.098572
650.485	1.85614
653.86	0.591766
657.235	2.66998
660.609	5.91183
663.984	6.15747
667.359	8.00797
670.734	6.2084
674.109	7.56287
677.484	7.04254
680.858	8.85413
684.233	11.8888
687.608	21.1151
690.983	23.6073
694.357	28.7469
697.732	33.9342
701.107	34.4287
704.482	33.5441
707.857	27.606
711.232	20.3389
714.606	13.7601
717.981	7.35501
721.356	4.45252
724.731	1.46695
728.106	0.227051
731.481	2.24628
734.855	0.083893
738.23	0.842926
741.605	0.404083
744.98	1.27887
748.355	2.00519
751.729	2.07043
755.104	1.74631
758.479	1.00546
761.854	0.170654
765.229	2.84345
768.604	1.93851
771.978	1.54608
775.353	2.69217
778.728	4.98492
782.103	7.01325
785.478	7.99448
788.852	6.27106
792.227	6.96884
795.602	7.35037
798.977	6.69153
802.352	6.97119
805.726	11.2933
809.101	11.6738
812.476	12.034
815.851	11.5282
819.226	15.9231
822.601	16.7001
825.975	15.3571
829.35	14.4572
832.725	15.6634
836.1	17.6686
839.475	19.0982
842.85	20.7583
846.224	22.0804
849.599	20.7479
852.974	21.6226
856.349	21.1729
859.724	21.955
863.098	20.9068
866.473	17.9597
869.848	18.4529
873.223	19.0938
876.598	16.7138
879.972	14.0977
883.347	14.0869
886.722	11.3309
890.097	10.0793
893.472	8.32059
896.847	7.33939
900.221	4.02829
903.596	4.58823
906.971	3.62448
910.346	2.15961
913.721	0.120575
917.096	1.14615
920.47	1.3544
923.845	0.675446
927.22	0.39679
930.595	1.59573
933.97	0.165771
937.344	0.677032
940.719	1.13538
944.094	0.070862
947.469	0.039886
950.844	1.03036
954.218	0.480011
957.593	0.0065
960.968	0.197083
964.343	1.26828
967.718	3.31488
971.092	2.75974
974.467	1.83395
977.842	0.958374
981.217	2.33969
984.592	2.83508
987.967	4.13708
991.341	3.87677
994.716	5.2486
998.091	2.6008
1001.47	2.63296
1004.84	4.29663
1008.22	4.27225
1011.59	5.42813
1014.97	5.29364
1018.34	5.41818
1021.72	3.25552
1025.09	6.36536
1028.46	5.30441
1031.84	6.70303
1035.21	8.79184
1038.59	5.50793
1041.96	8.93234
1045.34	9.07794
1048.71	6.25876
1052.09	5.99963
1055.46	6.63998
1058.84	3.75558
1062.21	2.34723
1065.59	5.1936
1068.96	2.87643
1072.34	2.80335
1075.71	4.48364
1079.09	1.66205
1082.46	1.15576
1085.84	0.167938
1089.21	1.83023
1092.59	2.37314
1095.96	0.997375
1099.34	1.8494
1102.71	2.97092
1106.09	0.188629
1109.46	0.080566
1112.84	1.7399
1116.21	1.01605
1119.58	2.61295
1122.96	3.45291
1126.33	0.846313
1129.71	0.658478
1133.08	0.256256
1136.46	0.082458
1139.83	0.103149
1143.21	1.44467
1146.58	1.3334
1149.96	0.188354
1153.33	0.373779
1156.71	0.221619
1160.08	0.004242
1163.46	1.32046
1166.83	0.163025
1170.21	1.00275
1173.58	1.9129
1176.96	1.37903
1180.33	0.807281
1183.71	1.3725
1187.08	3.82422
1190.46	1.85583
1193.83	1.86032
1197.2	1.66977
1200.58	1.6615
1203.95	2.63916
1207.33	1.51346
1210.7	2.96039
1214.08	2.74649
1217.45	2.05789
1220.83	1.99759
1224.2	0.468414
1227.58	3.58371
1230.95	2.38522
1234.33	2.16867
1237.7	0.730164
1241.08	1.7384
1244.45	2.44251
1247.83	2.50467
1251.2	0.871429
1254.58	3.54144
1257.95	2.93906
1261.33	0.94455
1264.7	2.15491
1268.08	1.21695
1271.45	1.24658
1274.83	1.07458
1278.2	0.401337
1281.58	1.20117
1284.95	2.42752
1288.33	1.36313
1291.7	0.499054
1295.08	3.25095
1298.45	1.31799
1301.83	0
