Measurement: Raman, 785 nm, unoriented, Raman Data Processed
Mineral: Sarcopside
Rruff sample: R070553
Ideal chemistry: Fe^2+^_3_(PO_4_)_2_
Locality: Bull Moose mine, Custer District, Custer County, South Dakota, USA
Source: James Shigley
Description: Brown, lamellar crystals with waxy luster, forming intergrowth with triphylite
Measured chemistry: (Fe^2+^_2.30_Mn_0.67_Mg_0.03_)_Î£=3_(P_1.00_O_4_)_2_ ; lighter phase
Raman shift (cm-1)	intensity
156.112	0
159.005	66.6958
161.898	169.451
164.79	199.589
167.683	238.254
170.576	183.856
173.468	114.352
176.361	19.1094
179.254	21.3784
182.147	44.9976
185.039	4.72119
187.932	110.427
190.825	128.524
193.717	149.434
196.61	164.9
199.503	176.537
202.395	216.019
205.288	116.699
208.181	89.0938
211.073	26.1685
213.966	20.0801
216.859	15.8809
219.752	44.2007
222.644	48.415
225.537	15.9116
228.43	94.2305
231.322	75.9712
234.215	70.2407
237.108	84.8179
240	87.0952
242.893	158.196
245.786	177.157
248.679	190.649
251.571	224.708
254.464	185.146
257.357	176.391
260.249	178.909
263.142	151.087
266.035	174.833
268.928	196.059
271.82	279.638
274.713	321.931
277.606	390.228
280.498	458.953
283.391	421.181
286.284	464.904
289.176	458.563
292.069	431.918
294.962	365.011
297.854	389.896
300.747	413.663
303.64	342
306.533	244.3
309.425	295.825
312.318	241.224
315.211	208.881
318.103	269.233
320.996	268.051
323.889	278.185
326.781	294.687
329.674	306.38
332.567	224.331
335.46	201.264
338.352	204.206
341.245	102.123
344.138	95.5195
347.03	91.5518
349.923	20.7944
352.816	16.2393
355.709	18.7651
358.601	43.3208
361.494	12.418
364.387	24.3423
367.279	9.0957
370.172	0.576172
373.065	15.3779
375.957	32.9243
378.85	27.9092
381.743	61.1421
384.635	97.3037
387.528	166.707
390.421	170.08
393.314	217.214
396.206	232.835
399.099	278.904
401.992	226.132
404.884	199.725
407.777	175.782
410.67	177.394
413.562	195.315
416.455	173.82
419.348	145.184
422.241	121.93
425.133	61.9092
428.026	71.3731
430.919	1.33838
433.811	20.8403
436.704	33.5254
439.597	10.5723
442.49	9.4834
445.382	20.7363
448.275	104.778
451.168	111.853
454.06	136.403
456.953	205.768
459.846	339.685
462.738	356.978
465.631	442.434
468.524	511.068
471.416	575.145
474.309	694.968
477.202	654.312
480.095	603.831
482.987	500.928
485.88	445.448
488.773	289.809
491.665	220.722
494.558	133.714
497.451	107.947
500.344	54.6348
503.236	48.9761
506.129	29.1328
509.022	7.1001
511.914	51.0264
514.807	16.9648
517.7	24.4531
520.592	46.5459
523.485	39.7334
526.378	41.5557
529.271	62.0601
532.163	44.7441
535.056	78.3779
537.949	130.968
540.841	209.188
543.734	249.375
546.627	381.49
549.519	518.601
552.412	424.877
555.305	352.85
558.198	175.683
561.09	61.1621
563.983	25.9077
566.876	23.0034
569.768	69.4424
572.661	53.3442
575.554	113.18
578.447	118.241
581.339	111.456
584.232	192.369
587.125	239.922
590.017	323.834
592.91	422.86
595.803	525.011
598.695	642.871
601.588	702.591
604.481	705.842
607.374	641.53
610.266	483.984
613.159	513.483
616.052	516.036
618.944	570.904
621.837	640.207
624.73	600.068
627.622	496.035
630.515	311.083
633.408	252.835
636.301	182.444
639.193	92.8457
642.086	50.6406
644.979	43.7056
647.871	39.0371
650.764	33.2398
653.657	23.5828
656.549	9.26709
659.442	6.58643
662.335	11.1511
665.227	9.55981
668.12	13.728
671.013	34.8442
673.906	8.74854
676.798	26.5593
679.691	5.72778
682.584	17.4946
685.476	67.02
688.369	33.1443
691.262	64.1169
694.154	70.9097
697.047	50.0913
699.94	27.2812
702.833	37.956
705.725	58.1694
708.618	47.2417
711.511	57.6548
714.403	21.897
717.296	30.7566
720.189	85.4998
723.082	29.1792
725.974	16.4038
728.867	41.2761
731.76	38.6855
734.652	12.2903
737.545	3.22778
740.438	24.533
743.33	13.7144
746.223	3.2063
749.116	32.4951
752.009	54.6248
754.901	36.4238
757.794	56.6416
760.687	12.0591
763.579	15.1729
766.472	54.0984
769.365	76.4407
772.257	35.9324
775.15	73.4753
778.043	24.1221
780.936	50.8257
783.828	34.8816
786.721	23.324
789.614	24.415
792.506	72.3577
795.399	83.9602
798.292	57.4409
801.184	28.5102
804.077	50.0967
806.97	40.9214
809.862	78.9578
812.755	97.5415
815.648	90.0474
818.541	94.0388
821.433	68.3843
824.326	85.4263
827.219	105.839
830.111	35.4285
833.004	85.1431
835.897	104.794
838.79	80.4668
841.682	60.908
844.575	62.2161
847.468	63.8818
850.36	16.3262
853.253	65.0398
856.146	34.6018
859.038	23.3972
861.931	22.1189
864.824	0.493896
867.717	0.163574
870.609	6.18506
873.502	16.0561
876.395	4.20264
879.287	2.30933
882.18	13.5562
885.073	48.7898
887.966	3.23315
890.858	12.3032
893.751	5.14111
896.644	28.8459
899.536	25.0281
902.429	15.1821
905.322	70.8494
908.214	97.4905
911.107	181.36
914	308.354
916.893	499.627
919.785	812.101
922.678	1163.55
925.571	1363.32
928.463	1361.35
931.356	1057.93
934.249	656.25
937.141	409.029
940.034	251.36
942.927	192.359
945.819	196.274
948.712	227.217
951.605	294.026
954.498	320.628
957.39	551.862
960.283	893.007
963.176	1518.31
966.068	2471.69
968.961	3609.77
971.854	3972.16
974.746	2742.6
977.639	1412.61
980.532	717.523
983.425	405.994
986.317	268.455
989.21	211.828
992.103	109.244
994.995	34.99
997.888	58.1643
1000.78	18.0964
1003.67	30.0073
1006.57	23.2979
1009.46	11.7493
1012.35	2.10547
1015.24	22.6628
1018.14	1.3667
1021.03	18.689
1023.92	87.2732
1026.82	118.021
1029.71	181.411
1032.6	234.599
1035.49	347.335
1038.39	295.026
1041.28	234.089
1044.17	208.861
1047.06	156.386
1049.96	161.579
1052.85	84.2627
1055.74	118.472
1058.63	112.887
1061.53	139.267
1064.42	132.482
1067.31	131.35
1070.21	112.168
1073.1	109.461
1075.99	36.6628
1078.88	58.4014
1081.78	4.79199
1084.67	40.012
1087.56	21.6841
1090.45	9.51636
1093.35	42.1155
1096.24	51.0669
1099.13	66.686
1102.03	82.0496
1104.92	69.8865
1107.81	36.831
1110.7	69.3757
1113.6	47.1624
1116.49	89.9653
1119.38	55.7051
1122.27	72.2078
1125.17	68.8533
1128.06	95.5911
1130.95	87.9544
1133.85	100.89
1136.74	66.2659
1139.63	46.4531
1142.52	54.2395
1145.42	72.019
1148.31	43.5566
1151.2	2.21631
1154.09	7.64478
1156.99	39.124
1159.88	24.3586
1162.77	3.63477
1165.66	17.8315
1168.56	17.6106
1171.45	16.1592
1174.34	35.0979
1177.24	0.284424
1180.13	14.8848
1183.02	8.98584
1185.91	37.0283
1188.81	30.8702
1191.7	17.4796
1194.59	49.5571
1197.48	3.5271
1200.38	24.2521
1203.27	29.0376
1206.16	38.8254
1209.06	45.5832
1211.95	36.8102
1214.84	54.1632
1217.73	68.4042
1220.63	71.4614
1223.52	53.4623
1226.41	67.1437
1229.3	38.704
1232.2	67.8101
1235.09	70.5093
1237.98	54.5665
1240.88	24.9708
1243.77	49.4978
1246.66	42.8468
1249.55	8.94946
1252.45	42.8674
1255.34	0.857788
1258.23	43.1885
1261.12	9.28174
1264.02	21.0324
1266.91	0.063599
