Measurement: Raman, 532 nm, unoriented, Raman Data Processed
Mineral: Sarcopside
Rruff sample: R070553
Ideal chemistry: Fe^2+^_3_(PO_4_)_2_
Locality: Bull Moose mine, Custer District, Custer County, South Dakota, USA
Source: James Shigley
Description: Brown, lamellar crystals with waxy luster, forming intergrowth with triphylite
Measured chemistry: (Fe^2+^_2.30_Mn_0.67_Mg_0.03_)_Î£=3_(P_1.00_O_4_)_2_ ; lighter phase
Raman shift (cm-1)	intensity
160.762	0
163.655	96.2412
166.547	107.609
169.44	204.927
172.333	398.806
175.225	367.497
178.118	250.036
181.011	177.484
183.904	48.7285
186.796	89.6318
189.689	140.368
192.582	291.369
195.474	220.253
198.367	132.393
201.26	181.877
204.153	283.424
207.045	123.586
209.938	96.1856
212.831	43.6797
215.723	21.7041
218.616	32.1836
221.509	21.8779
224.401	91.0391
227.294	110.41
230.187	263.639
233.079	147.826
235.972	15.667
238.865	32.0967
241.758	89.6709
244.65	77.8262
247.543	174.91
250.436	55.3057
253.328	90.7832
256.221	68.1709
259.114	76.2353
262.007	11.9434
264.899	121.834
267.792	191.421
270.685	154.154
273.577	114.304
276.47	78.7978
279.363	173.934
282.255	245.311
285.148	264.272
288.041	288.728
290.933	214.565
293.826	196.117
296.719	210.556
299.612	158.553
302.504	95.7783
305.397	131.853
308.29	93.6035
311.182	117.698
314.075	197.058
316.968	158.148
319.861	200.923
322.753	215.352
325.646	224.086
328.539	233.769
331.431	95.7861
334.324	130.841
337.217	49.5781
340.109	111.317
343.002	79.5195
345.895	0.037109
348.788	0.235352
351.68	80.7207
354.573	156.706
357.466	76.9043
360.358	8.78613
363.251	69.1387
366.144	52.5879
369.036	51.0322
371.929	64.1064
374.822	113.666
377.714	276.622
380.607	150.09
383.5	50.7832
386.393	281.076
389.285	321.7
392.178	347.764
395.071	394.555
397.963	375.848
400.856	214.508
403.749	250.626
406.642	191
409.534	192.535
412.427	172.726
415.32	87.9629
418.212	166.238
421.105	77.626
423.998	93.4688
426.89	25.668
429.783	66.043
432.676	31.665
435.568	42.5762
438.461	37.581
441.354	62.8691
444.247	101.564
447.139	56.0596
450.032	101.649
452.925	271.138
455.817	338.434
458.71	414.716
461.603	528.173
464.496	659.153
467.388	699.278
470.281	782.002
473.174	831.249
476.066	887.823
478.959	801.575
481.852	696.698
484.745	642.213
487.637	487.315
490.53	336.169
493.423	155.352
496.315	81.2422
499.208	73.0889
502.101	84.7939
504.993	112.964
507.886	114.061
510.779	104.192
513.672	25.6201
516.564	35.4453
519.457	70.7559
522.35	2.04492
525.242	35.0908
528.135	41.9844
531.028	8.1377
533.92	151.27
536.813	147.281
539.706	195.21
542.598	295.361
545.491	430.451
548.384	535.033
551.277	579.785
554.169	278.761
557.062	181.059
559.955	52.542
562.847	30.4326
565.74	53.2656
568.633	66.4717
571.525	66.8955
574.418	59.5674
577.311	92.4639
580.204	69.4785
583.096	50.8584
585.989	166.812
588.882	154.847
591.774	279.944
594.667	355.834
597.56	581.439
600.452	576.913
603.345	742.011
606.238	736.62
609.131	473.942
612.023	476.237
614.916	435.099
617.809	367.69
620.701	398.26
623.594	354.286
626.487	334.896
629.38	225.242
632.272	189.261
635.165	5.83203
638.058	21.6836
640.95	33.4922
643.843	99.2959
646.736	12.3115
649.628	84.5752
652.521	87.084
655.414	30.0186
658.307	23.7695
661.199	27.3262
664.092	2.74512
666.985	2.15332
669.877	50.8506
672.77	78.7197
675.663	116.375
678.556	103.149
681.448	134.984
684.341	27.7715
687.234	123.135
690.126	114.138
693.019	125.591
695.912	99.6504
698.804	96.168
701.697	119.498
704.59	78.3311
707.482	137.205
710.375	3.95117
713.268	21.6191
716.161	19.2266
719.053	20.5537
721.946	23.6084
724.839	54.8447
727.731	74.001
730.624	61.1406
733.517	34.124
736.409	91.4922
739.302	66.9502
742.195	160.465
745.088	12.8604
747.98	215.933
750.873	109.702
753.766	70.5459
756.658	60.0645
759.551	140.727
762.444	105.276
765.337	50.2031
768.229	101.079
771.122	139.502
774.015	99.126
776.907	80.0596
779.8	32.9697
782.693	131.57
785.585	141.512
788.478	233.4
791.371	209.617
794.264	176.991
797.156	121.853
800.049	103.015
802.942	211.369
805.834	123.574
808.727	107.339
811.62	180.786
814.512	26.3418
817.405	76.6103
820.298	47.9795
823.191	52.6621
826.083	42.6543
828.976	131.616
831.869	3.40039
834.761	8.69531
837.654	8.61035
840.547	91.4531
843.439	135.894
846.332	75.7188
849.225	76.4356
852.118	68.5674
855.01	63.1982
857.903	111.123
860.796	123.989
863.688	72.165
866.581	145.976
869.474	69.085
872.366	106.731
875.259	117.152
878.152	110.159
881.045	158.098
883.937	56.8457
886.83	16.9932
889.723	74.6123
892.615	8.57324
895.508	37.5205
898.401	69.3984
901.293	39.7568
904.186	79.7393
907.079	237.523
909.972	341.312
912.864	503.278
915.757	708.823
918.65	1172.9
921.542	1630.14
924.435	2127.15
927.328	2201.69
930.221	1752.99
933.113	1150.38
936.006	621.531
938.899	349.06
941.791	278.188
944.684	213.153
947.577	279.024
950.469	199.805
953.362	301.397
956.255	524.168
959.148	998.967
962.04	1981.79
964.933	3402.19
967.826	5024.32
970.718	5906.3
973.611	4615.02
976.504	2406.54
979.396	1175.57
982.289	566.496
985.182	311.671
988.074	292.562
990.967	145.289
993.86	207.467
996.753	50.916
999.645	8.78906
1002.54	23.248
1005.43	16.5674
1008.32	22.5684
1011.22	57.749
1014.11	91.9356
1017	29.5986
1019.89	38.0332
1022.79	67.3545
1025.68	148.744
1028.57	303.979
1031.46	525.631
1034.36	496.414
1037.25	294.765
1040.14	328.931
1043.04	303.292
1045.93	205.457
1048.82	232.988
1051.71	195.606
1054.61	186.945
1057.5	212.21
1060.39	311.127
1063.29	384.245
1066.18	366.289
1069.07	375.798
1071.96	383.737
1074.86	252.953
1077.75	96.4941
1080.64	100.272
1083.53	59.1172
1086.43	122.775
1089.32	45.2285
1092.21	139.288
1095.1	32.0488
1098	104.332
1100.89	180.953
1103.78	129.344
1106.67	10.2656
1109.57	46.8066
1112.46	131.204
1115.35	193.523
1118.25	210.873
1121.14	90.3906
1124.03	16.3145
1126.92	31.4434
1129.82	148.394
1132.71	130.914
1135.6	147.51
1138.49	158.707
1141.39	69.2324
1144.28	114.109
1147.17	110.367
1150.07	114.631
1152.96	165.145
1155.85	3.98828
1158.74	38.0742
1161.64	26.1875
1164.53	28.7705
1167.42	37.8955
1170.32	101.706
1173.21	118.484
1176.1	46.5273
1178.99	86.9248
1181.88	155.918
1184.78	203.047
1187.67	175.637
1190.56	112.652
1193.46	133.769
1196.35	160.548
1199.24	170.82
1202.13	127.391
1205.03	120.152
1207.92	67.168
1210.81	129.613
1213.7	163.828
1216.6	156.58
1219.49	202.065
1222.38	353.769
1225.28	234.162
1228.17	194.451
1231.06	77.2266
1233.95	95.7031
1236.85	116.022
1239.74	52.6738
1242.63	107.74
1245.53	113.244
1248.42	60.6094
1251.31	141.057
1254.2	113.152
1257.1	34.8027
1259.99	68.4434
1262.88	225.121
1265.77	149.576
1268.67	220.176
1271.56	109.297
1274.45	89.2832
1277.35	111.75
1280.24	22.2109
1283.13	71.7422
1286.02	73.6875
1288.91	121.404
1291.81	85.1797
1294.7	40.5879
