Measurement: Raman, 780 nm, unoriented, Raman Data Processed
Mineral: Sarkinite
Rruff sample: R080065
Ideal chemistry: Mn^2+^_2_As^5+^O_4_(OH)
Locality: Langban, Filipstad, Varmland, Sweden
Source: Michael Scott
Description: Vitreous pink massive
Raman shift (cm-1)	intensity
112.772	0
116.147	17.2317
119.522	5.81934
122.897	79.7939
126.272	64.321
129.646	96.3941
133.021	165.779
136.396	66.2007
139.771	50.0216
143.146	74.4526
146.52	28.4444
149.895	20.5432
153.27	6.45815
156.645	3.10509
160.02	29.6356
163.395	34.8455
166.769	72.2324
170.144	94.262
173.519	88.8569
176.894	73.0987
180.269	118.367
183.643	190.567
187.018	270.629
190.393	231.517
193.768	214.466
197.143	252.214
200.518	151.924
203.892	91.888
207.267	59.233
210.642	56.0884
214.017	63.5706
217.392	55.8997
220.766	67.4745
224.141	81.1722
227.516	61.7766
230.891	39.8901
234.266	49.7602
237.641	61.3407
241.015	74.9903
244.39	68.3436
247.765	48.3488
251.14	34.7823
254.515	32.9611
257.889	27.6456
261.264	28.4512
264.639	28.0021
268.014	37.6398
271.389	39.9276
274.764	30.1925
278.138	21.4708
281.513	8.44672
284.888	0.087723
288.263	1.8654
291.638	4.24345
295.012	14.0898
298.387	13.1485
301.762	2.51498
305.137	38.5437
308.512	84.1914
311.887	132.34
315.261	193.473
318.636	299.453
322.011	387.759
325.386	392.923
328.761	439.205
332.135	516.95
335.51	744.94
338.885	883.579
342.26	474.224
345.635	185.263
349.01	87.2436
352.384	42.6706
355.759	6.63992
359.134	7.65243
362.509	3.4054
365.884	36.8299
369.258	108.894
372.633	169.818
376.008	169.309
379.383	108.528
382.758	86.2312
386.132	92.1714
389.507	105.295
392.882	125.103
396.257	132.506
399.632	109.504
403.007	85.021
406.381	65.0113
409.756	42.7786
413.131	25.0408
416.506	11.2188
419.881	23.6761
423.255	75.8183
426.63	157.982
430.005	248.631
433.38	361.222
436.755	449.417
440.13	471.115
443.504	431.2
446.879	329.181
450.254	249.993
453.629	250.702
457.004	282.687
460.378	307.943
463.753	313.101
467.128	333.336
470.503	323.446
473.878	308.601
477.252	275.171
480.627	185.896
484.002	93.0423
487.377	46.0564
490.752	25.31
494.127	19.932
497.501	25.4729
500.876	26.3347
504.251	21.2213
507.626	9.50926
511.001	2.70706
514.375	2.6134
517.75	7.58888
521.125	8.7119
524.5	8.5704
527.875	5.78261
531.25	0.653637
534.624	3.78417
537.999	7.06578
541.374	12.7645
544.749	18.3618
548.124	20.2431
551.499	23.0853
554.873	26.7245
558.248	30.5778
561.623	34.1649
564.998	37.7156
568.373	38.6685
571.747	40.3366
575.122	39.1801
578.497	35.8638
581.872	32.5654
585.247	26.0541
588.621	23.4025
591.996	22.4257
595.371	19.788
598.746	17.9283
602.121	17.0594
605.495	18.5782
608.87	17.901
612.245	14.1338
615.62	14.3645
618.995	16.4594
622.37	13.8753
625.744	13.7492
629.119	12.0361
632.494	13.0039
635.869	11.6043
639.244	12.0786
642.619	10.299
645.993	12.4537
649.368	12.4707
652.743	14.2626
656.118	15.5885
659.493	15.9222
662.867	17.8853
666.242	20.2451
669.617	24.9178
672.992	27.4171
676.367	23.8762
679.741	25.7849
683.116	27.3824
686.491	28.2942
689.866	32.6275
693.241	35.3893
696.615	40.9744
699.99	52.3436
703.365	61.1505
706.74	70.4724
710.115	83.094
713.49	85.7237
716.864	88.3804
720.239	77.0029
723.614	65.86
726.989	48.9303
730.364	38.6931
733.739	32.2931
737.113	27.6655
740.488	20.8908
743.863	10.9867
747.238	0.418076
750.613	1.30425
753.987	7.53349
757.362	12.8721
760.737	15.4746
764.112	18.2936
767.487	20.298
770.861	17.1274
774.236	13.8447
777.611	1.78368
780.986	31.2214
784.361	76.3588
787.736	142.922
791.11	254.552
794.485	386.223
797.86	524
801.235	606.352
804.61	742.364
807.985	1074.23
811.359	1625.37
814.734	2211.11
818.109	2824.83
821.484	4025.55
824.859	5474.98
828.233	6244.07
831.608	8145.36
834.983	10328.3
838.358	10662.2
841.733	8090.97
845.107	5692.27
848.482	3951.18
851.857	2405.05
855.232	1555.35
858.607	1229.66
861.982	1073.8
865.356	942.694
868.731	813.814
872.106	720.852
875.481	644.14
878.856	595.545
882.231	623.379
885.605	661.541
888.98	613.145
892.355	536.983
895.73	415.23
899.105	296.924
902.479	224.426
905.854	173.86
909.229	116.128
912.604	67.2659
915.979	28.5592
919.353	0.473679
922.728	16.4822
926.103	24.5753
929.478	23.1938
932.853	21.9637
936.227	13.2317
939.602	5.3763
942.977	0.398529
946.352	8.35574
949.727	15.2106
953.102	20.9156
956.476	20.5728
959.851	23.7037
963.226	28.0501
966.601	35.506
969.976	40.2014
973.351	43.7014
976.725	52.2784
980.1	56.2608
983.475	55.2786
986.85	55.718
990.225	49.2921
993.599	47.449
996.974	43.0245
1000.35	41.8814
1003.72	42.7891
1007.1	41.7134
1010.47	41.307
1013.85	39.798
1017.22	37.3675
1020.6	33.1489
1023.97	29.1805
1027.35	25.0867
1030.72	25.1251
1034.1	19.1203
1037.47	16.9936
1040.85	14.3522
1044.22	13.1547
1047.6	9.06809
1050.97	8.81743
1054.35	10.4471
1057.72	8.15228
1061.1	7.46873
1064.47	6.26882
1067.85	6.08773
1071.22	4.17736
1074.6	3.26837
1077.97	5.82469
1081.35	3.1458
1084.72	2.72988
1088.09	3.39342
1091.47	1.72047
1094.84	2.59087
1098.22	0.571363
1101.59	1.87018
1104.97	2.89967
1108.34	4.35468
1111.72	2.30536
1115.09	0.922577
1118.47	0.446552
1121.84	0.51182
1125.22	0.87262
1128.59	1.38675
1131.97	0.390844
1135.34	1.8933
1138.72	0.54248
1142.09	0.074344
1145.47	1.97788
1148.84	1.40732
1152.22	0.303616
1155.59	0.097094
1158.96	0.753273
1162.34	1.44431
1165.71	0.946059
1169.09	0.047905
1172.46	1.5074
1175.84	0.964382
1179.21	0.107301
1182.59	2.66089
1185.96	0.9248
1189.34	1.89409
1192.71	0.799809
1196.09	0.875688
1199.46	1.48656
1202.84	2.12343
1206.21	0.321726
1209.59	0.852785
1212.96	1.15069
1216.34	2.26224
1219.71	0.149909
1223.09	3.5848
1226.46	2.02345
1229.84	2.32479
1233.21	2.37865
1236.59	2.28365
1239.96	1.40965
1243.34	1.6696
1246.71	2.07416
1250.09	4.41609
1253.46	2.7561
1256.84	3.79187
1260.21	1.64655
1263.59	1.34722
1266.96	1.71464
1270.33	2.69188
1273.71	1.0592
1277.08	0.631018
