Measurement: Raman, 532 nm, unoriented, Raman Data Processed
Mineral: Sarkinite
Rruff sample: R080065
Ideal chemistry: Mn^2+^_2_As^5+^O_4_(OH)
Locality: Langban, Filipstad, Varmland, Sweden
Source: Michael Scott
Description: Vitreous pink massive
Raman shift (cm-1)	intensity
96.6926	0
100.067	2.34112
103.442	8.09824
106.817	3.80193
110.192	10.3323
113.567	34.2087
116.942	3.5248
120.316	24.6881
123.691	102.848
127.066	73.5063
130.441	144.046
133.816	208.383
137.19	141.789
140.565	221.694
143.94	324.985
147.315	124.366
150.69	46.8923
154.065	42.9563
157.439	104.621
160.814	149.817
164.189	98.4594
167.564	167.78
170.939	160.498
174.313	109.182
177.688	96.1847
181.063	173.576
184.438	348.913
187.813	510.203
191.187	338.349
194.562	177.693
197.937	107.778
201.312	55.3854
204.687	34.6656
208.061	26.1019
211.436	27.902
214.811	43.8934
218.186	66.6406
221.561	107.493
224.936	110.171
228.31	38.7174
231.685	11.1732
235.06	3.69809
238.435	33.6957
241.81	73.9439
245.185	71.2759
248.559	47.9873
251.934	22.1343
255.309	10.6187
258.684	26.0821
262.059	49.99
265.433	89.7552
268.808	124.317
272.183	141.672
275.558	147.242
278.933	125.2
282.308	95.0945
285.682	85.2468
289.057	90.6858
292.432	56.1051
295.807	9.60584
299.182	22.2501
302.556	16.2407
305.931	6.84949
309.306	52.6448
312.681	108.703
316.056	194.242
319.43	312.102
322.805	409.585
326.18	459.632
329.555	498.369
332.93	519.326
336.305	713.699
339.679	688.857
343.054	311.105
346.429	130.807
349.804	87.1173
353.179	84.5569
356.553	60.1889
359.928	23.8037
363.303	20.6519
366.678	63.4551
370.053	136.346
373.428	177.452
376.802	143.076
380.177	81.9638
383.552	67.1509
386.927	69.4384
390.302	72.2485
393.676	74.441
397.051	50.6625
400.426	17.4571
403.801	8.5824
407.176	13.7881
410.55	3.86829
413.925	30.6578
417.3	65.231
420.675	137.67
424.05	276.485
427.425	465.275
430.799	676.355
434.174	845.577
437.549	991.998
440.924	1122.81
444.299	1083.33
447.673	855.984
451.048	690.567
454.423	654.105
457.798	694.624
461.173	829.493
464.548	1064.68
467.922	1198.59
471.297	1086
474.672	910.153
478.047	730.816
481.422	488.637
484.796	307.71
488.171	199.847
491.546	144.873
494.921	116.276
498.296	112.558
501.671	96.7598
505.045	65.3265
508.42	36.9166
511.795	14.1991
515.17	1.87308
518.545	3.93498
521.919	7.14435
525.294	8.44
528.669	6.29688
532.044	4.03549
535.419	0.841812
538.794	4.9115
542.168	7.24004
545.543	9.40382
548.918	14.024
552.293	17.9897
555.668	22.8289
559.043	25.9453
562.417	28.1207
565.792	31.8261
569.167	34.9684
572.542	39.0142
575.917	35.7764
579.291	36.0772
582.666	34.7951
586.041	28.7143
589.416	26.2267
592.791	20.5079
596.165	24.7063
599.54	23.8115
602.915	20.2219
606.29	19.5177
609.665	17.9754
613.039	18.8315
616.414	18.8551
619.789	17.1149
623.164	15.741
626.539	15.3874
629.914	16.5542
633.288	17.991
636.663	12.2397
640.038	14.2988
643.413	17.0319
646.788	17.928
650.163	19.701
653.537	19.0757
656.912	25.7486
660.287	32.1899
663.662	37.3088
667.037	44.2006
670.411	47.7512
673.786	47.5977
677.161	55.645
680.536	54.0778
683.911	55.5745
687.285	57.1407
690.66	58.153
694.035	60.9708
697.41	71.1384
700.785	86.0149
704.159	100.406
707.534	119.41
710.909	128.259
714.284	134.93
717.659	122.598
721.034	104.499
724.408	83.007
727.783	62.1518
731.158	45.6775
734.533	35.4896
737.908	23.5253
741.283	11.1422
744.657	5.10672
748.032	3.27744
751.407	10.7088
754.782	19.229
758.157	21.2823
761.531	25.1251
764.906	27.3906
768.281	18.649
771.656	11.9955
775.031	4.91199
778.405	35.9573
781.78	93.645
785.155	184.544
788.53	329.727
791.905	547.167
795.28	833.725
798.654	1204.31
802.029	1628.2
805.404	2227.27
808.779	3417.85
812.154	5106.72
815.529	5948.56
818.903	5993.46
822.278	7570.44
825.653	9655.59
829.028	11665.8
832.403	15389.5
835.777	16699.8
839.152	14117.2
842.527	9447.9
845.902	6307
849.277	4269.66
852.652	2895.9
856.026	2416.49
859.401	2297.47
862.776	2007.9
866.151	1496.17
869.526	1092.79
872.9	879.626
876.275	719.408
879.65	638.793
883.025	628.973
886.4	631.603
889.774	564.139
893.149	465.998
896.524	344.571
899.899	238.063
903.274	164.787
906.649	100.204
910.023	50.5264
913.398	10.746
916.773	12.3501
920.148	30.3306
923.523	33.2211
926.898	28.5353
930.272	20.0939
933.647	17.3135
937.022	4.85083
940.397	4.32434
943.771	12.5347
947.146	25.3417
950.521	35.7816
953.896	35.6479
957.271	41.7172
960.646	46.2973
964.02	48.3216
967.395	59.6433
970.77	72.5142
974.145	75.7603
977.52	79.8201
980.894	81.8433
984.269	80.2539
987.644	74.2454
991.019	75.274
994.394	71.1133
997.769	68.4038
1001.14	62.1212
1004.52	63.2174
1007.89	61.2936
1011.27	62.004
1014.64	58.4659
1018.02	58.9504
1021.39	47.6962
1024.77	34.6452
1028.14	36.4292
1031.52	26.9435
1034.89	25.4504
1038.27	26.5201
1041.64	13.2817
1045.02	11.4002
1048.39	12.4578
1051.77	11.1145
1055.14	14.779
1058.52	9.8429
1061.89	9.55914
1065.27	8.76648
1068.64	9.24725
1072.02	6.32507
1075.39	3.02875
1078.76	7.36438
1082.14	0.544128
1085.51	4.80969
1088.89	10.0342
1092.26	5.74316
1095.64	8.78479
1099.01	2.44507
1102.39	0.245972
1105.76	4.57349
1109.14	3.35065
1112.51	4.04669
1115.89	6.56403
1119.26	1.35596
1122.64	0.730286
1126.01	1.83008
1129.39	1.30347
1132.76	3.06854
1136.14	3.93726
1139.51	1.33759
1142.89	3.23523
1146.26	3.61853
1149.63	0.838806
1153.01	2.64569
1156.38	2.05158
1159.76	5.755
1163.13	4.54614
1166.51	7.48926
1169.88	3.53912
1173.26	5.84875
1176.63	9.9101
1180.01	4.45703
1183.38	4.06763
1186.76	3.38861
1190.13	3.65918
1193.51	4.06586
1196.88	1.44299
1200.26	6.77862
1203.63	2.76276
1207.01	2.61182
1210.38	10.1525
1213.76	2.61511
1217.13	4.54169
1220.51	5.58814
1223.88	3.14929
1227.26	0.085205
1230.63	3.83386
1234.01	13.5489
1237.38	5.01025
1240.76	0.164063
1244.13	7.1875
1247.51	10.9493
1250.88	13.4751
1254.26	8.08911
1257.63	9.37878
1261	4.92114
1264.38	13.3445
1267.75	9.28455
1271.13	8.34216
1274.5	6.32104
1277.88	0.002075
1281.25	0.158081
