Measurement: Raman, 780 nm, unoriented, Raman Data Processed
Mineral: Sartorite
Rruff sample: R130104
Ideal chemistry: PbAs_2_S_4_
Locality: Lengenbach Quarry, Im Feld, Binn Valley, Wallis, Switzerland
Source: Donald Doell (Small piece), Rock Currier (Large piece)
Raman shift (cm-1)	intensity
91.6817	2026.88
95.0565	2286.08
98.4313	2312.13
101.806	2283.62
105.181	2238.69
108.556	2180.48
111.931	2124.64
115.305	2071.55
118.68	2053.96
122.055	2042.26
125.43	1996.97
128.805	1945.99
132.179	1900.21
135.554	1873.03
138.929	1845.11
142.304	1823.91
145.679	1801.94
149.054	1773.86
152.428	1743.36
155.803	1745.14
159.178	1796.42
162.553	1859.62
165.928	1902.1
169.302	1921.02
172.677	1930.41
176.052	1916.82
179.427	1866.42
182.802	1793.82
186.177	1705.13
189.551	1619.56
192.926	1569.19
196.301	1541.12
199.676	1521.14
203.051	1505.83
206.425	1488.61
209.8	1453.66
213.175	1412.61
216.55	1400.78
219.925	1451.06
223.299	1531.44
226.674	1592.74
230.049	1583.71
233.424	1527.01
236.799	1449.55
240.173	1370.88
243.548	1344.75
246.923	1369.96
250.298	1405.84
253.673	1447.37
257.048	1490.17
260.422	1520.59
263.797	1554.25
267.172	1606.48
270.547	1682.82
273.922	1768.46
277.296	1849.7
280.671	1909.95
284.046	1935.9
287.421	1952.57
290.796	1972.04
294.171	1994.71
297.545	2018.55
300.92	1991.6
304.295	1899.46
307.67	1791.22
311.045	1693
314.42	1628.08
317.794	1551.17
321.169	1468.2
324.544	1377.65
327.919	1338.43
331.293	1332.97
334.668	1328.81
338.043	1240.05
341.418	1116.98
344.793	1151.51
348.168	1384.51
351.542	1715.27
354.917	1967.3
358.292	2125.11
361.667	2271.7
365.042	2211.38
368.416	1994.08
371.791	1740.57
375.166	1511.73
378.541	1208.82
381.916	835.2
385.291	527.074
388.665	352.828
392.04	260.394
395.415	208.18
398.79	178.127
402.165	156.15
405.539	141.283
408.914	128.76
412.289	118.981
415.664	111.589
419.039	106.195
422.413	100.459
425.788	94.8865
429.163	90.3363
432.538	86.8624
435.913	84.0723
439.288	80.5151
442.662	77.935
446.037	75.34
449.412	72.3749
452.787	70.6389
456.162	70.4478
459.536	68.1358
462.911	65.978
466.286	63.175
469.661	62.5127
473.036	60.9974
476.411	57.4177
479.785	56.1972
483.16	54.3281
486.535	53.8446
489.91	51.7802
493.285	50.4763
496.659	49.4298
500.034	48.2637
503.409	47.06
506.784	45.5548
510.159	45.8462
513.534	44.7655
516.908	43.8493
520.283	44.3001
523.658	43.8502
527.033	43.0625
530.408	42.5273
533.782	41.8974
537.157	40.4148
540.532	40.6566
543.907	40.5464
547.282	40.1274
550.656	39.0632
554.031	39.0821
557.406	39.5421
560.781	39.1389
564.156	38.3864
567.53	38.412
570.905	37.8891
574.28	37.7722
577.655	37.4499
581.03	36.5793
584.405	36.4213
587.779	36.3862
591.154	35.9917
594.529	35.7715
597.904	34.3378
601.279	34.5299
604.654	33.8513
608.028	32.8987
611.403	31.8006
614.778	31.0033
618.153	31.0212
621.528	31.1261
624.902	30.1331
628.277	29.6535
631.652	33.5079
635.027	29.6422
638.402	29.4067
641.776	29.0008
645.151	28.9821
648.526	28.4706
651.901	29.8592
655.276	27.1456
658.65	26.9577
662.025	26.8558
665.4	26.199
668.775	25.6057
672.15	25.0149
675.525	24.1528
678.899	22.4925
682.274	22.1901
685.649	21.2069
689.024	20.492
692.399	19.5696
695.774	18.7602
699.148	18.593
702.523	18.4672
705.898	18.1781
709.273	18.0768
712.648	17.9516
716.022	17.4833
719.397	16.9111
722.772	19.6709
726.147	15.8753
729.522	15.7342
732.896	15.1054
736.271	15.0798
739.646	14.1799
743.021	13.684
746.396	12.8383
749.77	11.6282
753.145	11.3673
756.52	9.67985
759.895	8.62281
763.27	7.85622
766.645	7.34481
770.019	6.77927
773.394	5.02342
776.769	5.57861
780.144	5.10341
783.519	5.16511
786.894	4.77491
790.268	4.61407
793.643	4.13633
797.018	4.35299
800.393	4.51565
803.768	4.30205
807.142	4.18236
810.517	4.45482
813.892	4.34943
817.267	3.91626
820.642	3.97851
824.016	3.5665
827.391	4.10446
830.766	3.71266
834.141	3.7281
837.516	3.65585
840.89	3.55967
844.265	3.50276
847.64	3.41899
851.015	3.42337
854.39	3.26925
857.765	3.47352
861.139	2.86495
864.514	3.03261
867.889	3.38828
871.264	3.44091
874.639	3.0782
878.013	3.52578
881.388	3.40377
884.763	3.22552
888.138	2.87897
891.513	3.17397
894.888	3.19024
898.262	2.60537
901.637	3.11084
905.012	2.97603
908.387	2.95979
911.762	3.43666
915.136	3.04166
918.511	2.60237
921.886	3.06175
925.261	3.02867
928.636	2.8686
932.01	3.00688
935.385	2.48348
938.76	2.8945
942.135	2.85555
945.51	3.08445
948.885	2.75603
952.259	2.88976
955.634	2.9
959.009	3.1336
962.384	2.987
965.759	4.40294
969.133	2.87434
972.508	6.20496
975.883	2.62443
979.258	2.55516
982.633	2.75667
986.008	2.28269
989.382	2.63112
992.757	2.48056
996.132	2.4373
999.507	2.92342
1002.88	2.98644
1006.26	2.83151
1009.63	2.51234
1013.01	2.33103
1016.38	2.56029
1019.76	2.6614
1023.13	3.10394
1026.51	2.40058
1029.88	2.56421
1033.26	1.52807
1036.63	1.91343
1040.01	2.60813
1043.38	2.64299
1046.75	2.75847
1050.13	2.58049
1053.5	2.58697
1056.88	2.40818
1060.25	2.65613
1063.63	2.67448
1067	1.93444
1070.38	2.54256
1073.75	2.55768
1077.13	2.45154
1080.5	2.57188
1083.88	2.25294
1087.25	1.99395
1090.63	1.97418
1094	3.31659
1097.38	2.43164
1100.75	2.64374
1104.13	2.18123
1107.5	1.76567
1110.88	2.37534
1114.25	1.95956
1117.62	2.38732
1121	2.23288
1124.38	2.11196
1127.75	2.15664
1131.12	2.44728
1134.5	2.08371
1137.87	2.304
1141.25	2.19807
1144.62	2.12348
1148	2.15431
1151.37	2.25245
1154.75	2.17738
1158.12	1.98936
1161.5	2.18913
1164.87	2.27365
1168.25	3.27094
1171.62	1.91147
1175	2.1177
1178.37	2.47047
1181.75	1.95754
1185.12	3.57414
1188.5	1.47877
1191.87	2.54557
1195.25	2.21495
1198.62	2.31343
1202	2.22079
1205.37	1.8631
1208.74	2.2107
1212.12	2.07946
1215.49	1.73177
1218.87	1.89599
1222.24	1.67667
1225.62	1.79798
1228.99	2.27823
1232.37	1.25217
1235.74	1.82294
1239.12	6.39522
1242.49	1.84907
1245.87	2.41802
1249.24	2.5205
1252.62	2.19992
1255.99	2.30857
1259.37	2.10323
1262.74	2.09671
1266.12	2.19281
1269.49	1.7354
1272.87	2.40699
1276.24	2.2836
1279.62	1.85439
1282.99	2.07966
