Measurement: Raman, 532 nm, unoriented, Raman Data Processed
Mineral: Satterlyite
Rruff sample: R060810
Ideal chemistry: (Fe^2+^,Mg,Fe^3+^)_12_(PO_3_OH)(PO_4_)_5_(OH,O)_6_
Locality: Big Fish River Area, Yukon Territory, Canada
Source: Michael Scott
Description: Yellowish-brown gemmy irregularly shaped coarse grains
Measured chemistry: (Fe^2+^_7.95_Mg_2.25_Fe^3+^_0.66_Na_0.66_Mn_0.48_)_Σ=12_(P_1.00_O_3_OH)(P_1.00_O_4_)_5_((OH)_5.00_O_1.00_)_Σ=6_; OH estimated by charge balance
Raman shift (cm-1)	intensity
169.252	0
172.145	1.23438
175.038	92.8472
177.93	55.5674
180.823	15.3086
183.716	36.2051
186.608	63.3105
189.501	62.2954
192.394	55.0698
195.286	4.24707
198.179	442.782
201.072	219.348
203.965	200.206
206.857	174.486
209.75	138.644
212.643	103.697
215.535	108.624
218.428	129.189
221.321	142.567
224.214	135.356
227.106	144.878
229.999	171.494
232.892	209.51
235.784	216.626
238.677	272.532
241.57	365.152
244.462	442.318
247.355	480.156
250.248	520.035
253.141	525.375
256.033	490.396
258.926	487.379
261.819	592.286
264.711	577.937
267.604	478.125
270.497	409.103
273.389	272.528
276.282	248.821
279.175	232.227
282.067	185.778
284.96	106.05
287.853	89.5454
290.746	49.1592
293.638	28.2739
296.531	10.0596
299.424	24.5337
302.316	16.2378
305.209	56.875
308.102	69.9356
310.994	66.5811
313.887	14.5444
316.78	47.7793
319.673	76.167
322.565	142.838
325.458	124.532
328.351	181.899
331.243	203.487
334.136	241.669
337.029	209.042
339.921	176.236
342.814	281.204
345.707	190.439
348.599	120.759
351.492	122.049
354.385	92.4297
357.278	43.4692
360.17	27.96
363.063	21.3203
365.956	28.5996
368.848	9.23682
371.741	23.352
374.634	55.4302
377.526	41.9224
380.419	14.3774
383.312	67.7188
386.205	107.702
389.097	147.635
391.99	181.806
394.883	265.831
397.775	317.852
400.668	328.252
403.561	425.683
406.454	505.92
409.346	573.753
412.239	718.184
415.132	833.874
418.024	911.796
420.917	949.357
423.81	1009.62
426.702	1099.1
429.595	1159.71
432.488	1160.54
435.38	1332.82
438.273	1470.2
441.166	1655.8
444.059	1763.16
446.951	1817.55
449.844	1610.59
452.737	1451.88
455.629	1304.3
458.522	1078.94
461.415	1055.08
464.308	1058.13
467.2	1124.59
470.093	1123.33
472.986	1106.95
475.878	1065.4
478.771	1006.34
481.664	901.238
484.556	784.899
487.449	616.16
490.342	440.015
493.234	247.625
496.127	213.723
499.02	122.703
501.913	175.706
504.805	305.071
507.698	367.416
510.591	258.037
513.483	133.867
516.376	5.68457
519.269	112.193
522.161	58.8965
525.054	49.1294
527.947	28.7725
530.84	66.166
533.732	89.2056
536.625	266.684
539.518	396.321
542.41	549.333
545.303	676.913
548.196	855.933
551.088	929.335
553.981	1077.7
556.874	924.175
559.766	891.997
562.659	1110.46
565.552	1286.06
568.445	1461.23
571.337	1545.1
574.23	1525.58
577.123	1575
580.015	1544.76
582.908	1605.84
585.801	1662.97
588.693	1752.89
591.586	1862.59
594.479	1848.98
597.372	1580.86
600.264	1409.29
603.157	1253.82
606.05	1157.54
608.942	1058.67
611.835	949.881
614.728	883.343
617.62	909.742
620.513	864.703
623.406	549.382
626.298	571.727
629.191	325.2
632.084	278.221
634.977	170.116
637.869	58.5342
640.762	9.55225
643.655	22.5698
646.547	2.79785
649.44	29.8574
652.333	25.3496
655.226	9.2085
658.118	46.6533
661.011	50.8511
663.904	10.4277
666.796	25.1582
669.689	42.0435
672.582	9.33008
675.474	6.43848
678.367	17.4204
681.26	76.3291
684.153	77.6387
687.045	138.105
689.938	52.6924
692.831	196.524
695.723	92.9365
698.616	115.122
701.509	161.343
704.401	160.011
707.294	96.4326
710.187	58.9795
713.08	114.805
715.972	127.346
718.865	55.4912
721.758	130.975
724.65	68.1289
727.543	97.8086
730.436	123.435
733.328	81.1133
736.221	123.98
739.114	140.657
742.006	232.993
744.899	244.919
747.792	291.328
750.685	198.754
753.577	240.758
756.47	157.205
759.363	226.169
762.255	191.85
765.148	156.019
768.041	183.997
770.933	192.849
773.826	211.62
776.719	111.975
779.611	145.465
782.504	168.533
785.397	133.924
788.29	159.322
791.182	122.754
794.075	213.069
796.968	194.353
799.86	208.595
802.753	269.036
805.646	233.404
808.538	332.916
811.431	397.735
814.324	479.281
817.217	569.307
820.109	650.256
823.002	569.101
825.895	591.671
828.787	587.108
831.68	504.368
834.573	482.309
837.466	417.868
840.358	353.309
843.251	396.831
846.144	293.294
849.036	309.984
851.929	205.95
854.822	145.276
857.714	98.9258
860.607	25.541
863.5	79.9844
866.393	69.6973
869.285	122.973
872.178	98.4736
875.071	164.904
877.963	116.025
880.856	32.169
883.749	40.6836
886.641	192.211
889.534	222.456
892.427	118.524
895.319	99.4785
898.212	2.15723
901.105	41.8926
903.998	57.5605
906.89	315.387
909.783	786.78
912.676	1496.71
915.568	2117.6
918.461	2725.27
921.354	2718.11
924.246	2365.53
927.139	1933.51
930.032	1183.59
932.925	639.666
935.817	437.859
938.71	297.529
941.603	469.68
944.495	518.505
947.388	863.114
950.281	1308.78
953.173	1986.16
956.066	3082.22
958.959	4683.41
961.851	6568.73
964.744	8544.58
967.637	10111.1
970.53	11954.5
973.422	13675.5
976.315	14138.2
979.208	12610
982.1	9825.65
984.993	7017.65
987.886	4971.33
990.779	4245.49
993.671	4086.7
996.564	4285.04
999.457	4651.93
1002.35	4869.4
1005.24	4672.5
1008.13	4249.12
1011.03	3448.66
1013.92	2944.17
1016.81	2372.49
1019.71	2061.35
1022.6	1881.82
1025.49	1640.16
1028.38	1584.83
1031.28	1348.22
1034.17	1286.48
1037.06	1288.55
1039.95	1186.09
1042.85	1110.1
1045.74	953.414
1048.63	833.533
1051.53	772.248
1054.42	609.502
1057.31	444.15
1060.2	245.352
1063.1	80.6924
1065.99	9.19336
1068.88	216.009
1071.77	76.8379
1074.67	163.179
1077.56	162.537
1080.45	83.5195
1083.35	67.8574
1086.24	80.1719
1089.13	14.6748
1092.02	58.5303
1094.92	155.482
1097.81	138.188
1100.7	175.306
1103.59	234.345
1106.49	333.813
1109.38	359.831
1112.27	309.982
1115.16	313.316
1118.06	371.897
1120.95	392.879
1123.84	460.285
1126.73	505.373
1129.63	556.259
1132.52	593.852
1135.41	650.527
1138.31	647.907
1141.2	643.469
1144.09	582.807
1146.98	577.971
1149.88	567.785
1152.77	716.045
1155.66	765.594
1158.56	793.085
1161.45	771.857
1164.34	655.034
1167.23	627.145
1170.13	729.664
1173.02	749.195
1175.91	588.637
1178.8	733.833
1181.7	645.398
1184.59	790.465
1187.48	700.442
1190.38	589.5
1193.27	509.213
1196.16	326.045
1199.05	198.755
1201.94	44.8565
1204.84	56.1943
1207.73	69.5049
1210.62	12.0771
1213.52	49.6348
1216.41	116.538
1219.3	48.9492
1222.19	4.58106
1225.09	25.4414
1227.98	62.3897
1230.87	91.332
1233.77	100.894
1236.66	149.846
1239.55	100.922
1242.44	81.4443
1245.34	121.636
1248.23	138.328
1251.12	167.761
1254.01	3.81836
1256.91	38.2871
1259.8	53.1133
