Measurement: Raman, 785 nm, unoriented, Raman Data Processed
Mineral: Satterlyite
Rruff sample: R060810
Ideal chemistry: (Fe^2+^,Mg,Fe^3+^)_12_(PO_3_OH)(PO_4_)_5_(OH,O)_6_
Locality: Big Fish River Area, Yukon Territory, Canada
Source: Michael Scott
Description: Yellowish-brown gemmy irregularly shaped coarse grains
Measured chemistry: (Fe^2+^_7.95_Mg_2.25_Fe^3+^_0.66_Na_0.66_Mn_0.48_)_Σ=12_(P_1.00_O_3_OH)(P_1.00_O_4_)_5_((OH)_5.00_O_1.00_)_Σ=6_; OH estimated by charge balance
Raman shift (cm-1)	intensity
177.935	0
180.828	29.1475
183.721	22.3104
186.613	1.70648
189.506	14.7825
192.399	5.24306
195.292	24.8451
198.184	47.0319
201.077	21.1156
203.97	79.2147
206.862	45.7987
209.755	42.2939
212.648	49.2161
215.541	36.5319
218.433	38.7615
221.326	58.5099
224.219	49.2674
227.111	30.5666
230.004	28.4586
232.897	75.6091
235.789	63.063
238.682	92.6634
241.575	93.4067
244.468	47.5287
247.36	46.7944
250.253	97.4487
253.146	76.6196
256.038	101.07
258.931	113.647
261.824	102.564
264.716	109.084
267.609	101.438
270.502	68.1205
273.394	79.2518
276.287	44.9519
279.18	46.0614
282.073	76.9519
284.965	22.8612
287.858	10.3439
290.751	14.7822
293.643	1.55184
296.536	9.22972
299.429	41.695
302.322	33.9932
305.214	21.4322
308.107	43.8399
311	46.8206
313.892	30.1184
316.785	46.4804
319.678	33.7004
322.57	7.49714
325.463	43.2518
328.356	60.0406
331.248	78.8102
334.141	70.3357
337.034	36.5859
339.927	69.4394
342.819	61.4938
345.712	50.6776
348.605	76.7114
351.497	74.0849
354.39	53.8225
357.283	58.1465
360.175	19.5607
363.068	20.6655
365.961	5.65215
368.854	10.9149
371.746	29.9308
374.639	3.55726
377.532	8.64551
380.424	18.0133
383.317	14.1647
386.21	17.5718
389.103	14.1429
391.995	19.1998
394.888	23.9024
397.781	55.0014
400.673	60.338
403.566	59.8976
406.459	73.0787
409.351	100.522
412.244	137.392
415.137	153.224
418.029	144.615
420.922	168.443
423.815	225.306
426.708	249.925
429.6	182.3
432.493	291.72
435.386	328.526
438.278	365.125
441.171	373.161
444.064	411.915
446.957	370.367
449.849	390.339
452.742	352.028
455.635	288.551
458.527	301.499
461.42	308.718
464.313	304.983
467.205	364.032
470.098	388.583
472.991	385.521
475.884	358.679
478.776	351.589
481.669	340.099
484.562	229.456
487.454	221.595
490.347	190.404
493.24	89.8833
496.132	86.0271
499.025	75.5916
501.918	132.139
504.811	153.07
507.703	201.316
510.596	130.78
513.489	49.2353
516.381	2.02146
519.274	6.88234
522.167	12.4276
525.059	8.1441
527.952	0.046326
530.845	13.6897
533.737	6.91454
536.63	19.4439
539.523	83.1684
542.416	91.4951
545.308	139.747
548.201	209.903
551.094	226.097
553.986	255.517
556.879	180.209
559.772	179.25
562.665	181.837
565.557	198.734
568.45	148.858
571.343	156.47
574.235	193.318
577.128	176.578
580.021	217.982
582.913	264.451
585.806	315.337
588.699	379.643
591.592	410.201
594.484	381.935
597.377	349.698
600.27	334.363
603.162	277.789
606.055	283.547
608.948	264.828
611.841	223.888
614.733	198.035
617.626	180.507
620.519	161.315
623.411	152.335
626.304	108.148
629.197	75.9467
632.089	47.3321
634.982	38.243
637.875	17.4782
640.768	17.2423
643.66	41.9769
646.553	10.3035
649.446	20.6921
652.338	14.0402
655.231	6.36613
658.124	5.94789
661.016	6.13746
663.909	2.73246
666.802	1.23954
669.694	3.27399
672.587	3.23292
675.48	2.32081
678.373	3.08171
681.265	34.9653
684.158	31.7861
687.051	48.3849
689.943	16.6021
692.836	39.0978
695.729	62.0219
698.621	61.3195
701.514	39.1622
704.407	53.8375
707.3	30.7891
710.192	12.4334
713.085	26.3021
715.978	32.6344
718.87	33.3027
721.763	66.5517
724.656	35.7967
727.548	35.05
730.441	29.7426
733.334	24.5757
736.227	52.9192
739.119	29.9311
742.012	19.686
744.905	38.6093
747.797	26.4918
750.69	32.4908
753.583	69.5077
756.476	46.2694
759.368	24.0093
762.261	33.7036
765.154	45.7281
768.046	2.03191
770.939	6.142
773.832	34.6154
776.724	41.0812
779.617	28.6324
782.51	22.0922
785.403	20.8323
788.295	35.8343
791.188	7.4142
794.081	25.9866
796.973	28.1785
799.866	5.97632
802.759	1.08385
805.651	47.4274
808.544	61.348
811.437	84.7507
814.33	85.639
817.222	101.63
820.115	99.2411
823.008	103.634
825.9	86.596
828.793	100.134
831.686	89.3789
834.578	81.9812
837.471	17.5051
840.364	61.0091
843.256	47.7807
846.149	46.8892
849.042	48.8653
851.935	40.4886
854.827	25.6224
857.72	12.3653
860.613	5.62285
863.505	4.08412
866.398	10.0845
869.291	4.5188
872.183	17.9298
875.076	3.50355
877.969	17.0391
880.862	13.9935
883.754	50.5702
886.647	22.8331
889.54	25.8591
892.432	38.5519
895.325	18.7396
898.218	1.17462
901.111	23.8289
904.003	68.7835
906.896	167.501
909.789	280.157
912.681	412.01
915.574	528.654
918.467	620.732
921.36	580.481
924.252	509.093
927.145	352.73
930.038	229.174
932.93	148.362
935.823	91.0141
938.716	63.4046
941.608	57.3324
944.501	58.6999
947.394	65.6012
950.287	171.383
953.179	205.831
956.072	374.13
958.965	542.045
961.857	695.385
964.75	883.733
967.643	1042.93
970.535	1266.88
973.428	1343.14
976.321	1293.23
979.213	1090.3
982.106	781.592
984.999	544.576
987.892	304.523
990.784	226.461
993.677	187.528
996.57	261.459
999.462	299.859
1002.36	308.821
1005.25	282.88
1008.14	249.809
1011.03	186.033
1013.93	172.092
1016.82	141.793
1019.71	117.557
1022.6	83.2714
1025.5	25.9726
1028.39	30.0266
1031.28	60.7349
1034.17	12.1709
1037.07	36.231
1039.96	7.08281
1042.85	3.93791
1045.75	15.1808
1048.64	18.5592
1051.53	11.5919
1054.42	10.5732
1057.32	5.04213
1060.21	2.15621
1063.1	6.33758
1065.99	2.44412
1068.89	1.55403
1071.78	4.73863
1074.67	10.2437
1077.57	18.5155
1080.46	38.5371
1083.35	45.3543
1086.24	8.87495
1089.14	47.6859
1092.03	9.22526
1094.92	54.4308
1097.81	23.5936
1100.71	49.3919
1103.6	37.0177
1106.49	41.2263
1109.38	82.2022
1112.28	54.8271
1115.17	81.4798
1118.06	69.0835
1120.96	41.3248
1123.85	15.2896
1126.74	47.3841
1129.63	21.3307
1132.53	7.55384
1135.42	33.9821
1138.31	18.0232
1141.2	42.6882
1144.1	57.0032
1146.99	33.7863
1149.88	38.888
1152.78	68.0345
1155.67	66.6188
1158.56	55.4735
1161.45	41.1915
1164.35	29.9594
1167.24	43.09
1170.13	66.3499
1173.02	62.3571
1175.92	49.0684
1178.81	88.1069
1181.7	115.296
1184.6	139.406
1187.49	175.46
1190.38	157.052
1193.27	102.132
1196.17	99.1887
1199.06	40.5474
1201.95	47.047
1204.84	17.0386
1207.74	0.682634
1210.63	21.3872
1213.52	35.037
1216.41	38.0584
1219.31	65.511
1222.2	50.6882
1225.09	72.2194
1227.99	77.4296
1230.88	69.4373
1233.77	60.2522
1236.66	1.29297
1239.56	1.70094
1242.45	3.3964
1245.34	50.3689
1248.23	51.4095
1251.13	59.7604
1254.02	26.4026
1256.91	30.3226
1259.81	3.60962
1262.7	9.4288
