Measurement: Raman, 780 nm, unoriented, Raman Data Processed
Mineral: Scainiite
Rruff sample: R100085
Ideal chemistry: Pb_14_Sb_30_S_54_O_5_
Locality: Dúbrava, Northern Low Tatra Mts, Žilina Region, Slovakia
Source: William W Pinch
Description: Parallel aggregates of metallic gray acicular crystals
Raman shift (cm-1)	intensity
92.4974	0
95.8722	628.731
99.2471	575.201
102.622	467.959
105.997	89.3076
109.371	28.8076
112.746	37.2148
116.121	202.717
119.496	354.603
122.871	632.702
126.246	979.702
129.62	1146.68
132.995	1432.14
136.37	1620.12
139.745	1640.48
143.12	1487.23
146.494	1277.58
149.869	1046.75
153.244	913.359
156.619	725.769
159.994	469.362
163.369	214.659
166.743	12.3354
170.118	169.486
173.493	170.963
176.868	66.6245
180.243	105.725
183.618	360.394
186.992	672.497
190.367	1047
193.742	1439.85
197.117	1877.17
200.492	2339.6
203.866	2779.73
207.241	3095.05
210.616	3329.64
213.991	3591.39
217.366	3877.59
220.74	4182.06
224.115	4522.29
227.49	4759.77
230.865	4869.83
234.24	4907.66
237.615	4896.43
240.989	4750.76
244.364	4518.76
247.739	4275.66
251.114	4024.12
254.489	3722.68
257.863	3424
261.238	3035.86
264.613	2499.4
267.988	1975.97
271.363	1484.84
274.738	1098.94
278.112	788.784
281.487	577.293
284.862	369.293
288.237	149.596
291.612	8.9043
294.986	18.0439
298.361	258.474
301.736	678.959
305.111	1256.07
308.486	1980.51
311.861	2935.4
315.235	4081.46
318.61	4962.49
321.985	5108.04
325.36	4952.86
328.735	5266.28
332.109	6143.9
335.484	6312.23
338.859	4943.63
342.234	3904.08
345.609	3831.37
348.984	3781.26
352.358	2233.4
355.733	757.942
359.108	162.058
362.483	39.0238
365.858	89.606
369.233	85.2817
372.607	73.1605
375.982	45.9871
379.357	0.841919
382.732	62.3624
386.106	129.059
389.481	200.71
392.856	259.187
396.231	321.218
399.606	362.42
402.981	410.766
406.355	446.165
409.73	479.483
413.105	505.731
416.48	527.781
419.855	547.999
423.229	532.014
426.604	482.625
429.979	431.028
433.354	376.628
436.729	333.438
440.104	302.73
443.478	278.95
446.853	263.027
450.228	256.059
453.603	244.265
456.978	229.038
460.353	211.985
463.727	196.148
467.102	177.272
470.477	162.654
473.852	151.183
477.227	132.241
480.601	118.363
483.976	101.544
487.351	83.8263
490.726	68.0205
494.101	58.4241
497.476	49.9949
500.85	40.4302
504.225	34.7445
507.6	25.9329
510.975	26.3547
514.35	21.274
517.724	19.0482
521.099	18.958
524.474	13.5825
527.849	12.042
531.224	20.8799
534.598	5.24408
537.973	2.86975
541.348	0.667786
544.723	1.28564
548.098	3.21588
551.472	7.07251
554.847	5.55924
558.222	0.952576
561.597	0.42395
564.972	3.23142
568.347	4.63867
571.721	3.66772
575.096	6.24292
578.471	4.43539
581.846	2.46982
585.221	1.78589
588.596	2.27835
591.97	0.845459
595.345	0.763336
598.72	3.7977
602.095	2.26492
605.47	0.611786
608.845	2.45721
612.219	1.814
615.594	8.95651
618.969	9.15521
622.344	16.5197
625.719	16.6456
629.093	17.259
632.468	22.9679
635.843	27.1672
639.218	33.8928
642.593	36.6946
645.967	41.0653
649.342	42.3183
652.717	45.2457
656.092	44.4191
659.467	41.9773
662.842	41.9882
666.216	34.1099
669.591	29.3473
672.966	24.4319
676.341	16.1281
679.716	16.4639
683.091	19.5432
686.465	9.53162
689.84	7.79434
693.215	6.61089
696.59	6.38788
699.965	10.0381
703.339	10.4537
706.714	10.2683
710.089	10.5951
713.464	8.45981
716.839	6.45096
720.213	1.73488
723.588	7.33508
726.963	6.61034
730.338	0.71611
733.713	0.245117
737.087	2.14531
740.462	1.86586
743.837	0.640579
747.212	2.62628
750.587	0.854843
753.962	1.96222
757.336	1.2565
760.711	1.27147
764.086	2.97226
767.461	4.88145
770.836	2.56947
774.211	5.66808
777.585	2.18504
780.96	4.79952
784.335	3.78459
787.71	3.25566
791.085	3.28122
794.459	3.7104
797.834	2.98389
801.209	4.98795
804.584	4.08995
807.959	2.01413
811.333	3.16754
814.708	1.19548
818.083	1.85057
821.458	2.39471
824.833	3.69685
828.208	3.46233
831.582	1.40477
834.957	0.961334
838.332	1.68477
841.707	1.3911
845.082	1.95651
848.457	0.140274
851.831	1.2009
855.206	2.41089
858.581	2.56448
861.956	1.76357
865.331	0.917969
868.705	0.444473
872.08	2.38431
875.455	0.08931
878.83	0.883118
882.205	1.88048
885.58	1.16097
888.954	0.051559
892.329	0.979797
895.704	1.48662
899.079	4.9154
902.454	1.68928
905.828	1.73871
909.203	1.22632
912.578	0.366287
915.953	0.41571
919.328	3.80519
922.702	0.87381
926.077	2.01105
929.452	0.501862
932.827	2.5744
936.202	2.78732
939.577	1.31447
942.951	2.28276
946.326	2.13928
949.701	1.71751
953.076	1.75049
956.451	0.842941
959.825	1.43323
963.2	2.65652
966.575	1.96697
969.95	0.777771
973.325	2.33319
976.699	3.02245
980.074	1.1262
983.449	2.13062
986.824	0.11705
990.199	2.34174
993.574	1.37927
996.948	0.813995
1000.32	3.8615
1003.7	3.98842
1007.07	2.7484
1010.45	3.13478
1013.82	1.8649
1017.2	2.53552
1020.57	1.13402
1023.95	3.88577
1027.32	2.63326
1030.7	0.376755
1034.07	0.068092
1037.45	2.54023
1040.82	3.57608
1044.2	4.22632
1047.57	4.08463
1050.94	3.9874
1054.32	2.72627
1057.69	3.51713
1061.07	3.74995
1064.44	1.90948
1067.82	3.14471
1071.19	3.80444
1074.57	1.90678
1077.94	2.06329
1081.32	3.53689
1084.69	3.19253
1088.07	3.31596
1091.44	3.0175
1094.82	0.26609
1098.19	0.420044
1101.57	0.669937
1104.94	1.52734
1108.32	1.98103
1111.69	1.85431
1115.07	0.386673
1118.44	1.07416
1121.82	0.625664
1125.19	1.90085
1128.57	0.273186
1131.94	1.30852
1135.32	0.002403
1138.69	1.05921
1142.07	1.39016
1145.44	0.067825
1148.82	3.49502
1152.19	1.10225
1155.57	2.7043
1158.94	0.926994
1162.31	0.433006
1165.69	0.489944
1169.06	1.04098
1172.44	6.53427
1175.81	3.13464
1179.19	1.75031
1182.56	2.3216
1185.94	2.11249
1189.31	3.09147
1192.69	3.58099
1196.06	3.12966
1199.44	3.73039
1202.81	2.30865
1206.19	1.4441
1209.56	1.09805
1212.94	2.83699
1216.31	0.517021
1219.69	2.24258
1223.06	4.42928
1226.44	1.83798
1229.81	2.62213
1233.19	2.81699
1236.56	2.93732
1239.93	1.89038
1243.31	3.5516
1246.68	2.96473
1250.06	2.68169
1253.43	0.581551
1256.81	1.28396
1260.18	4.07414
1263.56	3.1367
1266.93	9.07934
1270.31	0.325516
1273.68	0.131927
1277.06	1.48941
1280.43	0.393044
1283.81	2.13751
