Measurement: Raman, 780 nm, unoriented, Raman Data Processed
Mineral: Scawtite
Rruff sample: R060340
Ideal chemistry: Ca_7_(Si_3_O_9_)_2_(CO_3_)2H_2_O
Locality: Crestmore Quarry, near Riverside, Riverside County, California, USA
Source: Michael Scott
Description: Aggregates of tabular colorless crystals, associated with grossular, calcite, and monticellite
Raman shift (cm-1)	intensity
92.0421	0
95.4169	3.15762
98.7917	0.458366
102.166	0.630104
105.541	1.82385
108.916	9.87917
112.291	21.3022
115.666	37.9198
119.041	63.6528
122.415	92.0154
125.79	107.106
129.165	82.7102
132.54	39.7029
135.915	20.7913
139.29	22.8573
142.664	26.2113
146.039	30.9077
149.414	38.5202
152.789	41.9387
156.163	39.8759
159.538	38.0285
162.913	41.3283
166.288	40.2497
169.663	27.2804
173.038	13.3351
176.412	3.49265
179.787	2.13427
183.162	2.18462
186.537	1.68321
189.912	1.11354
193.286	6.17879
196.661	10.4668
200.036	13.9407
203.411	15.5885
206.786	18.0367
210.161	22.5216
213.535	28.4078
216.91	31.5286
220.285	31.5423
223.66	35.3041
227.035	44.3019
230.409	53.236
233.784	57.671
237.159	60.932
240.534	59.4028
243.909	57.6995
247.284	58.0349
250.658	61.389
254.033	59.5987
257.408	47.773
260.783	35.5742
264.158	24.3008
267.532	18.3028
270.907	12.3712
274.282	9.50465
277.657	7.61137
281.032	9.03722
284.406	11.9437
287.781	12.7081
291.156	13.8495
294.531	13.6287
297.906	7.67534
301.281	1.58572
304.655	2.50421
308.03	1.9618
311.405	0.808331
314.78	7.15307
318.155	18.9249
321.529	34.0923
324.904	51.8079
328.279	77.2658
331.654	110.839
335.029	140.782
338.404	134.65
341.778	107.446
345.153	92.1205
348.528	97.0686
351.903	110.237
355.278	121.687
358.652	125.549
362.027	125.189
365.402	112.31
368.777	83.0837
372.152	49.7619
375.526	26.45
378.901	13.856
382.276	5.07794
385.651	1.14345
389.026	0.103664
392.401	1.18373
395.775	0.791344
399.15	1.27576
402.525	4.61414
405.9	5.9001
409.275	2.48538
412.649	0.640392
416.024	0.223396
419.399	2.46027
422.774	6.7675
426.149	12.0137
429.524	11.7411
432.898	7.49039
436.273	5.91306
439.648	7.56826
443.023	13.2136
446.398	20.0292
449.772	23.392
453.147	22.4312
456.522	16.4977
459.897	7.64507
463.272	2.4836
466.647	1.60556
470.021	3.24665
473.396	7.81342
476.771	13.8044
480.146	22.1152
483.521	29.7817
486.895	36.8967
490.27	41.7045
493.645	39.3951
497.02	30.047
500.395	18.6995
503.769	10.657
507.144	5.33362
510.519	2.22047
513.894	1.28897
517.269	0.701117
520.644	1.85076
524.018	2.47963
527.393	4.50593
530.768	4.8897
534.143	4.4111
537.518	3.24622
540.892	3.00853
544.267	4.41714
547.642	5.51385
551.017	5.14238
554.392	2.99678
557.766	1.19359
561.141	0.292597
564.516	0.938651
567.891	1.01168
571.266	0.543306
574.64	1.16046
578.015	0.641088
581.39	0.048054
584.765	0.619476
588.14	1.44807
591.515	2.26538
594.889	2.63764
598.264	4.63168
601.639	5.52799
605.014	6.31703
608.389	6.88589
611.764	6.80637
615.138	7.41107
618.513	8.20538
621.888	10.2873
625.263	14.0312
628.638	21.6679
632.012	36.1448
635.387	66.0677
638.762	107.015
642.137	166.189
645.512	257.547
648.886	361.735
652.261	334.308
655.636	184.155
659.011	91.7181
662.386	49.3414
665.76	28.0447
669.135	16.8557
672.51	10.8426
675.885	7.52992
679.26	5.91965
682.635	6.0033
686.009	8.19866
689.384	10.8303
692.759	13.4252
696.134	14.2464
699.509	18.1789
702.884	23.2023
706.258	31.3066
709.633	39.4969
713.008	43.5546
716.383	34.5258
719.758	22.2929
723.132	13.0662
726.507	8.17508
729.882	5.52044
733.257	3.07635
736.632	1.06854
740.006	0.687786
743.381	0.490896
746.756	0.259781
750.131	0.160208
753.506	0.906141
756.88	2.58961
760.255	0.452615
763.63	0.17248
767.005	0.343838
770.38	0.662919
773.755	0.189064
777.129	0.27213
780.504	0.403523
783.879	0.572066
787.254	1.11212
790.629	0.723083
794.003	1.55662
797.378	1.62506
800.753	1.36234
804.128	1.9715
807.503	1.73298
810.878	2.50992
814.252	2.44753
817.627	2.6808
821.002	3.0692
824.377	2.68107
827.752	2.43773
831.126	2.0505
834.501	1.68985
837.876	1.89101
841.251	1.70397
844.626	1.65771
848	1.53428
851.375	1.39147
854.75	1.39746
858.125	1.15673
861.5	1.15668
864.875	1.41395
868.249	1.1373
871.624	1.521
874.999	1.91541
878.374	2.28433
881.749	2.01207
885.123	1.87202
888.498	2.52805
891.873	3.29221
895.248	5.27693
898.623	7.53862
901.997	9.58439
905.372	11.271
908.747	7.09015
912.122	3.10652
915.497	0.377872
918.872	0.000773
922.246	0.252839
925.621	0.230284
928.996	0.741427
932.371	0.130329
935.746	0.034068
939.12	0.831785
942.495	1.85032
945.87	3.03697
949.245	2.24879
952.62	1.01442
955.995	0.049385
959.369	1.08114
962.744	1.70001
966.119	3.70097
969.494	8.203
972.869	15.2264
976.243	30.8228
979.618	59.6342
982.993	107.016
986.368	180.927
989.743	252.054
993.117	194.62
996.492	110.306
999.867	59.6861
1003.24	38.051
1006.62	35.2005
1009.99	41.8585
1013.37	32.217
1016.74	21.9173
1020.12	13.5212
1023.49	9.98091
1026.87	13.4219
1030.24	23.153
1033.62	38.5472
1036.99	66.7822
1040.37	93.6789
1043.74	58.7827
1047.12	22.3161
1050.49	8.98896
1053.86	2.94159
1057.24	0.463531
1060.61	0.22822
1063.99	0.36689
1067.36	0.818927
1070.74	3.4311
1074.11	4.30962
1077.49	9.96316
1080.86	32.8181
1084.24	52.8139
1087.61	120.477
1090.99	326.632
1094.36	93.2515
1097.74	12.8844
1101.11	3.21257
1104.49	0.639999
1107.86	0.154405
1111.24	0.362079
1114.61	0.269171
1117.99	0.158414
1121.36	0.403172
1124.73	0.002416
1128.11	0.183392
1131.48	0.329818
1134.86	0.468147
1138.23	0.39998
1141.61	0.643136
1144.98	0.720659
1148.36	0.911323
1151.73	0.777646
1155.11	1.17445
1158.48	1.22445
1161.86	1.35339
1165.23	1.47847
1168.61	1.37818
1171.98	1.41814
1175.36	1.49609
1178.73	1.25599
1182.11	1.22181
1185.48	1.11229
1188.86	0.798781
1192.23	0.990717
1195.61	1.16823
1198.98	0.954528
1202.36	0.734766
1205.73	0.889778
1209.11	1.07896
1212.48	0.644608
1215.86	0.726037
1219.23	0.719314
1222.61	0.535469
1225.98	0.378145
1229.35	0.707649
1232.73	0.645789
1236.1	0.451211
1239.48	0.32516
1242.85	0.374488
1246.23	0.23035
1249.6	0.219625
1252.98	0.238175
1256.35	0.371807
1259.73	0.011006
1263.1	0.241441
1266.48	0.217726
1269.85	0.016571
1273.23	0.080364
1276.6	0.35043
1279.98	0.171761
1283.35	0.111547
