Measurement: Raman, 532 nm, unoriented, Raman Data Processed
Mineral: Scawtite
Rruff sample: R060340
Ideal chemistry: Ca_7_(Si_3_O_9_)_2_(CO_3_)2H_2_O
Locality: Crestmore Quarry, near Riverside, Riverside County, California, USA
Source: Michael Scott
Description: Aggregates of tabular colorless crystals, associated with grossular, calcite, and monticellite
Raman shift (cm-1)	intensity
90.7474	0
94.1222	8.92242
97.4971	3.8584
100.872	0.355896
104.247	14.5836
107.621	90.7826
110.996	197.645
114.371	313.08
117.746	450.154
121.121	633.236
124.496	831.646
127.87	828.903
131.245	528.429
134.62	281.374
137.995	205.06
141.37	208.271
144.744	216.779
148.119	262.986
151.494	313.248
154.869	308.89
158.244	278.727
161.619	275.672
164.993	284.544
168.368	223.942
171.743	127.844
175.118	38.4845
178.493	5.83575
181.868	16.9062
185.242	12.4492
188.617	3.7948
191.992	30.7906
195.367	63.494
198.742	95.3472
202.116	108.666
205.491	113.027
208.866	143.077
212.241	187.05
215.616	214.531
218.99	220.489
222.365	231.442
225.74	276.481
229.115	347.569
232.49	393.206
235.865	426.454
239.239	443.839
242.614	440.634
245.989	427.912
249.364	449.151
252.739	460.612
256.113	408.663
259.488	308.914
262.863	220.233
266.238	160.992
269.613	116.938
272.988	86.1197
276.362	63.6461
279.737	60.0891
283.112	72.5414
286.487	86.0875
289.862	93.442
293.236	98.611
296.611	74.2153
299.986	22.0538
303.361	7.08716
306.736	18.9637
310.111	6.70514
313.485	22.4857
316.86	80.617
320.235	175.347
323.61	301.162
326.985	468.334
330.359	697.78
333.734	966.804
337.109	1070.62
340.484	912.577
343.859	768.583
347.233	774.561
350.608	896.271
353.983	1033.74
357.358	1087.27
360.733	1094.12
364.108	1047.82
367.482	836.453
370.857	541.906
374.232	308.179
377.607	168.311
380.982	80.4009
384.356	32.1915
387.731	4.25305
391.106	8.16363
394.481	12.196
397.856	1.23578
401.231	18.3383
404.605	38.3722
407.98	20.4418
411.355	1.83801
414.73	0.878418
418.105	23.9263
421.479	61.5207
424.854	105.851
428.229	114.472
431.604	72.1113
434.979	48.3489
438.354	61.861
441.728	100.055
445.103	153.486
448.478	199.883
451.853	173.839
455.228	126.462
458.603	67.9333
461.977	21.7555
465.352	10.3826
468.727	23.7409
472.102	55.6143
475.477	104.712
478.851	184.445
482.226	263.538
485.601	334.722
488.976	385.776
492.351	390.427
495.726	319.149
499.1	211.431
502.475	113.48
505.85	53.8865
509.225	22.2924
512.6	4.55768
515.974	2.40552
519.349	8.43439
522.724	14.7147
526.099	31.4135
529.474	43.9235
532.848	44.576
536.223	36.428
539.598	34.9453
542.973	45.6615
546.348	57.1597
549.722	64.6099
553.097	48.42
556.472	23.1061
559.847	7.43085
563.222	1.92291
566.597	6.70288
569.971	10.0565
573.346	9.00006
576.721	6.09638
580.096	4.16608
583.471	0.096558
586.846	7.81873
590.22	17.3781
593.595	30.248
596.97	38.1891
600.345	51.4817
603.72	57.5341
607.094	61.0102
610.469	61.2953
613.844	58.6436
617.219	61.9419
620.594	70.4279
623.968	91.0176
627.343	131.964
630.718	219.168
634.093	398.801
637.468	738.385
640.843	1235.13
644.217	1980.83
647.592	2903.66
650.967	3190.9
654.342	2038.45
657.717	1000.5
661.091	517.606
664.466	295.473
667.841	178.138
671.216	110
674.591	74.2587
677.966	51.1877
681.34	50.7241
684.715	60.5904
688.09	89.4445
691.465	104.094
694.84	114.883
698.215	140.653
701.589	195.115
704.964	263.624
708.339	346.659
711.714	400.911
715.089	364.183
718.463	244.592
721.838	146.823
725.213	94.6052
728.588	62.8888
731.963	42.385
735.337	17.6327
738.712	0.02124
742.087	5.12561
745.462	1.20789
748.837	5.20544
752.212	17.0361
755.586	20.8552
758.961	8.61133
762.336	2.60992
765.711	3.63592
769.086	5.49878
772.46	4.30225
775.835	4.59479
779.21	0.581604
782.585	3.40448
785.96	8.04059
789.335	7.56061
792.709	8.88709
796.084	8.60675
799.459	11.9747
802.834	14.1351
806.209	17.384
809.583	20.1155
812.958	22.2047
816.333	23.3456
819.708	28.1304
823.083	23.42
826.457	24.9357
829.832	21.8072
833.207	18.111
836.582	14.7347
839.957	15.3222
843.332	16.6715
846.706	14.8541
850.081	12.6996
853.456	13.2984
856.831	10.891
860.206	10.5209
863.581	10.1536
866.955	8.10968
870.33	12.7969
873.705	16.3103
877.08	19.9269
880.455	18.8749
883.829	17.5529
887.204	23.9097
890.579	35.8758
893.954	63.1615
897.329	97.0267
900.703	117.065
904.078	130.816
907.453	111.244
910.828	48.5795
914.203	15.7685
917.578	1.26416
920.952	2.13684
924.327	2.64038
927.702	5.60583
931.077	7.09229
934.452	1.21356
937.827	13.5233
941.201	33.0847
944.576	56.7526
947.951	58.5001
951.326	31.4761
954.701	8.51923
958.075	2.46667
961.45	4.86682
964.825	25.1472
968.2	53.9008
971.575	104.827
974.949	217.009
978.324	464.457
981.699	903.132
985.074	1607.21
988.449	2562.55
991.823	2591.85
995.198	1440.45
998.573	744.884
1001.95	466.572
1005.32	417.678
1008.7	516.994
1012.07	535.557
1015.45	375.144
1018.82	262.8
1022.2	146.93
1025.57	126.936
1028.95	194.369
1032.32	338.07
1035.7	588.946
1039.07	966.898
1042.45	895.591
1045.82	384.551
1049.19	144.744
1052.57	53.998
1055.94	12.0712
1059.32	4.55835
1062.69	2.42407
1066.07	4.0445
1069.44	28.9543
1072.82	51.818
1076.19	81.3902
1079.57	190.347
1082.94	558.918
1086.32	987.09
1089.69	2606.74
1093.07	2579.2
1096.44	297.081
1099.82	62.335
1103.19	18.7956
1106.57	1.43146
1109.94	0.72937
1113.32	0.714844
1116.69	0.96698
1120.07	2.92407
1123.44	3.57684
1126.82	0.368103
1130.19	1.77295
1133.57	1.92023
1136.94	4.99591
1140.32	5.35577
1143.69	6.15729
1147.07	12.8262
1150.44	10.059
1153.82	13.6426
1157.19	16.0334
1160.56	15.3868
1163.94	15.8373
1167.31	16.1141
1170.69	20.3351
1174.06	17.6974
1177.44	14.6581
1180.81	14.8409
1184.19	15.4833
1187.56	14.9823
1190.94	11.8173
1194.31	10.9914
1197.69	12.1934
1201.06	10.8466
1204.44	13.5176
1207.81	10.4968
1211.19	7.44067
1214.56	7.31415
1217.94	8.91345
1221.31	7.56671
1224.69	6.0257
1228.06	4.38702
1231.44	5.81262
1234.81	3.17981
1238.18	2.23126
1241.56	3.28375
1244.93	5.44812
1248.31	6.50781
1251.68	5.63959
1255.06	5.19177
1258.43	4.33923
1261.81	5.42584
1265.18	0.308716
1268.56	2.87756
1271.93	1.03064
1275.31	1.29748
1278.68	6.04895
1282.06	4.25897
1285.43	3.14752
1288.81	6.80981
1292.18	3.87897
1295.56	2.33197
1298.93	1.15234
