Measurement: Raman, 532 nm, unoriented, Raman Data Processed
Mineral: Schaurteite
Rruff sample: R120104
Ideal chemistry: Ca_3_Ge^4+^(SO_4_)_2_(OH)_6_3H_2_O
Locality: Tsumeb, Namibia
Source: Marcus Origlieri
Description: Aggregate of silky hair-like crystals, associated with calcite, quartz, and germanite.  Sample used in structure determination by Origlieri & Downs (2013).
Measured chemistry: Ca_3.01_Ge_0.95_S_2.03_O_8_(OH)_6_.3H_2_O ; formula normalized to 17 O atoms, including 6H_2_O per formula unit
Raman shift (cm-1)	intensity
203.141	0
206.034	0.443892
208.927	1.08205
211.819	2.0175
214.712	2.06596
217.605	0.978944
220.497	0.303175
223.39	0.471542
226.283	0.18851
229.175	1.345
232.068	0.533328
234.961	1.3492
237.854	1.84784
240.746	1.58177
243.639	3.24148
246.532	4.66867
249.424	4.99462
252.317	6.3368
255.21	6.33704
258.103	7.5915
260.995	7.20661
263.888	7.27013
266.781	8.4012
269.673	6.97394
272.566	6.04823
275.459	3.739
278.351	2.03804
281.244	1.22309
284.137	0.047685
287.029	0.678365
289.922	0.038974
292.815	0.029506
295.708	0.349361
298.6	0.190374
301.493	0.724427
304.386	1.35474
307.278	1.81213
310.171	2.83893
313.064	4.53367
315.957	5.57453
318.849	7.11705
321.742	8.4001
324.635	10.5348
327.527	13.6832
330.42	14.8043
333.313	18.0408
336.205	20.4453
339.098	23.7747
341.991	25.877
344.884	28.5291
347.776	32.4432
350.669	37.7318
353.562	42.3283
356.454	42.5668
359.347	33.3191
362.24	23.072
365.132	16.8164
368.025	11.7653
370.918	8.99628
373.81	8.13648
376.703	8.38193
379.596	9.54523
382.489	9.23724
385.381	6.72858
388.274	3.85698
391.167	1.63076
394.059	0.315622
396.952	0.062812
399.845	0.018743
402.738	0.012915
405.63	0.235724
408.523	0.163862
411.416	0.230642
414.308	0.124827
417.201	1.20626
420.094	1.40884
422.986	2.71105
425.879	3.32798
428.772	4.40686
431.664	4.94682
434.557	5.12608
437.45	7.07847
440.343	10.8326
443.235	15.4808
446.128	20.368
449.021	22.4236
451.913	27.8789
454.806	32.1951
457.699	32.4595
460.591	29.3086
463.484	20.6419
466.377	14.404
469.27	14.7485
472.162	18.6218
475.055	23.1703
477.948	20.0714
480.84	12.9156
483.733	7.51684
486.626	4.7781
489.519	2.89219
492.411	1.9896
495.304	1.08548
498.197	0.851553
501.089	0.696596
503.982	0.206102
506.875	0.139328
509.767	0.17554
512.66	0.007046
515.553	0.122567
518.446	0.48857
521.338	0.309323
524.231	0.631201
527.124	0.181295
530.016	0.09859
532.909	0.099799
535.802	0.024588
538.694	0.165378
541.587	0.171243
544.48	0.038839
547.372	0.35441
550.265	1.01879
553.158	0.247271
556.051	0.495648
558.943	1.24686
561.836	1.43397
564.729	1.84899
567.621	3.18731
570.514	6.23991
573.407	9.55499
576.299	17.8379
579.192	29.7338
582.085	45.008
584.978	64.3654
587.87	97.4698
590.763	131.737
593.656	142.351
596.548	95.7826
599.441	48.1386
602.334	23.8552
605.226	14.3498
608.119	10.5703
611.012	10.0435
613.905	12.6917
616.797	17.7359
619.69	25.2818
622.583	36.996
625.475	50.5369
628.368	60.8794
631.261	52.0061
634.154	36.3629
637.046	21.1919
639.939	9.73803
642.832	4.4323
645.724	2.40232
648.617	1.01235
651.51	1.0536
654.402	0.041962
657.295	0.063133
660.188	0.306428
663.081	0.208911
665.973	0.010459
668.866	0.021275
671.759	0.509244
674.651	0.352394
677.544	0.137799
680.437	0.694932
683.329	1.18742
686.222	0.024988
689.115	1.16743
692.008	0.925444
694.9	0.437801
697.793	0.0353
700.686	0.734748
703.578	0.065448
706.471	0.004169
709.364	0.20889
712.256	0.131171
715.149	0.526089
718.042	0.028877
720.934	0.29092
723.827	0.221816
726.72	0.481752
729.613	0.336438
732.505	0.911316
735.398	1.46329
738.291	1.53774
741.183	1.02437
744.076	1.30252
746.969	1.84964
749.861	1.40885
752.754	1.00304
755.647	1.50346
758.54	0.340622
761.432	0.701446
764.325	0.136007
767.218	0.613837
770.11	0.056182
773.003	0.237725
775.896	0.267159
778.788	0.575658
781.681	0.677378
784.574	0.109527
787.467	0.83535
790.359	0.342025
793.252	0.336675
796.145	0.886553
799.037	0.433521
801.93	0.407677
804.823	0.533503
807.716	0.57157
810.608	0.38879
813.501	0.560272
816.394	0.755378
819.286	0.004497
822.179	1.47409
825.072	1.28694
827.964	0.629656
830.857	0.044014
833.75	0.68367
836.643	0.351364
839.535	0.694859
842.428	0.979227
845.321	0.801007
848.213	1.44113
851.106	0.855079
853.999	0.938947
856.891	0.745393
859.784	0.38108
862.677	0.897165
865.569	1.01819
868.462	0.419966
871.355	0.046972
874.248	0.518779
877.14	0.917344
880.033	0.750893
882.926	0.159829
885.818	0.085787
888.711	0.09132
891.604	0.476676
894.496	0.451584
897.389	0.488762
900.282	0.950587
903.175	0.29279
906.067	0.765618
908.96	0.155807
911.853	0.496539
914.745	0.624722
917.638	0.670347
920.531	1.03334
923.423	0.578555
926.316	0.24989
929.209	0.00579
932.102	0.094444
934.994	0.690715
937.887	0.623427
940.78	0.325115
943.672	0.083879
946.565	0.540353
949.458	0.528915
952.351	0.070025
955.243	0.143082
958.136	0.038977
961.029	0.730245
963.921	0.212662
966.814	0.109994
969.707	0.700036
972.599	0.602113
975.492	0.009389
978.385	0.797359
981.278	0.74865
984.17	0.022561
987.063	0.990959
989.956	1.32956
992.848	2.16616
995.741	3.32505
998.634	5.56257
1001.53	7.82324
1004.42	11.9579
1007.31	22.6472
1010.21	54.6834
1013.1	88.0872
1015.99	136.604
1018.88	267.61
1021.77	394.81
1024.67	165.063
1027.56	49.3211
1030.45	22.4141
1033.35	13.1408
1036.24	9.30858
1039.13	7.43381
1042.02	5.64766
1044.92	4.69966
1047.81	4.50389
1050.7	3.6405
1053.6	2.54747
1056.49	2.70035
1059.38	1.54072
1062.27	1.06112
1065.17	1.28129
1068.06	0.965036
1070.95	0.08996
1073.84	0.106767
1076.74	0.01074
1079.63	0.490428
1082.52	0.123162
1085.41	0.136071
1088.31	0.094119
1091.2	0.108676
1094.09	0.174
1096.99	0.061015
1099.88	0.034398
1102.77	0.574539
1105.66	0.112938
1108.56	0.017008
1111.45	0.888432
1114.34	1.02224
1117.23	1.57984
1120.13	2.06364
1123.02	2.82064
1125.91	3.70761
1128.81	5.67626
1131.7	8.99577
1134.59	13.5829
1137.48	19.5651
1140.38	27.6175
1143.27	35.3391
1146.16	44.5638
1149.05	53.4266
1151.95	53.55
1154.84	39.0588
1157.73	23.5033
1160.62	13.8844
1163.52	8.55658
1166.41	5.73333
1169.3	2.92847
1172.2	1.76351
1175.09	1.60886
1177.98	1.56198
1180.87	0.645838
1183.77	0.141398
1186.66	0.009644
1189.55	0.467987
1192.44	0.243986
1195.34	0.138444
1198.23	0.099474
1201.12	0.373915
1204.02	0.120247
1206.91	0.301468
1209.8	1.14943
1212.69	0.202518
1215.59	0.299603
1218.48	0.243428
1221.37	0.120069
1224.26	0.49309
1227.16	0.068473
1230.05	0.477939
1232.94	1.14856
1235.84	0.331984
1238.73	0.293602
1241.62	0.181532
1244.51	0.991439
1247.41	0.545579
1250.3	1.35841
1253.19	0.63284
1256.08	1.16331
1258.98	1.50085
1261.87	1.21934
1264.76	2.16902
1267.65	0.515925
1270.55	0.708426
1273.44	0.889495
1276.33	0.120823
1279.23	0.533202
1282.12	0.477194
1285.01	0.332092
1287.9	0.613069
1290.8	0.816011
1293.69	0.014637
1296.58	0.020486
1299.47	0.007054
