Measurement: Raman, 532 nm, unoriented, Raman Data Processed
Mineral: Schaurteite
Rruff sample: R120054
Ideal chemistry: Ca_3_Ge^4+^(SO_4_)_2_(OH)_6_3H_2_O
Locality: Tsumeb, Namibia
Source: William W. Pinch
Description: Massive aggregate of parallel and radiating colorless needles intermixed with calcite, associated with tennantite and renierite
Raman shift (cm-1)	intensity
208.129	0
211.021	0.03656
213.914	1.99011
216.807	2.02685
219.699	2.36841
222.592	2.19421
225.485	4.19296
228.377	5.90826
231.27	7.69479
234.163	10.1756
237.056	13.9102
239.948	9.13196
242.841	7.59833
245.734	8.11591
248.626	10.8499
251.519	11.6373
254.412	13.9567
257.305	16.627
260.197	17.0632
263.09	16.7554
265.983	16.9402
268.875	17.3475
271.768	17.5499
274.661	14.827
277.553	10.4495
280.446	9.24673
283.339	4.71628
286.232	0.772949
289.124	1.05765
292.017	1.57105
294.91	0.051422
297.802	0.231415
300.695	4.87457
303.588	4.09213
306.481	7.33188
309.373	10.8726
312.266	13.3084
315.159	19.8909
318.051	24.1556
320.944	32.568
323.837	37.484
326.729	46.0181
329.622	54.2965
332.515	61.0711
335.408	72.3208
338.3	82.7989
341.193	94.3974
344.086	105.892
346.978	120.236
349.871	135.363
352.764	159.421
355.656	179.27
358.549	164.418
361.442	125.369
364.334	80.611
367.227	55.3536
370.12	41.9989
373.012	32.1958
375.905	25.7827
378.798	19.7911
381.691	21.0017
384.583	18.7619
387.476	10.9009
390.369	6.91394
393.261	2.67886
396.154	0.60556
399.047	1.53293
401.94	1.23032
404.832	0.482056
407.725	1.7594
410.618	1.09143
413.51	1.60037
416.403	0.734894
419.296	0.684845
422.188	6.11624
425.081	7.81583
427.974	12.7824
430.866	15.918
433.759	12.9535
436.652	16.398
439.545	25.0718
442.437	39.4511
445.33	59.9166
448.223	67.1777
451.115	69.9452
454.008	85.326
456.901	102.913
459.793	112.918
462.686	91.1363
465.579	51.2484
468.472	35.5102
471.364	32.8653
474.257	38.3419
477.15	43.2321
480.042	31.1764
482.935	18.281
485.828	10.9249
488.721	4.41
491.613	5.12372
494.506	4.58517
497.399	2.95718
500.291	3.38239
503.184	1.45373
506.077	2.48508
508.969	1.15033
511.862	2.11008
514.755	1.81335
517.648	0.851379
520.54	0.043671
523.433	1.89374
526.326	1.60492
529.218	2.95236
532.111	1.65753
535.004	0.380585
537.896	0.586639
540.789	0.433075
543.682	1.20123
546.575	0.868225
549.467	1.96497
552.36	8.07031
555.253	2.35086
558.145	3.92017
561.038	2.43085
563.931	4.65689
566.823	7.73508
569.716	9.05164
572.609	14.7656
575.502	24.8593
578.394	48.0681
581.287	81.2041
584.18	117.941
587.072	176.392
589.965	265.081
592.858	343.271
595.75	310.402
598.643	170.101
601.536	80.7262
604.428	41.0313
607.321	25.7053
610.214	22.5707
613.107	27.2353
615.999	35.0627
618.892	53.1602
621.785	79.2176
624.677	116.901
627.57	156.856
630.463	166.749
633.356	120.883
636.248	78.8992
639.141	41.7439
642.034	22.8047
644.926	11.0563
647.819	6.06079
650.712	1.60132
653.604	1.05719
656.497	0.663025
659.39	0.003601
662.283	0.066101
665.175	0.161072
668.068	0.354004
670.961	1.69324
673.853	2.99438
676.746	4.57037
679.639	4.24701
682.531	8.33508
685.424	6.30182
688.317	8.96521
691.21	8.0625
694.102	7.01654
696.995	5.94281
699.888	4.0426
702.78	3.05212
705.673	1.94843
708.566	2.17963
711.458	0.788818
714.351	1.46014
717.244	0.255798
720.136	0.342407
723.029	0.02594
725.922	3.17511
728.815	4.85797
731.707	2.70435
734.6	3.42651
737.493	3.93872
740.385	3.77057
743.278	1.33923
746.171	1.79919
749.063	3.383
751.956	5.55084
754.849	3.80164
757.742	3.72894
760.634	3.3219
763.527	2.10651
766.42	0.766602
769.312	1.96448
772.205	1.44482
775.098	2.77808
777.99	0.653931
780.883	1.2821
783.776	2.13574
786.669	2.09992
789.561	0.778992
792.454	3.3111
795.347	2.14679
798.239	0.687683
801.132	1.62274
804.025	0.202271
806.918	2.45062
809.81	5.21301
812.703	1.81323
815.596	5.63324
818.488	1.94659
821.381	6.10858
824.274	3.03418
827.166	1.26105
830.059	1.10156
832.952	1.69537
835.845	3.31885
838.737	1.04382
841.63	1.31036
844.523	4.95136
847.415	1.97736
850.308	2.83673
853.201	2.10156
856.093	4.01514
858.986	2.95349
861.879	4.55493
864.771	2.9837
867.664	0.329956
870.557	2.64246
873.45	1.92926
876.342	1.16852
879.235	2.00848
882.128	0.101257
885.02	1.19843
887.913	7.48157
890.806	3.12537
893.698	1.33746
896.591	2.49853
899.484	0.216675
902.377	1.23798
905.269	3.06989
908.162	3.00128
911.055	4.97485
913.947	4.30591
916.84	3.97278
919.733	4.32257
922.625	5.07227
925.518	4.02338
928.411	2.36883
931.304	1.87512
934.196	0.479004
937.089	1.74988
939.982	1.39709
942.875	3.37647
945.767	4.00751
948.66	1.60413
951.553	2.57385
954.445	2.84375
957.338	0.788147
960.231	1.37714
963.123	2.64874
966.016	3.65729
968.909	4.21741
971.802	1.39789
974.694	0.668884
977.587	1.0835
980.48	1.56207
983.372	2.28607
986.265	1.88928
989.158	1.61743
992.05	5.52173
994.943	12.4564
997.836	9.02161
1000.73	13.9772
1003.62	18.2295
1006.51	31.912
1009.41	69.7291
1012.3	150.066
1015.19	237.126
1018.09	422.831
1020.98	829.56
1023.87	804.258
1026.76	231.671
1029.66	80.7544
1032.55	43.4294
1035.44	33.4785
1038.33	19.0525
1041.23	15.5856
1044.12	10.004
1047.01	10.6865
1049.9	12.3262
1052.8	8.95825
1055.69	8.02405
1058.58	8.73102
1061.47	5.23285
1064.37	4.9267
1067.26	1.37146
1070.15	1.69635
1073.05	0.865112
1075.94	3.35529
1078.83	2.91242
1081.72	3.91345
1084.62	7.99365
1087.51	14.5933
1090.4	8.05005
1093.3	3.71411
1096.19	0.306335
1099.08	0.388733
1101.97	3.42792
1104.87	1.12561
1107.76	0.684082
1110.65	1.57855
1113.54	4.79858
1116.44	4.05157
1119.33	4.64941
1122.22	4.9621
1125.12	9.24976
1128.01	12.3024
1130.9	17.1837
1133.79	26.2852
1136.68	38.2974
1139.58	58.2891
1142.47	80.8679
1145.36	93.0006
1148.26	103.998
1151.15	114.918
1154.04	100.014
1156.93	67.4709
1159.83	39.0941
1162.72	24.5513
1165.61	16.5863
1168.51	10.2669
1171.4	6.87006
1174.29	3.70337
1177.18	6.66766
1180.08	4.34161
1182.97	4.17755
1185.86	7.07989
1188.75	3.23108
1191.65	3.24335
1194.54	3.03113
1197.43	2.3056
1200.33	3.74292
1203.22	0.974304
1206.11	3.75018
1209	5.23828
1211.9	4.96045
1214.79	6.01325
1217.68	2.24817
1220.57	1.53821
1223.47	2.60162
1226.36	5.1131
1229.25	0.817932
1232.14	4.27423
1235.04	2.07758
1237.93	0.147217
1240.82	1.54981
1243.71	3.3081
1246.61	3.01453
1249.5	3.24628
1252.39	5.16754
1255.29	3.4104
1258.18	3.82397
1261.07	5.22076
1263.96	3.58563
1266.86	4.026
1269.75	3.88702
1272.64	1.63843
1275.54	3.15527
1278.43	0.605225
1281.32	0.566956
1284.21	0.411438
1287.11	0.188354
1290	3.65033
1292.89	3.51031
1295.78	1.53882
1298.68	2.35022
1301.57	1.86639
