Measurement: Raman, 780 nm, unoriented, Raman Data Processed
Mineral: Schaurteite
Rruff sample: R120054
Ideal chemistry: Ca_3_Ge^4+^(SO_4_)_2_(OH)_6_3H_2_O
Locality: Tsumeb, Namibia
Source: William W. Pinch
Description: Massive aggregate of parallel and radiating colorless needles intermixed with calcite, associated with tennantite and renierite
Raman shift (cm-1)	intensity
102.692	0
106.067	0.82177
109.442	0.206383
112.817	2.03897
116.192	7.88131
119.566	13.1383
122.941	21.2981
126.316	25.7526
129.691	35.0571
133.066	46.4115
136.44	52.6024
139.815	44.4071
143.19	20.9677
146.565	11.6238
149.94	7.17413
153.315	5.87148
156.689	5.47238
160.064	8.23188
163.439	10.5442
166.814	14.8753
170.189	13.5529
173.563	9.55003
176.938	4.93999
180.313	2.6951
183.688	0.490864
187.063	0.041943
190.437	0.820908
193.812	0.200157
197.187	1.18755
200.562	0.27174
203.937	0.070194
207.311	0.540577
210.686	1.43589
214.061	0.736229
217.436	1.15863
220.811	0.974266
224.186	2.5172
227.56	2.38298
230.935	3.29367
234.31	5.62521
237.685	6.00785
241.06	7.27848
244.435	7.79525
247.809	9.10609
251.184	10.6773
254.559	12.6497
257.934	13.4438
261.309	15.0489
264.683	14.4519
268.058	14.3639
271.433	13.7457
274.808	10.4996
278.183	6.50256
281.558	3.40101
284.932	2.13456
288.307	0.05563
291.682	0.042877
295.057	0.554375
298.432	0.117386
301.806	0.234028
305.181	1.79676
308.556	2.64241
311.931	5.17465
315.306	6.32373
318.68	9.68425
322.055	13.726
325.43	15.6343
328.805	18.9056
332.18	23.7161
335.555	27.2889
338.929	31.707
342.304	36.0706
345.679	41.4964
349.054	48.6639
352.429	56.0945
355.803	62.0129
359.178	51.0668
362.553	34.548
365.928	22.0525
369.303	17.7069
372.678	14.8067
376.052	14.749
379.427	16.2741
382.802	16.9955
386.177	11.1333
389.552	4.96695
392.926	1.9893
396.301	0.934052
399.676	0.089741
403.051	0.745831
406.426	0.008358
409.8	0.216686
413.175	0.242245
416.55	1.48049
419.925	2.31961
423.3	3.84367
426.675	7.15393
430.049	7.81318
433.424	7.76935
436.799	11.971
440.174	16.2965
443.549	26.284
446.923	33.6082
450.298	39.1576
453.673	50.4623
457.048	52.7607
460.423	50.0244
463.798	33.1985
467.172	25.741
470.547	28.3309
473.922	38.6085
477.297	39.7622
480.672	23.8625
484.046	12.3326
487.421	7.09043
490.796	4.60289
494.171	2.6488
497.546	1.63432
500.921	0.858299
504.295	0.984833
507.67	0.471077
511.045	0.977173
514.42	0.92667
517.795	0.377064
521.169	0.003704
524.544	0.250427
527.919	0.516045
531.294	0.561558
534.669	0.27599
538.044	0.586655
541.418	0.221481
544.793	0.352177
548.168	0.167419
551.543	1.40836
554.918	2.17984
558.293	2.81532
561.667	4.39933
565.042	7.60781
568.417	12.5017
571.792	19.9205
575.167	39.1199
578.541	72.7194
581.916	105.484
585.291	151.575
588.666	228.43
592.041	325.046
595.415	272.2
598.79	127.56
602.165	58.6517
605.54	32.6497
608.915	24.0406
612.29	26.6818
615.664	32.6593
619.039	44.1058
622.414	63.403
625.789	93.6093
629.164	116.34
632.538	90.4805
635.913	56.7656
639.288	27.2674
642.663	12.4372
646.038	5.69658
649.413	1.96339
652.787	1.23196
656.162	0.152962
659.537	0.005241
662.912	0.942551
666.287	0.441963
669.661	0.001808
673.036	0.748142
676.411	1.60987
679.786	1.63331
683.161	1.17506
686.535	2.08471
689.91	1.42258
693.285	1.07382
696.66	0.25161
700.035	0.372169
703.41	0.009388
706.784	0.264919
710.159	0.357296
713.534	0.472702
716.909	0.163307
720.284	0.991283
723.659	0.979153
727.033	1.0453
730.408	1.19258
733.783	2.66944
737.158	3.72415
740.533	2.83581
743.907	3.49847
747.282	2.58447
750.657	2.41446
754.032	0.435661
757.407	0.855419
760.782	0.958801
764.156	0.051884
767.531	0.353855
770.906	0.076576
774.281	0.655125
777.656	1.23569
781.03	0.384911
784.405	0.239628
787.78	1.05469
791.155	1.39396
794.53	0.467319
797.904	0.426392
801.279	1.56377
804.654	0.455528
808.029	1.66879
811.404	1.36018
814.779	0.562962
818.153	1.59712
821.528	1.70026
824.903	0.851433
828.278	0.781193
831.653	1.05551
835.028	1.43911
838.402	0.753975
841.777	1.40826
845.152	1.0555
848.527	2.46005
851.902	1.43538
855.276	2.22405
858.651	0.729782
862.026	1.04237
865.401	1.20378
868.776	0.729237
872.15	1.18999
875.525	0.582806
878.9	0.771378
882.275	1.32263
885.65	0.468727
889.024	0.505787
892.399	0.546223
895.774	0.699341
899.149	0.78336
902.524	0.253765
905.899	0.536682
909.273	1.17609
912.648	1.17251
916.023	1.37714
919.398	0.627499
922.773	1.16081
926.148	1.35309
929.522	0.982761
932.897	1.08119
936.272	0.057816
939.647	0.226875
943.022	0.08107
946.396	0.162365
949.771	0.3116
953.146	0.234715
956.521	0.141575
959.896	0.449097
963.27	0.308346
966.645	0.21423
970.02	0.360226
973.395	1.22138
976.77	1.79691
980.145	1.95736
983.519	1.70252
986.894	3.13982
990.269	3.21725
993.644	5.10929
997.019	10.0968
1000.39	14.1636
1003.77	26.1056
1007.14	58.5703
1010.52	149.278
1013.89	216.863
1017.27	393.647
1020.64	851.909
1024.02	489.32
1027.39	112.27
1030.77	43.7954
1034.14	22.4903
1037.52	15.4245
1040.89	12.155
1044.27	9.03905
1047.64	7.58091
1051.02	6.29058
1054.39	5.92392
1057.77	3.96165
1061.14	3.80705
1064.52	2.86474
1067.89	1.64809
1071.27	2.18147
1074.64	0.6763
1078.01	1.53701
1081.39	2.22094
1084.76	3.31414
1088.14	2.54862
1091.51	0.634029
1094.89	0.124676
1098.26	0.197098
1101.64	0.444206
1105.01	1.15687
1108.39	0.684597
1111.76	1.09932
1115.14	2.19877
1118.51	2.20356
1121.89	2.74146
1125.26	5.91479
1128.64	9.81776
1132.01	16.0845
1135.39	25.0267
1138.76	39.618
1142.14	55.9915
1145.51	69.6808
1148.88	85.3322
1152.26	86.0965
1155.63	57.513
1159.01	30.5205
1162.38	16.3148
1165.76	8.83124
1169.13	5.12478
1172.51	2.40726
1175.88	1.80188
1179.26	0.156555
1182.63	0.005325
1186.01	0.103825
1189.38	0.622871
1192.76	0.125263
1196.13	4.9274
1199.51	0.056721
1202.88	0.467392
1206.26	2.499
1209.63	4.47607
1213.01	6.49674
1216.38	10.3928
1219.76	14.5633
1223.13	18.8199
1226.51	20.3058
1229.88	20.295
1233.26	17.2624
1236.63	13.3021
1240.01	10.4051
1243.38	10.6131
1246.76	14.6498
1250.13	17.7809
1253.51	21.0319
1256.88	19.2806
1260.25	15.575
1263.63	10.8717
1267	5.81925
1270.38	3.16751
1273.75	1.52797
1277.13	0.575306
1280.5	0.81638
1283.88	0.194801
