Measurement: Raman, 532 nm, unoriented, Raman Data Processed
Mineral: Schafarzikite
Rruff sample: R120039
Ideal chemistry: Fe^2+^Sb^3+^_2_O_4_
Locality: Pernek, Slovakia
Source: Bob Jenkins
Description: Dark red elongated prismatic crystals with good cleavage, associated with white prismatic valentinite crystals.
Raman shift (cm-1)	intensity
192.701	0
195.594	0.120621
198.486	0.736288
201.379	1.73917
204.272	1.92198
207.164	2.27167
210.057	4.52821
212.95	5.19547
215.843	7.78828
218.735	8.40567
221.628	7.15391
224.521	6.58881
227.413	4.54362
230.306	3.42049
233.199	2.07554
236.091	1.77569
238.984	1.38809
241.877	1.61008
244.769	1.60396
247.662	0.669245
250.555	0.726698
253.448	0.941345
256.34	1.40038
259.233	1.87122
262.126	1.00495
265.018	2.4242
267.911	2.51166
270.804	3.60435
273.697	5.8729
276.589	6.63102
279.482	8.76082
282.375	10.4736
285.267	12.1476
288.16	14.8685
291.053	17.8907
293.945	19.3434
296.838	17.8064
299.731	14.2069
302.623	10.2757
305.516	7.22767
308.409	4.56259
311.302	2.79339
314.194	1.91106
317.087	1.04103
319.98	1.36694
322.872	0.349842
325.765	0.258324
328.658	0.317488
331.55	0.219482
334.443	0.422327
337.336	0.073059
340.229	0.255148
343.121	0.361866
346.014	0.375284
348.907	0.025251
351.799	0.108463
354.692	0.625973
357.585	0.779821
360.478	0.022879
363.37	0.502525
366.263	0.0221
369.156	0.059299
372.048	0.66361
374.941	0.184292
377.834	0.104357
380.726	0.107857
383.619	0.073458
386.512	0.39229
389.404	0.628931
392.297	1.10094
395.19	1.22865
398.083	1.37165
400.975	1.69388
403.868	2.17536
406.761	1.5104
409.653	1.75998
412.546	0.79039
415.439	1.61737
418.332	1.40226
421.224	0.824966
424.117	0.958246
427.01	1.73267
429.902	2.27336
432.795	3.0721
435.688	4.11658
438.58	6.00624
441.473	8.19948
444.366	9.39829
447.259	12.5338
450.151	14.7356
453.044	17.6135
455.937	20.6026
458.829	22.7982
461.722	24.2065
464.615	23.7941
467.507	21.2465
470.4	18.5586
473.293	14.8384
476.185	11.8131
479.078	9.54151
481.971	6.95788
484.864	5.14508
487.756	3.87463
490.649	2.44249
493.542	1.50687
496.434	0.78927
499.327	0.940392
502.22	0.339439
505.113	0.622849
508.005	0.19453
510.898	0.616098
513.791	0.067032
516.683	0.541685
519.576	0.267046
522.469	0.880987
525.361	1.78375
528.254	1.62197
531.147	0.817396
534.04	0.280581
536.932	0.095297
539.825	0.169081
542.718	0.502766
545.61	0.344803
548.503	0.577875
551.396	1.07548
554.288	0.899717
557.181	0.647987
560.074	0.964338
562.967	0.465733
565.859	0.190207
568.752	0.784304
571.645	0.020523
574.537	0.019985
577.43	0.17874
580.323	0.15197
583.216	0.04072
586.108	0.322571
589.001	0.350689
591.894	0.528301
594.786	0.589346
597.679	0.019537
600.572	0.776218
603.464	0.557442
606.357	0.31418
609.25	0.313753
612.142	0.998495
615.035	1.07752
617.928	1.72899
620.821	3.11785
623.713	3.19369
626.606	5.08796
629.499	6.00803
632.391	8.09952
635.284	10.0923
638.177	11.9441
641.069	16.2375
643.962	20.339
646.855	25.3034
649.747	32.3991
652.64	41.5185
655.533	50.9501
658.426	61.7225
661.318	71.019
664.211	77.5297
667.104	81.8689
669.996	80.8722
672.889	72.1267
675.782	62.7853
678.674	51.4707
681.567	42.1212
684.46	33.8107
687.353	27.3368
690.245	23.0788
693.138	18.4915
696.031	14.5005
698.923	12.3827
701.816	10.6084
704.709	8.3479
707.601	7.31197
710.494	6.26313
713.387	4.01169
716.28	3.71514
719.172	2.92129
722.065	2.01945
724.958	1.6173
727.85	1.48951
730.743	1.65606
733.636	0.826956
736.529	0.794149
739.421	0.589006
742.314	0.640144
745.207	0.734488
748.099	0.01284
750.992	0.288786
753.885	0.042816
756.777	0.951008
759.67	0.344833
762.563	0.081757
765.456	0.008217
768.348	0.775766
771.241	0.058342
774.134	0.13682
777.026	0.204365
779.919	0.609678
782.812	0.221697
785.704	1.08167
788.597	1.2244
791.49	0.838755
794.383	0.969509
797.275	2.3106
800.168	0.905888
803.061	1.4728
805.953	1.93023
808.846	1.47803
811.739	1.56523
814.631	1.66741
817.524	1.81271
820.417	1.73056
823.309	2.01939
826.202	2.06779
829.095	2.68914
831.988	2.94647
834.88	2.4264
837.773	2.23121
840.666	2.16176
843.558	3.10934
846.451	2.35275
849.344	1.88724
852.236	1.81808
855.129	2.89304
858.022	2.57113
860.915	2.21996
863.807	2.89505
866.7	2.55795
869.593	2.13524
872.485	1.99626
875.378	2.35345
878.271	1.56532
881.163	1.82566
884.056	1.59432
886.949	1.01774
889.842	1.20026
892.734	0.582695
895.627	0.892216
898.52	0.585648
901.412	0.444183
904.305	0.580061
907.198	0.559633
910.091	0.257164
912.983	0.219557
915.876	0.034695
918.769	0.763809
921.661	0.606897
924.554	0.37537
927.447	0.179253
930.339	0.602172
933.232	0.502401
936.125	0.052448
939.018	0.688981
941.91	0.202851
944.803	0.204707
947.696	0.485333
950.588	0.552039
953.481	0.570631
956.374	0.423115
959.266	0.599977
962.159	1.01147
965.052	0.688987
967.944	0.549331
970.837	1.3663
973.73	0.718205
976.623	0.443398
979.515	0.089595
982.408	0.985794
985.301	0.446244
988.193	0.30477
991.086	0.002103
993.979	0.613647
996.871	0.205998
999.764	0.335478
1002.66	0.435827
1005.55	1.37293
1008.44	0.958206
1011.34	0.755465
1014.23	0.095692
1017.12	0.848538
1020.01	0.677893
1022.91	1.23418
1025.8	1.24997
1028.69	0.424301
1031.58	1.08311
1034.48	1.25023
1037.37	1.46003
1040.26	0.863181
1043.15	0.318625
1046.05	1.01551
1048.94	0.65793
1051.83	1.13766
1054.73	0.266457
1057.62	0.497098
1060.51	0.880572
1063.4	0.596234
1066.3	0.82408
1069.19	0.29718
1072.08	1.42034
1074.97	1.07779
1077.87	0.296765
1080.76	0.089439
1083.65	0.89591
1086.55	0.876461
1089.44	1.46009
1092.33	1.24713
1095.22	0.740045
1098.12	0.134868
1101.01	0.262154
1103.9	0.926399
1106.79	0.025148
1109.69	1.25198
1112.58	0.487888
1115.47	0.064643
1118.37	0.361551
1121.26	0.170909
1124.15	0.039582
1127.04	0.812178
1129.94	0.445004
1132.83	0.193596
1135.72	1.30269
1138.61	0.095205
1141.51	0.650643
1144.4	0.188243
1147.29	0.642854
1150.18	0.757558
1153.08	0.542233
1155.97	0.865311
1158.86	0.42942
1161.76	0.435287
1164.65	0.853831
1167.54	0.275656
1170.43	0.812417
1173.33	0.777278
1176.22	0.89374
1179.11	0.442639
1182	0.65123
1184.9	0.861723
1187.79	0.886469
1190.68	0.274518
1193.58	0.163337
1196.47	0.878178
1199.36	0.241343
1202.25	0.477354
1205.15	0.726842
1208.04	0.596915
1210.93	0.272315
1213.82	1.05767
1216.72	1.10446
1219.61	0.344192
1222.5	0.756716
1225.39	0.423319
1228.29	0.207128
1231.18	0.547002
1234.07	0.518059
1236.97	0.373647
1239.86	0.893729
1242.75	1.05403
1245.64	0.799898
1248.54	0.256397
1251.43	0.701315
1254.32	0.684285
1257.21	0.805843
1260.11	0.677591
1263	1.44114
1265.89	0.723476
1268.79	0.822733
1271.68	1.0193
1274.57	0.900068
1277.46	0.184156
1280.36	0.764644
1283.25	0.450113
1286.14	0.149976
1289.03	0.307051
1291.93	1.02696
1294.82	1.05882
1297.71	0.555391
1300.61	0.130148
