Measurement: Raman, 780 nm, unoriented, Raman Data Processed
Mineral: Schairerite
Rruff sample: R110093
Ideal chemistry: Na_21_(SO_4_)_7_ClF_6_
Locality: Searles Lake, Trona, San Bernardino County, California, USA
Source: Marus Origlieri
Description: Unconsolidated gray, white and transparent colorless grains.  Associated with gaylussite and galeite R130025. NOTE: THE PHOTO IS GALEITE, AND THE RAMAN IS PROBABLY WRONG TOO. NEED TO X-RAY TO CONFIRM AND THEN SHOOT RAMAN ON X-RAY SAMPLE
Raman shift (cm-1)	intensity
201.526	0
204.419	0.003296
207.311	4.64062
210.204	0.420898
213.097	2.09473
215.99	4.28003
218.882	4.72864
221.775	4.41272
224.668	5.03357
227.56	2.12732
230.453	5.67822
233.346	2.45325
236.238	5.26001
239.131	0.986206
242.024	4.96021
244.917	0.605469
247.809	2.90649
250.702	1.547
253.595	0.477051
256.487	0.896973
259.38	3.76538
262.273	10.1128
265.166	6.55847
268.058	1.79175
270.951	4.74646
273.844	8.70068
276.736	5.98096
279.629	4.59045
282.522	8.01196
285.414	8.41821
288.307	3.04077
291.2	4.63464
294.092	7.44116
296.985	3.54907
299.878	2.93372
302.771	2.50061
305.663	1.82581
308.556	5.16736
311.449	3.21667
314.341	6.93994
317.234	4.07507
320.127	1.13098
323.019	6.54858
325.912	2.51013
328.805	1.3678
331.698	0.872314
334.59	1.23377
337.483	7.1709
340.376	3.29736
343.268	1.79688
346.161	3.34595
349.054	3.95276
351.947	3.29089
354.839	4.9613
357.732	2.52478
360.625	4.74585
363.517	4.28198
366.41	0.360474
369.303	5.57288
372.195	6.07617
375.088	3.78528
377.981	1.12134
380.873	0.018921
383.766	4.11682
386.659	2.3241
389.552	0.224365
392.444	0.179565
395.337	1.76941
398.23	4.31982
401.122	4.72034
404.015	0.001587
406.908	2.00232
409.8	6.55627
412.693	1.27917
415.586	6.84412
418.479	3.98706
421.371	8.56958
424.264	6.95593
427.157	8.8905
430.049	7.23584
432.942	7.18982
435.835	7.45813
438.728	10.2607
441.62	5.31873
444.513	10.855
447.406	12.3509
450.298	8.80444
453.191	17.7809
456.084	19.1473
458.976	28.6166
461.869	38.1688
464.762	47.7499
467.654	61.2174
470.547	72.949
473.44	67.1689
476.333	36.4664
479.225	20.0038
482.118	14.8785
485.011	9.51916
487.903	8.59168
490.796	7.14453
493.689	7.29211
496.582	9.85107
499.474	6.4408
502.367	3.15381
505.26	9.28687
508.152	11.1069
511.045	4.31067
513.938	5.03015
516.83	7.13977
519.723	0.011108
522.616	6.26794
525.509	0.463135
528.401	0.213135
531.294	1.73596
534.187	0.71936
537.079	6.23889
539.972	1.44324
542.865	0.276855
545.757	1.08948
548.65	0.442993
551.543	2.29785
554.436	2.54175
557.328	2.32519
560.221	3.97705
563.114	3.10413
566.006	2.48547
568.899	8.8529
571.792	4.06604
574.684	1.70142
577.577	2.39319
580.47	1.87512
583.362	4.61987
586.255	8.0863
589.148	4.49439
592.041	2.8468
594.933	3.32812
597.826	4.12958
600.719	2.93939
603.611	5.19183
606.504	0.411011
609.397	3.56018
612.29	2.65863
615.182	1.37653
618.075	6.82275
620.968	12.9923
623.86	17.0818
626.753	29.2205
629.646	33.4512
632.538	37.9103
635.431	47.002
638.324	35.701
641.217	13.6344
644.109	5.50281
647.002	5.83502
649.895	5.76434
652.787	2.8288
655.68	1.15002
658.573	4.29279
661.466	0.573425
664.358	0.723633
667.251	2.14117
670.144	1.09436
673.036	1.91504
675.929	0.886414
678.822	4.07629
681.714	0.748047
684.607	1.59381
687.5	1.83533
690.393	3.58417
693.285	1.37927
696.178	0.90863
699.071	0.881287
701.963	0.349854
704.856	3.01196
707.749	4.31049
710.641	5.51794
713.534	3.21747
716.427	3.02771
719.319	8.86749
722.212	3.76532
725.105	5.24719
727.998	3.7406
730.89	5.34039
733.783	8.27448
736.676	5.70953
739.568	4.19275
742.461	4.04096
745.354	1.61407
748.246	2.79688
751.139	2.84949
754.032	6.04462
756.925	3.35242
759.817	2.7644
762.71	4.3291
765.603	1.26422
768.495	1.33368
771.388	1.9408
774.281	1.86029
777.173	2.32587
780.066	1.13312
782.959	2.62128
785.852	1.74762
788.744	2.61127
791.637	3.89307
794.53	4.99817
797.422	3.75366
800.315	2.80206
803.208	4.57416
806.101	2.20776
808.993	5.6394
811.886	5.72186
814.779	10.1418
817.671	5.69238
820.564	6.27289
823.457	1.5611
826.349	5.07672
829.242	2.57794
832.135	5.20593
835.028	6.40582
837.92	3.23895
840.813	5.54297
843.706	7.7179
846.598	4.68097
849.491	1.25708
852.384	4.12927
855.276	3.77496
858.169	4.68085
861.062	8.19037
863.955	3.08704
866.847	4.15265
869.74	1.46826
872.633	1.13532
875.525	2.73321
878.418	4.13892
881.311	3.17792
884.203	1.52472
887.096	3.33112
889.989	1.43897
892.881	1.49542
895.774	2.70752
898.667	0.826416
901.56	0.746155
904.452	1.12274
907.345	2.68365
910.238	2.6709
913.13	1.68939
916.023	2.79388
918.916	3.36908
921.808	3.13623
924.701	2.60376
927.594	1.09796
930.487	0.522888
933.379	1.51819
936.272	5.2348
939.165	2.69812
942.057	1.34277
944.95	0.488708
947.843	1.22308
950.736	3.59601
953.628	2.41119
956.521	3.86725
959.414	0.396057
962.306	1.10443
965.199	0.980713
968.092	2.86792
970.984	1.02783
973.877	0.742737
976.77	1.2207
979.663	4.61896
982.555	15.0178
985.448	17.9977
988.341	33.1317
991.233	88.2465
994.126	224.248
997.019	283.557
999.911	232.182
1002.8	145.173
1005.7	122.285
1008.59	44.1443
1011.48	15.0537
1014.38	9.52698
1017.27	6.29864
1020.16	4.68994
1023.05	2.77393
1025.95	4.02295
1028.84	0.203735
1031.73	5.16242
1034.62	4.09723
1037.52	3.4375
1040.41	1.95691
1043.3	1.38123
1046.19	3.32819
1049.09	0.787537
1051.98	0.779846
1054.87	8.41669
1057.77	2.47192
1060.66	1.95685
1063.55	1.93451
1066.44	5.14484
1069.34	4.49609
1072.23	4.27106
1075.12	1.17322
1078.01	0.085327
1080.91	0.846741
1083.8	0.090576
1086.69	1.53876
1089.59	0.002808
1092.48	1.79248
1095.37	7.14423
1098.26	2.23474
1101.16	6.45721
1104.05	7.28186
1106.94	4.48944
1109.83	0.400635
1112.73	1.00934
1115.62	1.36249
1118.51	0.260254
1121.4	6.76623
1124.3	14.6333
1127.19	28.0873
1130.08	31.448
1132.98	17.4391
1135.87	11.0106
1138.76	3.64917
1141.65	3.65265
1144.55	4.0072
1147.44	2.35297
1150.33	2.4834
1153.22	2.51874
1156.12	1.59082
1159.01	3.34003
1161.9	1.03662
1164.8	2.63641
1167.69	1.53058
1170.58	4.81928
1173.47	4.1427
1176.37	3.45306
1179.26	2.07404
1182.15	3.58966
1185.04	1.85571
1187.94	4.82251
1190.83	5.09198
1193.72	5.84534
1196.62	4.74493
1199.51	2.12549
1202.4	3.18872
1205.29	4.79248
1208.19	2.73065
1211.08	3.82806
1213.97	2.10089
1216.86	3.39026
1219.76	1.2113
1222.65	0.69397
1225.54	1.72644
1228.43	3.52185
1231.33	0.525574
1234.22	1.07996
1237.11	3.89197
1240.01	1.50092
1242.9	2.4906
1245.79	2.11169
1248.68	0.360718
1251.58	2.12457
1254.47	1.30609
1257.36	2.66052
1260.25	4.69537
1263.15	1.547
1266.04	5.11444
1268.93	8.10413
1271.83	2.04291
1274.72	0.311157
1277.61	3.508
1280.5	1.94836
1283.4	3.29211
