Measurement: Raman, 780 nm, unoriented, Raman Data Processed
Mineral: Schaurteite
Rruff sample: R120104
Ideal chemistry: Ca_3_Ge^4+^(SO_4_)_2_(OH)_6_3H_2_O
Locality: Tsumeb, Namibia
Source: Marcus Origlieri
Description: Aggregate of silky hair-like crystals, associated with calcite, quartz, and germanite.  Sample used in structure determination by Origlieri & Downs (2013).
Measured chemistry: Ca_3.01_Ge_0.95_S_2.03_O_8_(OH)_6_.3H_2_O ; formula normalized to 17 O atoms, including 6H_2_O per formula unit
Raman shift (cm-1)	intensity
109.52	0
112.895	0.220266
116.27	2.75195
119.644	7.27948
123.019	9.78935
126.394	12.0912
129.769	18.3223
133.144	19.9571
136.518	21.4318
139.893	14.4603
143.268	5.23979
146.643	2.09283
150.018	2.02035
153.393	2.89544
156.767	3.08
160.142	4.00224
163.517	6.77886
166.892	7.65088
170.267	6.3429
173.642	3.87963
177.016	1.28613
180.391	0.165255
183.766	0.391382
187.141	0.077194
190.516	0.282724
193.89	0.106354
197.265	0.067459
200.64	0.11281
204.015	0.767248
207.39	0.470873
210.764	0.448042
214.139	1.08417
217.514	0.622847
220.889	1.87937
224.264	2.19557
227.638	1.9419
231.013	2.44674
234.388	3.35064
237.763	4.19377
241.138	4.46298
244.513	5.07946
247.887	5.49257
251.262	5.58777
254.637	7.05503
258.012	7.19986
261.387	7.73578
264.762	8.20907
268.136	8.41005
271.511	6.63575
274.886	4.92809
278.261	2.09559
281.635	0.95719
285.01	0.273687
288.385	0.075602
291.76	0.166336
295.135	0.293518
298.51	0.465605
301.884	0.85951
305.259	1.73518
308.634	2.09189
312.009	3.42551
315.384	4.57648
318.759	5.49737
322.133	7.31367
325.508	9.70774
328.883	11.6427
332.258	14.052
335.633	16.1834
339.007	19.0848
342.382	21.1511
345.757	23.7843
349.132	27.9555
352.507	31.7036
355.882	32.9676
359.256	24.8074
362.631	16.1574
366.006	10.8592
369.381	8.31348
372.755	7.84756
376.13	7.30747
379.505	8.65756
382.88	7.45695
386.255	4.59035
389.63	2.28844
393.004	0.484441
396.379	0.025581
399.754	0.083053
403.129	0.401145
406.504	0.095456
409.878	0.40238
413.253	0.32342
416.628	0.489999
420.003	1.01312
423.378	1.84821
426.753	3.19504
430.127	3.09983
433.502	3.62579
436.877	6.11653
440.252	9.32003
443.627	14.1629
447.001	17.4178
450.376	20.4562
453.751	24.5965
457.126	24.7086
460.501	21.7257
463.875	14.0225
467.25	11.8938
470.625	14.4309
474	17.4612
477.375	16.3374
480.75	8.56605
484.124	5.01467
487.499	3.00027
490.874	1.93409
494.249	1.3161
497.624	0.6577
500.998	0.785152
504.373	0.242108
507.748	0.226048
511.123	0.237346
514.498	0.150319
517.873	0.161696
521.247	0.016602
524.622	0.559834
527.997	0.204166
531.372	0.229694
534.747	0.019445
538.121	0.399385
541.496	0.096568
544.871	0.014128
548.246	0.240097
551.621	0.582084
554.995	0.217638
558.37	0.953342
561.745	1.98442
565.12	2.6595
568.495	4.47986
571.87	7.43074
575.244	15.3076
578.619	25.0252
581.994	36.1431
585.369	53.1298
588.744	79.8341
592.119	103.517
595.493	73.4756
598.868	33.1671
602.243	15.4263
605.618	9.72579
608.993	7.75761
612.367	9.45751
615.742	13.0884
619.117	18.0751
622.492	26.8508
625.867	37.9301
629.241	41.8154
632.616	28.8802
635.991	16.2349
639.366	7.90122
642.741	2.90357
646.115	1.49718
649.49	0.659429
652.865	0.523121
656.24	0.323409
659.615	0.021337
662.99	0.068021
666.364	0.159678
669.739	0.700936
673.114	0.425165
676.489	0.630742
679.864	0.852838
683.239	0.455329
686.613	0.533632
689.988	0.256996
693.363	0.36529
696.738	0.546971
700.112	0.08056
703.487	0.448301
706.862	0.123657
710.237	0.004134
713.612	0.430825
716.987	0.398278
720.361	0.412526
723.736	0.492256
727.111	0.885161
730.486	1.00152
733.861	1.18288
737.236	1.20707
740.61	1.82967
743.985	1.397
747.36	1.31605
750.735	0.886996
754.11	0.709924
757.484	0.737093
760.859	0.59236
764.234	0.220705
767.609	0.303326
770.984	0.381937
774.359	0.37682
777.733	0.4548
781.108	0.149478
784.483	0.207577
787.858	0.477188
791.232	0.656314
794.607	0.204443
797.982	0.204495
801.357	0.632704
804.732	0.681116
808.107	0.427271
811.481	0.515853
814.856	0.197114
818.231	0.57184
821.606	0.75589
824.981	0.667027
828.356	0.383719
831.73	0.599824
835.105	0.980754
838.48	1.23116
841.855	0.939374
845.23	0.619237
848.604	0.667105
851.979	1.07166
855.354	0.779431
858.729	0.891368
862.104	0.580538
865.479	0.774918
868.853	0.38335
872.228	0.317801
875.603	0.653406
878.978	0.74438
882.352	0.2213
885.727	0.217875
889.102	0.203115
892.477	0.305455
895.852	0.362432
899.227	0.466558
902.601	0.214805
905.976	0.091955
909.351	0.371575
912.726	0.494104
916.101	0.2865
919.476	0.260591
922.85	0.743682
926.225	0.13427
929.6	0.36387
932.975	0.267578
936.35	0.202588
939.724	0.034522
943.099	0.181422
946.474	0.056411
949.849	0.302297
953.224	0.476583
956.598	0.033799
959.973	0.175331
963.348	0.628587
966.723	0.139572
970.098	0.073778
973.472	0.185845
976.847	0.428669
980.222	0.339826
983.597	0.678642
986.972	0.702922
990.347	1.18924
993.721	1.65787
997.096	2.95676
1000.47	4.07376
1003.85	7.9667
1007.22	19.4757
1010.6	40.333
1013.97	62.8905
1017.35	117.926
1020.72	215.881
1024.1	85.3881
1027.47	21.0222
1030.84	9.10887
1034.22	6.12123
1037.59	4.11944
1040.97	3.51758
1044.34	2.53428
1047.72	1.97433
1051.09	1.84612
1054.47	1.54567
1057.84	1.23484
1061.22	1.11339
1064.59	0.928084
1067.97	0.632248
1071.34	0.408639
1074.72	0.254645
1078.09	0.201143
1081.47	0.407374
1084.84	0.624033
1088.22	0.32817
1091.59	0.325117
1094.97	0.204916
1098.34	0.035573
1101.71	0.023181
1105.09	0.37751
1108.46	0.695203
1111.84	0.771542
1115.21	0.764657
1118.59	0.757839
1121.96	1.52623
1125.34	1.64487
1128.71	3.75771
1132.09	6.10766
1135.46	8.96662
1138.84	13.2556
1142.21	18.9804
1145.59	22.9073
1148.96	28.1209
1152.34	25.5922
1155.71	15.1155
1159.09	8.09195
1162.46	4.9014
1165.84	2.40443
1169.21	1.31304
1172.59	1.22918
1175.96	0.904424
1179.34	0.659994
1182.71	0.443674
1186.09	0.217566
1189.46	0.560986
1192.84	0.117308
1196.21	0.253835
1199.59	0.415175
1202.96	0.423819
1206.34	0.278543
1209.71	0.095237
1213.08	0.753881
1216.46	0.122965
1219.83	0.78844
1223.21	0.597097
1226.58	0.493762
1229.96	0.291968
1233.33	0.443548
1236.71	1.08706
1240.08	0.197067
1243.46	0.452408
1246.83	0.560583
1250.21	0.671555
1253.58	0.750638
1256.96	1.05701
1260.33	0.848705
1263.71	0.67931
1267.08	0.261397
1270.46	0.675899
1273.83	0.279003
1277.21	0.297543
1280.58	0.385645
1283.95	0
