Measurement: Raman, 532 nm, unoriented, Raman Data Processed
Mineral: Schairerite
Rruff sample: R110093
Ideal chemistry: Na_21_(SO_4_)_7_ClF_6_
Locality: Searles Lake, Trona, San Bernardino County, California, USA
Source: Marus Origlieri
Description: Unconsolidated gray, white and transparent colorless grains.  Associated with gaylussite and galeite R130025. NOTE: THE PHOTO IS GALEITE, AND THE RAMAN IS PROBABLY WRONG TOO. NEED TO X-RAY TO CONFIRM AND THEN SHOOT RAMAN ON X-RAY SAMPLE
Raman shift (cm-1)	intensity
206.682	0
209.575	1.9231
212.468	6.52918
215.36	4.05811
218.253	9.84937
221.146	17.3591
224.038	18.5387
226.931	14.6816
229.824	17.8223
232.717	18.5955
235.609	19.0397
238.502	9.43249
241.395	2.81067
244.287	1.46069
247.18	7.93628
250.073	3.49756
252.965	7.89941
255.858	10.6752
258.751	12.2118
261.644	7.87122
264.536	5.52686
267.429	5.38379
270.322	10.9762
273.214	15.7752
276.107	19.0321
279	16.7625
281.892	13.3832
284.785	2.12085
287.678	3.31946
290.571	4.35022
293.463	5.67786
296.356	7.37427
299.249	8.27307
302.141	4.46301
305.034	15.0673
307.927	11.4351
310.82	11.5818
313.712	13.3463
316.605	11.6047
319.498	5.00366
322.39	8.75684
325.283	5.37036
328.176	6.30347
331.068	1.69971
333.961	10.3555
336.854	18.3025
339.747	15.1445
342.639	3.07471
345.532	1.10938
348.425	0.028076
351.317	0.772705
354.21	3.14771
357.103	7.45679
359.995	7.40039
362.888	7.59839
365.781	0.55249
368.673	9.17285
371.566	9.20264
374.459	6.21777
377.352	3.23438
380.244	2.12109
383.137	3.75513
386.03	7.02612
388.922	3.49097
391.815	2.40234
394.708	0.165527
397.601	1.7439
400.493	10.3044
403.386	5.54224
406.279	8.39722
409.171	10.7041
412.064	12.1279
414.957	12.6011
417.849	7.91211
420.742	4.49536
423.635	5.45557
426.527	0.0896
429.42	8.46435
432.313	1.854
435.206	5.89893
438.098	2.44092
440.991	5.03394
443.884	11.9912
446.776	34.0593
449.669	25.9421
452.562	33.0767
455.454	41.779
458.347	73.8696
461.24	115.44
464.133	141.328
467.025	145.384
469.918	150.743
472.811	126.387
475.703	76.6074
478.596	36.5117
481.489	17.8235
484.382	11.2739
487.274	11.1975
490.167	6.40039
493.06	2.87402
495.952	9.8291
498.845	11.1555
501.738	0.626221
504.63	2.94067
507.523	0.989746
510.416	5.55078
513.308	5.85718
516.201	0.105469
519.094	3.8811
521.987	12.2129
524.879	9.78369
527.772	18.6926
530.665	4.77808
533.557	5.05542
536.45	2.19849
539.343	7.0459
542.236	3.74194
545.128	6.83008
548.021	14.8137
550.914	10.3706
553.806	16.1277
556.699	5.30591
559.592	11.5642
562.484	4.66479
565.377	4.77124
568.27	0.261475
571.163	3.2959
574.055	0.294189
576.948	6.89087
579.841	6.36719
582.733	13.2109
585.626	4.80005
588.519	7.27441
591.411	12.6448
594.304	10.7009
597.197	6.94067
600.09	5.50684
602.982	2.11694
605.875	1.97827
608.768	6.49023
611.66	6.58252
614.553	13.2251
617.446	21.2012
620.338	40.4097
623.231	80.9304
626.124	114.867
629.016	156.969
631.909	196.417
634.802	269.912
637.695	282.912
640.587	119.779
643.48	27.3061
646.373	10.5745
649.265	3.98657
652.158	2.40332
655.051	5.05762
657.943	3.84815
660.836	16.0503
663.729	1.39429
666.622	2.74951
669.514	5.31201
672.407	2.11157
675.3	0.706787
678.192	7.14209
681.085	12.2312
683.978	12.8628
686.87	13.4597
689.763	14.6941
692.656	20.74
695.549	24.9084
698.441	15.717
701.334	13.2952
704.227	8.36011
707.119	11.2388
710.012	11.8752
712.905	14.4841
715.798	8.31665
718.69	6.1084
721.583	3.42603
724.476	10.729
727.368	13.1279
730.261	18.0642
733.154	16.0576
736.046	11.3626
738.939	6.13306
741.832	1.14062
744.725	2.82471
747.617	2.37647
750.51	5.29272
753.403	12.7644
756.295	25.3552
759.188	17.1213
762.081	9.70142
764.973	12.1873
767.866	15.2488
770.759	9.20361
773.652	15.2031
776.544	8.69751
779.437	8.94214
782.33	11.8584
785.222	7.67773
788.115	1.61768
791.008	8.46094
793.9	7.28345
796.793	5.23438
799.686	5.30005
802.578	3.56006
805.471	0.402832
808.364	13.2981
811.257	2.58203
814.149	6.25171
817.042	9.19629
819.935	13.5049
822.827	14.6714
825.72	4.30225
828.613	1.57129
831.505	5.27661
834.398	1.8418
837.291	0.976074
840.184	2.2019
843.076	3.58789
845.969	9.9209
848.862	5.83154
851.754	2.41894
854.647	4.61279
857.54	9.67529
860.433	7.54663
863.325	5.60278
866.218	6.13281
869.111	1.79321
872.003	4.20606
874.896	7.52905
877.789	4.39819
880.681	1.29346
883.574	3.6665
886.467	12.0955
889.36	15.5132
892.252	12.4971
895.145	8.29736
898.038	2.32324
900.93	0.820801
903.823	5.96997
906.716	14.3069
909.608	13.5376
912.501	11.9011
915.394	10.8618
918.287	18.6616
921.179	10.0244
924.072	10.1838
926.965	9.74463
929.857	14.4143
932.75	3.83081
935.643	5.83838
938.535	0.842041
941.428	0.04834
944.321	6.07959
947.213	7.87231
950.106	4.53931
952.999	7.46021
955.892	5.45606
958.784	3.82935
961.677	10.8894
964.57	6.98657
967.462	8.21143
970.355	11.1179
973.248	8.28613
976.14	13.0229
979.033	29.9409
981.926	51.1902
984.819	86.7964
987.711	166.803
990.604	362.99
993.497	871.057
996.389	1366.2
999.282	1486.24
1002.17	910.286
1005.07	563.65
1007.96	313.123
1010.85	114.929
1013.75	53.2771
1016.64	31.3059
1019.53	23.9043
1022.42	26.4038
1025.32	9.0166
1028.21	6.88818
1031.1	7.22974
1033.99	11.1433
1036.89	15.0195
1039.78	5.89673
1042.67	2.24658
1045.57	1.78613
1048.46	4.00488
1051.35	8.96387
1054.24	11.3591
1057.14	12.219
1060.03	11.9331
1062.92	11.0669
1065.81	5.55005
1068.71	5.83301
1071.6	10.3826
1074.49	1.06128
1077.38	2.64722
1080.28	4.1731
1083.17	3.49829
1086.06	0.288086
1088.96	2.73731
1091.85	0.514648
1094.74	8.18384
1097.63	18.2251
1100.53	40.3118
1103.42	43.2383
1106.31	41.7578
1109.2	32.5132
1112.1	44.1934
1114.99	41.6504
1117.88	45.9905
1120.78	71.4036
1123.67	115.193
1126.56	176.125
1129.45	278.769
1132.35	208.507
1135.24	134.375
1138.13	93.9624
1141.02	52.6736
1143.92	40.5598
1146.81	43.3323
1149.7	41.5852
1152.6	46.1987
1155.49	54.6287
1158.38	49.3494
1161.27	31.8496
1164.17	17.1807
1167.06	17.1099
1169.95	15.7532
1172.84	14.9324
1175.74	12.491
1178.63	9.31665
1181.52	15.1289
1184.41	18.5564
1187.31	27.9141
1190.2	23.927
1193.09	30.416
1195.99	20.5762
1198.88	10.6821
1201.77	14.6352
1204.66	11.5776
1207.56	27.8728
1210.45	30.3784
1213.34	18.8096
1216.23	9.7915
1219.13	4.41553
1222.02	10.5664
1224.91	8.9458
1227.81	9.28711
1230.7	3.26025
1233.59	4.04077
1236.48	11.6055
1239.38	7.02246
1242.27	2.52051
1245.16	11.2825
1248.05	3.60596
1250.95	3.88599
1253.84	12.0503
1256.73	7.45117
1259.62	17.7188
1262.52	22.3743
1265.41	15.4485
1268.3	16.2327
1271.2	10.4507
1274.09	8.82349
1276.98	10.331
1279.87	9.46948
1282.77	8.36426
1285.66	4.35889
1288.55	6.30518
1291.44	12.719
1294.34	9.22119
1297.23	4.5874
1300.12	11.5789
1303.02	0
