Measurement: Raman, 780 nm, unoriented, Raman Data Processed
Mineral: Schafarzikite
Rruff sample: R120039
Ideal chemistry: Fe^2+^Sb^3+^_2_O_4_
Locality: Pernek, Slovakia
Source: Bob Jenkins
Description: Dark red elongated prismatic crystals with good cleavage, associated with white prismatic valentinite crystals.
Raman shift (cm-1)	intensity
114.745	0
118.12	46.557
121.495	66.6737
124.87	5.42902
128.244	19.4946
131.619	42.173
134.994	9.32436
138.369	3.64483
141.744	6.83041
145.119	25.9506
148.493	53.2493
151.868	94.4687
155.243	146.008
158.618	179.546
161.993	141.299
165.367	71.8315
168.742	30.6651
172.117	10.6445
175.492	4.20352
178.867	0.337494
182.242	1.02952
185.616	2.32506
188.991	0.094742
192.366	0.335556
195.741	0.206284
199.115	3.18018
202.49	11.548
205.865	21.9651
209.24	31.7137
212.615	43.126
215.99	53.7767
219.364	56.7086
222.739	48.1618
226.114	31.5865
229.489	17.1721
232.864	7.84469
236.238	3.58831
239.613	0.56739
242.988	0.445557
246.363	0.021523
249.738	0.007065
253.113	0.545929
256.487	0.377625
259.862	0.536659
263.237	6.428
266.612	13.1332
269.987	24.0274
273.361	40.1842
276.736	63.1097
280.111	89.409
283.486	122.382
286.861	161.409
290.236	205.359
293.61	233.973
296.985	209.896
300.36	151.056
303.735	96.664
307.11	58.6513
310.485	34.5521
313.859	20.7776
317.234	12.0482
320.609	7.57402
323.984	5.13159
327.359	4.30105
330.733	6.04856
334.108	8.48923
337.483	13.144
340.858	19.7702
344.233	24.935
347.608	31.7785
350.982	32.8039
354.357	30.0701
357.732	19.8799
361.107	9.52704
364.482	5.05192
367.856	1.1136
371.231	0.443054
374.606	1.38599
377.981	0.518036
381.356	0.073513
384.731	1.52679
388.105	3.83514
391.48	4.05295
394.855	7.94891
398.23	9.29173
401.605	11.1517
404.979	10.3181
408.354	7.95629
411.729	3.70834
415.104	2.47881
418.479	0.240948
421.853	0.713276
425.228	0.118893
428.603	0.459454
431.978	0.779305
435.353	0.654968
438.728	2.41887
442.102	5.67696
445.477	8.07777
448.852	12.2011
452.227	16.9296
455.602	22.3853
458.976	28.0503
462.351	29.2502
465.726	29.9722
469.101	27.6462
472.476	26.3047
475.851	21.8429
479.225	17.2415
482.6	12.2606
485.975	6.93484
489.35	4.47446
492.725	3.28556
496.099	2.65463
499.474	2.54906
502.849	3.20364
506.224	4.81041
509.599	8.38173
512.973	13.2686
516.348	18.8216
519.723	24.6239
523.098	29.9208
526.473	29.9164
529.848	21.9459
533.222	14.4627
536.597	9.11366
539.972	5.33856
543.347	3.27978
546.722	2.67385
550.096	2.40829
553.471	4.0029
556.846	3.57815
560.221	2.9384
563.596	0.78294
566.971	0.082581
570.345	2.18648
573.72	2.2771
577.095	1.38135
580.47	1.68077
583.845	0.556114
587.22	0.453617
590.594	0.914761
593.969	2.3779
597.344	4.74066
600.719	7.26213
604.094	11.6871
607.468	15.2917
610.843	20.515
614.218	24.9818
617.593	30.4888
620.968	32.8811
624.342	40.8253
627.717	47.215
631.092	56.4204
634.467	70.2655
637.842	88.985
641.217	113.202
644.591	149.245
647.966	191.904
651.341	249.778
654.716	309.982
658.091	377.831
661.466	435.813
664.84	469.245
668.215	467.427
671.59	418.132
674.965	344.318
678.34	272.084
681.714	204.984
685.089	154.787
688.464	117.134
691.839	90.1773
695.214	68.4743
698.588	53.2086
701.963	42.2272
705.338	35.1237
708.713	27.3253
712.088	20.2444
715.462	16.4657
718.837	9.53965
722.212	8.20681
725.587	3.67108
728.962	2.25595
732.337	1.0069
735.711	0.361065
739.086	0.709026
742.461	0.982994
745.836	1.49085
749.211	0.63847
752.586	1.18654
755.96	0.964115
759.335	0.773159
762.71	0.287914
766.085	0.372581
769.46	0.100773
772.834	0.956573
776.209	1.11953
779.584	2.31979
782.959	3.12578
786.334	2.96469
789.708	3.64087
793.083	4.29484
796.458	4.26154
799.833	4.58322
803.208	4.70263
806.583	5.77751
809.957	4.38415
813.332	3.86061
816.707	3.63771
820.082	4.45756
823.457	4.41771
826.832	3.70701
830.206	3.39227
833.581	3.34979
836.956	3.42833
840.331	3.47347
843.706	3.57603
847.08	3.53888
850.455	3.25966
853.83	3.29749
857.205	3.53003
860.58	3.90461
863.955	2.96946
867.329	2.67946
870.704	2.60787
874.079	2.20013
877.454	1.5952
880.829	4.23914
884.203	1.18571
887.578	1.87758
890.953	0.972338
894.328	1.07927
897.703	0.631954
901.077	0.313669
904.452	0.222416
907.827	0.58029
911.202	0.862505
914.577	0.430971
917.952	0.791775
921.326	0.305239
924.701	0.247797
928.076	0.12319
931.451	0.080774
934.826	0.489931
938.2	0.101824
941.575	0.301777
944.95	0.238102
948.325	0.191298
951.7	0.188618
955.074	0.423698
958.449	0.035097
961.824	0.220346
965.199	0.073387
968.574	0.711666
971.949	0.50564
975.323	0.106825
978.698	0.034243
982.073	0.755131
985.448	0.474771
988.823	0.567274
992.197	0.356245
995.572	1.11286
998.947	0.61681
1002.32	1.08614
1005.7	0.954824
1009.07	0.887991
1012.45	1.0598
1015.82	0.96003
1019.2	1.07409
1022.57	0.527607
1025.95	0.765427
1029.32	0.933407
1032.69	1.02597
1036.07	1.00501
1039.44	0.500633
1042.82	0.694818
1046.19	1.06593
1049.57	0.07937
1052.94	0.627232
1056.32	0.986959
1059.69	1.24215
1063.07	0.391403
1066.44	0.00296
1069.82	0.126947
1073.19	0.960762
1076.57	0.245653
1079.94	0.450115
1083.32	0.860092
1086.69	0.91683
1090.07	0.526104
1093.44	0.837322
1096.82	0.662613
1100.19	1.15226
1103.57	0.412983
1106.94	0.054106
1110.32	0.788357
1113.69	0.576797
1117.07	0.406902
1120.44	0.62487
1123.82	0.167854
1127.19	0.556498
1130.57	0.262587
1133.94	0.008892
1137.32	0.472919
1140.69	0.442286
1144.06	0.338577
1147.44	0.172989
1150.81	0.111279
1154.19	0.264843
1157.56	0.031416
1160.94	0.38509
1164.31	0.86183
1167.69	0.390343
1171.06	0.588886
1174.44	0.753019
1177.81	0.794062
1181.19	0.483198
1184.56	0.020123
1187.94	0.043173
1191.31	0.049027
1194.69	0.966331
1198.06	1.42441
1201.44	1.1705
1204.81	1.06025
1208.19	0.730806
1211.56	0.751636
1214.93	0.660345
1218.31	0.769975
1221.68	0.014472
1225.06	1.23272
1228.43	0.670583
1231.81	0.127964
1235.18	1.13786
1238.56	0.48913
1241.93	0.091591
1245.31	2.05874
1248.68	0.467929
1252.06	0.480029
1255.43	1.01338
1258.81	0.778407
1262.18	0.553923
1265.56	1.00857
1268.93	0.739187
1272.31	0.030197
1275.68	1.32597
1279.06	0.306021
1282.43	0.422108
