Measurement: Raman, 532 nm, unoriented, Raman Data Processed
Mineral: Scheelite
Rruff sample: R040172
Ideal chemistry: CaWO_4_
Locality: Sonora, Mexico
Source: University of Arizona Mineral Museum
Description: Colorless water worn single crystal
Measured chemistry: Ca_1.01_W_1.00_O_4_
Raman shift (cm-1)	intensity
112.057	0
115.431	3.78809
118.806	2.04385
122.181	5.81001
125.556	83.3486
128.931	106.896
132.306	81.5889
135.68	92.8907
139.055	108.509
142.43	82.6511
145.805	68.5656
149.18	76.1979
152.554	78.6241
155.929	92.7957
159.304	98.4627
162.679	75.9485
166.054	82.8064
169.429	80.115
172.803	87.141
176.178	91.3852
179.553	113.182
182.928	186.021
186.303	290.838
189.678	530.894
193.052	1020.02
196.427	1413.3
199.802	1221.78
203.177	1749.67
206.552	3200.63
209.926	5452.85
213.301	3397.2
216.676	1219.61
220.051	652.526
223.426	428.184
226.8	245.51
230.175	137.775
233.55	69.7647
236.925	23.0717
240.3	14.7195
243.675	17.7454
247.049	35.2815
250.424	17.4165
253.799	15.9009
257.174	1.87189
260.549	75.8272
263.923	172.345
267.298	301.452
270.673	514.031
274.048	593.018
277.423	412.114
280.798	182.355
284.173	102.268
287.547	67.6283
290.922	67.5557
294.297	110.564
297.672	155.495
301.046	219.72
304.421	354.288
307.796	537.318
311.171	902.649
314.546	1527.5
317.921	2557.59
321.295	4225.53
324.67	7022.09
328.045	11030.3
331.42	14906.9
334.795	12685.4
338.17	6865.31
341.544	3586.03
344.919	1997.03
348.294	1178.92
351.669	721.556
355.044	436.084
358.418	258.848
361.793	141.157
365.168	56.3846
368.543	34.7993
371.918	36.421
375.293	65.9228
378.667	144.054
382.042	335.685
385.417	744.775
388.792	1516.65
392.167	2716.39
395.541	4565.95
398.916	6716.07
402.291	4908.95
405.666	2637.63
409.041	1247.8
412.416	551.391
415.79	229.892
419.165	92.5998
422.54	18.3436
425.915	3.00562
429.29	4.16333
432.664	3.84845
436.039	22.6105
439.414	2.34015
442.789	2.75961
446.164	18.7373
449.538	7.10916
452.913	3.80627
456.288	1.89554
459.663	0.88559
463.038	26.2929
466.413	5.56619
469.787	16.7612
473.162	23.3174
476.537	32.0919
479.912	38.981
483.287	48.9097
486.661	50.3128
490.036	45.2779
493.411	49.3494
496.786	55.6077
500.161	67.5411
503.536	64.4318
506.911	60.3473
510.285	60.4804
513.66	41.7084
517.035	52.2592
520.41	55.9117
523.784	62.9028
527.159	32.2512
530.534	35.6235
533.909	25.8773
537.284	21.8988
540.659	14.1538
544.033	20.6443
547.408	29.2183
550.783	21.062
554.158	28.8973
557.533	19.8365
560.908	11.342
564.282	25.2762
567.657	11.9523
571.032	19.8282
574.407	14.8215
577.782	1.55005
581.156	14.2785
584.531	11.5607
587.906	12.5337
591.281	0.387665
594.656	9.69141
598.031	1.34082
601.405	5.85727
604.78	3.69601
608.155	10.0612
611.53	10.1439
614.905	1.43195
618.279	4.72833
621.654	9.20151
625.029	2.97778
628.404	1.30987
631.779	1.90341
635.154	7.45184
638.528	16.8026
641.903	4.17221
645.278	0.770813
648.653	32.1988
652.028	36.4037
655.403	37.0906
658.777	32.3402
662.152	38.0837
665.527	37.5244
668.902	48.536
672.277	51.6312
675.651	63.9883
679.026	54.6827
682.401	63.4547
685.776	66.1837
689.151	72.2702
692.525	95.0291
695.9	113.472
699.275	113.832
702.65	113.863
706.025	108.579
709.399	87.6984
712.774	92.502
716.149	70.5956
719.524	70.3965
722.899	64.9487
726.274	61.023
729.648	47.5611
733.023	29.3139
736.398	30.9131
739.773	21.0324
743.148	13.2426
746.523	9.94519
749.897	0.968323
753.272	9.32104
756.647	4.1933
760.022	0.793518
763.397	43.0025
766.771	38.0969
770.146	53.5722
773.521	113.481
776.896	214.764
780.271	413.099
783.646	934.985
787.02	2246.8
790.395	4406.97
793.77	8286.89
797.145	9755.25
800.52	3278.1
803.894	1059.22
807.269	367.24
810.644	102.941
814.019	54.1388
817.394	66.3563
820.769	37.4395
824.143	290.617
827.518	870.215
830.893	1904.83
834.268	3419.97
837.643	4654.62
841.018	2686.92
844.392	982.001
847.767	387.46
851.142	155.414
854.517	71.7438
857.891	79.2071
861.266	35.6566
864.641	79.5253
868.016	161.595
871.391	335.677
874.766	668.588
878.14	1216.17
881.515	2016.09
884.89	2259.2
888.265	1947.56
891.64	2442.66
895.015	4110.39
898.389	8119.3
901.764	16665.5
905.139	30716.9
908.514	48703.1
911.889	49806.5
915.264	21387.1
918.638	7857.13
922.013	3544.8
925.388	1923.04
928.763	1272.89
932.138	996.461
935.512	721.825
938.887	502.563
942.262	308.327
945.637	170.727
949.012	96.733
952.386	32.2387
955.761	4.29242
959.136	22.418
962.511	21.4316
965.886	18.6063
969.261	21.4053
972.635	6.91684
976.01	8.66208
979.385	4.19656
982.76	2.48291
986.135	11.8101
989.51	22.839
992.884	38.7037
996.259	43.0151
999.634	45.667
1003.01	50.4698
1006.38	47.3928
1009.76	62.5355
1013.13	73.2158
1016.51	73.7965
1019.88	77.0704
1023.26	56.8378
1026.63	57.7596
1030.01	52.5868
1033.38	53.7406
1036.76	53.647
1040.13	48.6007
1043.51	40.4571
1046.88	47.8303
1050.26	47.6448
1053.63	35.0844
1057.01	41.6334
1060.38	41.4446
1063.76	44.1269
1067.13	31.8239
1070.51	28.5963
1073.88	19.6955
1077.26	28.2509
1080.63	38.7158
1084	23.1524
1087.38	24.797
1090.75	17.618
1094.13	16.1135
1097.5	14.6883
1100.88	13.7233
1104.25	20.3429
1107.63	12.5947
1111	6.90933
1114.38	8.5824
1117.75	20.6878
1121.13	5.14035
1124.5	0.542267
1127.88	11.5112
1131.25	16.2597
1134.63	2.61948
1138	7.89139
1141.38	5.11285
1144.75	2.59869
1148.13	1.6879
1151.5	15.248
1154.88	4.88126
1158.25	16.5004
1161.62	1.94989
1165	27.6902
1168.38	11.4133
1171.75	9.64725
1175.12	24.9504
1178.5	20.5505
1181.87	25.9455
1185.25	9.53265
1188.62	20.1878
1192	17.6048
1195.37	27.0403
1198.75	25.801
1202.12	19.4851
1205.5	22.1816
1208.87	16.8133
1212.25	14.5831
1215.62	17.2307
1219	12.4242
1222.37	13.551
1225.75	9.08218
1229.12	12.9978
1232.5	10.5675
1235.87	7.99207
1239.25	14.3337
1242.62	16.0106
1246	8.43683
1249.37	12.9106
1252.74	15.2353
1256.12	3.93231
1259.49	9.09326
1262.87	7.1879
1266.24	15.4643
1269.62	4.91235
1272.99	15.0337
1276.37	23.7929
1279.74	23.1971
1283.12	16.5594
1286.49	29.8435
1289.87	24.4765
1293.24	9.33286
1296.62	16.3027
1299.99	9.45377
1303.37	0
