Measurement: Raman, 532 nm, unoriented, Raman Data Processed
Mineral: Scheelite
Rruff sample: R050543
Ideal chemistry: CaWO_4_
Locality: Nacozari, Sonora, Mexico
Source: University of Arizona Mineral Museum
Description: Green drusy coating
Raman shift (cm-1)	intensity
130.398	0
133.773	0.81
137.148	1.689
140.523	37.356
143.897	6.696
147.272	6.827
150.647	15.476
154.022	2.162
157.397	2.133
160.771	0.199
164.146	8.328
167.521	32.359
170.896	65.614
174.271	76.471
177.645	122.583
181.02	193.245
184.395	259.068
187.77	375.574
191.145	516.387
194.52	625.577
197.894	730.106
201.269	764.618
204.644	873.758
208.019	988.042
211.394	1065.39
214.768	735.972
218.143	375.255
221.518	269.005
224.893	159.767
228.268	145.21
231.643	113.495
235.017	127.249
238.392	190.702
241.767	188.62
245.142	308.739
248.517	368.011
251.891	389.388
255.266	409.416
258.641	475.844
262.016	514.565
265.391	563.52
268.766	534.413
272.14	532.403
275.515	476.808
278.89	378.595
282.265	272.469
285.64	194.602
289.014	136.442
292.389	71.909
295.764	28.925
299.139	86.462
302.514	99.864
305.889	102.963
309.263	53.472
312.638	0.978
316.013	124.751
319.388	277.9
322.763	662.996
326.138	1128.8
329.512	1740.37
332.887	2060.76
336.262	1453.4
339.637	841.212
343.012	590.948
346.386	677.581
349.761	921.054
353.136	1475.05
356.511	2192.17
359.886	3343.82
363.26	5113.06
366.635	7484.13
370.01	10018.1
373.385	12077.7
376.76	12943.3
380.135	11948.2
383.509	9803.7
386.884	8383.75
390.259	8101.22
393.634	7939.97
397.009	7209.49
400.384	5903.04
403.758	3987.18
407.133	1941.13
410.508	551.516
413.883	24.416
417.258	79.716
420.632	266.906
424.007	998.676
427.382	1986.08
430.757	3437.44
434.132	5207.86
437.506	6935.71
440.881	7562.35
444.256	6320.15
447.631	5229.44
451.006	5251.8
454.38	5938.48
457.755	5672.22
461.13	4484.64
464.505	3636.16
467.88	2612.99
471.255	1791.03
474.629	1245.68
478.004	1006.04
481.379	802.112
484.754	677.612
488.129	529.046
491.504	282.25
494.878	96.565
498.253	65.623
501.628	30.411
505.003	11.835
508.378	69.665
511.752	33.8
515.127	19.409
518.502	22.794
521.877	13.209
525.252	14.69
528.627	29.611
532.001	11.885
535.376	162.655
538.751	241.363
542.126	332.476
545.501	395.245
548.875	465.001
552.25	462.787
555.625	406.917
559	411.688
562.375	323.02
565.75	272.782
569.124	179.667
572.499	133.517
575.874	67.899
579.249	10.805
582.624	29.802
585.998	5.701
589.373	81.944
592.748	136.528
596.123	272.152
599.498	277.327
602.872	249.007
606.247	149.625
609.622	4.593
612.997	369.71
616.372	865.578
619.747	1503.64
623.121	2037.52
626.496	2686.94
629.871	3548.87
633.246	4108.49
636.621	4628.69
639.995	5120.74
643.37	5471.51
646.745	5827.69
650.12	6518.86
653.495	7146.85
656.87	7965.6
660.244	8581.61
663.619	9214.43
666.994	9802.24
670.369	10557
673.744	11180.1
677.119	12126.6
680.493	13072.4
683.868	13836.4
687.243	15156.9
690.618	16940.5
693.993	19123.8
697.367	21513.5
700.742	22778.3
704.117	22247.4
707.492	20038.8
710.867	16739.8
714.242	13697
717.616	11145.9
720.991	9143.03
724.366	7440.15
727.741	6046.26
731.115	4903.66
734.49	3993.84
737.865	3310.07
741.24	2858.8
744.615	2428.13
747.99	2093.5
751.364	1562.18
754.739	1152.83
758.114	609.848
761.489	281.821
764.864	73.335
768.239	141.315
771.613	250.644
774.988	303.719
778.363	320.853
781.738	254.551
785.113	48.962
788.487	90.661
791.862	384.507
795.237	659.912
798.612	529.157
801.987	493.542
805.362	572.716
808.736	637.892
812.111	668.074
815.486	683.647
818.861	674.862
822.236	647.283
825.61	650.584
828.985	602.031
832.36	588.076
835.735	597.331
839.11	355.801
842.485	144.844
845.859	106.506
849.234	114.983
852.609	116.714
855.984	150.759
859.359	125.176
862.734	179.962
866.108	156.241
869.483	212.568
872.858	272.394
876.233	357.546
879.607	493.317
882.982	525.847
886.357	443.458
889.732	444.141
893.107	620.534
896.482	1021.38
899.856	1838.47
903.231	3208.36
906.606	5034.58
909.981	6018.69
913.356	3191.24
916.731	1342
920.105	681.673
923.48	430.71
926.855	301.256
930.23	206.45
933.605	152.466
936.979	85.06
940.354	74.012
943.729	29.916
947.104	17.793
950.479	2.869
953.854	21.275
957.228	35.854
960.603	15.559
963.978	6.271
967.353	19.714
970.728	13.06
974.102	21.3
977.477	8.733
980.852	7.472
984.227	29.504
987.602	44.524
990.977	54.972
994.351	45.614
997.726	90.565
1001.1	121.104
1004.48	123.228
1007.85	122.104
1011.23	144.863
1014.6	153.346
1017.98	190.002
1021.35	209.296
1024.72	261.833
1028.1	265.766
1031.47	281.551
1034.85	316.959
1038.22	333.47
1041.6	320.463
1044.97	298.586
1048.35	304.005
1051.72	300.951
1055.1	281.033
1058.47	256.464
1061.85	221.336
1065.22	204.63
1068.6	162.194
1071.97	137.032
1075.35	121.4
1078.72	97.509
1082.1	74.466
1085.47	65.406
1088.85	35.244
1092.22	11.458
1095.6	25.926
1098.97	29.147
1102.35	22.2
1105.72	16.746
1109.1	21.992
1112.47	14.23
1115.85	19.895
1119.22	1.479
1122.59	0.367
1125.97	19.975
1129.34	22.354
1132.72	34.859
1136.09	15.995
1139.47	48.409
1142.84	45.522
1146.22	74.507
1149.59	84.152
1152.97	95.083
1156.34	95.45
1159.72	101.287
1163.09	85.81
1166.47	51.516
1169.84	41.632
1173.22	38.642
1176.59	27.306
1179.97	40.164
1183.34	6.06
1186.72	19.853
1190.09	9.997
1193.47	14.335
1196.84	22.232
1200.21	17.313
1203.59	35.638
1206.96	45.466
1210.34	62.457
1213.71	39.343
1217.09	48.809
1220.46	49.77
1223.84	49.367
1227.21	39.356
1230.59	33.172
1233.96	42.866
1237.34	27.74
1240.71	21.891
1244.09	33.038
1247.46	2.053
1250.84	10.273
1254.21	7.609
1257.59	12.844
1260.96	20.715
1264.34	30.977
1267.71	23.173
1271.09	11.399
1274.46	37.92
1277.84	28.319
1281.21	4.377
1284.59	11.368
1287.96	23.364
1291.34	0.142
