Measurement: Raman, 514 nm, unoriented, Raman Data Processed
Mineral: Scheelite
Rruff sample: R040172
Ideal chemistry: CaWO_4_
Locality: Sonora, Mexico
Source: University of Arizona Mineral Museum
Description: Colorless water worn single crystal
Measured chemistry: Ca_1.01_W_1.00_O_4_
Raman shift (cm-1)	intensity
54.266	0
58.464	6.163
62.661	6.161
66.856	16.617
71.048	28.762
75.239	219.938
79.427	681.105
83.614	673.946
87.798	207.264
91.981	137.239
96.161	128.792
100.34	182.847
104.516	417.44
108.691	1439.14
112.864	2716.05
117.034	2164.1
121.203	893.526
125.369	395.26
129.534	183.281
133.696	83.582
137.857	59.147
142.016	42.792
146.172	35.513
150.327	18.352
154.48	10.325
158.63	12.562
162.779	1.308
166.926	1.914
171.07	6.387
175.213	10.732
179.354	2.949
183.493	32.956
187.63	114.98
191.765	279.144
195.898	340.436
200.029	348.84
204.158	918.431
208.285	1735.18
212.41	1295.12
216.533	534.176
220.654	204.469
224.773	116.373
228.891	79.809
233.006	59.572
237.119	50.587
241.231	52.805
245.34	53.195
249.448	68.728
253.553	91.386
257.657	123.155
261.758	171.026
265.858	243.992
269.956	348.043
274.052	368.165
278.146	287.339
282.237	254.552
286.327	251.831
290.416	298.176
294.502	356.583
298.586	430.136
302.668	598.652
306.749	829.22
310.827	1202.84
314.903	1767.51
318.978	2932.71
323.051	6127.1
327.121	13775.1
331.19	19250.3
335.257	12242
339.322	5247.71
343.385	2542.45
347.446	1455.23
351.505	974.374
355.563	679.044
359.618	519.564
363.672	386.01
367.723	315.899
371.773	233.831
375.821	207.253
379.866	169.234
383.91	194.849
387.952	208.89
391.992	277.134
396.031	522.403
400.067	786.167
404.101	762.918
408.134	486.435
412.165	279.067
416.193	165.889
420.22	127.411
424.245	80.099
428.268	59.565
432.289	48.877
436.309	52.332
440.326	32.271
444.342	19.557
448.355	19.833
452.367	27.116
456.377	8.409
460.385	9.64
464.391	24.358
468.395	13.205
472.398	18.48
476.398	17.147
480.397	5.577
484.394	5.665
488.389	10.286
492.382	4.426
496.373	3.011
500.362	0.081
504.349	7.724
508.335	4.074
512.319	2.81
516.3	5.508
520.28	13.08
524.259	10.783
528.235	11.353
532.209	0.233
536.182	2.316
540.152	4.767
544.121	2.826
548.088	21.3
552.053	26.751
556.017	4.171
559.978	8.484
563.938	8.479
567.895	32.361
571.851	20.291
575.805	43.076
579.758	12.816
583.708	11.533
587.657	26.181
591.603	26.783
595.548	0.344
599.491	37.847
603.432	38.733
607.372	30.735
611.309	13.122
615.245	21.469
619.179	36.97
623.111	14.966
627.041	39.201
630.97	2.398
634.896	12.547
638.821	32.138
642.744	22.327
646.665	16.379
650.584	13.346
654.502	0.443
658.418	3.874
662.331	4.686
666.244	14.386
670.154	4.023
674.062	10.691
677.969	9.718
681.874	3.906
685.777	20.039
689.678	13.487
693.577	32.255
697.475	1.871
701.371	1.595
705.265	15.917
709.157	3.347
713.047	0.853
716.936	7.092
720.823	14.188
724.708	5.264
728.591	21.968
732.472	14.016
736.352	2.708
740.23	13.453
744.106	0.98
747.98	13.553
751.853	3.425
755.723	22.944
759.592	47.555
763.459	45.179
767.325	43.754
771.188	62.409
775.05	123.083
778.91	152.771
782.768	203.358
786.625	431.683
790.479	1219.27
794.332	3752.8
798.183	3604.67
802.033	1184.59
805.88	441.836
809.726	243.956
813.57	145.838
817.413	112.953
821.253	90.129
825.092	139.354
828.929	183.383
832.764	271.968
836.598	430.055
840.429	406.534
844.259	286.455
848.088	287.376
851.914	314.917
855.739	341.427
859.562	400.616
863.383	450.263
867.203	508.141
871.02	617.733
874.836	787.642
878.65	1224.57
882.463	2008.63
886.274	2098.74
890.083	1982.87
893.89	2467.07
897.695	4126.32
901.499	8289.62
905.301	19493.2
909.102	42869.6
912.9	42386
916.697	16070.5
920.492	5883.07
924.285	2825.65
928.077	1744.37
931.867	1323.33
935.655	1027.06
939.442	795.508
943.226	596.304
947.009	439.219
950.791	339.511
954.57	247.859
958.348	190.369
962.124	178.027
965.899	166.135
969.671	119.694
973.442	101.996
977.211	102.154
980.979	88.533
984.745	98.723
988.509	98.422
992.271	68.405
996.032	39.345
999.791	16.69
1003.55	33.062
1007.3	29.765
1011.06	39.583
1014.81	50.163
1018.56	44.637
1022.31	3.138
1026.06	43.623
1029.8	18.12
1033.55	20.859
1037.29	18.418
1041.03	18.957
1044.77	24.496
1048.5	14.195
1052.24	4.087
1055.97	8.384
1059.7	28.93
1063.43	1.975
1067.16	0.571
1070.89	20.22
1074.61	8.803
1078.34	4.41
1082.06	12.116
1085.78	14.672
1089.5	12.297
1093.21	18.766
1096.93	16.223
1100.64	15.217
1104.35	6.549
1108.06	0.103
1111.77	1.321
1115.48	2.384
1119.18	0.875
1122.89	43.103
1126.59	11.537
1130.29	2.269
1133.99	13.092
1137.68	11.223
1141.38	5.297
1145.07	8.319
1148.76	14.43
1152.45	15.215
1156.14	7.119
1159.83	8.004
1163.51	9.836
1167.19	12.643
1170.88	30.427
1174.56	39.187
1178.23	47.923
1181.91	15.632
1185.59	26.312
1189.26	45.965
1192.93	41.592
1196.6	10.191
1200.27	16.76
1203.94	34.061
1207.6	28.577
1211.27	13.048
1214.93	12.472
1218.59	14.867
1222.25	5.308
1225.9	20.368
1229.56	11.56
1233.21	15.477
1236.86	20.385
1240.51	58.614
1244.16	28.722
1247.81	5.224
1251.45	23.169
1255.1	8.652
1258.74	38.121
1262.38	17.952
1266.02	16.001
1269.66	3.709
1273.29	29.831
1276.93	1.233
1280.56	13.545
1284.19	9.988
1287.82	5.109
1291.45	15.367
1295.07	7.311
1298.7	12.124
1302.32	7.564
1305.94	30.96
1309.56	30.595
1313.18	31.332
1316.8	29.039
1320.41	22.756
1324.02	31.454
1327.63	16.041
1331.24	32.531
1334.85	63.175
1338.46	34.745
1342.06	58.215
1345.67	70.826
1349.27	79.616
1352.87	44.052
1356.47	45.144
1360.07	31.702
1363.66	20.246
1367.25	32.654
1370.85	30.325
1374.44	13.263
1378.03	23.649
1381.61	21.358
1385.2	19.314
1388.78	6.5
1392.37	16.976
1395.95	6.36
1399.53	33.524
1403.1	17.96
1406.68	27.508
1410.26	17.081
1413.83	14.663
1417.4	1.282
1420.97	8.889
1424.54	14.489
1428.1	14.086
1431.67	2.681
1435.23	0.276
1438.8	17.893
1442.36	15.551
1445.91	31.078
1449.47	53.725
1453.03	36.402
1456.58	13.173
1460.13	31.845
1463.68	17.467
1467.23	26.058
1470.78	19.423
1474.33	33.307
1477.87	21.13
1481.42	21.746
1484.96	26.673
1488.5	23.712
1492.04	14.822
1495.57	21.102
1499.11	34.545
1502.64	25.254
1506.17	37.284
1509.71	10.501
1513.23	1.377
1516.76	15.025
