Measurement: Raman, 514 nm, unoriented, Raman Data Processed
Mineral: Scheelite
Rruff sample: R040173
Ideal chemistry: CaWO_4_
Locality: Santa Cruz, Sonora, Mexico
Source: University of Arizona Mineral Museum
Description: Yellow crystal fragments
Measured chemistry: Ca_1.00_W_1.00_O_4_
Raman shift (cm-1)	intensity
54.266	0
58.464	8.067
62.661	11.018
66.856	13.347
71.048	45.766
75.239	70.308
79.427	144.245
83.614	187.595
87.798	130.146
91.981	120.848
96.161	134.59
100.34	188.366
104.516	361.795
108.691	937.065
112.864	1632.44
117.034	1756.79
121.203	818.888
125.369	537.626
129.534	303.915
133.696	158.796
137.857	116.344
142.016	55.721
146.172	14.922
150.327	7.148
154.48	15.582
158.63	32.463
162.779	51.848
166.926	37.82
171.07	41.436
175.213	2.305
179.354	57.429
183.493	188.89
187.63	404.468
191.765	753.001
195.898	1345.38
200.029	1897.99
204.158	2462.21
208.285	2833.12
212.41	2630.79
216.533	1735.18
220.654	1480.85
224.773	1634.39
228.891	2018.22
233.006	2358.18
237.119	2380.18
241.231	2109.19
245.34	1551.21
249.448	1296.15
253.553	1382.98
257.657	1849.8
261.758	2329.73
265.858	2603.68
269.956	2554.4
274.052	2002.69
278.146	1511.02
282.237	1149.17
286.327	960.738
290.416	1022.59
294.502	988.941
298.586	974.789
302.668	1206.12
306.749	1693.59
310.827	2500.93
314.903	3860.24
318.978	6097.46
323.051	11738.2
327.121	24788.4
331.19	36369.3
335.257	27859.1
339.322	13157.2
343.385	6288.24
347.446	3538.05
351.505	2472.46
355.563	1967.82
359.618	1552.97
363.672	1646.47
367.723	2638.51
371.773	3002.44
375.821	1914.89
379.866	842.859
383.91	472.327
387.952	318.276
391.992	399.702
396.031	822.607
400.067	1802.99
404.101	2420.87
408.134	1699.23
412.165	1085.09
416.193	844.446
420.22	710.037
424.245	430.828
428.268	157.945
432.289	28.783
436.309	23.631
440.326	35.723
444.342	20.137
448.355	75.808
452.367	87.547
456.377	151.049
460.385	359.248
464.391	560.147
468.395	888.701
472.398	1282.83
476.398	1541.53
480.397	1768.8
484.394	1666.64
488.389	1343.08
492.382	885.147
496.373	513.789
500.362	313.983
504.349	158.699
508.335	32.979
512.319	19.198
516.3	23.888
520.28	32.151
524.259	61.037
528.235	33.379
532.209	71.146
536.182	131.267
540.152	224.733
544.121	325.534
548.088	468.66
552.053	566.039
556.017	837.849
559.978	1065.89
563.938	1326.22
567.895	1589.82
571.851	1902.69
575.805	2143.24
579.758	2349.18
583.708	2560.04
587.657	2661.77
591.603	2930.56
595.548	3202.78
599.491	3508.03
603.432	3659.26
607.372	3736.7
611.309	3673.96
615.245	3828.24
619.179	3930.14
623.111	3885.96
627.041	3596.99
630.97	3200
634.896	2659.8
638.821	2271.55
642.744	1973.25
646.665	1759.9
650.584	1577.48
654.502	1400.39
658.418	1150.51
662.331	999.661
666.244	918.66
670.154	726.427
674.062	614.809
677.969	546.474
681.874	412.566
685.777	372.352
689.678	286.501
693.577	267.446
697.475	243.178
701.371	179.688
705.265	174.968
709.157	175.01
713.047	133.811
716.936	124.365
720.823	115.667
724.708	72.714
728.591	80.501
732.472	27.998
736.352	13.122
740.23	20.203
744.106	49.129
747.98	47.785
751.853	58.615
755.723	52.441
759.592	65.503
763.459	45.463
767.325	52.262
771.188	13.83
775.05	6.095
778.91	17.948
782.768	82.444
786.625	230.547
790.479	759.314
794.332	2429.75
798.183	2480.86
802.033	814.631
805.88	273.071
809.726	92.173
813.57	21.871
817.413	2.968
821.253	31.565
825.092	30.537
828.929	46.999
832.764	128.027
836.598	192.703
840.429	203.094
844.259	224.173
848.088	220.929
851.914	305.366
855.739	344.522
859.562	440.481
863.383	533.329
867.203	634.104
871.02	897.869
874.836	1349.58
878.65	2484.3
882.463	4757.97
886.274	4433.5
890.083	3214.42
893.89	3560.04
897.695	5342.94
901.499	10267.6
905.301	24244.8
909.102	54378
912.9	59102.7
916.697	24158.6
920.492	9166.97
924.285	4161.04
928.077	2395.45
931.867	1721.37
935.655	1340.05
939.442	1043.2
943.226	766.746
947.009	600.163
950.791	467.459
954.57	370.639
958.348	336.706
962.124	315.472
965.899	344.896
969.671	324.597
973.442	340.001
977.211	425.545
980.979	492.444
984.745	706.379
988.509	906.491
992.271	1165.94
996.032	1697.32
999.791	2517.66
1003.55	3481.08
1007.3	4817.1
1011.06	6277.43
1014.81	6824.81
1018.56	5521.11
1022.31	3961.32
1026.06	3544.68
1029.8	3695.76
1033.55	3964.14
1037.29	4135.66
1041.03	3354.48
1044.77	2206.86
1048.5	1363.11
1052.24	847.556
1055.97	622.217
1059.7	668.117
1063.43	734.268
1067.16	886.699
1070.89	1182.38
1074.61	1823.26
1078.34	2183.34
1082.06	1937.59
1085.78	1811.94
1089.5	2351.33
1093.21	3037.74
1096.93	2415.19
1100.64	1562.66
1104.35	1071.8
1108.06	750.736
1111.77	596.343
1115.48	489.05
1119.18	395.935
1122.89	358.013
1126.59	266.252
1130.29	136.639
1133.99	45.14
1137.68	44.715
1141.38	84.333
1145.07	77.014
1148.76	47.773
1152.45	2.603
1156.14	37.6
1159.83	72.999
1163.51	98.735
1167.19	131.882
1170.88	127.489
1174.56	139.514
1178.23	65.032
1181.91	78.848
1185.59	47.838
1189.26	2.823
1192.93	79.317
1196.6	136.611
1200.27	183.066
1203.94	285.687
1207.6	319.481
1211.27	389.458
1214.93	417.626
1218.59	542.002
1222.25	644.615
1225.9	786.463
1229.56	901.036
1233.21	916.883
1236.86	984.468
1240.51	1146.26
1244.16	1288.15
1247.81	1470.16
1251.45	1719.28
1255.1	2035.53
1258.74	2422.9
1262.38	2768.41
1266.02	3287.05
1269.66	3635.82
1273.29	4041.2
1276.93	4524.85
1280.56	4992.14
1284.19	5440.63
1287.82	5942.35
1291.45	6578.37
1295.07	7293.65
1298.7	7868.64
1302.32	8447.62
1305.94	9021.7
1309.56	9613.57
1313.18	10681.4
1316.8	11899.8
1320.41	12811.4
1324.02	13649.8
1327.63	14692.1
1331.24	16178.2
1334.85	18485
1338.46	21044.8
1342.06	22415.2
1345.67	21340.1
1349.27	18823.8
1352.87	15932.1
1356.47	13567.5
1360.07	11575.6
1363.66	10043.3
1367.25	8724.59
1370.85	7621.68
1374.44	6585.85
1378.03	5879.4
1381.61	5361.02
1385.2	4840.69
1388.78	4443.69
1392.37	3986.03
1395.95	3635.72
1399.53	3157.78
1403.1	2753.21
1406.68	2421.05
1410.26	2061.31
1413.83	1849.11
1417.4	1666.17
1420.97	1572.13
1424.54	1346.21
1428.1	1287.12
1431.67	1205.08
1435.23	1142.76
1438.8	1059.15
1442.36	987.164
1445.91	991.611
1449.47	958.366
1453.03	906.951
1456.58	770.294
1460.13	641.815
1463.68	458.098
1467.23	337.357
1470.78	261.826
1474.33	195.541
1477.87	84.362
1481.42	86.379
1484.96	134.906
1488.5	3.495
1492.04	4.925
1495.57	46.734
1499.11	1.49
1502.64	5.013
1506.17	11.369
1509.71	25.393
1513.23	59.271
1516.76	22.703
1520.29	29.65
