Measurement: Raman, 785 nm, unoriented, Raman Data Processed
Mineral: Scheelite
Rruff sample: R040172
Ideal chemistry: CaWO_4_
Locality: Sonora, Mexico
Source: University of Arizona Mineral Museum
Description: Colorless water worn single crystal
Measured chemistry: Ca_1.01_W_1.00_O_4_
Raman shift (cm-1)	intensity
78.111	0
81.0037	0.074395
83.8964	5.58167
86.7891	5.05809
89.6818	6.09199
92.5745	9.20541
95.4672	12.2995
98.3599	7.60454
101.253	10.2545
104.145	5.23024
107.038	1.43879
109.931	0.508324
112.823	4.73429
115.716	10.1447
118.609	4.15195
121.501	3.56937
124.394	0.218109
127.287	0.808666
130.18	4.34627
133.072	11.1233
135.965	11.7304
138.858	20.7463
141.75	35.3418
144.643	45.1368
147.536	72.4263
150.429	100.525
153.321	109.02
156.214	110.279
159.107	103.943
161.999	112.826
164.892	121.182
167.785	131.001
170.677	127.336
173.57	132.291
176.463	130.788
179.356	131.774
182.248	133.763
185.141	142.335
188.034	184.864
190.926	273.26
193.819	451.021
196.712	616.932
199.604	635.741
202.497	794.861
205.39	1241.69
208.282	2053.03
211.175	2606.86
214.068	1430.12
216.961	614.422
219.853	316.309
222.746	227.382
225.639	171.738
228.531	92.6122
231.424	55.8329
234.317	32.7414
237.209	18.1884
240.102	5.21999
242.995	1.22134
245.888	3.55316
248.78	0.862549
251.673	22.8146
254.566	8.7952
257.458	8.68875
260.351	10.9238
263.244	23.4951
266.137	52.9115
269.029	99.3444
271.922	135.388
274.815	153.765
277.707	115.593
280.6	55.2263
283.493	35.3457
286.385	30.2606
289.278	40.4881
292.171	55.7559
295.063	50.3962
297.956	88.0596
300.849	107.579
303.742	139.383
306.634	207.67
309.527	316.988
312.42	462.118
315.312	711.601
318.205	1093.41
321.098	1641.71
323.99	2402.09
326.883	3604.99
329.776	5127.51
332.669	6078.71
335.561	4724.18
338.454	2782.09
341.347	1564.81
344.239	951.61
347.132	591.51
350.025	374.537
352.918	270.834
355.81	181.429
358.703	111.461
361.596	76.1865
364.488	25.7474
367.381	6.56467
370.274	13.4439
373.166	14.8211
376.059	31.3578
378.952	85.9206
381.844	160.44
384.737	320.791
387.63	572.124
390.523	923.477
393.415	1452.2
396.308	2372.94
399.201	3255.64
402.093	2539.57
404.986	1331.24
407.879	691.705
410.772	346.915
413.664	184.848
416.557	103.728
419.45	30.9761
422.342	24.508
425.235	20.3759
428.128	13.8604
431.02	3.32703
433.913	2.10542
436.806	0.590576
439.699	8.24951
442.591	3.14037
445.484	7.20572
448.377	5.62169
451.269	9.9117
454.162	4.98708
457.055	0.538544
459.947	3.22926
462.84	12.5075
465.733	17.3674
468.625	20.9333
471.518	16.6125
474.411	26.1907
477.304	29.9078
480.196	18.7063
483.089	30.5808
485.982	32.1451
488.874	25.8447
491.767	38.5737
494.66	28.2514
497.553	26.4546
500.445	31.5438
503.338	17.0717
506.231	21.9925
509.123	18.3842
512.016	7.95589
514.909	15.0658
517.802	7.16403
520.694	9.25779
523.587	6.44936
526.48	3.88798
529.372	2.17014
532.265	2.78189
535.158	14.1578
538.05	6.09418
540.943	6.0609
543.836	9.12273
546.729	5.38843
549.621	6.00473
552.514	3.43009
555.407	5.00968
558.299	4.79374
561.192	6.14434
564.085	0.563072
566.977	11.7896
569.87	4.44934
572.763	9.52474
575.655	4.50219
578.548	14.273
581.441	6.12845
584.333	9.44604
587.226	8.21063
590.119	12.6703
593.012	7.95838
595.904	8.43308
598.797	10.8725
601.69	4.70338
604.582	1.01369
607.475	2.53246
610.368	1.63826
613.26	8.82937
616.153	6.11216
619.046	1.02733
621.939	4.33109
624.831	7.24891
627.724	1.42636
630.617	0.543816
633.509	0.475128
636.402	1.42464
639.295	0.361942
642.188	1.30476
645.08	2.31993
647.973	7.89858
650.866	8.90562
653.758	0.505096
656.651	1.13216
659.544	5.29738
662.436	12.573
665.329	7.68128
668.222	14.1975
671.115	5.65171
674.007	14.0146
676.9	11.0046
679.793	19.7513
682.685	15.9922
685.578	11.5002
688.471	21.9978
691.363	13.7139
694.256	9.61942
697.149	21.1591
700.042	21.2901
702.934	15.3492
705.827	19.3342
708.72	20.3663
711.612	20.9099
714.505	17.6348
717.398	21.3489
720.29	19.5754
723.183	17.617
726.076	20.4963
728.968	10.4392
731.861	19.6373
734.754	9.09459
737.647	10.2804
740.539	6.9388
743.432	6.91921
746.325	5.36649
749.217	2.57576
752.11	5.75787
755.003	1.31326
757.895	2.22842
760.788	0.404655
763.681	3.26015
766.574	8.4235
769.466	10.5776
772.359	18.5297
775.252	17.4754
778.144	34.2361
781.037	64.9511
783.93	122.475
786.822	256.385
789.715	507.583
792.608	959.412
795.501	1604.59
798.393	1235.48
801.286	456.563
804.179	155.939
807.071	63.5339
809.964	14.8582
812.857	14.8356
815.75	12.2376
818.642	18.01
821.535	12.8623
824.428	85.4991
827.32	213.883
830.213	417.087
833.106	758.512
835.998	1186.96
838.891	1204.4
841.784	653.728
844.677	313.831
847.569	129.508
850.462	80.0319
853.355	58.0128
856.247	45.8934
859.14	32.2772
862.033	35.8293
864.925	52.4339
867.818	69.0691
870.711	103.06
873.604	171.519
876.496	268.972
879.389	463.038
882.282	669.421
885.174	691.053
888.067	601.35
890.96	674.68
893.852	979.017
896.745	1690.4
899.638	3040.32
902.53	5476.27
905.423	9368.97
908.316	14672.1
911.209	16996.2
914.101	10470.2
916.994	4451.81
919.887	2027.38
922.779	1033.24
925.672	623.098
928.565	429.116
931.457	338.677
934.35	267.664
937.243	198.963
940.136	139.217
943.028	91.8729
945.921	64.1912
948.814	26.2497
951.706	20.3441
954.599	8.76553
957.492	5.28067
960.385	1.61007
963.277	5.25453
966.17	8.52634
969.063	2.25623
971.955	6.12643
974.848	12.4054
977.741	1.1851
980.633	0.434975
983.526	7.55242
986.419	1.63747
989.312	7.79439
992.204	9.25931
995.097	9.92453
997.99	11.9994
1000.88	13.2848
1003.77	15.9794
1006.67	16.68
1009.56	13.9398
1012.45	18.9928
1015.35	14.7069
1018.24	16.5332
1021.13	22.2153
1024.02	21.5023
1026.92	16.3556
1029.81	17.3724
1032.7	14.1087
1035.6	13.9662
1038.49	14.4222
1041.38	14.8865
1044.27	14.1956
1047.17	15.9219
1050.06	11.5592
1052.95	14.4544
1055.84	8.31068
1058.74	11.3849
1061.63	12.0542
1064.52	13.4973
1067.41	11.2659
1070.31	8.66463
1073.2	15.781
1076.09	12.5462
1078.98	4.50009
1081.88	9.64864
1084.77	3.11836
1087.66	14.7953
1090.56	5.43729
1093.45	6.86965
1096.34	7.98525
1099.23	7.31946
1102.13	13.6364
1105.02	7.50459
1107.91	6.83014
1110.81	5.60627
1113.7	12.9367
1116.59	2.98948
1119.48	7.51518
1122.38	1.12941
1125.27	1.26043
1128.16	0.308781
1131.05	6.48412
1133.95	5.47518
1136.84	10.2166
1139.73	1.35365
1142.62	9.21269
1145.52	3.42862
1148.41	3.90864
1151.3	14.2557
1154.19	5.42648
1157.09	1.50537
1159.98	5.94286
1162.87	2.60273
1165.77	4.35823
1168.66	9.33417
1171.55	3.51634
1174.44	8.13636
1177.34	1.61612
1180.23	10.0917
1183.12	3.92182
1186.02	5.95077
1188.91	4.57846
1191.8	0.636364
1194.69	9.63673
1197.59	3.39529
1200.48	5.51278
1203.37	13.1304
1206.26	7.99131
1209.16	4.39859
1212.05	3.15273
1214.94	2.075
1217.84	2.66463
1220.73	8.8269
1223.62	9.37727
1226.51	3.54427
1229.41	7.26598
1232.3	2.99696
