Measurement: Raman, 532 nm, unoriented, Raman Data Processed
Mineral: Scheelite
Rruff sample: R040173
Ideal chemistry: CaWO_4_
Locality: Santa Cruz, Sonora, Mexico
Source: University of Arizona Mineral Museum
Description: Yellow crystal fragments
Measured chemistry: Ca_1.00_W_1.00_O_4_
Raman shift (cm-1)	intensity
138.091	0
141.466	57.5535
144.841	1.51416
148.215	17.7898
151.59	248.863
154.965	323.312
158.34	329.531
161.715	275.279
165.09	304.51
168.464	393.754
171.839	429.903
175.214	422.107
178.589	421.349
181.964	467.744
185.339	504.513
188.713	717.887
192.088	872.491
195.463	1100.24
198.838	1376.05
202.213	1808.77
205.587	2794.36
208.962	5004.19
212.337	5022.55
215.712	2447.02
219.087	1838.37
222.462	1658.12
225.836	1595.64
229.211	1519.52
232.586	1586.7
235.961	1747.28
239.336	2081.85
242.71	2436.3
246.085	2722.87
249.46	2961.29
252.835	2912.91
256.21	2781.86
259.584	2635.1
262.959	2386.47
266.334	2039.88
269.709	1833.14
273.084	1511.32
276.459	1296.98
279.833	1053.33
283.208	819.222
286.583	570.326
289.958	271.703
293.333	58.041
296.707	-5.83034
300.082	56.2811
303.457	44.6822
306.832	4.06356
310.207	189.573
313.582	1038.33
316.956	2521.44
320.331	4722.79
323.706	7710.62
327.081	12287.1
330.456	18233.6
333.83	19200.7
337.205	12104.3
340.58	6557.61
343.955	4445.93
347.33	4546.42
350.705	5934.71
354.079	8685.69
357.454	14068.8
360.829	22242.7
364.204	32368
367.579	43644.8
370.954	55579.4
374.328	62123.5
377.703	56909.8
381.078	47592.1
384.453	44195.3
387.828	45085.1
391.202	42183.8
394.577	31494.3
397.952	22697.1
401.327	13714.5
404.702	4453.58
408.077	156.26
411.451	136.124
414.826	108.697
418.201	4179.87
421.576	10060.7
424.951	16492.6
428.325	24824.3
431.7	38479.1
435.075	56280.2
438.45	62238.2
441.825	49384.6
445.2	35589.4
448.574	29507
451.949	30750.3
455.324	29521.4
458.699	26002.7
462.074	22894.2
465.448	18473.8
468.823	15080.7
472.198	12994.7
475.573	10798.2
478.948	7194.07
482.322	5107.85
485.697	4123.93
489.072	2805.86
492.447	2248.9
495.822	2817.49
499.197	4050.16
502.571	5096.23
505.946	5016.18
509.321	3701.62
512.696	2133.62
516.071	884.664
519.446	291.089
522.82	8.34013
526.195	25.3548
529.57	15.8259
532.945	54.0063
536.32	48.0782
539.694	36.7516
543.069	52.8003
546.444	181.233
549.819	353.894
553.194	417.74
556.568	658.053
559.943	745.514
563.318	772.921
566.693	769.163
570.068	893.173
573.443	1171.68
576.817	1656.62
580.192	2072.8
583.567	2579.72
586.942	2288.98
590.317	1746.14
593.692	1155.95
597.066	962.043
600.441	1070.57
603.816	1816.76
607.191	3002.04
610.566	4709.31
613.94	7012.75
617.315	9827.3
620.69	12717.5
624.065	16069.1
627.44	19608.7
630.814	22888.1
634.189	25601.6
637.564	26745.5
640.939	27252.9
644.314	27125.4
647.689	28033.7
651.063	29010.7
654.438	30680.8
657.813	31875
661.188	32118.7
664.563	30741.2
667.938	27803.4
671.312	23863.6
674.687	19790.7
678.062	16098.7
681.437	12981.3
684.812	10598.6
688.186	8283.48
691.561	6665.94
694.936	5507.6
698.311	4684.19
701.686	3517.26
705.061	2392.75
708.435	1053.45
711.81	-5.64771
715.185	17.0333
718.56	44.948
721.935	83.1158
725.309	182.769
728.684	802.51
732.059	1589.13
735.434	2777.64
738.809	4053.76
742.183	5152.1
745.558	5501.09
748.933	5236.89
752.308	4159.72
755.683	3092.51
759.058	2066.49
762.432	1234.7
765.807	577.854
769.182	163.88
772.557	59.1043
775.932	23.2248
779.307	29.6485
782.681	41.1998
786.056	-12.7933
789.431	243.823
792.806	605.414
796.181	976.798
799.555	979.56
802.93	1171.9
806.305	1525.4
809.68	1664.13
813.055	1597.35
816.429	1589.97
819.804	1567.76
823.179	1536.47
826.554	2007.38
829.929	2731.82
833.304	3953.67
836.678	5750.9
840.053	4513.43
843.428	1980.11
846.803	920.684
850.178	618.848
853.553	517.566
856.927	462.187
860.302	446.7
863.677	422.942
867.052	502.76
870.427	467.962
873.801	662.008
877.176	1001.22
880.551	1578.27
883.926	2117.3
887.301	1498.16
890.676	1239.78
894.05	1817.64
897.425	3130.23
900.8	6294.13
904.175	12409.9
907.55	22911.6
910.924	33120.3
914.299	18775.1
917.674	6812.75
921.049	2848.38
924.424	1397.39
927.798	844.813
931.173	584.045
934.548	462.474
937.923	331.002
941.298	200.243
944.673	148.035
948.047	34.9346
951.422	27.5927
954.797	-22.9726
958.172	35.5218
961.547	30.2073
964.922	-0.228782
968.296	11.7847
971.671	23.9691
975.046	80.8755
978.421	140.181
981.796	229.769
985.17	255.233
988.545	429.892
991.92	447.775
995.295	604.619
998.67	697.455
1002.04	867.081
1005.42	924.753
1008.79	1034.22
1012.17	1215.58
1015.54	1279.3
1018.92	1533.28
1022.29	1630.55
1025.67	1767.86
1029.04	1864.47
1032.42	2106.22
1035.79	2155.85
1039.17	2248.83
1042.54	2271.02
1045.92	2342.66
1049.29	2235.69
1052.67	2116.41
1056.04	2078.98
1059.42	1805.32
1062.79	1603.99
1066.17	1381.18
1069.54	1172.37
1072.92	972.267
1076.29	717.989
1079.66	614.718
1083.04	475.084
1086.41	337.782
1089.79	225.164
1093.16	171.974
1096.54	54.3975
1099.91	28.0012
1103.29	21.4285
1106.66	4.33887
1110.04	29.166
1113.41	34.4746
1116.79	1.44189
1120.16	56.4602
1123.54	93.9163
1126.91	134.317
1130.29	176.253
1133.66	215.946
1137.04	257.741
1140.41	277.018
1143.79	334.235
1147.16	346.32
1150.54	338.973
1153.91	329.443
1157.29	339.525
1160.66	252.652
1164.04	176.726
1167.41	142.279
1170.79	77.4583
1174.16	26.0286
1177.54	7.24854
1180.91	7.44214
1184.29	1.12012
1187.66	7.82519
1191.03	20.4512
1194.41	29.1853
1197.78	97.5933
1201.16	140.239
1204.53	235.716
1207.91	253.274
1211.28	235.714
1214.66	189.245
1218.03	166.559
1221.41	153.592
1224.78	158.022
1228.16	171.58
1231.53	176.111
1234.91	177.164
1238.28	186.6
1241.66	152.27
1245.03	151.068
1248.41	105.577
1251.78	141.533
1255.16	116.211
1258.53	173.593
1261.91	179.4
1265.28	171.894
1268.65	169.22
1272.03	135.294
1275.4	121.506
1278.78	110.561
1282.15	83.9158
1285.53	83.3868
1288.9	91.8314
1292.28	19.3547
1295.65	3.55566
1299.03	6.04333
