Measurement: Raman, 780 nm, unoriented, Raman Data Processed
Mineral: Schiavinatoite
Rruff sample: R090010
Ideal chemistry: NbBO_4_
Locality: Antsongombato, south of Betafo, south of Mahaiz, Madagascar
Source: William W. Pinch
Description: Dark brown vitreous dipyramidal crystal on white microcline matrix associated with pink tourmaline
Raman shift (cm-1)	intensity
112.626	0
116.001	1.36058
119.376	2.28482
122.75	3.84918
126.125	2.86113
129.5	3.87563
132.875	2.45718
136.25	0.884659
139.624	0.214607
142.999	0.502365
146.374	0.049393
149.749	0.716568
153.124	0.139801
156.499	1.4476
159.873	5.77225
163.248	8.60039
166.623	16.1363
169.998	23.1831
173.373	31.9688
176.747	41.1185
180.122	49.1069
183.497	58.9361
186.872	68.2849
190.247	75.5451
193.621	79.5904
196.996	80.0185
200.371	79.9411
203.746	73.5232
207.121	64.8273
210.495	54.0175
213.87	46.4708
217.245	44.9862
220.62	47.5081
223.995	51.8638
227.37	54.093
230.744	54.3302
234.119	51.1096
237.494	40.716
240.869	33.7932
244.244	22.9349
247.619	16.812
250.993	10.173
254.368	4.97131
257.743	2.68665
261.118	2.5891
264.493	3.31406
267.867	5.00165
271.242	10.0755
274.617	12.2116
277.992	15.2663
281.367	19.6629
284.741	18.589
288.116	15.437
291.491	10.4709
294.866	3.502
298.241	0.128937
301.616	0.980392
304.99	0.093117
308.365	0.89801
311.74	0.156151
315.115	2.11118
318.49	2.43642
321.865	5.80376
325.239	7.27096
328.614	8.76907
331.989	10.7001
335.364	14.31
338.739	15.4667
342.113	13.2128
345.488	12.7215
348.863	13.2403
352.238	11.7228
355.613	9.17375
358.987	7.45528
362.362	5.16815
365.737	4.74206
369.112	2.6919
372.487	2.3432
375.861	3.38276
379.236	2.52247
382.611	1.55126
385.986	0.473442
389.361	0.059288
392.736	0.303017
396.11	0.806854
399.485	0.613213
402.86	1.70205
406.235	0.908699
409.61	1.87952
412.985	3.01479
416.359	8.59124
419.734	12.5477
423.109	21.0861
426.484	35.2215
429.859	54.9708
433.233	83.1813
436.608	115.261
439.983	145.403
443.358	173.265
446.733	189.833
450.108	183.215
453.482	143.051
456.857	95.1981
460.232	56.4013
463.607	35.6154
466.982	19.6291
470.356	13.4068
473.731	8.02917
477.106	5.87778
480.481	1.71367
483.856	2.67429
487.231	0.313095
490.605	0.246613
493.98	1.07405
497.355	0.829453
500.73	0.938103
504.104	1.4117
507.479	2.14879
510.854	2.51735
514.229	2.99085
517.604	7.7427
520.979	10.2828
524.354	15.7153
527.728	28.125
531.103	46.0029
534.478	66.7936
537.853	103.847
541.227	176.06
544.602	286.633
547.977	372.382
551.352	483.764
554.727	633.329
558.102	743.798
561.476	594.918
564.851	334.32
568.226	186.776
571.601	112.114
574.976	74.4552
578.351	53.8063
581.725	37.7917
585.1	27.0954
588.475	17.9501
591.85	12.7575
595.225	8.86704
598.599	7.30885
601.974	3.9348
605.349	1.93491
608.724	0.124336
612.099	0.818077
615.473	0.604553
618.848	0.951782
622.223	0.51786
625.598	1.11677
628.973	1.66612
632.347	1.11824
635.722	2.09937
639.097	1.00501
642.472	1.18483
645.847	0.450821
649.222	1.90376
652.596	0.614128
655.971	2.44925
659.346	2.97255
662.721	3.05048
666.096	4.16512
669.471	4.38257
672.845	2.51225
676.22	2.35701
679.595	2.98798
682.97	2.78841
686.345	4.46378
689.719	2.27193
693.094	4.42431
696.469	4.97355
699.844	6.71839
703.219	8.11267
706.593	8.8937
709.968	5.72398
713.343	2.03978
716.718	2.79422
720.093	2.63504
723.468	1.56424
726.842	0.475784
730.217	1.81448
733.592	0.883652
736.967	1.40388
740.342	2.40055
743.716	1.44392
747.091	1.50914
750.466	0.078323
753.841	0.234627
757.216	1.36015
760.591	1.10503
763.965	0.014053
767.34	0.863533
770.715	1.36765
774.09	0.655731
777.465	0.930122
780.84	0.387627
784.214	0.818825
787.589	0.277634
790.964	1.35186
794.339	0.585388
797.714	2.72973
801.088	2.16722
804.463	2.30123
807.838	2.85165
811.213	5.34294
814.588	7.13255
817.962	12.6952
821.337	18.4216
824.712	21.649
828.087	25.7609
831.462	20.0596
834.837	11.6117
838.211	5.58612
841.586	2.93286
844.961	0.438255
848.336	1.33211
851.711	1.16402
855.085	0.694168
858.46	1.65786
861.835	0.708397
865.21	0.514053
868.585	1.50512
871.96	5.27476
875.334	12.7708
878.709	16.9341
882.084	21.7425
885.459	25.484
888.834	24.6491
892.208	19.331
895.583	12.5926
898.958	5.64449
902.333	1.90753
905.708	0.14077
909.082	1.94791
912.457	0.272415
915.832	3.90531
919.207	11.9266
922.582	21.2967
925.957	36.2667
929.331	57.244
932.706	84.0712
936.081	116.371
939.456	159.483
942.831	213.067
946.205	276.276
949.58	354.791
952.955	443.904
956.33	534.292
959.705	608.497
963.08	639.549
966.454	614.791
969.829	533.951
973.204	425.549
976.579	327.318
979.954	247.262
983.328	192.775
986.703	157.08
990.078	136.087
993.453	120.9
996.828	103.192
1000.2	82.1019
1003.58	59.2734
1006.95	44.3525
1010.33	31.7188
1013.7	22.4298
1017.08	17.0984
1020.45	10.2928
1023.83	5.58334
1027.2	3.48504
1030.58	1.10126
1033.95	0.363853
1037.33	2.25182
1040.7	1.03174
1044.08	2.39231
1047.45	1.72266
1050.83	1.29568
1054.2	1.43227
1057.57	2.15194
1060.95	2.67516
1064.32	3.03282
1067.7	3.53935
1071.07	4.69174
1074.45	4.10534
1077.82	6.63554
1081.2	4.74147
1084.57	5.89562
1087.95	6.14033
1091.32	7.38802
1094.7	7.98097
1098.07	7.21783
1101.45	6.02838
1104.82	4.65382
1108.2	4.80361
1111.57	3.33581
1114.95	3.82978
1118.32	3.06213
1121.7	3.80212
1125.07	3.0871
1128.45	2.40506
1131.82	2.34638
1135.19	2.09215
1138.57	2.79874
1141.94	1.9982
1145.32	2.25106
1148.69	1.16728
1152.07	1.93006
1155.44	0.579716
1158.82	1.36511
1162.19	1.73366
1165.57	1.05704
1168.94	0.099617
1172.32	1.86315
1175.69	1.76138
1179.07	1.44042
1182.44	0.024364
1185.82	0.821186
1189.19	1.4592
1192.57	0.997776
1195.94	1.08498
1199.32	0.109528
1202.69	1.24701
1206.07	1.03783
1209.44	0.852287
1212.82	1.09989
1216.19	0.976692
1219.57	0.561928
1222.94	0.886688
1226.32	0.651123
1229.69	0.375896
1233.07	0.131676
1236.44	0.048317
1239.81	0.176613
1243.19	0.196918
1246.56	0.749981
1249.94	0.766941
1253.31	0.554646
1256.69	1.13986
1260.06	0.208675
1263.44	1.08103
1266.81	1.36435
1270.19	0.575363
1273.56	0.453339
1276.94	1.29678
1280.31	0.09417
1283.69	1.75837
