Measurement: Raman, 532 nm, unoriented, Raman Data Processed
Mineral: Schiavinatoite
Rruff sample: R090010
Ideal chemistry: NbBO_4_
Locality: Antsongombato, south of Betafo, south of Mahaiz, Madagascar
Source: William W. Pinch
Description: Dark brown vitreous dipyramidal crystal on white microcline matrix associated with pink tourmaline
Raman shift (cm-1)	intensity
112.621	0
115.996	0.562649
119.371	0.388565
122.746	0.504261
126.121	6.78643
129.495	19.7797
132.87	27.1878
136.245	32.6546
139.62	42.184
142.995	47.5406
146.369	53.1809
149.744	52.7615
153.119	49.6305
156.494	46.496
159.869	44.4202
163.244	52.1632
166.618	57.5274
169.993	68.8638
173.368	81.9961
176.743	100.26
180.118	116.337
183.493	132.503
186.867	153.711
190.242	170.095
193.617	172.024
196.992	162.07
200.367	156.125
203.741	151.398
207.116	133.314
210.491	106.111
213.866	84.7167
217.241	71.4456
220.615	67.9321
223.99	71.0237
227.365	76.7074
230.74	85.3779
234.115	83.6936
237.489	73.0799
240.864	60.3241
244.239	41.1092
247.614	23.9899
250.989	10.9336
254.364	4.66798
257.738	1.47643
261.113	2.46231
264.488	2.92255
267.863	2.98457
271.238	0.392059
274.613	8.94548
277.987	14.5183
281.362	22.7974
284.737	31.2885
288.112	31.5436
291.487	20.1573
294.861	14.0483
298.236	7.72203
301.611	3.97658
304.986	1.63918
308.361	0.818527
311.736	1.16746
315.11	1.00534
318.485	3.40872
321.86	10.0374
325.235	10.247
328.61	15.8741
331.984	24.6191
335.359	42.2365
338.734	55.6236
342.109	15.0235
345.484	10.2557
348.858	7.81892
352.233	6.41293
355.608	6.14822
358.983	4.83348
362.358	4.33826
365.733	3.13974
369.107	3.90951
372.482	3.47174
375.857	2.43996
379.232	4.28874
382.607	1.95918
385.981	2.16589
389.356	1.45354
392.731	1.44176
396.106	0.879822
399.481	2.41763
402.856	1.16019
406.23	1.32906
409.605	1.8696
412.98	5.28424
416.355	7.90311
419.73	12.485
423.104	18.607
426.479	29.4153
429.854	47.1797
433.229	70.8693
436.604	104.002
439.978	141.384
443.353	183.986
446.728	223.128
450.103	242.833
453.478	213.936
456.853	148.521
460.227	88.1619
463.602	51.8965
466.977	30.1109
470.352	15.2861
473.727	10.1307
477.101	6.1418
480.476	2.16115
483.851	1.25794
487.226	0.150589
490.601	2.21036
493.976	1.69778
497.35	0.50563
500.725	3.1256
504.1	8.84335
507.475	13.657
510.85	23.4476
514.224	31.1312
517.599	39.4102
520.974	49.6245
524.349	56.7168
527.724	77.338
531.098	113.689
534.473	167.038
537.848	257.106
541.223	426.501
544.598	707.102
547.973	1039.76
551.347	1481.29
554.722	2245.25
558.097	3099.53
561.472	3080.34
564.847	2004.67
568.221	1094.74
571.596	656.062
574.971	432.091
578.346	301.186
581.721	217.932
585.096	154.937
588.47	111.916
591.845	81.2605
595.22	57.1008
598.595	40.7321
601.97	26.9934
605.344	17.6377
608.719	10.2104
612.094	4.83052
615.469	0.247208
618.844	0.712189
622.218	1.18332
625.593	2.39064
628.968	0.555878
632.343	0.039536
635.718	1.4884
639.093	3.85455
642.467	3.05495
645.842	1.59596
649.217	0.366913
652.592	0.209854
655.967	2.9752
659.341	5.49884
662.716	7.74921
666.091	9.64889
669.466	10.6387
672.841	11.2535
676.216	10.8619
679.59	10.2841
682.965	11.4338
686.34	10.9426
689.715	9.73567
693.09	9.67122
696.465	11.2359
699.839	10.2314
703.214	13.8119
706.589	14.3756
709.964	12.4482
713.339	4.46077
716.713	1.02232
720.088	2.34077
723.463	0.97879
726.838	0.760132
730.213	0.009232
733.587	0.244949
736.962	0.936234
740.337	0.470688
743.712	0.990829
747.087	0.597229
750.462	1.15457
753.836	1.04092
757.211	0.970108
760.586	2.74548
763.961	2.90909
767.336	3.53368
770.71	5.13589
774.085	4.78793
777.46	3.23407
780.835	4.17528
784.21	4.8093
787.585	3.7258
790.959	3.35547
794.334	3.48668
797.709	4.79405
801.084	7.86618
804.459	7.46989
807.833	8.78215
811.208	11.1092
814.583	16.8111
817.958	27.9683
821.333	44.6519
824.707	69.4123
828.082	96.1467
831.457	96.102
834.832	65.5935
838.207	38.4806
841.582	23.14
844.956	10.6907
848.331	5.23062
851.706	1.02153
855.081	0.859238
858.456	1.82292
861.83	2.82729
865.205	1.4054
868.58	3.73419
871.955	2.75528
875.33	1.25104
878.705	10.4679
882.079	21.2129
885.454	27.6519
888.829	33.9421
892.204	25.9223
895.579	16.563
898.953	1.24213
902.328	1.33102
905.703	5.39716
909.078	2.57538
912.453	3.66443
915.827	15.7771
919.202	35.0157
922.577	64.3483
925.952	100.189
929.327	158.16
932.702	232.953
936.076	323.974
939.451	440.157
942.826	587.413
946.201	773.467
949.576	1005.46
952.951	1267.3
956.325	1571.24
959.7	1877.33
963.075	2098.28
966.45	2130.55
969.825	1944.46
973.199	1623.21
976.574	1285.11
979.949	990.578
983.324	778.026
986.699	632.414
990.073	548.63
993.448	505.502
996.823	466.045
1000.2	387.286
1003.57	291.3
1006.95	216.741
1010.32	160.4
1013.7	119.407
1017.07	84.9766
1020.45	58.9013
1023.82	35.6371
1027.2	20.0247
1030.57	11.0179
1033.95	3.94127
1037.32	1.69818
1040.7	2.21599
1044.07	3.82288
1047.44	4.10616
1050.82	4.85168
1054.19	3.03308
1057.57	2.10156
1060.94	0.332733
1064.32	2.23274
1067.69	4.19199
1071.07	5.51564
1074.44	7.9711
1077.82	11.1288
1081.19	11.9091
1084.57	17.2581
1087.94	17.7456
1091.32	16.627
1094.69	20.0401
1098.07	22.0732
1101.44	22.0986
1104.82	22.0535
1108.19	19.871
1111.57	19.421
1114.94	16.2753
1118.32	15.2398
1121.69	12.7769
1125.07	11.9005
1128.44	11.494
1131.82	9.45706
1135.19	9.28236
1138.57	8.84016
1141.94	6.84708
1145.32	6.74463
1148.69	6.18003
1152.07	5.50278
1155.44	5.70236
1158.81	4.80137
1162.19	3.30271
1165.56	3.89287
1168.94	3.08548
1172.31	2.63934
1175.69	2.35163
1179.06	2.13424
1182.44	3.01845
1185.81	1.69109
1189.19	2.04657
1192.56	3.93701
1195.94	0.826202
1199.31	2.54896
1202.69	2.14753
1206.06	2.4471
1209.44	2.62125
1212.81	1.27951
1216.19	1.34619
1219.56	1.3376
1222.94	1.05518
1226.31	1.86708
1229.68	0.220825
1233.06	0.073273
1236.43	0.011032
1239.81	0.403313
1243.18	0.127388
1246.56	0.611618
1249.93	0.77919
1253.31	0.372169
1256.68	0.219139
1260.06	0.040787
1263.43	0.887527
1266.81	0.045486
1270.18	1.28638
1273.56	0.968491
1276.93	1.68256
1280.31	0.647003
1283.68	1.56511
1287.06	0.644981
1290.43	0.413078
1293.81	0.07621
1297.18	0.978416
1300.56	1.00543
