Measurement: Raman, 532 nm, unoriented, Raman Data Processed
Mineral: Schmiederite
Rruff sample: R100089
Ideal chemistry: Cu_2_Pb_2_(Se^4+^O_3_)(Se^6+^O_4_)(OH)_4_
Locality: El Condor mine, Los Llantenes, Sierra de Cacheuta, La Rioja Province, Argentina
Source: William W. Pinch
Description: Aggregates of blue bladed crystals
Raman shift (cm-1)	intensity
153.649	0
156.542	0.263412
159.435	3.61166
162.328	18.5998
165.22	33.6033
168.113	48.2
171.006	56.8293
173.898	62.2209
176.791	64.227
179.684	69.3515
182.577	63.0187
185.469	62.8533
188.362	55.4393
191.255	49.5533
194.147	43.7217
197.04	40.66
199.933	35.2694
202.825	37.0532
205.718	35.2133
208.611	38.6874
211.504	41.3165
214.396	47.1664
217.289	52.0803
220.182	53.9696
223.074	50.0262
225.967	44.2415
228.86	30.5311
231.752	32.6351
234.645	27.2247
237.538	23.9508
240.43	25.6478
243.323	23.4231
246.216	19.8051
249.109	18.601
252.001	12.0901
254.894	11.7595
257.787	10.0241
260.679	7.88524
263.572	8.75563
266.465	10.4462
269.358	11.1197
272.25	8.92848
275.143	7.87659
278.036	9.78587
280.928	4.95619
283.821	1.05899
286.714	2.13336
289.606	2.69975
292.499	4.39931
295.392	3.08336
298.284	2.06949
301.177	2.89145
304.07	10.2466
306.963	21.1361
309.855	43.0174
312.748	71.1291
315.641	110.829
318.533	165.27
321.426	237.475
324.319	308.262
327.212	369.868
330.104	420.195
332.997	476.796
335.89	499.077
338.782	433.108
341.675	341.311
344.568	254.127
347.46	205.266
350.353	171.97
353.246	146.042
356.139	126.085
359.031	115.488
361.924	117.486
364.817	117.825
367.709	111.159
370.602	104.801
373.495	93.2669
376.387	69.2678
379.28	39.8402
382.173	17.6708
385.065	2.69223
387.958	3.56125
390.851	1.91959
393.744	1.46808
396.636	10.576
399.529	38.7866
402.422	77.8995
405.314	107.64
408.207	91.7607
411.1	72.9264
413.993	57.2304
416.885	42.1125
419.778	46.6675
422.671	72.5629
425.563	89.8752
428.456	79.9841
431.349	54.6353
434.241	37.3468
437.134	31.693
440.027	19.7633
442.92	8.49503
445.812	13.0796
448.705	30.9215
451.598	65.3295
454.49	111.243
457.383	159.475
460.276	206.334
463.168	247.063
466.061	274.341
468.954	269.226
471.846	219.613
474.739	144.835
477.632	82.7305
480.525	44.0813
483.417	21.0048
486.31	5.69367
489.203	3.20389
492.095	6.68057
494.988	4.68903
497.881	7.91754
500.774	22.5745
503.666	43.5125
506.559	70.6511
509.452	98.0891
512.344	124.392
515.237	147.803
518.13	142.043
521.022	113.439
523.915	76.183
526.808	44.7074
529.701	24.9394
532.593	17.4031
535.486	10.9642
538.379	6.86285
541.271	1.77994
544.164	0.18248
547.057	0.472
549.949	0.500977
552.842	3.76913
555.735	0.397812
558.628	0.535324
561.52	3.81973
564.413	2.65245
567.306	4.17485
570.198	6.0018
573.091	6.70894
575.984	7.07268
578.876	9.13387
581.769	9.43867
584.662	13.4245
587.554	13.6257
590.447	18.0361
593.34	21.8167
596.232	23.2846
599.125	27.5037
602.018	30.8456
604.911	36.6273
607.803	39.3825
610.696	42.8243
613.589	45.2851
616.481	37.703
619.374	33.9257
622.267	29.7767
625.159	25.2118
628.052	19.6142
630.945	16.0501
633.838	15.2304
636.73	16.8106
639.623	20.0882
642.516	25.2861
645.408	33.4441
648.301	36.0014
651.194	42.0505
654.087	43.4379
656.979	43.086
659.872	40.3248
662.765	36.5436
665.657	30.3519
668.55	25.1059
671.443	21.7147
674.335	17.5712
677.228	15.5366
680.121	9.12045
683.014	7.11975
685.906	2.25433
688.799	0.362091
691.692	0.908859
694.584	1.10046
697.477	0.617767
700.37	1.51395
703.263	1.04994
706.155	0.76828
709.048	4.76675
711.941	5.55826
714.833	7.83377
717.726	8.49643
720.619	8.41876
723.511	10.711
726.404	8.32977
729.297	9.44598
732.189	6.41852
735.082	3.93277
737.975	1.17545
740.868	2.48828
743.76	1.23306
746.653	1.6673
749.546	2.85065
752.438	4.13815
755.331	6.80954
758.224	5.9241
761.116	1.94748
764.009	15.6738
766.902	35.2838
769.795	69.5715
772.687	118.221
775.58	195.119
778.473	294.38
781.365	428.323
784.258	567.233
787.151	688.865
790.043	723.68
792.936	637.096
795.829	472.261
798.722	339.762
801.614	277.68
804.507	276.254
807.4	322.605
810.292	411.746
813.185	565.533
816.078	771.233
818.971	1010.31
821.863	1243.03
824.756	1320.21
827.649	1121.66
830.541	830.278
833.434	658.07
836.327	569.888
839.219	505.409
842.112	461.067
845.005	407.016
847.898	335.903
850.79	278.122
853.683	232.476
856.576	190.19
859.468	153.935
862.361	120.873
865.254	91.5222
868.146	71.0406
871.039	56.8332
873.932	42.6056
876.824	36.6304
879.717	30.7473
882.61	19.8602
885.503	11.7764
888.395	5.16623
891.288	3.32419
894.181	5.54398
897.073	5.92392
899.966	5.8022
902.859	3.62888
905.751	0.253571
908.644	4.16232
911.537	9.91621
914.43	14.9019
917.322	14.5279
920.215	12.088
923.108	7.32246
926	0.863251
928.893	5.3839
931.786	0.11911
934.678	4.13223
937.571	5.94362
940.464	14.8208
943.357	19.8142
946.249	27.9526
949.142	42.5571
952.035	57.0062
954.927	82.7157
957.82	112.129
960.713	156.461
963.606	200.272
966.498	199.346
969.391	145.713
972.284	91.8559
975.176	52.5292
978.069	31.7897
980.962	21.2665
983.854	14.1972
986.747	11.8681
989.64	9.1013
992.533	3.58899
995.425	0.688202
998.318	0.581253
1001.21	1.62875
1004.1	1.69536
1007	0.974487
1009.89	0.634064
1012.78	2.02107
1015.67	0.047821
1018.57	0.492493
1021.46	0.695404
1024.35	2.78035
1027.24	1.65964
1030.14	3.98607
1033.03	0.563766
1035.92	5.00182
1038.82	5.65949
1041.71	8.05698
1044.6	6.07246
1047.49	8.87491
1050.39	9.66461
1053.28	14.3526
1056.17	13.5131
1059.07	13.9766
1061.96	14.8051
1064.85	14.0932
1067.74	13.8651
1070.63	15.5039
1073.53	16.881
1076.42	17.593
1079.31	16.582
1082.21	17.4801
1085.1	17.0893
1087.99	17.9979
1090.88	15.2421
1093.78	16.3623
1096.67	13.7596
1099.56	15.3698
1102.45	11.1122
1105.35	10.4698
1108.24	9.18533
1111.13	5.58745
1114.03	7.41026
1116.92	4.01453
1119.81	3.08849
1122.7	0.25032
1125.6	1.7843
1128.49	0.245056
1131.38	1.56513
1134.28	1.95686
1137.17	0.236572
1140.06	0.108887
1142.95	0.837967
1145.85	0.686584
1148.74	2.10869
1151.63	1.3085
1154.52	2.23842
1157.42	2.1618
1160.31	2.88113
1163.2	2.36469
1166.09	0.165253
1168.99	0.740631
1171.88	1.35275
1174.77	1.06844
1177.66	0.686218
1180.56	0.822845
1183.45	0.576859
1186.34	0.018707
1189.24	1.25195
1192.13	0.410416
1195.02	0.122864
1197.91	0.218994
1200.81	0.193848
1203.7	0.693573
1206.59	0.773682
1209.48	2.38837
1212.38	0.365952
1215.27	0.677841
1218.16	1.39288
1221.06	3.13089
1223.95	3.0898
1226.84	3.35501
1229.73	3.34076
1232.63	3.17957
1235.52	2.28423
1238.41	3.14893
1241.31	0.718979
1244.2	4.25426
1247.09	3.82931
1249.98	0.296768
1252.88	3.13351
1255.77	2.9902
1258.66	1.80456
1261.55	1.01013
1264.45	1.11742
1267.34	1.69525
1270.23	2.7112
1273.12	2.55319
1276.02	1.27754
1278.91	0.288544
1281.8	1.36424
1284.69	2.91034
1287.59	0.856461
1290.48	1.11212
1293.37	2.52638
1296.27	1.59518
1299.16	1.71602
1302.05	1.37032
