Measurement: Raman, 532 nm, unoriented, Raman Data Processed
Mineral: Schneiderhohnite
Rruff sample: R050215
Ideal chemistry: Fe^2+^Fe^3+^_3_As^3+^_5_O_13_
Locality: Tsumeb mine, Tsumeb, Otavi District, Oshikoto, Namibia
Source: Marcus Origlieri
Description: Dark brown flattened single crystal
Raman shift (cm-1)	intensity
157.386	0
160.278	2.369
163.171	12.1603
166.064	2.69261
168.956	0.732666
171.849	5.18367
174.742	8.79384
177.634	21.8175
180.527	35.5766
183.42	44.7433
186.312	47.0216
189.205	50.3416
192.098	48.9031
194.991	46.0405
197.883	31.4198
200.776	15.2769
203.669	3.02814
206.561	3.76022
209.454	0.641434
212.347	1.27234
215.239	0.882324
218.132	1.41705
221.025	5.45235
223.918	13.785
226.81	23.2821
229.703	31.1223
232.596	44.8628
235.488	55.4424
238.381	66.7502
241.274	66.8593
244.167	61.2466
247.059	54.5714
249.952	42.3612
252.845	33.1028
255.737	26.5689
258.63	26.7512
261.523	29.5159
264.415	30.4428
267.308	31.5056
270.201	35.8654
273.094	34.4666
275.986	37.983
278.879	39.5871
281.772	47.7602
284.664	47.5984
287.557	46.0198
290.45	43.8377
293.342	41.7087
296.235	35.1876
299.128	28.7363
302.02	20.8705
304.913	7.64732
307.806	3.88513
310.699	2.7587
313.591	2.5251
316.484	0.437149
319.377	1.73949
322.269	0.786484
325.162	1.31477
328.055	16.7688
330.947	26.4489
333.84	36.6557
336.733	50.8851
339.625	72.1461
342.518	90.5665
345.411	86.0791
348.304	68.523
351.196	48.5039
354.089	35.5025
356.982	33.1067
359.875	24.8447
362.767	29.7781
365.66	30.4221
368.553	34.6966
371.445	30.4752
374.338	29.9682
377.231	24.6971
380.123	21.3014
383.016	14.9311
385.909	6.39471
388.801	2.25819
391.694	0.593719
394.587	1.27043
397.48	3.28975
400.372	9.58797
403.265	17.2472
406.158	20.666
409.05	30.37
411.943	36.188
414.836	46.4952
417.728	46.3036
420.621	48.1501
423.514	44.4188
426.406	42.5915
429.299	34.9012
432.192	32.3513
435.085	29.9181
437.977	29.5213
440.87	26.5719
443.763	24.6
446.655	26.1425
449.548	21.3585
452.441	17.4187
455.334	12.9984
458.226	10.5153
461.119	1.9232
464.012	0.934494
466.904	2.70167
469.797	0.047653
472.69	4.02309
475.582	4.56502
478.475	1.75928
481.368	0.510193
484.26	1.95029
487.153	1.24351
490.046	6.21336
492.939	6.72702
495.831	11.8661
498.724	14.8353
501.617	16.3139
504.509	15.8282
507.402	18.5676
510.295	14.4401
513.188	13.9101
516.08	11.8467
518.973	7.43736
521.866	9.8412
524.758	9.63032
527.651	21.3101
530.544	22.789
533.436	30.1657
536.329	35.751
539.222	47.928
542.115	54.3946
545.007	61.9713
547.9	67.557
550.793	66.2389
553.685	64.8603
556.578	59.9225
559.471	58.3352
562.363	54.4926
565.256	56.8965
568.149	56.6751
571.042	59.4559
573.934	60.4623
576.827	63.7507
579.72	61.9174
582.612	65.4597
585.505	68.3808
588.398	68.7778
591.29	66.9898
594.183	67.0302
597.076	66.2983
599.968	62.5658
602.861	63.2109
605.754	68.1132
608.647	64.388
611.539	66.0562
614.432	57.3194
617.325	50.905
620.217	39.8364
623.11	29.7155
626.003	19.3307
628.895	13.4558
631.788	6.47046
634.681	1.86087
637.574	2.79202
640.466	2.08481
643.359	2.99864
646.252	1.46275
649.144	3.38533
652.037	1.08101
654.93	0.065948
657.822	3.14774
660.715	3.20555
663.608	8.14322
666.501	14.6133
669.393	22.7317
672.286	27.9614
675.179	33.3409
678.071	39.3906
680.964	42.1175
683.857	41.2658
686.75	35.905
689.642	28.9867
692.535	24.0959
695.428	22.1918
698.32	21.3766
701.213	19.068
704.106	21.8997
706.998	21.5179
709.891	22.981
712.784	20.697
715.677	18.6743
718.569	17.7552
721.462	11.0234
724.355	8.15628
727.247	5.0153
730.14	1.6597
733.033	1.57378
735.925	0.495712
738.818	0.531036
741.711	1.61189
744.604	0.676483
747.496	1.71686
750.389	8.08252
753.282	12.1548
756.174	17.6787
759.067	24.9813
761.96	34.5428
764.852	42.3764
767.745	54.2808
770.638	70.7232
773.53	84.7555
776.423	102.981
779.316	118.494
782.209	134.588
785.101	153.386
787.994	168.506
790.887	175.891
793.779	174.41
796.672	163.993
799.565	145.71
802.457	125.065
805.35	99.1948
808.243	81.8708
811.136	65.1898
814.028	50.3168
816.921	40.1533
819.814	30.9317
822.706	25.6731
825.599	19.0863
828.492	15.1165
831.385	13.6691
834.277	8.75558
837.17	5.96799
840.063	3.53244
842.955	0.477829
845.848	2.51585
848.741	0.163834
851.633	0.487839
854.526	1.77394
857.419	0.128265
860.312	1.29887
863.204	0.942825
866.097	1.25736
868.99	0.401672
871.882	1.14365
874.775	0.145004
877.668	0.631424
880.56	0.87912
883.453	0.335938
886.346	2.49451
889.239	3.80365
892.131	3.98424
895.024	4.0948
897.917	3.77399
900.809	4.17735
903.702	3.65387
906.595	6.98398
909.487	3.9353
912.38	3.11296
915.273	3.28451
918.165	5.67972
921.058	7.87735
923.951	8.76436
926.844	5.73937
929.736	6.03604
932.629	8.49635
935.522	6.46095
938.414	8.45212
941.307	4.85931
944.2	7.87544
947.092	6.80974
949.985	7.57182
952.878	5.41345
955.771	3.48498
958.663	4.51328
961.556	6.56982
964.449	1.05611
967.341	5.18182
970.234	2.22849
973.127	4.45799
976.019	5.00247
978.912	6.66618
981.805	5.86183
984.697	3.99388
987.59	0.614166
990.483	1.73167
993.376	2.58106
996.268	2.7099
999.161	2.93339
1002.05	1.427
1004.95	2.36855
1007.84	2.70312
1010.73	3.81302
1013.62	3.84956
1016.52	2.31838
1019.41	2.82904
1022.3	3.35606
1025.19	2.43806
1028.09	3.67328
1030.98	2.38556
1033.87	3.34457
1036.77	3.51781
1039.66	3.45102
1042.55	3.26018
1045.44	3.39456
1048.34	4.49391
1051.23	2.03024
1054.12	2.28236
1057.02	3.07249
1059.91	2.3239
1062.8	0.718338
1065.69	3.49023
1068.59	2.16074
1071.48	3.27103
1074.37	5.84982
1077.26	0.373505
1080.16	4.49174
1083.05	3.71503
1085.94	0.601563
1088.84	1.21581
1091.73	3.3257
1094.62	2.48729
1097.51	2.69493
1100.41	1.19841
1103.3	2.47568
1106.19	0.602341
1109.08	2.76657
1111.98	1.78281
1114.87	3.44037
1117.76	0.726654
1120.65	0.082642
1123.55	3.95494
1126.44	0.819778
1129.33	0.607239
1132.22	1.68826
1135.12	2.14922
1138.01	0.116882
1140.9	2.19325
1143.8	1.33066
1146.69	2.2352
1149.58	1.96008
1152.47	2.62486
1155.37	3.12292
1158.26	2.79462
1161.15	2.20013
1164.05	1.0042
1166.94	3.95882
1169.83	2.02808
1172.72	0.14064
1175.62	3.47391
1178.51	1.57327
1181.4	2.46326
1184.29	2.25845
1187.19	0.592773
1190.08	0.652924
1192.97	5.16283
1195.87	0.314926
1198.76	1.55609
1201.65	1.39639
1204.54	5.60983
1207.43	2.73938
1210.33	4.95766
1213.22	3.10831
1216.11	1.53616
1219.01	3.27193
1221.9	2.15242
1224.79	3.60225
1227.68	3.79266
1230.58	5.39874
1233.47	0.799728
1236.36	2.65471
1239.26	1.02463
1242.15	0.592957
1245.04	2.20502
1247.93	1.15553
1250.83	1.03914
1253.72	1.83003
1256.61	3.90498
1259.5	1.5705
1262.4	4.53809
1265.29	4.51518
1268.18	1.88629
1271.08	3.35382
1273.97	3.89796
1276.86	2.77675
1279.75	0.866653
1282.65	1.6904
1285.54	4.62752
1288.43	1.28308
1291.32	0.421936
1294.22	5.25493
1297.11	1.34839
1300	0.692444
1302.89	1.21835
