Measurement: Raman, 532 nm, unoriented, Raman Data Processed
Mineral: Schneiderhohnite
Rruff sample: R061004
Ideal chemistry: Fe^2+^Fe^3+^_3_As^3+^_5_O_13_
Locality: Urucum mine, Galileia, Minas Gerias, Brazil
Source: William W. Pinch
Description: Black prismatic crystals in parallel aggregates associated with arseniosiderite, arsenolite, scorodite and karibibite on lollingite
Raman shift (cm-1)	intensity
128.755	0
132.13	87.4279
135.504	55.7796
138.879	242.735
142.254	245.971
145.629	73.3566
149.004	74.5406
152.379	8.35394
155.753	22.9846
159.128	22.3531
162.503	5.90533
165.878	36.3075
169.252	20.4395
172.627	53.5577
176.002	59.8267
179.377	190.054
182.752	332.587
186.127	477.509
189.501	402.507
192.876	435.062
196.251	412.388
199.626	328.113
203.001	135.553
206.375	141.885
209.75	111.129
213.125	80.1658
216.5	10.0443
219.875	17.035
223.25	31.5619
226.624	49.3897
229.999	159.893
233.374	282.589
236.749	418.706
240.124	426.334
243.498	328.835
246.873	224.217
250.248	169.492
253.623	121.902
256.998	110.206
260.373	125.504
263.747	133.06
267.122	194.805
270.497	180.224
273.872	227.48
277.247	295.957
280.621	325.26
283.996	333.768
287.371	413.438
290.746	401.25
294.121	305.814
297.495	207.65
300.87	109.212
304.245	73.2128
307.62	11.0143
310.995	2.1759
314.37	11.4222
317.744	25.8503
321.119	2.22376
324.494	3.13922
327.869	1.92578
331.244	34.4453
334.618	72.4874
337.993	80.6143
341.368	127.561
344.743	116.805
348.118	173.447
351.493	117.274
354.867	98.1054
358.242	109.006
361.617	147.923
364.992	153.041
368.366	219.548
371.741	180.475
375.116	172.677
378.491	178.351
381.866	149.151
385.241	67.9459
388.615	64.2575
391.99	28.7345
395.365	0.025269
398.74	36.1367
402.115	29.1989
405.49	63.0086
408.864	57.9556
412.239	119.499
415.614	168.801
418.989	191.498
422.364	274.24
425.738	187.379
429.113	172.16
432.488	178.221
435.863	257.636
439.238	238.545
442.612	267.497
445.987	242.697
449.362	277.45
452.737	275.853
456.112	245.046
459.486	167.437
462.861	53.0166
466.236	9.24445
469.611	3.41113
472.986	14.8192
476.361	45.9775
479.735	31.7868
483.11	6.12842
486.485	0.345581
489.86	74.499
493.235	61.646
496.61	196.411
499.984	298.488
503.359	381.075
506.734	450.762
510.109	435.434
513.484	338.885
516.858	212.294
520.233	145.566
523.608	79.1304
526.983	65.969
530.358	70.9905
533.732	172.98
537.107	242.722
540.482	429.523
543.857	643.663
547.232	707.54
550.606	830.51
553.981	762.001
557.356	590.069
560.731	381.617
564.106	309.339
567.481	270.754
570.855	334.903
574.23	337.405
577.605	322.38
580.98	240.043
584.355	206.594
587.729	130.917
591.104	114.417
594.479	118.32
597.854	128.978
601.229	192.228
604.604	292
607.978	329.345
611.353	395.009
614.728	457.089
618.103	395.39
621.477	298.755
624.852	187.961
628.227	86.1522
631.602	53.5175
634.977	26.4266
638.352	11.4133
641.726	12.5994
645.101	22.992
648.476	16.3557
651.851	7.60638
655.226	9.71222
658.601	13.361
661.975	25.0715
665.35	88.0806
668.725	153.09
672.1	245.434
675.475	365.156
678.849	432.835
682.224	516.542
685.599	499.033
688.974	420.461
692.349	294.225
695.723	209.498
699.098	170.318
702.473	133.84
705.848	183.817
709.223	210.365
712.597	235.559
715.972	266.133
719.347	213.921
722.722	198.824
726.097	114.15
729.472	71.3112
732.846	54.7262
736.221	42.2194
739.596	8.33807
742.971	8.55603
746.346	4.09741
749.721	17.6414
753.095	23.2346
756.47	56.0242
759.845	121.112
763.22	151.189
766.595	230.933
769.969	303.098
773.344	476.777
776.719	624.48
780.094	748.676
783.469	966.788
786.843	1192.87
790.218	1395.77
793.593	1584.75
796.968	1630.12
800.343	1441.37
803.717	1144.72
807.092	851.922
810.467	669.754
813.842	469.683
817.217	338.041
820.592	239.961
823.966	211.518
827.341	147.201
830.716	115.048
834.091	112.8
837.466	60.379
840.841	37.3301
844.215	68.7044
847.59	15.4633
850.965	43.0021
854.34	21.4364
857.715	22.3675
861.089	43.4891
864.464	23.9841
867.839	6.14117
871.214	9.14838
874.589	8.10797
877.963	23.4373
881.338	10.6511
884.713	35.8629
888.088	50.5984
891.463	38.554
894.837	24.613
898.212	29.9736
901.587	33.9189
904.962	51.802
908.337	46.354
911.712	38.1675
915.086	44.8606
918.461	57.7785
921.836	17.998
925.211	16.221
928.586	9.99237
931.96	34.8978
935.335	43.2952
938.71	19.419
942.085	44.5334
945.46	48.6969
948.835	14.99
952.209	32.2577
955.584	44.6634
958.959	28.2578
962.334	12.0397
965.709	17.495
969.083	47.2778
972.458	33.649
975.833	51.0847
979.208	31.0214
982.583	42.2397
985.957	31.6811
989.332	33.6247
992.707	63.5419
996.082	45.2787
999.457	43.7548
1002.83	51.3048
1006.21	29.2916
1009.58	33.3805
1012.96	17.8878
1016.33	64.0943
1019.71	19.0057
1023.08	23.1918
1026.45	55.7438
1029.83	45.5106
1033.2	55.5584
1036.58	57.7537
1039.95	39.0869
1043.33	39.2555
1046.7	34.7094
1050.08	34.1413
1053.45	31.9762
1056.83	45.3909
1060.2	18.3902
1063.58	57.2533
1066.95	45.9156
1070.33	36.8775
1073.7	54.6815
1077.08	6.789
1080.45	66.3949
1083.83	47.5237
1087.2	46.3232
1090.58	47.046
1093.95	45.1489
1097.33	7.85525
1100.7	27.065
1104.08	49.5525
1107.45	36.4358
1110.83	45.3976
1114.2	22.3009
1117.58	36.6027
1120.95	20.8377
1124.33	25.6921
1127.7	41.658
1131.07	46.0883
1134.45	31.7812
1137.82	19.9102
1141.2	53.3641
1144.57	16.9699
1147.95	6.67731
1151.32	24.1028
1154.7	44.5559
1158.07	36.564
1161.45	28.3241
1164.82	8.05984
1168.2	35.1601
1171.57	9.71182
1174.95	39.2178
1178.32	15.6861
1181.7	19.9647
1185.07	0.507874
1188.45	21.165
1191.82	60.8773
1195.2	50.4246
1198.57	13.9095
1201.94	5.76126
1205.32	48.8315
1208.69	81.3875
1212.07	47.3299
1215.44	21.3787
1218.82	32.3359
1222.19	8.65533
1225.57	49.0295
1228.94	41.4097
1232.32	9.00009
1235.69	46.6607
1239.07	38.0445
1242.44	37.2694
1245.82	47.2039
1249.19	28.8239
1252.57	51.1091
1255.94	38.3921
1259.32	11.3823
1262.69	51.6605
1266.07	59.4229
1269.44	70.5914
1272.82	27.1137
1276.19	9.56531
1279.57	4.01828
1282.94	40.1296
1286.32	49.9589
1289.69	56.8245
1293.07	16.9698
1296.44	18.4694
