Measurement: Raman, 780 nm, unoriented, Raman Data Processed
Mineral: Schorlomite
Rruff sample: R060125
Ideal chemistry: Ca_3_(Ti^4+^,Fe^3+^)_2_[(Si,Fe^3+^)O_4_]_3_
Locality: Magnet Cove, Arkansas, USA
Source: University of Arizona Mineral Museum
Description: Black massive
Measured chemistry: Ca_3.00_(Ti^4+^_0.74_Zr_0.44_Fe^3+^_0.38_Al_0.21_Mg_0.20_Mn_0.03_)_Σ=2_[(Si_0.68_Fe^3+^_0.32_)_Σ=1_O_4_]_3_
Raman shift (cm-1)	intensity
150.673	0
153.566	0.282639
156.458	2.66974
159.351	5.06834
162.244	4.85945
165.137	7.04723
168.029	5.70586
170.922	6.51329
173.815	6.14054
176.707	5.68093
179.6	5.31962
182.493	4.0618
185.385	2.46278
188.278	1.98117
191.171	1.48197
194.064	0.871803
196.956	1.34582
199.849	0.976997
202.742	0.678543
205.634	0.983841
208.527	0.560585
211.42	0.864799
214.312	0.519806
217.205	2.28152
220.098	1.61562
222.991	2.79609
225.883	3.93081
228.776	4.43942
231.669	4.18642
234.561	4.76744
237.454	4.36108
240.347	5.55931
243.239	5.86194
246.132	5.82178
249.025	6.565
251.918	7.19272
254.81	5.6783
257.703	5.15025
260.596	5.01959
263.488	3.43373
266.381	0.885284
269.274	0.608856
272.166	0.123779
275.059	1.10509
277.952	1.3504
280.845	3.57079
283.737	5.92175
286.63	9.60556
289.523	10.9696
292.415	12.9864
295.308	15.361
298.201	16.517
301.094	18.3106
303.986	18.7365
306.879	20.0598
309.772	21.1332
312.664	23.2576
315.557	27.232
318.45	31.6991
321.342	39.7085
324.235	50.5031
327.128	66.7463
330.021	81.7349
332.913	98.0625
335.806	113.367
338.699	129.026
341.591	139.769
344.484	143.499
347.377	140.785
350.269	132.757
353.162	125.257
356.055	119.377
358.947	111.084
361.84	98.2547
364.733	85.1593
367.626	67.7337
370.518	53.6576
373.411	42.4398
376.304	30.978
379.196	22.9942
382.089	16.1887
384.982	10.5223
387.875	5.00646
390.767	2.34132
393.66	0.595238
396.553	0.567505
399.445	1.20131
402.338	1.2729
405.231	0.861206
408.123	0.253395
411.016	0.085411
413.909	1.1241
416.802	2.16373
419.694	2.22699
422.587	3.47231
425.48	3.42329
428.372	4.69118
431.265	5.01057
434.158	5.30578
437.05	7.50375
439.943	7.43004
442.836	7.34788
445.729	6.92507
448.621	6.19529
451.514	5.07305
454.407	3.546
457.299	1.98299
460.192	2.06614
463.085	0.945351
465.978	1.52505
468.87	1.53788
471.763	2.76466
474.656	3.31935
477.548	5.84448
480.441	7.83334
483.334	8.31654
486.226	9.5528
489.119	9.84619
492.012	9.42379
494.904	11.3055
497.797	15.1804
500.69	20.3071
503.583	27.9183
506.475	33.3792
509.368	40.2216
512.261	45.9466
515.153	42.9904
518.046	36.9065
520.939	28.7362
523.832	21.346
526.724	16.379
529.617	11.9791
532.51	10.8832
535.402	8.43448
538.295	7.08733
541.188	6.45953
544.08	6.53759
546.973	5.1312
549.866	4.26537
552.759	2.86966
555.651	1.03662
558.544	0.462723
561.437	1.33819
564.329	0.658092
567.222	0.410709
570.115	0.523308
573.007	1.90866
575.9	2.22317
578.793	3.6968
581.686	3.42087
584.578	4.25626
587.471	3.81031
590.364	4.05032
593.256	4.1868
596.149	4.11798
599.042	3.23176
601.934	2.15088
604.827	2.14223
607.72	2.79984
610.613	2.81898
613.505	2.90445
616.398	3.55426
619.291	4.25289
622.183	4.96775
625.076	6.06199
627.969	8.15717
630.861	8.07161
633.754	8.96046
636.647	10.2948
639.54	10.1558
642.432	10.9466
645.325	10.6625
648.218	10.9355
651.11	11.2777
654.003	10.5628
656.896	10.1937
659.788	8.23871
662.681	7.11618
665.574	5.61678
668.467	3.76043
671.359	3.10699
674.252	1.65304
677.145	0.838112
680.037	0.70734
682.93	0.429214
685.823	0.698616
688.716	0.986633
691.608	0.774071
694.501	0.550629
697.394	0.427467
700.286	1.47548
703.179	3.31956
706.072	5.90008
708.965	8.96271
711.857	13.593
714.75	19.8742
717.643	27.1518
720.535	36.3024
723.428	45.6029
726.321	54.8314
729.213	64.1856
732.106	73.5889
734.999	81.2838
737.891	86.8036
740.784	95.6193
743.677	102.754
746.57	109.262
749.462	115.107
752.355	120.553
755.248	119.246
758.14	112.977
761.033	104.608
763.926	90.5022
766.818	77.4528
769.711	65.7252
772.604	53.5792
775.497	42.6625
778.389	34.6315
781.282	25.9777
784.175	19.8816
787.067	14.0626
789.96	9.82638
792.853	7.92927
795.745	6.14445
798.638	4.2961
801.531	3.19708
804.424	4.00581
807.316	3.20266
810.209	2.53626
813.102	1.46621
815.994	0.111092
818.887	0.571045
821.78	0.673462
824.673	0.745201
827.565	0.714027
830.458	0.170593
833.351	2.12708
836.243	3.62688
839.136	6.14526
842.029	8.20456
844.921	10.4373
847.814	14.1219
850.707	14.7639
853.6	17.7393
856.492	20.0746
859.385	22.9383
862.278	24.742
865.17	25.9953
868.063	26.1537
870.956	25.8441
873.848	23.9444
876.741	22.2696
879.634	17.7967
882.527	12.7166
885.419	8.37266
888.312	4.17177
891.205	1.92654
894.097	0.519791
896.99	0.62326
899.883	0.825027
902.775	0.528145
905.668	0.493477
908.561	1.78548
911.454	2.54535
914.346	3.35603
917.239	4.64337
920.132	6.67335
923.024	7.09232
925.917	6.78876
928.81	6.42637
931.702	6.71069
934.595	6.61186
937.488	6.50708
940.381	6.82097
943.273	7.383
946.166	8.23718
949.059	8.97106
951.951	8.70361
954.844	8.6153
957.737	8.56117
960.63	7.95483
963.522	8.89397
966.415	7.24831
969.308	7.93185
972.2	7.17093
975.093	7.06355
977.986	6.48755
980.878	5.49323
983.771	4.65693
986.664	3.70321
989.557	1.66912
992.449	1.05727
995.342	1.4266
998.235	0.738838
1001.13	0.674698
1004.02	1.29448
1006.91	2.10665
1009.8	0.931309
1012.7	1.21589
1015.59	0.021709
1018.48	0.247738
1021.38	0.191193
1024.27	0.059841
1027.16	0.511524
1030.05	0.019341
1032.95	0.01314
1035.84	0.844902
1038.73	1.19457
1041.62	1.50052
1044.52	2.2557
1047.41	0.852472
1050.3	2.45995
1053.2	2.02397
1056.09	1.86848
1058.98	1.88838
1061.87	2.12312
1064.77	2.02338
1067.66	2.54586
1070.55	3.04015
1073.44	3.00411
1076.34	3.14383
1079.23	2.02411
1082.12	2.4567
1085.02	2.43033
1087.91	1.28069
1090.8	1.99537
1093.69	1.28101
1096.59	2.44909
1099.48	1.71636
1102.37	1.13445
1105.27	0.629225
1108.16	0.736801
1111.05	1.33645
1113.94	1.18824
1116.84	1.33629
1119.73	0.210064
1122.62	0.662842
1125.51	0.133631
1128.41	0.446196
1131.3	0.133074
1134.19	0.211405
1137.08	0.479425
1139.98	0.242636
1142.87	0.020687
1145.76	0.288881
1148.65	0.649593
1151.55	0.066845
1154.44	0.110525
1157.33	0.249582
1160.23	0.546721
1163.12	1.38551
1166.01	0.684502
1168.9	0.551365
1171.8	0.806524
1174.69	1.30616
1177.58	0.693056
1180.47	1.48398
1183.37	1.13442
1186.26	1.47663
1189.15	1.07665
1192.05	0.771107
1194.94	0.886387
1197.83	0.960751
1200.72	0.910683
1203.62	0.598906
1206.51	1.13756
1209.4	0.560791
1212.3	0.607157
1215.19	0.787359
1218.08	0.859091
1220.97	1.58764
1223.87	0.53747
1226.76	0.241268
1229.65	0.626484
1232.54	0.282692
1235.44	0.185558
1238.33	0.428162
1241.22	0.272337
1244.11	0.736572
1247.01	0.389595
1249.9	0.913919
1252.79	0.433777
1255.68	0.493
1258.58	0.669405
1261.47	1.14043
1264.36	0.513041
1267.26	0.695847
1270.15	1.21716
1273.04	0.468391
1275.93	0.980452
1278.83	0.280775
1281.72	0.651466
1284.61	0.780361
