Measurement: Raman, 514 nm, unoriented, Raman Data Processed
Mineral: Scholzite
Rruff sample: R050238
Ideal chemistry: CaZn_2_(PO_4_)_2_2H_2_O
Locality: near Blinman, South Australia, Australia
Source: Marcus Origlieri
Description: Colorless bladed crystals
Measured chemistry: Ca_1.00_Zn_2.00_(P_1.00_O_4_)_2_Â·2H_2_O
Raman shift (cm-1)	intensity
103.124	0
107.3	227.537
111.473	323.82
115.644	710.262
119.813	787.143
123.981	522.264
128.146	72.812
132.309	826.114
136.47	697.171
140.63	1211.65
144.787	1026.17
148.942	570.035
153.096	503.125
157.247	884.982
161.396	1668.34
165.544	1615.26
169.689	1016.14
173.833	417.063
177.974	241.157
182.114	270.32
186.251	290.507
190.387	251.788
194.52	286.524
198.652	41.214
202.782	9.177
206.909	136.995
211.035	138.291
215.159	222.768
219.281	1081.74
223.4	1534.49
227.518	932.989
231.634	625.778
235.748	540.591
239.86	466.356
243.97	304.235
248.079	178.357
252.185	179.31
256.289	330.082
260.391	614.667
264.492	1112.06
268.59	1747.39
272.687	1969.36
276.781	2111.86
280.874	2188.68
284.964	2249.41
289.053	2347.69
293.14	1999.51
297.225	1818.84
301.308	1762.28
305.389	1658.11
309.468	1738.73
313.545	1318.56
317.62	1140.5
321.693	896.836
325.765	735.664
329.834	552.97
333.902	583.396
337.967	589.673
342.031	510.66
346.093	305.54
350.153	236.309
354.21	82.966
358.267	76.494
362.321	76.857
366.373	122.733
370.423	268.299
374.471	113.341
378.518	327.595
382.563	379.065
386.605	620.362
390.646	908.485
394.685	1297.42
398.722	2063.09
402.757	3526.51
406.79	5584.76
410.821	6611.86
414.851	4658.8
418.878	2446.59
422.904	1115.23
426.927	698.708
430.949	362.037
434.969	212.205
438.987	112.182
443.003	25.079
447.018	52.291
451.03	63.728
455.041	77.315
459.049	102.629
463.056	39.322
467.061	92.679
471.064	156.687
475.065	83.68
479.064	3.44
483.062	19.245
487.057	73.779
491.051	40.259
495.043	175.668
499.032	402.945
503.02	551.15
507.007	691.198
510.991	807.004
514.973	816.281
518.954	887.575
522.933	717.752
526.91	644.666
530.885	831.321
534.858	1030.35
538.829	1658.23
542.799	3342.53
546.766	6619.27
550.732	11516.8
554.696	9694.2
558.658	4535.45
562.618	2333.53
566.576	1356.45
570.533	904.229
574.488	888.829
578.44	580.243
582.391	704.472
586.341	787.516
590.288	980.559
594.233	1025.66
598.177	1203.17
602.119	1332.64
606.059	1163.34
609.997	875.559
613.933	742.552
617.868	685.822
621.801	725.597
625.731	667.156
629.66	666.236
633.588	744.009
637.513	648.402
641.437	673.758
645.358	431.331
649.278	233.624
653.196	443.643
657.113	269.244
661.027	359.74
664.94	431.979
668.851	274.943
672.76	305.113
676.667	148.916
680.572	165.404
684.476	142.215
688.378	121.542
692.278	233.632
696.176	69.7
700.072	331.436
703.967	307.681
707.86	257.368
711.751	156.75
715.64	367.527
719.527	340.778
723.413	393.236
727.297	386.548
731.179	324.001
735.059	263.317
738.937	255.5
742.814	257.552
746.689	105.473
750.562	83.256
754.433	110.919
758.303	204.502
762.17	199.049
766.036	47.612
769.901	122.249
773.763	237.805
777.624	19.086
781.482	96.297
785.339	74.454
789.195	86.647
793.048	118.839
796.9	20.958
800.75	52.089
804.598	160.417
808.445	273.59
812.289	103.541
816.132	88.236
819.973	24.798
823.813	92.258
827.65	12.646
831.486	111.657
835.32	20.913
839.152	11.789
842.983	28.553
846.812	3.228
850.639	41.574
854.464	46.724
858.288	34.918
862.11	2.542
865.93	0.94
869.748	23.465
873.564	25.18
877.379	37.887
881.192	53.314
885.004	85.513
888.813	229.708
892.621	276.906
896.427	63.108
900.232	168.005
904.034	417.715
907.835	524.769
911.634	1002.1
915.432	1722.65
919.227	3267.56
923.021	4604.62
926.813	4518.93
930.604	3261.08
934.393	2315.5
938.18	1917.79
941.965	1412.04
945.749	1179.63
949.53	1030.77
953.311	861.12
957.089	897.213
960.866	923.251
964.641	1043.22
968.414	1147.29
972.185	1299.37
975.955	1890.14
979.723	2682.22
983.49	4449.24
987.254	8016.16
991.017	13013.7
994.779	19894.9
998.538	27613.1
1002.3	29203.7
1006.05	20444.5
1009.81	10391.4
1013.56	5102.28
1017.31	2973.23
1021.06	2472.96
1024.81	2416.16
1028.55	1677.41
1032.3	1087.18
1036.04	813.023
1039.78	826.994
1043.52	683.047
1047.26	665.128
1050.99	776.439
1054.73	963.435
1058.46	960.826
1062.19	927.033
1065.92	995.875
1069.65	971.942
1073.37	1060.96
1077.1	1069.53
1080.82	1285.76
1084.54	1706.78
1088.26	1797.88
1091.97	1913.11
1095.69	1535.3
1099.4	1155.92
1103.12	1040.21
1106.83	853.401
1110.54	1266.29
1114.24	2066.5
1117.95	2171.56
1121.65	1952.87
1125.35	710.072
1129.06	252.007
1132.75	267.845
1136.45	295.518
1140.15	0.039
1143.84	2.417
1147.53	142.817
1151.22	82.734
1154.91	55.373
1158.6	240.777
1162.28	516.158
1165.97	981.957
1169.65	1773.18
1173.33	2482.9
1177.01	1551.88
1180.69	612.354
1184.36	407.663
1188.04	206.207
1191.71	192.038
1195.38	185.485
1199.05	14.232
1202.71	114.736
1206.38	67.328
1210.04	107.678
1213.71	111.227
1217.37	2.252
1221.03	99.266
1224.68	40.533
1228.34	63.08
1231.99	8.877
1235.65	71.645
1239.3	4.453
1242.95	89.785
1246.59	70.102
1250.24	58.559
1253.88	54.404
1257.53	39.893
1261.17	84.85
1264.81	145.799
1268.45	26.887
1272.08	92.604
1275.72	38.566
1279.35	106.754
1282.98	5.406
1286.61	40.914
1290.24	61.297
1293.87	175.223
1297.49	30.701
1301.11	68.906
1304.73	82.07
1308.36	92.764
1311.97	137.02
1315.59	65.781
1319.2	64.994
1322.82	21.795
1326.43	325.203
1330.04	56.238
1333.65	223.002
1337.26	174.148
1340.86	202.121
1344.47	290.623
1348.07	288.082
1351.67	223.844
1355.27	322.988
1358.87	250.18
1362.46	203.48
1366.06	130.965
1369.65	233.307
1373.24	92.826
1376.83	199.271
1380.42	126.516
1384	247.129
1387.59	155.16
1391.17	281.285
1394.75	212.723
1398.33	326.004
1401.91	222.078
1405.49	205.814
1409.06	475.693
1412.64	344.861
1416.21	204.785
1419.78	344.045
1423.35	186.754
1426.91	189.115
1430.48	114.637
1434.05	178.893
1437.61	325.414
1441.17	377.775
1444.73	324.734
1448.29	302.32
1451.84	475.184
1455.4	532.414
1458.95	383.391
1462.5	337.973
1466.05	225.822
1469.6	459.49
1473.15	255.264
1476.69	312.514
1480.24	274.463
1483.78	331.336
1487.32	262.621
1490.86	225.484
1494.39	234.189
1497.93	184.316
1501.46	308.848
1505	309.193
1508.53	286.111
1512.06	11.076
