Measurement: Raman, 780 nm, unoriented, Raman Data Processed
Mineral: Schoepite
Rruff sample: R100188
Ideal chemistry: (UO_2_)_8_O_2_(OH)_12_12H_2_O
Locality: Shinkolobwe mine, Katanga, Congo
Source: William W Pinch
Description: Lemon-yellow tabular to blocky crystals associated with orange-yellow fourmarierite (R100187) and soddyite
Raman shift (cm-1)	intensity
101.212	0
104.587	0.851166
107.962	0.575211
111.337	8.53137
114.711	13.0496
118.086	19.9374
121.461	33.6827
124.836	42.8598
128.21	54.3569
131.585	59.6513
134.96	75.3227
138.335	95.5264
141.71	104.915
145.085	111.305
148.459	120.125
151.834	124.089
155.209	126.006
158.584	128.95
161.959	133.532
165.333	126.075
168.708	123.243
172.083	124.845
175.458	121.289
178.833	122.264
182.208	124.3
185.582	123.471
188.957	118.195
192.332	112.561
195.707	96.2592
199.082	83.5573
202.457	65.2258
205.831	48.0269
209.206	21.4912
212.581	13.5786
215.956	5.72217
219.331	0.81337
222.705	3.42493
226.08	3.23888
229.455	3.94545
232.83	12.3213
236.205	23.5732
239.579	28.1373
242.954	33.818
246.329	38.3766
249.704	37.9951
253.079	34.7608
256.454	31.08
259.828	26.7689
263.203	21.3087
266.578	18.1352
269.953	17.1875
273.328	7.99036
276.702	4.2382
280.077	1.16115
283.452	3.48583
286.827	1.81174
290.202	1.10118
293.576	1.68594
296.951	4.68559
300.326	9.27039
303.701	15.0179
307.076	19.825
310.45	22.8864
313.825	31.0579
317.2	36.4601
320.575	43.6323
323.95	51.9477
327.325	55.0417
330.699	57.3269
334.074	57.0989
337.449	52.142
340.824	41.2573
344.199	37.3389
347.574	25.7037
350.948	20.3533
354.323	11.817
357.698	6.61305
361.073	2.69713
364.447	0.728104
367.822	0.368439
371.197	0.843872
374.572	0.736961
377.947	1.6972
381.322	9.23238
384.696	14.0768
388.071	23.3838
391.446	27.8615
394.821	32.3526
398.196	37.8865
401.57	42.0711
404.945	39.5744
408.32	36.463
411.695	27.2642
415.07	22.2659
418.445	20.6095
421.819	16.093
425.194	17.8761
428.569	16.3397
431.944	20.8172
435.319	20.1025
438.693	22.0315
442.068	28.0527
445.443	31.0141
448.818	40.5806
452.193	38.6261
455.567	42.843
458.942	35.7297
462.317	27.8266
465.692	18.9987
469.067	11.2653
472.442	5.87631
475.816	2.04158
479.191	0.624283
482.566	0.048073
485.941	0.366631
489.316	0.226875
492.69	2.54119
496.065	1.88104
499.44	0.085938
502.815	3.31692
506.19	6.38382
509.565	8.04116
512.939	9.10448
516.314	11.6103
519.689	12.8279
523.064	22.8932
526.439	27.5764
529.813	31.0268
533.188	38.8304
536.563	42.3884
539.938	48.7059
543.313	50.5622
546.688	45.0887
550.062	41.3063
553.437	34.4139
556.812	28.6252
560.187	22.3736
563.562	18.6078
566.936	10.2886
570.311	10.3005
573.686	8.11829
577.061	4.40569
580.436	4.65479
583.811	0.923767
587.185	2.44399
590.56	2.08961
593.935	4.93362
597.31	0.18449
600.685	0.199776
604.059	2.119
607.434	0.818947
610.809	1.00576
614.184	1.33483
617.559	0.058117
620.933	3.99115
624.308	5.56846
627.683	4.09329
631.058	3.97278
634.433	6.77015
637.808	5.0837
641.182	5.25633
644.557	6.00674
647.932	7.89236
651.307	9.8185
654.682	10.8455
658.056	6.10337
661.431	8.44909
664.806	5.63823
668.181	10.1056
671.556	7.76943
674.931	8.0486
678.305	9.04171
681.68	8.54838
685.055	9.97561
688.43	8.18637
691.805	9.93665
695.179	4.83261
698.554	5.88485
701.929	4.42606
705.304	4.44862
708.679	1.3302
712.053	3.66409
715.428	1.30709
718.803	0.129074
722.178	0.875763
725.553	0.225067
728.928	0.338657
732.302	0.0168
735.677	2.68689
739.052	4.10607
742.427	0.805805
745.802	0.089355
749.176	0.159878
752.551	1.44808
755.926	4.32624
759.301	9.1904
762.676	10.3499
766.051	14.2031
769.425	19.2084
772.8	25.4184
776.175	35.0526
779.55	48.9222
782.925	57.3802
786.299	73.2942
789.674	90.3617
793.049	106.139
796.424	123.674
799.799	140.924
803.173	163.339
806.548	190.994
809.923	227.883
813.298	275.497
816.673	354.684
820.048	442.73
823.422	562.51
826.797	668.859
830.172	734.082
833.547	704.393
836.922	574.728
840.296	392.549
843.671	249.298
847.046	183.035
850.421	153.717
853.796	166.132
857.17	192.588
860.545	132.62
863.92	66.9608
867.295	47.0395
870.67	30.6517
874.044	11.779
877.419	5.28148
880.794	2.08992
884.169	0.890446
887.544	0.10104
890.919	0.380806
894.293	1.01102
897.668	0.485245
901.043	0.511402
904.418	0.668678
907.793	3.16675
911.168	0.761173
914.542	0.407433
917.917	0.901505
921.292	1.84521
924.667	2.26696
928.042	0.06983
931.416	2.59665
934.791	3.4036
938.166	4.52643
941.541	3.61072
944.916	2.28998
948.29	5.40216
951.665	6.02484
955.04	5.61476
958.415	7.01834
961.79	5.53105
965.164	7.26175
968.539	5.65502
971.914	6.68559
975.289	2.77245
978.664	5.00183
982.039	2.96295
985.413	2.22478
988.788	4.55524
992.163	6.35647
995.538	3.91025
998.913	6.28041
1002.29	2.9673
1005.66	6.06853
1009.04	4.23789
1012.41	2.60045
1015.79	5.40482
1019.16	5.91485
1022.54	0.6712
1025.91	2.30261
1029.29	2.2878
1032.66	3.72553
1036.04	1.15954
1039.41	3.54579
1042.79	4.19149
1046.16	3.86683
1049.54	2.70399
1052.91	3.04734
1056.29	0.395815
1059.66	3.8731
1063.03	1.78503
1066.41	0.65905
1069.78	1.91467
1073.16	2.54814
1076.53	3.96777
1079.91	1.02276
1083.28	0.735367
1086.66	1.96944
1090.03	0.674131
1093.41	1.57748
1096.78	2.20118
1100.16	4.33133
1103.53	3.88916
1106.91	0.542662
1110.28	0.378429
1113.66	1.9185
1117.03	3.16621
1120.41	0.888128
1123.78	1.65119
1127.16	1.1941
1130.53	2.33651
1133.9	0.967958
1137.28	4.57913
1140.65	2.11918
1144.03	1.54023
1147.4	2.28616
1150.78	2.26282
1154.15	2.52619
1157.53	3.19541
1160.9	2.80213
1164.28	1.91999
1167.65	3.19235
1171.03	4.60897
1174.4	1.46523
1177.78	1.80434
1181.15	3.61893
1184.53	1.07115
1187.9	2.40166
1191.28	2.01011
1194.65	3.13733
1198.03	1.71057
1201.4	3.92739
1204.78	0.80442
1208.15	0.903408
1211.53	3.30506
1214.9	4.46755
1218.28	1.91462
1221.65	4.90255
1225.03	1.79036
1228.4	3.78663
1231.78	2.21699
1235.15	2.90231
1238.53	4.63217
1241.9	3.48014
1245.27	4.04894
1248.65	2.87355
1252.02	2.63538
1255.4	2.76271
1258.77	3.80652
1262.15	2.50965
1265.52	5.41662
1268.9	1.65673
1272.27	4.35311
1275.65	2.08976
1279.02	1.34793
1282.4	1.20667
