Measurement: Raman, 532 nm, unoriented, Raman Data Processed
Mineral: Scholzite
Rruff sample: R050238
Ideal chemistry: CaZn_2_(PO_4_)_2_2H_2_O
Locality: near Blinman, South Australia, Australia
Source: Marcus Origlieri
Description: Colorless bladed crystals
Measured chemistry: Ca_1.00_Zn_2.00_(P_1.00_O_4_)_2_Â·2H_2_O
Raman shift (cm-1)	intensity
132.798	0
136.172	6.71042
139.547	15.0858
142.922	21.5891
146.297	45.8655
149.672	74.4132
153.046	105.73
156.421	123.204
159.796	118.291
163.171	134.358
166.546	115.592
169.921	73.5318
173.295	38.0333
176.67	17.8561
180.045	8.89136
183.42	2.2009
186.795	0.114502
190.169	7.34035
193.544	5.45453
196.919	5.84891
200.294	0.126755
203.669	3.05583
207.043	11.9917
210.418	23.1341
213.793	38.55
217.168	66.1946
220.543	103.572
223.918	133.217
227.292	159.848
230.667	188.355
234.042	226.521
237.417	244.221
240.792	217.32
244.167	157.791
247.541	111.018
250.916	83.3214
254.291	66.0813
257.666	60.1506
261.041	63.3681
264.415	77.3051
267.79	99.0979
271.165	122.21
274.54	140.276
277.915	156.219
281.289	167.121
284.664	175.948
288.039	168.56
291.414	145.831
294.789	121.132
298.163	104.752
301.538	97.9102
304.913	99.6798
308.288	102.339
311.663	100.099
315.038	87.7658
318.412	71.9317
321.787	60.455
325.162	52.6924
328.537	42.2683
331.912	38.419
335.286	32.9331
338.661	27.7192
342.036	21.0743
345.411	14.5636
348.786	9.77856
352.161	3.35736
355.535	2.76761
358.91	2.41061
362.285	3.03192
365.66	1.99921
369.035	0.995514
372.409	1.79645
375.784	0.500244
379.159	1.63333
382.534	1.59894
385.909	6.83868
389.284	11.6294
392.658	19.3131
396.033	27.8506
399.408	37.7783
402.783	53.1083
406.158	70.472
409.532	84.7915
412.907	80.4033
416.282	60.2602
419.657	41.0712
423.032	27.6326
426.406	19.6239
429.781	15.2205
433.156	12.2445
436.531	9.67291
439.906	7.44714
443.281	6.0296
446.655	3.99896
450.03	5.36249
453.405	1.33667
456.78	2.45361
460.155	4.32303
463.529	4.10593
466.904	2.5722
470.279	1.89252
473.654	4.06342
477.029	2.10901
480.404	0.064667
483.778	1.74255
487.153	1.23209
490.528	0.641876
493.903	0.63382
497.278	1.56696
500.652	0.158752
504.027	3.21674
507.402	1.94785
510.777	2.82999
514.152	2.50369
517.527	3.81824
520.901	3.63217
524.276	4.32825
527.651	5.34875
531.026	11.0326
534.401	23.0708
537.775	40.7133
541.15	68.1133
544.525	97.8625
547.9	143.484
551.275	190.875
554.649	174.992
558.024	87.9332
561.399	41.2652
564.774	25.3807
568.149	13.4885
571.524	7.4892
574.898	6.87851
578.273	10.2856
581.648	15.9459
585.023	15.7885
588.398	19.4803
591.773	27.4866
595.147	29.6859
598.522	31.6866
601.897	27.6807
605.272	23.1924
608.646	18.2718
612.021	10.8215
615.396	6.73733
618.771	0.075287
622.146	1.19482
625.521	0.526764
628.895	0.397919
632.27	1.52487
635.645	2.09058
639.02	4.14462
642.395	6.44885
645.769	7.87857
649.144	10.0745
652.519	7.60288
655.894	17.9505
659.269	22.9739
662.644	26.2599
666.018	26.8019
669.393	21.8535
672.768	11.3652
676.143	8.57797
679.518	4.49158
682.893	2.29245
686.267	3.90915
689.642	2.71219
693.017	1.50113
696.392	0.019623
699.767	2.11453
703.141	0.333679
706.516	1.95087
709.891	6.50324
713.266	5.07019
716.641	3.2301
720.015	2.9068
723.39	5.65939
726.765	4.76105
730.14	6.98975
733.515	3.91242
736.89	2.8656
740.264	1.8522
743.639	3.01538
747.014	0.278839
750.389	1.19684
753.764	1.78418
757.139	0.708649
760.513	3.16486
763.888	3.84613
767.263	3.38257
770.638	2.526
774.013	1.59897
777.387	3.62076
780.762	1.46884
784.137	1.5372
787.512	3.56332
790.887	2.51996
794.261	2.23636
797.636	2.39352
801.011	3.31427
804.386	4.47562
807.761	5.2319
811.135	4.21133
814.51	1.64487
817.885	6.53061
821.26	5.33307
824.635	6.40732
828.01	3.42297
831.384	4.36841
834.759	2.97784
838.134	3.85446
841.509	6.68683
844.884	7.02536
848.259	6.51379
851.633	3.49683
855.008	4.75516
858.383	5.05472
861.758	3.99756
865.133	2.66806
868.507	1.02268
871.882	2.14517
875.257	0.152344
878.632	1.66776
882.007	0.600098
885.381	0.561401
888.756	1.89923
892.131	2.0914
895.506	3.8779
898.881	3.58838
902.256	5.5495
905.63	11.7648
909.005	20.9607
912.38	34.6112
915.755	58.7033
919.13	87.3238
922.505	112.837
925.879	107.012
929.254	79.3215
932.629	49.3593
936.004	32.1805
939.379	20.0318
942.753	11.1479
946.128	7.92667
949.503	2.27109
952.878	0.377167
956.253	1.55682
959.627	0.675964
963.002	3.97366
966.377	9.93814
969.752	20.3872
973.127	32.7153
976.501	58.4722
979.876	99.5857
983.251	177.792
986.626	301.353
990.001	482.334
993.375	696.743
996.75	924.139
1000.12	1045.49
1003.5	928.875
1006.88	626.852
1010.25	340.012
1013.62	171.7
1017	99.9234
1020.37	72.1031
1023.75	70.8503
1027.12	52.7638
1030.5	24.5153
1033.87	8.14362
1037.25	3.73462
1040.62	1.97867
1044	0.993805
1047.37	2.50058
1050.75	0.40506
1054.12	5.92133
1057.5	12.3235
1060.87	19.8032
1064.25	30.8729
1067.62	41.1258
1071	56.2914
1074.37	66.4839
1077.75	78.3269
1081.12	92.1122
1084.5	109.02
1087.87	123.333
1091.24	119.999
1094.62	103.235
1097.99	75.8611
1101.37	58.3167
1104.74	42.4135
1108.12	39.4357
1111.49	46.8282
1114.87	60.7425
1118.24	45.0198
1121.62	25.7778
1124.99	13.6039
1128.37	5.03061
1131.74	2.30899
1135.12	1.2655
1138.49	0.472504
1141.87	2.98221
1145.24	0.036255
1148.62	3.85049
1151.99	7.2652
1155.37	9.66391
1158.74	15.1137
1162.12	23.9346
1165.49	36.208
1168.87	42.5368
1172.24	46.8531
1175.62	32.1021
1178.99	15.7667
1182.37	5.49307
1185.74	5.75433
1189.12	3.29806
1192.49	7.5152
1195.87	2.12781
1199.24	2.29904
1202.61	2.69312
1205.99	4.04056
1209.36	0.179718
1212.74	1.48492
1216.11	2.65573
1219.49	0.409271
1222.86	1.22732
1226.24	1.92068
1229.61	1.14923
1232.99	0.331543
1236.36	0.760071
1239.74	0.467773
1243.11	0.998871
1246.49	3.87274
1249.86	3.46707
1253.24	5.17859
1256.61	2.71677
1259.99	0.480286
1263.36	0.313507
1266.74	0.147858
1270.11	2.77121
1273.48	2.2207
1276.86	2.2822
1280.23	5.64441
1283.61	5.63547
1286.98	0.052734
1290.36	0.177795
