Measurement: Raman, 532 nm, unoriented, Raman Data Processed
Mineral: Schorlomite
Rruff sample: R060125
Ideal chemistry: Ca_3_(Ti^4+^,Fe^3+^)_2_[(Si,Fe^3+^)O_4_]_3_
Locality: Magnet Cove, Arkansas, USA
Source: University of Arizona Mineral Museum
Description: Black massive
Measured chemistry: Ca_3.00_(Ti^4+^_0.74_Zr_0.44_Fe^3+^_0.38_Al_0.21_Mg_0.20_Mn_0.03_)_Σ=2_[(Si_0.68_Fe^3+^_0.32_)_Σ=1_O_4_]_3_
Raman shift (cm-1)	intensity
150.308	0
153.201	1.23009
156.094	2.52335
158.986	3.81729
161.879	8.16898
164.772	11.8511
167.664	12.9461
170.557	12.711
173.45	9.98875
176.343	10.3863
179.235	9.63122
182.128	7.14288
185.021	6.47523
187.913	4.63718
190.806	2.8468
193.699	2.00273
196.591	0.611923
199.484	0.542435
202.377	1.85234
205.269	1.30227
208.162	1.44289
211.055	0.998985
213.948	0.220032
216.84	0.47493
219.733	1.0975
222.626	2.35739
225.518	3.24564
228.411	3.82664
231.304	3.39605
234.196	2.51279
237.089	3.52145
239.982	3.60294
242.875	3.73884
245.767	4.10614
248.66	4.63486
251.553	6.11312
254.445	7.1282
257.338	9.67042
260.231	9.37152
263.123	7.2336
266.016	5.3106
268.909	2.50449
271.802	2.21198
274.694	0.740044
277.587	0.869926
280.48	3.07147
283.372	5.15852
286.265	10.0326
289.158	13.6425
292.05	18.4657
294.943	21.8463
297.836	25.1166
300.729	26.8691
303.621	27.0547
306.514	29.4372
309.407	30.8204
312.299	30.9361
315.192	30.549
318.085	31.4081
320.978	34.1353
323.87	41.3843
326.763	52.1995
329.656	67.0747
332.548	86.6843
335.441	107.924
338.334	133.156
341.226	159.574
344.119	179.479
347.012	182.878
349.904	174.354
352.797	168.756
355.69	170.493
358.583	169.69
361.475	165.087
364.368	144.838
367.261	123.144
370.153	98.5817
373.046	73.5961
375.939	55.3566
378.832	39.1324
381.724	28.0438
384.617	18.2844
387.51	11.2326
390.402	5.23174
393.295	0.823296
396.188	0.058586
399.08	1.85712
401.973	2.52818
404.866	1.67814
407.759	1.69355
410.651	0.091721
413.544	2.32497
416.437	3.13151
419.329	4.54597
422.222	4.96456
425.115	6.28769
428.007	6.8533
430.9	8.25382
433.793	8.50742
436.685	8.73209
439.578	11.2132
442.471	12.9078
445.364	13.8174
448.256	11.5892
451.149	9.30216
454.042	7.48463
456.934	5.07147
459.827	2.58664
462.72	1.00715
465.613	0.569946
468.505	0.025177
471.398	1.51918
474.291	3.4545
477.183	4.94326
480.076	7.04193
482.969	9.99033
485.861	11.8475
488.754	14.9356
491.647	14.524
494.539	16.3089
497.432	18.9993
500.325	24.4897
503.218	35.6574
506.11	51.4786
509.003	73.1397
511.896	93.4431
514.788	106.35
517.681	97.9871
520.574	74.9924
523.466	53.4417
526.359	37.6888
529.252	27.033
532.145	20.4028
535.037	15.1042
537.93	13.5494
540.823	10.7652
543.715	10.3542
546.608	8.94662
549.501	8.10284
552.394	6.26022
555.286	3.20496
558.179	1.52368
561.072	1.8072
563.964	1.23544
566.857	1.23559
569.75	0.460663
572.642	3.353
575.535	4.50966
578.428	5.48365
581.321	5.58791
584.213	6.22459
587.106	5.86458
589.999	6.29859
592.891	6.55527
595.784	6.73221
598.677	5.7905
601.569	6.39908
604.462	5.93384
607.355	6.29858
610.247	7.10168
613.14	8.72194
616.033	9.5173
618.926	9.39301
621.818	10.7702
624.711	13.5248
627.604	14.197
630.496	16.9486
633.389	18.928
636.282	21.2771
639.174	23.6595
642.067	23.2046
644.96	26.4576
647.852	26.6338
650.745	28.0844
653.638	26.7396
656.531	26.8503
659.423	26.3136
662.316	23.3501
665.209	20.4417
668.101	17.4323
670.994	13.835
673.887	11.3517
676.779	9.15157
679.672	6.72271
682.565	5.0815
685.458	3.06574
688.35	1.49072
691.243	0.446312
694.136	0.824181
697.028	0.316299
699.921	0.802727
702.814	1.64691
705.707	0.562752
708.599	0.184464
711.492	1.28852
714.385	3.55865
717.277	8.95742
720.17	12.6557
723.063	19.4634
725.955	26.4335
728.848	33.844
731.741	42.7024
734.634	48.7166
737.526	52.412
740.419	56.3205
743.312	56.4373
746.204	57.5206
749.097	57.9783
751.99	57.187
754.882	56.9002
757.775	52.4447
760.668	47.5121
763.561	42.0615
766.453	34.8182
769.346	26.783
772.239	21.8956
775.131	17.4469
778.024	13.7796
780.917	10.0146
783.809	8.01694
786.702	5.79515
789.595	2.72177
792.487	3.15376
795.38	0.401817
798.273	1.26534
801.166	2.37364
804.058	2.91182
806.951	3.0473
809.844	5.0224
812.736	4.31519
815.629	3.9579
818.522	2.36972
821.415	1.19391
824.307	0.711189
827.2	0.529915
830.093	0.419777
832.985	2.112
835.878	4.00796
838.771	6.64687
841.663	8.75537
844.556	11.842
847.449	15.824
850.342	18.9037
853.234	23.3126
856.127	24.876
859.02	29.4186
861.912	33.8703
864.805	36.7073
867.698	39.1983
870.591	41.6108
873.483	41.2743
876.376	40.1365
879.269	36.352
882.161	29.2684
885.054	22.2667
887.947	14.1201
890.839	7.82082
893.732	2.46178
896.625	0.059471
899.518	0.920555
902.41	1.33405
905.303	0.663353
908.196	0.037483
911.088	1.41665
913.981	3.05611
916.874	4.31952
919.766	5.90411
922.659	7.54715
925.552	8.42384
928.444	9.19067
931.337	8.16831
934.23	8.27909
937.123	8.41609
940.015	7.94721
942.908	8.57533
945.801	10.3312
948.693	12.3646
951.586	13.3643
954.479	14.2766
957.371	15.238
960.264	15.2072
963.157	14.8574
966.05	15.979
968.942	15.6966
971.835	16.8254
974.728	15.422
977.62	16.2635
980.513	15.4731
983.406	14.1721
986.298	12.7634
989.191	10.8819
992.084	7.89258
994.977	6.59634
997.869	4.52019
1000.76	2.33011
1003.65	3.87317
1006.55	6.04339
1009.44	6.38214
1012.33	5.55911
1015.23	3.63691
1018.12	1.92608
1021.01	0.280437
1023.9	0.054424
1026.8	0.208843
1029.69	0.471951
1032.58	0.065681
1035.47	0.268684
1038.37	0.734951
1041.26	0.7808
1044.15	1.96895
1047.05	2.17049
1049.94	2.81764
1052.83	2.89002
1055.72	3.08598
1058.62	3.31641
1061.51	3.71801
1064.4	4.30833
1067.29	3.5783
1070.19	4.95162
1073.08	4.77449
1075.97	5.24522
1078.87	4.83266
1081.76	5.57433
1084.65	4.26851
1087.54	3.63605
1090.44	2.89688
1093.33	3.01008
1096.22	2.88489
1099.11	3.17366
1102.01	3.00836
1104.9	1.74479
1107.79	1.99437
1110.68	2.83629
1113.58	1.62755
1116.47	1.82671
1119.36	1.72821
1122.26	1.57915
1125.15	1.11412
1128.04	1.22512
1130.93	0.603809
1133.83	1.07687
1136.72	1.0101
1139.61	0.820427
1142.5	0.19009
1145.4	0.086922
1148.29	0.37933
1151.18	0.073898
1154.08	0.0681
1156.97	0.177391
1159.86	0.45546
1162.75	0.438004
1165.65	0.384678
1168.54	0.114693
1171.43	0.657871
1174.32	0.96347
1177.22	1.46698
1180.11	1.05891
1183	1.46253
1185.89	1.25651
1188.79	1.18164
1191.68	1.10498
1194.57	0.824245
1197.47	1.20851
1200.36	1.36452
1203.25	1.32439
1206.14	1.20831
1209.04	1.34743
1211.93	1.29674
1214.82	1.52
1217.71	0.930725
1220.61	0.958897
1223.5	0.954689
1226.39	0.660511
1229.29	0.604031
1232.18	0.992355
1235.07	0.860744
1237.96	0.17487
1240.86	0.431625
1243.75	0.539902
1246.64	0.259743
1249.53	0.722275
1252.43	0.684158
1255.32	0.166801
1258.21	0.567989
1261.11	0.360561
1264	0.88438
1266.89	0.669189
1269.78	1.30367
1272.68	1.29501
1275.57	0.912422
1278.46	0.782478
1281.35	0.754425
1284.25	0.164249
1287.14	0.964024
1290.03	0.613274
1292.92	0.84782
1295.82	0.796417
1298.71	1.24702
1301.6	0.372303
