Measurement: Raman, 780 nm, unoriented, Raman Data Processed
Mineral: Schoepite
Rruff sample: R080082
Ideal chemistry: (UO_2_)_8_O_2_(OH)_12_12H_2_O
Locality: Musonoi Mine, Kolwezi, Western area, Katanga Copper Zone, Katanga (Shaba), Congo (Za√Øre)
Source: Michael Scott
Description: Aggregates of bright yellow micro crystals
Raman shift (cm-1)	intensity
149.895	0
152.788	0.90567
155.681	7.89798
158.573	12.5292
161.466	10.9337
164.359	11.6364
167.251	16.1299
170.144	19.7421
173.037	24.644
175.93	29.005
178.822	39.6649
181.715	48.6286
184.608	51.5416
187.5	48.7894
190.393	42.9232
193.286	32.8891
196.179	22.7431
199.071	13.6785
201.964	6.71484
204.857	0.586853
207.749	4.20129
210.642	3.16612
213.535	0.60199
216.427	3.0869
219.32	7.11534
222.213	11.828
225.106	14.2548
227.998	21.6844
230.891	31.7805
233.784	40.6243
236.676	52.619
239.569	59.2257
242.462	65.8096
245.354	72.5477
248.247	71.601
251.14	67.0951
254.032	57.2621
256.925	49.994
259.818	44.2553
262.711	39.3979
265.603	35.3414
268.496	31.7042
271.389	25.4545
274.281	20.0263
277.174	12.8256
280.067	8.18283
282.959	5.10562
285.852	3.77039
288.745	3.6553
291.638	4.63802
294.53	8.48882
297.423	8.60652
300.316	10.8536
303.208	11.0507
306.101	9.2171
308.994	9.40742
311.887	10.7688
314.779	12.1375
317.672	13.0877
320.565	15.9358
323.457	15.7174
326.35	17.3804
329.243	16.3304
332.135	18.0469
335.028	17.567
337.921	17.8474
340.813	16.7406
343.706	14.1469
346.599	10.7509
349.492	9.24457
352.384	4.97743
355.277	3.25326
358.17	1.10594
361.062	0.320068
363.955	2.35783
366.848	1.84062
369.74	0.344299
372.633	0.597626
375.526	0.322403
378.419	3.14748
381.311	8.31761
384.204	13.3436
387.097	19.3794
389.989	25.2529
392.882	30.6156
395.775	36.0821
398.668	40.6837
401.56	43.3404
404.453	45.5005
407.346	39.5814
410.238	34.4033
413.131	29.731
416.024	24.2181
418.916	18.6328
421.809	12.4516
424.702	8.0666
427.594	3.94011
430.487	2.14064
433.38	0.73082
436.273	0.173859
439.165	2.09297
442.058	3.36952
444.951	7.09405
447.843	7.43778
450.736	8.37715
453.629	9.17447
456.522	9.65797
459.414	11.8033
462.307	11.0637
465.2	9.79172
468.092	8.00012
470.985	6.58272
473.878	5.60588
476.77	2.84056
479.663	1.97107
482.556	1.12349
485.449	1.81059
488.341	0.794495
491.234	1.4776
494.127	1.50233
497.019	2.41814
499.912	2.39221
502.805	5.0226
505.697	6.48671
508.59	7.02541
511.483	9.61693
514.375	12.3845
517.268	13.0471
520.161	16.8864
523.054	18.5895
525.946	21.4542
528.839	27.4414
531.732	31.974
534.624	36.0632
537.517	39.0091
540.41	42.461
543.303	42.9513
546.195	42.6513
549.088	40.75
551.981	36.3276
554.873	32.4141
557.766	29.1129
560.659	23.5992
563.551	19.7836
566.444	13.9326
569.337	11.6694
572.23	9.24447
575.122	5.0322
578.015	2.55441
580.908	1.61858
583.8	0.312508
586.693	0.629631
589.586	0.189323
592.478	0.866982
595.371	1.15662
598.264	0.577965
601.156	0.401871
604.049	0.568665
606.942	0.994064
609.835	0.730576
612.727	0.693329
615.62	2.22042
618.513	2.58127
621.405	2.97494
624.298	2.47089
627.191	2.79719
630.083	4.59929
632.976	3.81659
635.869	4.28347
638.761	4.81548
641.654	5.04598
644.547	5.61443
647.44	5.08627
650.332	5.59771
653.225	5.21098
656.118	4.97569
659.01	4.47379
661.903	3.9587
664.796	4.26791
667.688	4.89198
670.581	5.21964
673.474	4.14589
676.367	3.83105
679.259	4.34264
682.152	4.61056
685.045	3.74261
687.937	3.23305
690.83	3.63734
693.723	4.89281
696.615	3.70371
699.508	3.90437
702.401	2.57008
705.294	3.60339
708.186	3.2128
711.079	3.72623
713.972	1.78815
716.864	2.35108
719.757	0.963768
722.65	1.34992
725.543	1.95441
728.435	0.319061
731.328	0.624718
734.221	0.856224
737.113	0.682365
740.006	0.042343
742.899	0.087608
745.791	0.411682
748.684	0.645325
751.577	0.498177
754.47	0.470375
757.362	0.413841
760.255	0.069656
763.148	0.349861
766.04	0.167633
768.933	0.240623
771.826	0.826752
774.718	1.90521
777.611	2.76811
780.504	5.42596
783.396	7.50671
786.289	11.3333
789.182	12.4097
792.075	16.4383
794.967	21.2645
797.86	27.7794
800.753	33.8624
803.645	41.9795
806.538	47.0776
809.431	54.6608
812.323	62.9016
815.216	72.7642
818.109	82.0708
821.002	94.1928
823.894	111.511
826.787	136.101
829.68	164.64
832.572	191.343
835.465	227.148
838.358	262.34
841.25	275.5
844.143	233.804
847.036	184.33
849.929	174.959
852.821	188.002
855.714	173.575
858.607	120.45
861.5	60.8834
864.392	30.9796
867.285	16.9302
870.178	13.1905
873.07	12.298
875.963	12.4401
878.856	12.4964
881.748	15.7662
884.641	27.1547
887.534	26.5839
890.427	4.79015
893.319	1.3425
896.212	1.49216
899.105	0.918236
901.997	0.681091
904.89	0.482903
907.783	0.598358
910.675	0.480324
913.568	0.902374
916.461	0.110107
919.353	1.06022
922.246	0.224449
925.139	0.660721
928.032	0.54364
930.924	0.110428
933.817	0.270973
936.71	0.206596
939.602	0.874252
942.495	2.21706
945.388	1.04871
948.28	1.58882
951.173	0.302429
954.066	1.79736
956.958	1.08592
959.851	1.38325
962.744	1.66695
965.637	2.11386
968.529	2.17432
971.422	1.66828
974.315	1.9729
977.207	2.24342
980.1	1.66658
982.993	1.09029
985.885	1.86855
988.778	1.77402
991.671	1.26907
994.564	1.94777
997.456	2.4006
1000.35	2.36108
1003.24	2.08721
1006.13	1.88115
1009.03	1.15819
1011.92	2.14498
1014.81	1.52264
1017.71	1.20718
1020.6	1.40624
1023.49	0.334686
1026.38	1.27713
1029.28	1.23386
1032.17	1.13404
1035.06	0.231064
1037.95	1.12247
1040.85	2.06809
1043.74	1.76724
1046.63	0.707352
1049.53	0.792892
1052.42	1.22646
1055.31	0.753654
1058.2	0.914154
1061.1	0.918991
1063.99	1.5032
1066.88	0.979675
1069.77	0.425156
1072.67	0.035599
1075.56	1.18452
1078.45	0.70285
1081.35	0.425652
1084.24	0.864845
1087.13	0.61618
1090.02	0.399178
1092.91	0.322121
1095.81	0.25045
1098.7	0.06356
1101.59	0.012421
1104.49	0.124992
1107.38	0.451012
1110.27	0.969299
1113.16	1.24139
1116.06	3.9722
1118.95	5.08719
1121.84	1.3232
1124.73	0.230621
1127.63	0.259346
1130.52	0.410034
1133.41	0.744827
1136.31	0.004013
1139.2	0.436668
1142.09	0.111656
1144.98	0.210472
1147.88	0.767723
1150.77	1.97553
1153.66	0.231529
1156.56	0.138222
1159.45	0.959175
1162.34	0.262161
1165.23	0.299164
1168.13	0.84803
1171.02	2.68659
1173.91	0.746876
1176.8	1.20768
1179.7	0.754505
1182.59	1.12652
1185.48	1.38119
1188.38	1.11102
1191.27	1.64248
1194.16	0.343967
1197.05	0.848206
1199.94	1.3623
1202.84	0.866821
1205.73	0.755287
1208.62	1.24415
1211.52	2.46975
1214.41	1.20312
1217.3	0.633083
1220.19	0.998539
1223.09	0.473812
1225.98	0.92897
1228.87	1.31025
1231.77	0.422138
1234.66	1.41429
1237.55	0.872604
1240.44	0.210674
1243.34	0.921379
1246.23	0.732201
1249.12	0.288578
1252.01	0.811958
1254.91	0.675068
1257.8	1.16614
1260.69	0.717979
1263.59	0.403366
1266.48	1.365
1269.37	0.114124
1272.26	0.580898
1275.16	1.01756
1278.05	0.435219
1280.94	0.495445
