Measurement: Raman, 532 nm, unoriented, Raman Data Processed
Mineral: Scholzite
Rruff sample: R080068
Ideal chemistry: CaZn_2_(PO_4_)_2_2H_2_O
Locality: Tip Top mine, Custer Country, South Dakota, USA
Source: Tom Loomis
Description: Parallel aggregate of colorless bladed crystals, associated with jahnsite, R080072
Raman shift (cm-1)	intensity
142.976	0
146.351	13.3244
149.725	53.4689
153.1	103.327
156.475	135.884
159.85	146.805
163.225	163.988
166.6	136.036
169.974	91.2455
173.349	51.3403
176.724	25.4055
180.099	15.1131
183.474	5.29864
186.848	0.485809
190.223	3.25549
193.598	7.3446
196.973	8.12689
200.348	5.11865
203.722	5.34403
207.097	18.7606
210.472	42.5525
213.847	69.4731
217.222	110.264
220.596	160.858
223.971	202.1
227.346	234.004
230.721	273.706
234.096	326.843
237.471	346.677
240.845	301.333
244.22	222.798
247.595	164.713
250.97	131.109
254.345	111.696
257.719	107.132
261.094	117.712
264.469	138.591
267.844	174.796
271.219	216.052
274.594	226.65
277.968	241.861
281.343	258.151
284.718	265.797
288.093	253.117
291.468	223.58
294.842	191.649
298.217	179.492
301.592	180.341
304.967	184.766
308.342	184.018
311.717	170.953
315.091	145.516
318.466	118.408
321.841	98.197
325.216	84.6723
328.591	73.7356
331.966	65.838
335.34	58.1735
338.715	43.669
342.09	30.3573
345.465	16.8928
348.84	7.51105
352.214	5.89654
355.589	3.50595
358.964	6.4863
362.339	5.17718
365.714	6.26892
369.089	2.50607
372.463	0.64917
375.838	0.790436
379.213	5.5805
382.588	9.45551
385.963	17.301
389.337	22.4453
392.712	36.8841
396.087	55.7741
399.462	79.775
402.837	103.443
406.212	134.362
409.586	152.552
412.961	139.371
416.336	99.596
419.711	68.6858
423.086	46.6256
426.46	30.4252
429.835	21.5018
433.21	18.918
436.585	14.4724
439.96	6.95108
443.334	3.86008
446.709	4.17407
450.084	0.680786
453.459	4.35956
456.834	4.47284
460.209	2.91928
463.583	5.09834
466.958	6.30692
470.333	5.98025
473.708	8.06772
477.083	12.7683
480.457	12.8545
483.832	9.97147
487.207	6.29306
490.582	3.05618
493.957	1.11118
497.332	0.948059
500.706	0.28299
504.081	0.442078
507.456	2.31268
510.831	1.31909
514.206	0.058044
517.58	1.34262
520.955	1.47479
524.33	0.822235
527.705	2.68762
531.08	11.9062
534.455	29.5852
537.829	56.6722
541.204	98.2455
544.579	153.981
547.954	223.624
551.329	286.69
554.703	244.958
558.078	119.757
561.453	58.7453
564.828	30.2836
568.203	16.0922
571.577	9.52271
574.952	11.2799
578.327	10.5313
581.702	20.4328
585.077	24.0928
588.452	30.0778
591.826	38.6374
595.201	45.7598
598.576	49.7031
601.951	50.4291
605.326	46.5808
608.7	42.5662
612.075	34.9365
615.45	21.3612
618.825	14.631
622.2	12.0728
625.574	9.87524
628.949	12.7449
632.324	13.9564
635.699	9.48584
639.074	6.16138
642.449	3.10962
645.823	3.49853
649.198	8.50049
652.573	12.4412
655.948	22.9
659.323	32.5911
662.697	40.2365
666.072	37.2352
669.447	21.6595
672.822	10.5511
676.197	4.30689
679.572	0.840271
682.946	1.80634
686.321	0.264709
689.696	2.18176
693.071	0.328186
696.446	1.33429
699.821	1.52448
703.195	3.46588
706.57	0.863586
709.945	1.08978
713.32	3.56757
716.695	3.4082
720.069	4.23157
723.444	4.35883
726.819	5.21191
730.194	6.77704
733.569	3.09644
736.943	5.2298
740.318	4.93762
743.693	4.95007
747.068	6.66589
750.443	0.412231
753.818	3.38592
757.192	1.7699
760.567	1.14356
763.942	3.73438
767.317	2.46594
770.692	3.8714
774.067	4.25049
777.441	0.032898
780.816	3.05505
784.191	3.29553
787.566	6.74451
790.941	3.90155
794.315	6.2959
797.69	6.57831
801.065	6.15088
804.44	6.96967
807.815	6.80878
811.189	7.30804
814.564	5.49097
817.939	7.2915
821.314	6.97846
824.689	9.28186
828.063	9.94141
831.438	7.20093
834.813	10.1909
838.188	6.67676
841.563	10.6215
844.938	9.26752
848.312	5.25964
851.687	7.96155
855.062	7.85364
858.437	5.83844
861.812	4.46289
865.187	2.45068
868.561	3.28961
871.936	4.54559
875.311	1.04126
878.686	0.08844
882.061	2.59705
885.435	0.959595
888.81	1.72644
892.185	0.150635
895.56	0.023499
898.935	3.03558
902.309	8.77649
905.684	13.4217
909.059	25.0298
912.434	47.2018
915.809	81.068
919.184	125.473
922.558	159.077
925.933	149.91
929.308	108.162
932.683	67.2738
936.058	38.2996
939.433	18.4487
942.807	7.2074
946.182	1.0033
949.557	2.48212
952.932	0.002014
956.307	4.49567
959.681	11.4861
963.056	26.0585
966.431	29.6926
969.806	35.3092
973.181	60.5151
976.556	94.0572
979.93	164.047
983.305	278.006
986.68	477.347
990.055	747.216
993.43	1042.62
996.804	1314.44
1000.18	1464.73
1003.55	1261.44
1006.93	780.84
1010.3	390.576
1013.68	198.042
1017.05	119.675
1020.43	89.3089
1023.8	84.3637
1027.18	54.8235
1030.55	17.5884
1033.93	0.528503
1037.3	1.91596
1040.68	2.18805
1044.05	0.242004
1047.43	7.64844
1050.8	20.9664
1054.18	41.3944
1057.55	50.4438
1060.93	46.3386
1064.3	54.7482
1067.68	62.1782
1071.05	75.6063
1074.42	83.3347
1077.8	98.9866
1081.17	126.936
1084.55	153.809
1087.92	171.807
1091.3	166.68
1094.67	135.023
1098.05	95.1707
1101.42	68.1143
1104.8	58.1402
1108.17	55.2887
1111.55	74.5233
1114.92	94.7537
1118.3	66.4896
1121.67	30.6631
1125.05	13.3641
1128.42	6.62701
1131.8	7.04456
1135.17	3.72888
1138.55	1.84656
1141.92	3.16852
1145.3	0.218018
1148.67	1.31348
1152.05	0.329895
1155.42	7.2052
1158.8	15.8256
1162.17	31.9337
1165.55	50.5234
1168.92	66.6372
1172.3	70.0474
1175.67	47.5351
1179.04	25.3898
1182.42	13.7914
1185.79	8.19574
1189.17	9.76361
1192.54	6.66132
1195.92	5.71875
1199.29	1.98511
1202.67	1.2608
1206.04	1.17505
1209.42	1.44556
1212.79	1.5517
1216.17	2.13525
1219.54	0.919128
1222.92	3.9837
1226.29	2.73462
1229.67	4.25324
1233.04	6.58014
1236.42	4.33594
1239.79	0.689148
1243.17	0.138428
1246.54	3.68121
1249.92	4.05737
1253.29	3.49249
1256.66	2.91553
1260.04	3.78333
1263.41	3.72913
1266.79	4.48572
1270.16	3.53918
1273.54	2.30994
1276.91	3.08099
1280.29	1.95099
1283.66	3.79114
1287.04	3.7384
1290.41	4.94928
1293.79	3.80249
1297.16	0.545227
1300.54	2.62427
1303.91	2.81531
