Measurement: Raman, 780 nm, unoriented, Raman Data Processed
Mineral: Scholzite
Rruff sample: R080068
Ideal chemistry: CaZn_2_(PO_4_)_2_2H_2_O
Locality: Tip Top mine, Custer Country, South Dakota, USA
Source: Tom Loomis
Description: Parallel aggregate of colorless bladed crystals, associated with jahnsite, R080072
Raman shift (cm-1)	intensity
143.628	0
146.52	3.47134
149.413	18.7634
152.306	35.3715
155.199	48.1122
158.091	44.4431
160.984	45.1732
163.877	48.6521
166.769	38.5418
169.662	26.5237
172.555	19.2181
175.447	16.0507
178.34	10.1062
181.233	7.46358
184.126	4.40572
187.018	3.28529
189.911	1.65573
192.804	0.709366
195.696	1.03954
198.589	4.03935
201.482	2.64514
204.375	0.810272
207.267	1.38483
210.16	4.92738
213.053	11.5644
215.945	19.4875
218.838	29.3149
221.731	38.2294
224.623	42.285
227.516	44.4424
230.409	46.6711
233.302	52.7344
236.194	55.624
239.087	52.9316
241.98	45.2234
244.872	36.7119
247.765	30.0499
250.658	26.9616
253.55	25.3367
256.443	24.4273
259.336	26.6012
262.228	30.9938
265.121	37.8734
268.014	46.5651
270.907	52.6576
273.799	56.3028
276.692	57.2227
279.585	60.1258
282.477	62.2863
285.37	62.0875
288.263	59.6979
291.156	54.8868
294.048	48.7902
296.941	44.0435
299.834	42.6146
302.726	42.1054
305.619	42.9241
308.512	42.6957
311.404	42.493
314.297	39.2343
317.19	37.2428
320.082	34.1137
322.975	32.361
325.868	29.5242
328.761	28.1421
331.653	26.4586
334.546	22.0427
337.439	18.8168
340.331	13.7526
343.224	8.82222
346.117	5.57547
349.01	1.50778
351.902	0.474777
354.795	1.7041
357.688	1.73787
360.58	0.504501
363.473	0.122406
366.366	0.657562
369.258	0.15303
372.151	1.83577
375.044	0.482758
377.937	0.257996
380.829	3.30293
383.722	3.13562
386.615	6.35178
389.507	13.2207
392.4	21.2476
395.293	31.5756
398.185	43.9527
401.078	61.4874
403.971	80.7848
406.863	101.26
409.756	110.271
412.649	100.537
415.542	69.4203
418.434	43.9764
421.327	27.9085
424.22	18.4303
427.112	12.0034
430.005	10.2407
432.898	7.29099
435.791	6.42296
438.683	6.93544
441.576	3.58006
444.469	4.23514
447.361	1.64719
450.254	0.932465
453.147	1.02872
456.039	0.625473
458.932	0.394882
461.825	0.26413
464.717	0.444229
467.61	0.284088
470.503	0.154541
473.396	0.267456
476.288	0.560242
479.181	0.482834
482.074	1.95619
484.966	0.98761
487.859	0.867905
490.752	0.427658
493.644	0.756119
496.537	1.04257
499.43	1.2576
502.323	0.011963
505.215	2.43372
508.108	2.05308
511.001	2.46001
513.893	2.94096
516.786	3.64819
519.679	4.34952
522.572	3.74211
525.464	3.72984
528.357	7.98866
531.25	12.0297
534.142	19.7738
537.035	35.1662
539.928	52.5506
542.82	77.9434
545.713	112.698
548.606	158.079
551.499	198.102
554.391	171.617
557.284	94.951
560.177	47.7355
563.069	24.7758
565.962	12.5338
568.855	6.35262
571.747	3.24159
574.64	0.774826
577.533	1.73268
580.426	2.11116
583.318	2.79987
586.211	4.45644
589.104	6.73593
591.996	9.33865
594.889	10.9601
597.782	12.7932
600.674	13.4849
603.567	13.7225
606.46	11.6277
609.352	9.36821
612.245	7.00131
615.138	4.57245
618.03	2.65244
620.923	1.4641
623.816	1.04224
626.709	2.56323
629.601	3.50641
632.494	3.18521
635.387	2.09084
638.279	1.26515
641.172	0.818863
644.065	0.025024
646.957	1.8851
649.85	3.28664
652.743	6.03902
655.636	8.69519
658.528	12.8847
661.421	17.2852
664.314	16.7025
667.206	15.357
670.099	8.98395
672.992	4.82642
675.885	1.99564
678.777	0.388214
681.67	0.075806
684.563	0.339783
687.455	1.38982
690.348	1.26269
693.241	0.125214
696.133	0.405121
699.026	0.433502
701.919	0.524536
704.812	0.646042
707.704	1.33879
710.597	1.67133
713.49	2.90343
716.382	2.64015
719.275	2.14481
722.168	3.14829
725.06	2.36912
727.953	2.91745
730.846	3.22479
733.739	3.72989
736.631	4.3154
739.524	3.60889
742.417	3.21497
745.309	3.27327
748.202	2.9028
751.095	2.29337
753.987	1.55103
756.88	2.77713
759.773	2.05667
762.665	1.42868
765.558	2.17481
768.451	2.23344
771.344	2.30467
774.236	1.05977
777.129	1.06644
780.022	1.16905
782.914	0.852661
785.807	1.84891
788.7	1.25285
791.592	0.142181
794.485	0.655884
797.378	0.983368
800.271	1.08171
803.163	0.766968
806.056	0.832611
808.949	1.04518
811.841	0.8965
814.734	1.21762
817.627	1.61494
820.519	1.13017
823.412	2.09303
826.305	1.35474
829.198	1.52854
832.09	0.678421
834.983	1.92269
837.876	2.99727
840.768	2.23898
843.661	3.07153
846.554	2.1847
849.447	1.68827
852.339	3.30246
855.232	1.45039
858.125	2.37613
861.017	1.74839
863.91	2.38628
866.803	1.30848
869.695	1.82168
872.588	2.06911
875.481	0.467415
878.374	0.075722
881.266	0.586075
884.159	0.844337
887.052	0.387596
889.944	0.211662
892.837	0.836037
895.73	0.640831
898.622	0.304863
901.515	1.16647
904.408	2.021
907.301	5.4141
910.193	9.40569
913.086	15.0363
915.979	25.561
918.871	37.1517
921.764	49.6748
924.657	51.466
927.549	42.8579
930.442	30.3406
933.335	20.2195
936.227	12.9294
939.12	7.52298
942.013	4.42635
944.906	2.20997
947.798	0.829704
950.691	0.166687
953.584	0.536682
956.476	2.18845
959.369	6.15744
962.262	12.7814
965.154	16.1195
968.047	12.076
970.94	11.9965
973.833	18.4269
976.725	28.3996
979.618	41.994
982.511	67.655
985.403	109.223
988.296	165.215
991.189	237.587
994.082	311.985
996.974	384.407
999.867	431.881
1002.76	396.704
1005.65	284.136
1008.54	165.454
1011.44	89.0548
1014.33	48.5992
1017.22	30.3316
1020.12	23.7915
1023.01	21.7213
1025.9	17.4872
1028.79	8.86653
1031.69	2.49748
1034.58	1.15961
1037.47	0.941605
1040.37	1.34215
1043.26	0.689041
1046.15	1.36464
1049.04	2.69426
1051.94	6.68544
1054.83	12.3778
1057.72	13.6153
1060.61	14.0299
1063.51	15.5868
1066.4	18.323
1069.29	22.3676
1072.18	24.0853
1075.08	27.6273
1077.97	31.5122
1080.86	37.8107
1083.76	44.8648
1086.65	51.6611
1089.54	51.9008
1092.43	46.2572
1095.33	37.9055
1098.22	29.8682
1101.11	22.2895
1104	17.9732
1106.9	15.9337
1109.79	19.9573
1112.68	25.9728
1115.58	28.097
1118.47	19.001
1121.36	8.97315
1124.25	3.44244
1127.15	1.0423
1130.04	1.81349
1132.93	0.33905
1135.82	2.14339
1138.72	1.63802
1141.61	1.99907
1144.5	0.823349
1147.39	0.235443
1150.29	0.055847
1153.18	1.28272
1156.07	0.148499
1158.96	1.97316
1161.86	4.52339
1164.75	7.92548
1167.64	12.2311
1170.54	15.0724
1173.43	14.3238
1176.32	9.25679
1179.21	4.85965
1182.11	4.47656
1185	3.21347
1187.89	4.0128
1190.79	4.03749
1193.68	3.62958
1196.57	2.3266
1199.46	2.44806
1202.36	1.23999
1205.25	1.61763
1208.14	2.42009
1211.03	2.11061
1213.93	1.01546
1216.82	0.966309
1219.71	1.00314
1222.61	0.320541
1225.5	0.452087
1228.39	1.5654
1231.28	1.58533
1234.18	0.741974
