Measurement: Raman, 532 nm, unoriented, Raman Data Processed
Mineral: Schorl
Rruff sample: R050304
Ideal chemistry: NaFe^2+^_3_Al_6_(Si_6_O_18_)(BO_3_)_3_(OH)_3_OH
Locality: Erongo Mountains, Namibia
Source: Eugene Schlepp
Description: Black prismatic crystal associated with quartz and orthoclase
Measured chemistry: (Na_0.86_[box]_0.14_)_Σ=1_(Fe^2+^_2.68_Mg_0.22_Al_0.06_Ti_0.04_)_Σ=3_Al_6.00_(BO_3_)_3_Si_6.00_O_18_(OH)_4_
Raman shift (cm-1)	intensity
146.351	0
149.725	0.220322
153.1	1.12894
156.475	1.16965
159.85	1.2227
163.225	1.33418
166.6	0.146492
169.974	0.152725
173.349	0.583214
176.724	3.90079
180.099	10.0972
183.474	14.693
186.848	20.8351
190.223	26.0332
193.598	31.6616
196.973	32.7149
200.348	34.4543
203.722	29.3229
207.097	31.3572
210.472	40.8017
213.847	57.7122
217.222	81.2535
220.597	108.812
223.971	135.611
227.346	150.44
230.721	164.362
234.096	174.895
237.471	175.18
240.845	164.439
244.22	135.839
247.595	103.884
250.97	79.0082
254.345	57.3136
257.719	38.1454
261.094	26.1619
264.469	19.3896
267.844	15.5919
271.219	11.5211
274.594	10.9833
277.968	8.66932
281.343	7.56822
284.718	7.17442
288.093	3.80634
291.468	1.81763
294.842	0.55851
298.217	0.683952
301.592	0.557014
304.967	4.07765
308.342	6.21888
311.717	5.77464
315.091	3.42891
318.466	1.87259
321.841	2.72749
325.216	0.7789
328.591	4.29584
331.966	10.4531
335.34	20.5235
338.715	32.4689
342.09	48.143
345.465	70.5942
348.84	103.143
352.214	136.948
355.589	176.19
358.964	220.443
362.339	250.737
365.714	240.27
369.089	191.594
372.463	139.597
375.838	100.503
379.213	71.8413
382.588	55.7394
385.963	46.3966
389.337	41.9092
392.712	41.5862
396.087	44.4323
399.462	47.4571
402.837	49.7304
406.212	48.1902
409.586	40.0668
412.961	29.0786
416.336	19.8132
419.711	12.3153
423.086	6.3447
426.46	4.05151
429.835	1.26663
433.21	0.737404
436.585	1.62743
439.96	1.35204
443.334	0.954735
446.709	1.33802
450.084	0.346672
453.459	1.15668
456.834	1.43407
460.209	0.144058
463.583	0.322441
466.958	3.75046
470.333	6.87871
473.708	10.5928
477.083	13.9388
480.457	16.4196
483.832	18.5012
487.207	18.3349
490.582	15.6773
493.957	13.0373
497.332	9.56169
500.706	7.97575
504.081	6.94655
507.456	4.61517
510.831	3.66303
514.206	2.67995
517.58	2.24812
520.955	2.15812
524.33	2.21047
527.705	3.27295
531.08	3.84798
534.455	4.3456
537.829	4.3075
541.204	3.82839
544.579	3.28307
547.954	2.50273
551.329	3.20266
554.703	1.96611
558.078	1.42621
561.453	0.632748
564.828	0.886299
568.203	0.996365
571.577	0.29126
574.952	0.833534
578.327	0.018478
581.702	0.550888
585.077	1.43337
588.452	0.825947
591.826	0.349621
595.201	0.323631
598.576	2.04839
601.951	3.86192
605.326	6.79911
608.701	14.4096
612.075	24.1222
615.45	37.8494
618.825	55.0291
622.2	77.7226
625.575	98.7648
628.949	106.737
632.324	102.447
635.699	92.5348
639.074	79.9267
642.449	68.2767
645.823	59.8445
649.198	57.3779
652.573	60.1198
655.948	67.3182
659.323	76.2722
662.698	87.9438
666.072	94.4251
669.447	89.8868
672.822	78.2179
676.197	67.4888
679.572	62.4561
682.947	66.2909
686.321	76.5519
689.696	89.1955
693.071	99.9304
696.446	95.1133
699.821	70.5859
703.195	39.27
706.57	19.4214
709.945	8.46573
713.32	1.97128
716.695	0.638016
720.069	1.52044
723.444	2.03875
726.819	0.993
730.194	1.8333
733.569	5.03142
736.943	9.70751
740.318	15.5559
743.693	20.3003
747.068	24.909
750.443	27.0421
753.818	31.1139
757.192	33.6846
760.567	36.632
763.942	39.929
767.317	38.5968
770.692	36.4324
774.067	33.7087
777.441	29.2903
780.816	27.3554
784.191	24.4646
787.566	22.855
790.941	18.8246
794.315	18.3197
797.69	15.3441
801.065	13.1753
804.44	12.0955
807.815	9.03881
811.189	6.6009
814.564	2.90494
817.939	1.79547
821.314	0.225445
824.689	0.52356
828.064	0.343941
831.438	0.605785
834.813	0.232113
838.188	0.9217
841.563	0.562817
844.938	0.632687
848.312	1.02942
851.687	0.830822
855.062	1.90694
858.437	1.91041
861.812	2.64143
865.187	2.97756
868.561	2.33094
871.936	2.73513
875.311	2.38342
878.686	2.53971
882.061	2.48468
885.436	1.84399
888.81	2.26866
892.185	1.23896
895.56	0.735363
898.935	0.318855
902.31	0.132248
905.684	0.294056
909.059	0.135567
912.434	0.258965
915.809	1.16081
919.184	0.483028
922.558	0.057957
925.933	0.013748
929.308	0.37635
932.683	0.044193
936.058	1.27185
939.433	3.09677
942.807	4.43504
946.182	6.33847
949.557	9.26763
952.932	11.0135
956.307	11.6197
959.682	11.2133
963.056	9.5453
966.431	8.9733
969.806	8.37842
973.181	6.91415
976.556	5.98485
979.93	5.45087
983.305	6.75846
986.68	7.1925
990.055	9.76299
993.43	11.2136
996.804	14.1553
1000.18	18.6485
1003.55	22.8362
1006.93	28.5212
1010.3	33.7466
1013.68	39.2478
1017.05	41.4163
1020.43	40.8464
1023.8	38.7999
1027.18	35.6889
1030.55	35.6772
1033.93	37.3263
1037.3	42.6769
1040.68	47.4805
1044.05	53.4481
1047.43	56.5373
1050.8	54.7716
1054.18	50.5068
1057.55	43.5774
1060.93	34.5274
1064.3	25.4017
1067.68	18.2327
1071.05	10.8871
1074.42	7.08201
1077.8	3.92239
1081.17	2.09031
1084.55	0.847908
1087.92	0.016022
1091.3	0.750111
1094.67	0.502602
1098.05	0.543987
1101.42	0.750748
1104.8	0.332516
1108.17	0.274143
1111.55	0.404461
1114.92	0.084145
1118.3	0.801765
1121.67	0.075336
1125.05	0.666325
1128.42	0.435478
1131.8	0.500557
1135.17	0.815735
1138.55	0.443096
1141.92	1.43057
1145.3	0.955547
1148.67	1.30346
1152.05	1.61012
1155.42	1.6408
1158.8	2.5516
1162.17	2.52982
1165.55	2.68793
1168.92	2.57921
1172.3	2.75181
1175.67	2.98681
1179.05	3.03009
1182.42	1.86879
1185.79	2.01874
1189.17	1.78952
1192.54	2.07293
1195.92	1.61536
1199.29	1.22359
1202.67	0.885235
1206.04	1.13974
1209.42	1.52305
1212.79	0.914671
1216.17	1.69594
1219.54	1.39115
1222.92	1.19791
1226.29	0.938063
1229.67	1.32841
1233.04	1.57865
1236.42	2.14706
1239.79	1.74587
1243.17	1.74908
1246.54	1.71684
1249.92	2.15101
1253.29	1.78481
1256.66	1.84636
1260.04	1.49198
1263.41	1.22936
1266.79	0.730862
1270.16	0.905155
1273.54	0.261406
1276.91	0.708488
1280.29	0.71896
1283.66	0.408199
1287.04	0.481018
1290.41	0.726742
1293.79	0.047928
1297.16	0.385525
1300.54	0.319851
1303.91	0.240677
