Measurement: Raman, 514 nm, unoriented, Raman Data Processed
Mineral: Schorl
Rruff sample: R050304
Ideal chemistry: NaFe^2+^_3_Al_6_(Si_6_O_18_)(BO_3_)_3_(OH)_3_OH
Locality: Erongo Mountains, Namibia
Source: Eugene Schlepp
Description: Black prismatic crystal associated with quartz and orthoclase
Measured chemistry: (Na_0.86_[box]_0.14_)_Σ=1_(Fe^2+^_2.68_Mg_0.22_Al_0.06_Ti_0.04_)_Σ=3_Al_6.00_(BO_3_)_3_Si_6.00_O_18_(OH)_4_
Raman shift (cm-1)	intensity
125.369	0
129.534	170.795
133.696	21.383
137.857	243.024
142.016	228.021
146.172	313.522
150.327	226.53
154.48	522.44
158.63	458.353
162.779	550.677
166.926	415.714
171.07	273.437
175.213	343.082
179.354	744.477
183.493	1410.28
187.63	2549.98
191.765	3691.25
195.898	4475.94
200.029	4449.02
204.158	3530.38
208.285	3379.57
212.41	3824.95
216.533	6278.84
220.654	9706.02
224.773	13310.8
228.891	16069.3
233.006	18586.7
237.119	20343.9
241.231	19405.9
245.34	16244.8
249.448	12773.6
253.553	9768.65
257.657	7232.86
261.758	5334.68
265.858	4226.53
269.956	3440.42
274.052	3235.85
278.146	3243.35
282.237	3171.69
286.327	2854.5
290.416	2584.95
294.502	2216.89
298.586	1825.01
302.668	1828.6
306.749	2353.23
310.827	2488.7
314.903	2291.62
318.978	1146.71
323.051	727.73
327.121	701.28
331.19	1160.85
335.257	1919.65
339.322	2725.79
343.385	3956.17
347.446	5767.72
351.505	9130.36
355.563	14583
359.618	22397.7
363.672	28213.3
367.723	25499.5
371.773	18786.8
375.821	12925.7
379.866	8739.89
383.91	6685.74
387.952	5723.52
391.992	5177.36
396.031	5417.4
400.067	6106.66
404.101	6667.08
408.134	6072.51
412.165	5008.32
416.193	3591.06
420.22	2551.09
424.245	1732.26
428.268	1345.21
432.289	1001.42
436.309	1076.82
440.326	1107.39
444.342	969.083
448.355	793.899
452.367	466.89
456.377	338.297
460.385	91.249
464.391	212.68
468.395	365.488
472.398	607.627
476.398	1122.05
480.397	1501.73
484.394	1726.62
488.389	1835.69
492.382	1553.92
496.373	1226.27
500.362	948.731
504.349	538.284
508.335	372.988
512.319	260.933
516.3	159.052
520.28	65.196
524.259	22.438
528.235	36.066
532.209	63.87
536.182	7.1
540.152	22.075
544.121	56.547
548.088	44.46
552.053	154.909
556.017	118.06
559.978	206.012
563.938	156.043
567.895	148.029
571.851	74.945
575.805	5.261
579.758	31.307
583.708	59.313
587.657	148.347
591.603	226.053
595.548	358.477
599.491	448.611
603.432	660.45
607.372	1135.99
611.309	1703.22
615.245	2788.13
619.179	4754.71
623.111	8285.95
627.041	11802.8
630.97	13558.4
634.896	13019.5
638.821	11436.3
642.744	9837.7
646.665	8484.71
650.584	7862.31
654.502	7810.53
658.418	8795.27
662.331	10529.1
666.244	12467.3
670.154	12783.4
674.062	10629.7
677.969	8627.89
681.874	7646.33
685.777	8691.07
689.678	11348.9
693.577	14410.5
697.475	15022
701.371	10388.5
705.265	6003.89
709.157	3349.12
713.047	2281.28
716.936	1416.69
720.823	1115.48
724.708	838.035
728.591	667.066
732.472	662.546
736.352	656.267
740.23	743.114
744.106	886.066
747.98	1068.9
751.853	1064.82
755.723	1044.21
759.592	1099.28
763.459	1261.04
767.325	1320.48
771.188	1225.61
775.05	1041.44
778.91	917.969
782.768	753.204
786.625	684.147
790.479	605.803
794.332	509.175
798.183	369.269
802.033	313.088
805.88	239.637
809.726	159.922
813.57	119.93
817.413	14.619
821.253	20.231
825.092	7.504
828.929	32.603
832.764	63.105
836.598	21.173
840.429	37.389
844.259	3.719
848.088	3.793
851.914	3.603
855.739	13.247
859.562	20.178
863.383	7.65
867.203	81.942
871.02	90.687
874.836	93.719
878.65	123.966
882.463	96.438
886.274	171.116
890.083	184.982
893.89	213.979
897.695	164.013
901.499	257.987
905.301	332.497
909.102	376.842
912.9	503.674
916.697	688.513
920.492	681.339
924.285	679.125
928.077	666.913
931.867	799.623
935.655	1035.25
939.442	1225.79
943.226	1512.25
947.009	1828.63
950.791	2206.93
954.57	2872.74
958.348	2805.32
962.124	2774.18
965.899	2726.1
969.671	2618.13
973.442	2591.7
977.211	2570.16
980.979	2536.34
984.745	2659.8
988.509	2898.51
992.271	3102.08
996.032	3674.06
999.791	4100.98
1003.55	4769.71
1007.3	5564.41
1011.06	6426.99
1014.81	7283.14
1018.56	7841.11
1022.31	7771.61
1026.06	7083.17
1029.8	6682.66
1033.55	6386.05
1037.29	6751.14
1041.03	7676.58
1044.77	8397.47
1048.5	8942.35
1052.24	8942.04
1055.97	8455.83
1059.7	7462.11
1063.43	6035.78
1067.16	4685.2
1070.89	3598.4
1074.61	2839.34
1078.34	2247.13
1082.06	1770.9
1085.78	1477.17
1089.5	1532.55
1093.21	1693.36
1096.93	921.277
1100.64	855.372
1104.35	765.178
1108.06	627.734
1111.77	540.614
1115.48	521.256
1119.18	429.892
1122.89	608.661
1126.59	298.51
1130.29	242.434
1133.99	83.464
1137.68	183.605
1141.38	114.749
1145.07	28.892
1148.76	95.041
1152.45	80.188
1156.14	57.319
1159.83	28.415
1163.51	34.486
1167.19	34.508
1170.88	23.466
1174.56	11.838
1178.23	12.905
1181.91	51.313
1185.59	25.083
1189.26	47.694
1192.93	37.237
1196.6	7.093
1200.27	50.759
1203.94	42.756
1207.6	0.903
1211.27	40.206
1214.93	10.278
1218.59	10.612
1222.25	4.78
1225.9	80.793
1229.56	54.232
1233.21	84.521
1236.86	5.244
1240.51	108.861
1244.16	42.378
1247.81	136.792
1251.45	135.877
1255.1	97.305
1258.74	183.406
1262.38	204.417
1266.02	144.354
1269.66	171.223
1273.29	219.226
1276.93	176.754
1280.56	168.415
1284.19	137.009
1287.82	136.54
1291.45	207.849
1295.07	179.284
1298.7	226.686
1302.32	219.826
1305.94	202.648
1309.56	259.644
1313.18	266.588
1316.8	292.13
1320.41	323.793
1324.02	355.376
1327.63	362.734
1331.24	305.44
1334.85	369.205
1338.46	337.624
1342.06	387.161
1345.67	718.455
1349.27	324.842
1352.87	405.116
1356.47	462.684
1360.07	550.602
1363.66	544.404
1367.25	517.011
1370.85	474.413
1374.44	514.597
1378.03	545.549
1381.61	515.252
1385.2	507.683
1388.78	469.835
1392.37	421.657
1395.95	383.224
1399.53	374.829
1403.1	302.963
1406.68	330.417
1410.26	265.711
1413.83	188.963
1417.4	215.287
1420.97	146.688
1424.54	71.264
1428.1	64.164
1431.67	47.615
1435.23	33.858
1438.8	71.836
1442.36	65.388
1445.91	51.025
1449.47	89.872
1453.03	77.336
1456.58	37.954
1460.13	5.281
1463.68	63.933
