Measurement: Raman, 780 nm, unoriented, Raman Data Processed
Mineral: Scholzite
Rruff sample: R050238
Ideal chemistry: CaZn_2_(PO_4_)_2_2H_2_O
Locality: near Blinman, South Australia, Australia
Source: Marcus Origlieri
Description: Colorless bladed crystals
Measured chemistry: Ca_1.00_Zn_2.00_(P_1.00_O_4_)_2_Â·2H_2_O
Raman shift (cm-1)	intensity
132.851	0
135.744	1.31377
138.637	5.72542
141.529	8.33437
144.422	14.066
147.315	17.9033
150.208	20.6972
153.1	23.5633
155.993	23.98
158.886	19.498
161.778	21.2107
164.671	19.4248
167.564	14.3511
170.456	9.43328
173.349	5.62506
176.242	2.76632
179.135	2.70071
182.027	1.94809
184.92	0.784729
187.813	0.307014
190.705	1.89323
193.598	0.742409
196.491	0.913368
199.383	0.116463
202.276	3.0433
205.169	4.19679
208.061	7.35019
210.954	9.03346
213.847	12.2236
216.74	16.6054
219.632	19.8032
222.525	22.9898
225.418	23.9924
228.31	23.2625
231.203	24.1181
234.096	24.1774
236.988	23.2149
239.881	20.3001
242.774	17.2007
245.667	15.2963
248.559	14.758
251.452	15.1044
254.345	15.194
257.237	17.6702
260.13	20.3884
263.023	22.7873
265.916	26.3359
268.808	30.3278
271.701	31.4125
274.594	31.7268
277.486	31.0491
280.379	29.3624
283.272	28.9181
286.164	26.5502
289.057	23.1206
291.95	20.2037
294.842	18.5848
297.735	16.4882
300.628	15.3979
303.521	14.8253
306.413	15.0415
309.306	13.8635
312.199	12.2736
315.091	11.1628
317.984	10.0071
320.877	8.63849
323.769	7.2366
326.662	6.6007
329.555	5.44722
332.448	4.35412
335.34	3.73209
338.233	1.92634
341.126	0.988834
344.018	0.344234
346.911	0.000439
349.804	0.24836
352.697	0.381348
355.589	1.10268
358.482	0.652992
361.375	0.328915
364.267	0.212185
367.16	0.468571
370.053	1.67687
372.945	2.27783
375.838	3.96304
378.731	5.9039
381.623	8.39353
384.516	12.1121
387.409	16.2694
390.302	23.9698
393.194	31.5088
396.087	37.5562
398.98	43.1319
401.872	47.2283
404.765	49.5582
407.658	49.0974
410.55	43.2906
413.443	31.8117
416.336	20.8481
419.229	13.6231
422.121	8.0037
425.014	5.85257
427.907	3.67871
430.799	2.04046
433.692	2.33749
436.585	1.32389
439.478	0.844963
442.37	0.727909
445.263	0.045929
448.156	0.280201
451.048	0.176224
453.941	0.465954
456.834	0.077538
459.726	0.100445
462.619	0.226048
465.512	0.092815
468.404	0.128716
471.297	0.230671
474.19	0.10704
477.083	0.312954
479.975	0.487785
482.868	0.100189
485.761	0.098484
488.653	0.675632
491.546	0.66243
494.439	1.20754
497.332	1.79918
500.224	1.71176
503.117	1.55445
506.01	2.14633
508.902	1.99128
511.795	2.32611
514.688	2.54434
517.58	3.32659
520.473	4.0638
523.366	4.16591
526.259	7.4515
529.151	12.696
532.044	20.0644
534.937	33.7282
537.829	46.3175
540.722	55.1575
543.615	64.6966
546.507	71.5767
549.4	74.6644
552.293	66.5131
555.186	42.2606
558.078	20.971
560.971	10.297
563.864	5.57122
566.756	2.91059
569.649	1.13471
572.542	1.19749
575.434	0.868229
578.327	1.11235
581.22	2.07622
584.112	2.39193
587.005	4.07394
589.898	4.76067
592.79	4.94671
595.683	4.69864
598.576	5.02886
601.469	4.11038
604.361	3.75608
607.254	1.83125
610.147	2.08649
613.039	0.614902
615.932	0.902515
618.825	0.274117
621.717	0.244522
624.61	0.390099
627.503	0.272167
630.396	0.675377
633.288	0.584068
636.181	0.649456
639.074	0.333992
641.966	0.844025
644.859	0.922783
647.752	2.16076
650.644	3.20229
653.537	4.29871
656.43	5.05899
659.323	5.74091
662.215	5.98418
665.108	4.91451
668.001	3.58634
670.893	1.46816
673.786	0.833858
676.679	0.381882
679.572	0.561424
682.464	0.490635
685.357	0.163319
688.25	0.308922
691.142	0.227119
694.035	0.553192
696.928	0.860291
699.82	0.915413
702.713	0.788521
705.606	1.17498
708.499	0.973717
711.391	1.23346
714.284	1.5368
717.177	2.11238
720.069	1.87614
722.962	1.25931
725.855	1.29708
728.747	1.03661
731.64	1.27172
734.533	0.970413
737.426	0.821312
740.318	1.31053
743.211	0.66013
746.104	0.894295
748.996	0.051289
751.889	1.01315
754.782	0.873192
757.674	0.852146
760.567	0.120689
763.46	0.636642
766.352	0.504459
769.245	0.673626
772.138	0.308182
775.031	0.71875
777.923	0.966461
780.816	0.765224
783.709	0.060379
786.601	0.42144
789.494	1.23526
792.387	0.814831
795.279	0.119415
798.172	0.604733
801.065	1.11396
803.958	0.959358
806.85	0.981735
809.743	0.537868
812.636	1.07868
815.528	1.337
818.421	1.27857
821.314	1.17216
824.207	1.03397
827.099	1.32972
829.992	1.52015
832.885	1.94261
835.777	1.50842
838.67	1.13652
841.563	1.60404
844.455	1.60087
847.348	1.13465
850.241	1.93473
853.134	1.59631
856.026	1.14598
858.919	0.901348
861.812	1.39047
864.704	0.772995
867.597	0.04174
870.49	0.873741
873.382	0.107857
876.275	0.075493
879.168	0.104408
882.061	0.215172
884.953	0.002525
887.846	0.24015
890.739	0.163994
893.631	0.072464
896.524	0.44175
899.417	0.370548
902.309	1.59247
905.202	4.44554
908.095	6.93741
910.987	10.0194
913.88	15.145
916.773	17.9949
919.666	20.2712
922.558	19.7211
925.451	15.4709
928.344	11.3949
931.236	7.63924
934.129	5.0472
937.022	2.56986
939.914	2.33422
942.807	1.05398
945.7	0.388111
948.593	0.125034
951.485	0.232426
954.378	0.202835
957.271	0.369682
960.163	1.32798
963.056	2.34377
965.949	3.97084
968.841	6.3023
971.734	9.95639
974.627	16.0534
977.52	26.7613
980.412	40.7717
983.305	63.3547
986.198	93.035
989.09	122.144
991.983	147.986
994.876	164.522
997.769	162.55
1000.66	140.731
1003.55	103.311
1006.45	64.8009
1009.34	36.1278
1012.23	20.4944
1015.12	13.0582
1018.02	10.0223
1020.91	8.58786
1023.8	5.4989
1026.7	3.8456
1029.59	1.02968
1032.48	0.242432
1035.37	0.047993
1038.27	0.061699
1041.16	0.571575
1044.05	0.255173
1046.94	0.022064
1049.84	0.986858
1052.73	1.75354
1055.62	3.85995
1058.52	3.8167
1061.41	5.53264
1064.3	7.05387
1067.19	9.59713
1070.09	11.5604
1072.98	12.4444
1075.87	15.1342
1078.76	16.6447
1081.66	18.9726
1084.55	19.559
1087.44	19.7
1090.34	17.248
1093.23	13.9216
1096.12	10.5167
1099.01	8.89317
1101.91	7.03029
1104.8	7.46211
1107.69	7.70161
1110.58	8.01722
1113.48	7.6543
1116.37	6.02776
1119.26	3.70171
1122.15	2.11391
1125.05	0.793316
1127.94	0.364716
1130.83	0.468834
1133.72	0.157185
1136.62	0.057735
1139.51	0.202564
1142.4	0.079262
1145.3	0.248863
1148.19	0.390358
1151.08	0.452297
1153.97	1.67485
1156.87	2.5375
1159.76	3.49933
1162.65	3.90978
1165.55	4.69344
1168.44	5.12801
1171.33	4.04345
1174.22	3.25528
1177.12	2.02496
1180.01	1.45863
1182.9	1.06485
1185.79	0.336319
1188.69	0.543577
1191.58	0.413891
1194.47	0.973051
1197.37	0.108
1200.26	0.486242
1203.15	0.079121
1206.04	0.266203
1208.94	0.580784
1211.83	0.675751
1214.72	0.417799
1217.61	0.576834
1220.51	0.001162
1223.4	0.394239
1226.29	0.273392
1229.18	0.405115
1232.08	0.632183
1234.97	0.878853
1237.86	0.964853
1240.76	0.553043
1243.65	1.23968
1246.54	0.338133
1249.43	0.501978
1252.33	0.003551
1255.22	0.503473
1258.11	0.128326
1261	0.535419
1263.9	0.539518
1266.79	0.541309
1269.68	0.456251
1272.58	0.396294
1275.47	0.768711
1278.36	0.920361
1281.25	0.08429
1284.15	0.652315
