Measurement: Raman, 780 nm, unoriented, Raman Data Processed
Mineral: Schrockingerite
Rruff sample: R050565
Ideal chemistry: NaCa_3_(UO_2_)(SO_4_)(CO_3_)_3_F10H_2_O
Locality: Lost Creek, Sweetwater County, Wyoming, USA
Source: Dave Bunk Minerals
Description: Scaly aggregate of pale green micaceous crystals
Measured chemistry: Na_1.00_Ca_3.00_(U_1.00_O_2_)(S_1.00_O_4_)(CO_3_)_3_F_1.00_Â·12H_2_O ; C and H not measured but estimated by stoichiometry
Raman shift (cm-1)	intensity
118.582	0
121.957	3.12647
125.332	6.08818
128.706	11.5579
132.081	9.31903
135.456	15.2235
138.831	22.2745
142.206	24.3783
145.58	29.526
148.955	37.1604
152.33	44.2518
155.705	44.5981
159.08	43.4523
162.454	43.353
165.829	34.9872
169.204	30.7671
172.579	17.7957
175.954	13.5655
179.328	10.0838
182.703	7.86267
186.078	6.64473
189.453	3.94342
192.828	4.76909
196.203	3.01047
199.577	3.10355
202.952	0.798676
206.327	2.67348
209.702	1.8566
213.077	1.93095
216.451	5.03929
219.826	4.81825
223.201	3.94476
226.576	7.25897
229.951	9.22832
233.326	8.20471
236.7	9.25497
240.075	8.0331
243.45	9.0419
246.825	11.8968
250.2	15.343
253.574	18.2694
256.949	13.0616
260.324	9.78865
263.699	5.39246
267.074	5.17065
270.449	7.51077
273.823	9.65425
277.198	11.1331
280.573	12.5215
283.948	11.9033
287.322	14.1086
290.697	17.2247
294.072	25.4985
297.447	33.8356
300.822	40.3126
304.197	45.1816
307.571	43.1587
310.946	31.9669
314.321	22.4422
317.696	9.41013
321.071	5.24997
324.445	2.38913
327.82	0.856171
331.195	0.93248
334.57	0.713699
337.945	0.498611
341.32	0.677032
344.694	0.510818
348.069	0.630058
351.444	0.725204
354.819	1.73544
358.194	2.4753
361.568	3.95165
364.943	2.71545
368.318	2.5551
371.693	4.28412
375.068	4.22411
378.442	6.71596
381.817	3.02657
385.192	2.43293
388.567	4.24601
391.942	6.04584
395.317	3.22716
398.691	3.2351
402.066	1.2071
405.441	3.90646
408.816	2.53046
412.191	0.560478
415.565	1.99593
418.94	1.73132
422.315	0.146324
425.69	3.35107
429.065	1.4818
432.44	2.43692
435.814	3.16475
439.189	3.8345
442.564	4.68712
445.939	5.16877
449.314	7.35982
452.688	8.1562
456.063	8.91588
459.438	11.8084
462.813	14.072
466.188	17.4
469.562	17.4999
472.937	14.4365
476.312	8.79186
479.687	5.34541
483.062	1.28036
486.437	0.576836
489.811	2.25789
493.186	0.608849
496.561	0.191704
499.936	1.60639
503.311	0.421318
506.685	2.26989
510.06	0.252823
513.435	1.22216
516.81	0.185326
520.185	0.526604
523.56	2.49786
526.934	2.16632
530.309	1.76315
533.684	1.90173
537.059	3.38398
540.434	0.949287
543.808	1.10008
547.183	2.59959
550.558	2.16646
553.933	3.14294
557.308	1.16436
560.683	3.57677
564.057	2.99789
567.432	1.65668
570.807	0.168129
574.182	0.232498
577.557	0.953461
580.931	0.285904
584.306	3.61211
587.681	3.70203
591.056	3.7526
594.431	5.65076
597.806	2.16402
601.18	4.66402
604.555	6.73894
607.93	10.2506
611.305	9.64087
614.68	10.0988
618.054	7.5477
621.429	7.70068
624.804	6.60858
628.179	6.53353
631.554	2.81831
634.928	5.90002
638.303	0.022888
641.678	0.924706
645.053	2.72813
648.428	0.051659
651.803	1.04784
655.177	0.136284
658.552	0.698952
661.927	0.189728
665.302	1.68507
668.677	0.223045
672.051	2.25089
675.426	1.83153
678.801	1.81108
682.176	1.02668
685.551	2.4147
688.926	4.98113
692.3	5.63966
695.675	9.29547
699.05	13.3415
702.425	18.7495
705.8	22.7094
709.174	13.7082
712.549	7.34135
715.924	9.5793
719.299	12.3344
722.674	15.1825
726.048	29.7295
729.423	41.4512
732.798	51.8233
736.173	71.7466
739.548	88.8226
742.923	74.1278
746.297	37.2042
749.672	19.9571
753.047	10.5303
756.422	3.35835
759.797	0.718811
763.171	0.367332
766.546	0.081284
769.921	0.948372
773.296	0.638771
776.671	1.48131
780.045	2.26585
783.42	3.32348
786.795	7.49566
790.17	9.56191
793.545	17.8444
796.919	34.044
800.294	75.456
803.669	108.324
807.044	150.57
810.419	212.716
813.794	268.707
817.168	191.936
820.543	86.3658
823.918	39.9694
827.293	21.0376
830.668	15.2966
834.043	13.5532
837.417	12.7074
840.792	12.4008
844.167	12.9111
847.542	8.76004
850.917	7.05428
854.291	2.31854
857.666	2.38977
861.041	0.715508
864.416	1.34991
867.791	1.63559
871.165	1.10184
874.54	0.564781
877.915	1.44796
881.29	0.81575
884.665	0.319504
888.039	3.5202
891.414	4.94707
894.789	4.90624
898.164	4.69427
901.539	7.60177
904.914	8.44768
908.288	5.40003
911.663	2.30167
915.038	1.78554
918.413	0.66584
921.788	0.447731
925.163	1.54216
928.537	1.10162
931.912	1.19122
935.287	2.36443
938.662	0.303612
942.037	0.003838
945.411	0.27005
948.786	0.640266
952.161	2.87373
955.536	4.26047
958.911	3.30206
962.285	6.18589
965.66	10.9319
969.035	28.5191
972.41	51.5041
975.785	71.7485
979.159	108.192
982.534	148.576
985.909	61.7391
989.284	16.21
992.659	7.18948
996.034	6.73859
999.408	3.5598
1002.78	3.9457
1006.16	0.811569
1009.53	1.38802
1012.91	2.2095
1016.28	1.7516
1019.66	0.264717
1023.03	1.08964
1026.41	1.44209
1029.78	0.478523
1033.16	0.496231
1036.53	0.227791
1039.91	0.591072
1043.28	0.279945
1046.66	2.02003
1050.03	1.45479
1053.4	1.35783
1056.78	1.39978
1060.15	0.956764
1063.53	3.77508
1066.9	4.53443
1070.28	3.79888
1073.65	8.89748
1077.03	19.3499
1080.4	47.6971
1083.78	68.6722
1087.15	96.707
1090.53	145.094
1093.9	142.451
1097.28	35.6604
1100.65	15.1163
1104.03	9.61473
1107.4	6.91185
1110.78	3.08916
1114.15	2.38045
1117.53	1.16062
1120.9	0.72374
1124.28	2.01816
1127.65	3.76044
1131.03	2.75788
1134.4	0.126778
1137.78	0.185829
1141.15	1.93769
1144.53	3.01138
1147.9	1.83308
1151.28	1.95079
1154.65	1.92361
1158.03	1.43803
1161.4	3.53223
1164.77	2.32085
1168.15	3.41686
1171.52	4.47543
1174.9	2.95983
1178.27	1.47406
1181.65	1.56324
1185.02	0.363026
1188.4	0.96019
1191.77	0.150936
1195.15	1.12105
1198.52	0.394688
1201.9	1.02151
1205.27	1.67485
1208.65	2.61436
1212.02	2.53407
1215.4	0.961842
1218.77	1.60174
1222.15	1.24243
1225.52	1.37444
1228.9	0.634945
1232.27	3.02918
1235.64	0.658478
1239.02	2.62743
1242.39	3.83671
1245.77	3.11595
1249.14	0.712891
1252.52	3.48158
1255.89	1.45676
1259.27	0.771107
1262.64	0.164009
1266.02	1.77616
1269.39	1.83621
1272.77	1.55993
1276.14	1.67133
1279.52	1.72152
1282.89	0.905571
1286.27	0
