Measurement: Raman, 532 nm, unoriented, Raman Data Processed
Mineral: Schrockingerite
Rruff sample: R050565
Ideal chemistry: NaCa_3_(UO_2_)(SO_4_)(CO_3_)_3_F10H_2_O
Locality: Lost Creek, Sweetwater County, Wyoming, USA
Source: Dave Bunk Minerals
Description: Scaly aggregate of pale green micaceous crystals
Measured chemistry: Na_1.00_Ca_3.00_(U_1.00_O_2_)(S_1.00_O_4_)(CO_3_)_3_F_1.00_Â·12H_2_O ; C and H not measured but estimated by stoichiometry
Raman shift (cm-1)	intensity
156.683	0
159.576	26.5503
162.469	17.5867
165.361	36.4001
168.254	42.7432
171.147	29.6172
174.039	8.04517
176.932	12.9668
179.825	13.4038
182.718	20.6311
185.61	36.0864
188.503	33.8914
191.396	29.5781
194.288	23.1521
197.181	31.2561
200.074	34.1223
202.966	16.884
205.859	3.56982
208.752	8.99707
211.645	1.59936
214.537	6.31982
217.43	19.6211
220.323	34.0342
223.215	33.6252
226.108	28.4922
229.001	29.3843
231.893	26.771
234.786	23.499
237.679	5.09155
240.572	1.40527
243.464	4.80518
246.357	11.3044
249.25	29.9233
252.142	44.8901
255.035	46.9138
257.928	27.5696
260.82	21.3547
263.713	27.3828
266.606	43.4248
269.499	60.0984
272.391	66.471
275.284	77.7498
278.177	85.6096
281.07	90.9858
283.962	81.6211
286.855	92.4949
289.748	106.199
292.64	112.231
295.533	124.545
298.426	158.607
301.318	192.579
304.211	239.773
307.104	250.639
309.997	214.985
312.889	163.878
315.782	113.323
318.675	74.9297
321.567	28.1689
324.46	12.74
327.353	7.43091
330.245	1.73901
333.138	13.1467
336.031	28.6572
338.923	9.76074
341.816	6.82935
344.709	2.78369
347.602	0.419922
350.494	1.62476
353.387	0.957275
356.28	14.1692
359.173	12.3059
362.065	20.21
364.958	19.9602
367.851	15.5679
370.743	1.54248
373.636	9.90869
376.529	12.7222
379.421	11.2624
382.314	24.4404
385.207	39.843
388.099	27.4009
390.992	29.9922
393.885	27.4309
396.778	24.8035
399.67	20.76
402.563	24.1733
405.456	39.6077
408.348	17.7244
411.241	7.87549
414.134	3.99927
417.026	11.7361
419.919	16.4834
422.812	14.6531
425.705	23.0901
428.597	13.6392
431.49	16.032
434.383	14.5344
437.276	13.3264
440.168	25.7651
443.061	44.8232
445.954	37.0251
448.846	42.6187
451.739	33.5945
454.632	55.1257
457.524	58.8464
460.417	62.6465
463.31	67.6682
466.202	78.6394
469.095	90.4206
471.988	91.3909
474.881	65.0933
477.773	51.2568
480.666	36.4209
483.559	14.3064
486.451	2.9292
489.344	7.42578
492.237	9.40674
495.13	8.93994
498.022	0.333984
500.915	13.2539
503.808	18.752
506.7	19.7886
509.593	14.2974
512.486	15.4395
515.379	13.2642
518.271	20.6318
521.164	18.0146
524.057	21.5395
526.949	30.1416
529.842	15.4121
532.735	12.5073
535.627	10.8516
538.52	17.4311
541.413	33.9595
544.306	40.7085
547.198	26.6157
550.091	14.9463
552.984	3.94092
555.876	3.02832
558.769	1.70215
561.662	4.10986
564.554	9.89404
567.447	2.68506
570.34	10.6792
573.232	8.3335
576.125	4.16699
579.018	2.05664
581.911	5.29443
584.803	9.43066
587.696	25.5371
590.589	23.0913
593.481	21.6577
596.374	23.7515
599.267	21.1328
602.159	29.7349
605.052	34.1953
607.945	47.0142
610.838	30.2236
613.73	44.7012
616.623	44.8472
619.516	53.5088
622.409	55.4316
625.301	64.9888
628.194	60.2573
631.087	42.7754
633.979	23.9854
636.872	34.6211
639.765	39.6387
642.657	43.5996
645.55	58.2734
648.443	52.9985
651.336	33.584
654.228	60.2192
657.121	37.6377
660.014	29.228
662.906	34.7622
665.799	34.1968
668.692	38.4009
671.585	32.1426
674.477	45.1489
677.37	43.3227
680.263	44.7266
683.155	51.9736
686.048	40.4424
688.941	43.7114
691.833	59.3145
694.726	64.9609
697.619	77.1787
700.511	116.843
703.404	155.459
706.297	181.626
709.19	139.552
712.082	80.5859
714.975	94.1602
717.868	97.9663
720.76	123.052
723.653	135.5
726.546	175.166
729.438	246.429
732.331	292.029
735.224	384.886
738.117	511.823
741.009	610.886
743.902	408.857
746.795	248.299
749.687	140.486
752.58	84.71
755.473	46.436
758.366	20.7578
761.258	1.78662
764.151	0.779297
767.044	0.28418
769.936	2.41211
772.829	6.28809
775.722	11.2588
778.615	7.05518
781.507	8.46484
784.4	10.2602
787.293	13.9907
790.185	33.2617
793.078	62.6675
795.971	104.248
798.863	212.513
801.756	424.987
804.649	650.918
807.542	967.81
810.434	1518.14
813.327	2070.17
816.22	1888.02
819.112	979.638
822.005	474.64
824.898	256.302
827.79	159.631
830.683	116.72
833.576	78.1235
836.469	73.5967
839.361	74.9033
842.254	90.7344
845.147	74.6938
848.039	56.3862
850.932	34.875
853.825	6.68115
856.717	4.11084
859.61	4.67725
862.503	0.112793
865.396	9.04443
868.288	3.22705
871.181	10.874
874.074	9.96191
876.966	12.5176
879.859	3.88086
882.752	16.604
885.644	8.50049
888.537	11.6079
891.43	17.0352
894.323	36.3042
897.215	45.855
900.108	58.4429
903.001	77.8823
905.894	81.5059
908.786	66.7349
911.679	35.687
914.572	28.9116
917.464	20.9976
920.357	8.25244
923.25	10.6721
926.142	0.225586
929.035	11.0498
931.928	10.2395
934.821	19.3931
937.713	11.5239
940.606	15.8975
943.499	16.3594
946.391	14.03
949.284	1.55811
952.177	2.07666
955.069	19.6824
957.962	28.0491
960.855	35.1956
963.748	47.542
966.64	54.9929
969.533	126.839
972.426	228.251
975.318	342.474
978.211	572.544
981.104	1002.33
983.996	966.023
986.889	304.441
989.782	116.544
992.675	65.3992
995.567	37.4145
998.46	20.9666
1001.35	27.6731
1004.25	18.103
1007.14	9.87085
1010.03	0.497314
1012.92	9.521
1015.82	4.83179
1018.71	0.124756
1021.6	6.2356
1024.49	4.31299
1027.39	4.94336
1030.28	13.4314
1033.17	5.12476
1036.07	10.9282
1038.96	0.30542
1041.85	1.36475
1044.74	2.46582
1047.64	5.74121
1050.53	17.3411
1053.42	36.5852
1056.31	22.3835
1059.21	12.6606
1062.1	6.81104
1064.99	21.3066
1067.88	24.7952
1070.78	36.3506
1073.67	52.479
1076.56	84.3088
1079.46	155.195
1082.35	315.869
1085.24	407.001
1088.13	594.764
1091.03	1132.45
1093.92	1096.39
1096.81	312.965
1099.7	135.681
1102.6	81.1619
1105.49	58.0503
1108.38	26.9551
1111.28	17.1055
1114.17	21.2248
1117.06	14.6372
1119.95	15.1284
1122.85	9.52685
1125.74	4.84473
1128.63	10.0083
1131.52	3.69702
1134.42	9.24316
1137.31	15.7832
1140.2	9.31079
1143.1	6.45312
1145.99	18.1184
1148.88	8.2251
1151.77	5.12231
1154.67	9.53101
1157.56	11.9133
1160.45	0.875977
1163.34	0.279785
1166.24	9.8374
1169.13	10.6621
1172.02	20.073
1174.91	11.8264
1177.81	15.9434
1180.7	16.5154
1183.59	3.1084
1186.49	3.95923
1189.38	1.30493
1192.27	3.93701
1195.16	9.28662
1198.06	10.6821
1200.95	13.801
1203.84	5.69482
1206.73	17.4902
1209.63	8.5293
1212.52	8.64062
1215.41	2.28638
1218.31	5.54956
1221.2	16.7822
1224.09	16.051
1226.98	15.2039
1229.88	8.04077
1232.77	10.6746
1235.66	7.14209
1238.55	2.8396
1241.45	15.0666
1244.34	11.2168
1247.23	8.57007
1250.12	16.352
1253.02	18.3557
1255.91	18.9878
1258.8	21.9016
1261.7	13.7459
1264.59	15.9934
1267.48	21.854
1270.37	30.1465
1273.27	21.3269
1276.16	17.8931
1279.05	13.6982
1281.94	23.2227
1284.84	14.4263
1287.73	9.57959
1290.62	11.0225
1293.52	12.0513
1296.41	16.8408
1299.3	13.4409
1302.19	0.255371
