Measurement: Raman, 780 nm, unoriented, Raman Data Processed
Mineral: Schrockingerite
Rruff sample: R060232
Ideal chemistry: NaCa_3_(UO_2_)(SO_4_)(CO_3_)_3_F10H_2_O
Locality: Atomic King #2 mine, Cane Wash, San Juan County, Utah, USA
Source: Michael Scott
Description: Aggregate of yellowish-green platy crystals
Measured chemistry: Na_0.17_Ca_3.33_(UO_2_)_1.21_(SO_4_)_0.99_(CO_3_)_2.95_F_1.11_Â·1.53H_2_O
Raman shift (cm-1)	intensity
150.163	0
153.056	3.17334
155.949	12.8606
158.841	21.6781
161.734	21.8223
164.627	19.3743
167.519	17.5671
170.412	9.29963
173.305	1.50449
176.198	0.350551
179.09	0.497897
181.983	5.95845
184.876	3.59544
187.768	1.94972
190.661	1.1502
193.554	1.81176
196.446	4.90428
199.339	3.76289
202.232	0.233621
205.125	0.641075
208.017	0.744854
210.91	0.284742
213.803	1.37634
216.695	3.76314
219.588	8.56844
222.481	11.4879
225.374	13.7282
228.266	17.9912
231.159	19.9646
234.052	17.5478
236.944	15.2243
239.837	15.1856
242.73	15.714
245.622	18.3203
248.515	24.5235
251.408	28.9748
254.3	30.6253
257.193	24.5751
260.086	18.7385
262.978	13.4681
265.871	11.3947
268.764	15.9263
271.657	19.5294
274.549	20.413
277.442	20.4166
280.335	21.7497
283.227	24.0022
286.12	24.1971
289.013	26.0035
291.906	33.321
294.798	39.4603
297.691	50.5924
300.584	60.4617
303.476	68.6176
306.369	75.8379
309.262	64.6073
312.154	47.0799
315.047	29.3964
317.94	20.1125
320.833	10.7591
323.725	4.99943
326.618	4.02319
329.511	2.43191
332.403	0.608363
335.296	0.169138
338.189	0.469883
341.082	1.39941
343.974	0.494479
346.867	0.310923
349.76	0.346901
352.652	0.322757
355.545	1.38526
358.438	1.83223
361.33	1.32401
364.223	1.50173
367.116	3.37954
370.009	3.39421
372.901	3.65367
375.794	2.95097
378.687	1.90591
381.579	3.99953
384.472	1.93377
387.365	1.49601
390.257	3.48928
393.15	3.26378
396.043	0.600567
398.935	0.632859
401.828	4.06242
404.721	1.93378
407.614	2.01214
410.506	0.118497
413.399	0.427392
416.292	1.54562
419.184	1.46487
422.077	1.36629
424.97	0.232428
427.863	2.41858
430.755	1.13125
433.648	3.97073
436.541	5.25595
439.433	2.12816
442.326	4.44865
445.219	8.88697
448.111	9.82361
451.004	10.3685
453.897	12.026
456.789	18.032
459.682	20.3425
462.575	23.8573
465.467	28.5826
468.36	27.6149
471.253	22.5935
474.146	17.0904
477.038	12.3516
479.931	5.23342
482.824	3.50559
485.716	3.81487
488.609	0.235936
491.502	0.486583
494.394	0.507618
497.287	0.085048
500.18	0.164578
503.073	0.953432
505.965	2.23642
508.858	0.429528
511.751	0.042484
514.643	1.83589
517.536	2.27387
520.429	2.91239
523.322	3.30215
526.214	2.0719
529.107	3.02135
532	3.62183
534.892	3.16307
537.785	3.21916
540.678	1.71269
543.57	2.93631
546.463	1.52876
549.356	3.30857
552.249	3.71839
555.141	1.09078
558.034	1.54851
560.927	0.543752
563.819	0.148122
566.712	0.627141
569.605	0.707685
572.497	0.12724
575.39	0.271017
578.283	0.446792
581.176	1.46315
584.068	1.82322
586.961	4.48041
589.854	1.91693
592.746	4.73861
595.639	4.06783
598.532	3.55929
601.424	6.02549
604.317	5.83651
607.21	7.85571
610.102	7.9031
612.995	8.34321
615.888	9.31889
618.781	8.95289
621.673	9.21123
624.566	11.3882
627.459	7.11217
630.351	5.19007
633.244	3.75131
636.137	3.06014
639.029	3.45666
641.922	1.6544
644.815	1.1926
647.708	1.11807
650.6	1.91837
653.493	0.19172
656.386	0.270683
659.278	0.011063
662.171	0.140404
665.064	0.238129
667.957	0.231347
670.849	0.210352
673.742	1.32782
676.635	0.084166
679.527	0.940113
682.42	1.02066
685.313	2.83605
688.205	7.82836
691.098	6.63008
693.991	8.40412
696.884	11.4977
699.776	16.5424
702.669	23.3041
705.562	32.9132
708.454	24.6143
711.347	12.9329
714.24	12.2468
717.132	12.2332
720.025	18.0748
722.918	20.0043
725.811	29.3294
728.703	43.0218
731.596	57.0282
734.489	72.1633
737.381	99.0701
740.274	131.111
743.167	96.4566
746.059	57.5702
748.952	36.2881
751.845	19.6236
754.737	7.71683
757.63	1.22191
760.523	0.339754
763.416	0.467368
766.308	0.555076
769.201	0.469345
772.094	0.436702
774.986	2.53551
777.879	1.32729
780.772	2.25777
783.665	4.58341
786.557	6.76934
789.45	10.404
792.343	20.7311
795.235	27.5758
798.128	47.5379
801.021	93.6049
803.913	139.099
806.806	196.514
809.699	292.983
812.592	414.553
815.484	384.613
818.377	201.979
821.27	97.3845
824.162	48.6948
827.055	28.8221
829.948	18.5677
832.84	15.2673
835.733	13.6773
838.626	14.4824
841.519	19.8012
844.411	17.0818
847.304	11.2632
850.197	7.51289
853.089	4.70946
855.982	2.2452
858.875	0.247453
861.767	0.31295
864.66	0.405124
867.553	1.06106
870.446	0.009675
873.338	0.516506
876.231	0.918386
879.124	0.015736
882.016	0.349407
884.909	1.51942
887.802	2.41357
890.694	2.62181
893.587	3.7817
896.48	5.45232
899.372	8.27497
902.265	13.1708
905.158	13.5507
908.051	8.19543
910.943	3.0034
913.836	2.33214
916.729	0.740131
919.621	2.89999
922.514	1.01958
925.407	0.580274
928.299	0.310145
931.192	0.309981
934.085	1.32342
936.978	1.0221
939.87	1.08315
942.763	0.385054
945.656	0.274372
948.548	0.083059
951.441	1.01746
954.334	3.45891
957.226	1.47129
960.119	7.71978
963.012	5.84091
965.905	11.5426
968.797	25.3425
971.69	54.9041
974.583	74.6702
977.475	115.112
980.368	203.199
983.261	218.321
986.154	61.8406
989.046	22.2193
991.939	9.20543
994.832	5.57366
997.724	3.81867
1000.62	3.07165
1003.51	1.64238
1006.4	0.623315
1009.29	0.405157
1012.19	0.02791
1015.08	0.278311
1017.97	1.73263
1020.87	0.049433
1023.76	0.889198
1026.65	0.0648
1029.54	0.675264
1032.44	0.883722
1035.33	0.268197
1038.22	1.23607
1041.12	0.753796
1044.01	2.25448
1046.9	0.226938
1049.79	2.33493
1052.69	0.138131
1055.58	2.53272
1058.47	3.74612
1061.36	4.55297
1064.26	3.93724
1067.15	4.11628
1070.04	6.36373
1072.93	10.0416
1075.83	12.9702
1078.72	28.323
1081.61	64.7615
1084.51	88.7441
1087.4	129.701
1090.29	233.548
1093.18	244.174
1096.08	66.6848
1098.97	24.1518
1101.86	15.6475
1104.75	9.70624
1107.65	6.93985
1110.54	4.3003
1113.43	1.3024
1116.33	1.60818
1119.22	1.22827
1122.11	0.328305
1125	0.266195
1127.9	0.091486
1130.79	0.091038
1133.68	0.132224
1136.57	0.269913
1139.47	2.35445
1142.36	1.44212
1145.25	1.48672
1148.14	1.64759
1151.04	3.03354
1153.93	0.36706
1156.82	3.39127
1159.71	2.90012
1162.61	4.10076
1165.5	3.57215
1168.39	4.76628
1171.29	4.26246
1174.18	5.10975
1177.07	3.78202
1179.96	4.23307
1182.86	0.917312
1185.75	1.39545
1188.64	3.87847
1191.54	3.17425
1194.43	2.49549
1197.32	2.2716
1200.21	1.4809
1203.11	0.294702
1206	1.446
1208.89	0.516748
1211.78	0.144012
1214.68	1.36484
1217.57	1.1864
1220.46	0.238927
1223.36	0.292995
1226.25	6.21576
1229.14	0.359125
1232.03	1.39704
1234.93	1.12134
1237.82	2.60429
1240.71	2.14975
1243.6	1.84695
1246.5	1.6557
1249.39	1.01245
1252.28	0.704242
1255.17	0.901886
1258.07	0.592671
1260.96	2.44269
1263.85	0.787482
1266.74	2.52255
1269.64	1.67431
1272.53	1.93156
1275.42	1.32181
1278.32	0.438144
1281.21	1.57816
1284.1	0.06863
