Measurement: Raman, 532 nm, unoriented, Raman Data Processed
Mineral: Schrockingerite
Rruff sample: R060232
Ideal chemistry: NaCa_3_(UO_2_)(SO_4_)(CO_3_)_3_F10H_2_O
Locality: Atomic King #2 mine, Cane Wash, San Juan County, Utah, USA
Source: Michael Scott
Description: Aggregate of yellowish-green platy crystals
Measured chemistry: Na_0.17_Ca_3.33_(UO_2_)_1.21_(SO_4_)_0.99_(CO_3_)_2.95_F_1.11_Â·1.53H_2_O
Raman shift (cm-1)	intensity
150.896	0
153.789	62.4731
156.682	109.593
159.574	142.612
162.467	143.816
165.36	134.643
168.252	128.387
171.145	120.577
174.038	95.7724
176.931	68.7658
179.823	63.2841
182.716	68.9173
185.609	69.1144
188.501	53.704
191.394	43.9508
194.287	30.703
197.179	18.1118
200.072	11.6801
202.965	3.77784
205.858	9.24197
208.75	3.90057
211.643	5.05262
214.536	1.07771
217.428	5.60328
220.321	0.276535
223.214	5.43676
226.107	14.1779
228.999	25.2399
231.892	38.5197
234.785	40.6159
237.677	37.8179
240.57	41.2665
243.463	48.8428
246.355	65.5822
249.248	104.962
252.141	132.334
255.034	145.698
257.926	108.683
260.819	59.5272
263.712	21.5288
266.604	7.26872
269.497	1.06971
272.39	1.06354
275.282	0.406994
278.175	4.82581
281.068	7.7729
283.961	4.6145
286.853	8.00333
289.746	18.5018
292.639	27.003
295.531	47.4886
298.424	66.1446
301.317	92.4433
304.209	124.396
307.102	146.27
309.995	144.713
312.887	115.727
315.78	80.5214
318.673	52.4076
321.566	29.3532
324.458	25.1691
327.351	8.66785
330.244	0.271248
333.136	0.883734
336.029	0.850958
338.922	1.22486
341.815	0.343578
344.707	1.87245
347.6	0.558576
350.493	1.81445
353.385	1.99241
356.278	3.51897
359.171	3.2917
362.063	11.147
364.956	11.0601
367.849	8.31228
370.741	8.65028
373.634	6.58362
376.527	12.7392
379.42	13.1729
382.312	12.0809
385.205	8.97907
388.098	7.54017
390.99	14.5305
393.883	10.4829
396.776	15.2848
399.668	9.30587
402.561	6.72084
405.454	1.21646
408.347	3.63646
411.239	0.984988
414.132	3.31435
417.025	5.87515
419.917	3.7318
422.81	6.59122
425.703	4.48737
428.596	1.60759
431.488	2.46906
434.381	4.16888
437.274	5.78492
440.166	14.0017
443.059	16.9155
445.952	18.9148
448.844	27.5496
451.737	29.3085
454.63	36.9716
457.522	45.1341
460.415	62.0241
463.308	69.1818
466.201	93.9312
469.093	98.5756
471.986	100.275
474.879	80.2545
477.771	50.8522
480.664	27.6848
483.557	12.8479
486.45	5.56685
489.342	0.953755
492.235	5.56506
495.128	0.39919
498.02	1.37059
500.913	0.477692
503.806	2.2642
506.698	0.484923
509.591	4.47891
512.484	0.03099
515.376	1.6841
518.269	1.33678
521.162	4.34752
524.055	6.26447
526.947	8.44403
529.84	15.9806
532.733	18.5063
535.625	20.7092
538.518	18.6608
541.411	18.4241
544.303	25.5999
547.196	20.7374
550.089	21.2085
552.982	21.2157
555.874	17.6568
558.767	11.0534
561.66	6.71751
564.552	4.11662
567.445	0.755348
570.338	3.56017
573.231	2.13908
576.123	0.903489
579.016	0.293754
581.909	1.71356
584.801	0.981117
587.694	4.68316
590.587	2.67257
593.479	1.94992
596.372	1.29568
599.265	7.64967
602.157	17.4684
605.05	16.2348
607.943	17.9878
610.836	18.3359
613.728	21.574
616.621	18.2194
619.514	22.5114
622.406	20.3958
625.299	25.2008
628.192	23.7021
631.084	22.6551
633.977	14.478
636.87	21.6858
639.763	24.5269
642.655	18.419
645.548	14.2901
648.441	9.35226
651.333	9.22555
654.226	14.0521
657.119	16.958
660.011	18.2192
662.904	9.84327
665.797	10.8184
668.689	3.1141
671.582	5.84574
674.475	7.58573
677.368	2.52874
680.26	2.69163
683.153	3.34208
686.046	0.670508
688.938	1.70065
691.831	16.7733
694.724	19.9145
697.616	30.2463
700.509	52.9539
703.402	67.3872
706.295	88.5948
709.187	78.6999
712.08	42.653
714.973	44.7828
717.865	60.8175
720.758	71.4477
723.651	86.2522
726.543	108.469
729.436	151.412
732.329	195.79
735.222	271.375
738.114	373.15
741.007	472.39
743.9	460.812
746.792	321.69
749.685	228.766
752.578	132.63
755.471	58.9257
758.363	17.6386
761.256	3.40172
764.149	0.205736
767.041	1.36403
769.934	8.07027
772.827	4.83825
775.719	2.10855
778.612	1.99016
781.505	8.46304
784.398	13.0358
787.29	31.9091
790.183	30.386
793.076	53.2874
795.968	85.1561
798.861	145.028
801.754	264.234
804.646	508.112
807.539	878.543
810.432	1441.63
813.324	2094.16
816.217	2325.88
819.11	1355.83
822.003	640.998
824.895	332.943
827.788	198.104
830.681	119.231
833.573	80.6203
836.466	71.6794
839.359	68.435
842.251	86.8969
845.144	92.2222
848.037	67.6072
850.93	45.5571
853.822	27.0058
856.715	3.73685
859.608	0.102142
862.5	4.27681
865.393	0.734305
868.286	1.52835
871.178	0.090271
874.071	1.6544
876.964	2.40837
879.857	4.40042
882.749	5.56743
885.642	4.7299
888.535	5.86738
891.427	17.0353
894.32	17.7753
897.213	34.1938
900.106	56.3014
902.998	83.1363
905.891	103.628
908.784	73.7327
911.676	35.4173
914.569	17.9808
917.462	12.1367
920.354	2.42407
923.247	5.69428
926.14	6.28792
929.033	4.54844
931.925	0.280074
934.818	1.84519
937.711	0.786515
940.603	0.381602
943.496	0.684607
946.389	0.785377
949.281	0.24354
952.174	0.634031
955.067	2.93743
957.96	4.52308
960.852	6.99198
963.745	14.5319
966.638	25.3481
969.53	43.7892
972.423	86.7085
975.316	193.799
978.208	372.056
981.101	690.86
983.994	975.005
986.886	378.602
989.779	115.3
992.672	51.6393
995.564	34.5578
998.457	21.5874
1001.35	12.185
1004.24	2.4942
1007.13	5.50999
1010.03	2.73765
1012.92	3.63847
1015.81	0.41719
1018.71	5.33641
1021.6	4.99277
1024.49	4.77248
1027.38	1.98126
1030.28	2.65609
1033.17	0.746898
1036.06	0.038659
1038.95	0.761268
1041.85	0.715968
1044.74	1.18163
1047.63	0.884033
1050.53	4.42928
1053.42	3.23499
1056.31	0.50196
1059.2	5.73836
1062.1	2.78521
1064.99	7.97005
1067.88	6.87405
1070.78	11.9959
1073.67	16.3979
1076.56	30.3587
1079.45	46.6551
1082.35	94.6693
1085.24	197.919
1088.13	303.136
1091.02	603.234
1093.92	891.421
1096.81	321.438
1099.7	105.497
1102.59	61.9089
1105.49	39.1331
1108.38	28.4181
1111.27	21.1955
1114.16	10.2979
1117.06	5.50805
1119.95	1.6345
1122.84	1.26881
1125.74	1.01865
1128.63	1.27278
1131.52	0.33904
1134.41	0.240081
1137.31	6.87783
1140.2	6.32859
1143.09	6.91588
1145.98	9.06544
1148.88	7.44408
1151.77	7.16024
1154.66	12.1147
1157.56	14.9449
1160.45	14.9865
1163.34	16.8846
1166.23	18.7591
1169.13	12.8192
1172.02	17.515
1174.91	12.637
1177.81	10.7297
1180.7	8.0146
1183.59	5.11899
1186.48	6.5581
1189.38	4.04025
1192.27	0.864276
1195.16	1.43908
1198.05	0.901665
1200.95	0.324763
1203.84	1.99849
1206.73	2.74843
1209.62	1.73245
1212.52	0.53385
1215.41	3.71719
1218.3	2.04184
1221.19	3.31334
1224.09	3.77172
1226.98	9.10345
1229.87	3.69256
1232.77	1.98524
1235.66	0.16186
1238.55	0.957064
1241.44	4.86759
1244.34	9.39936
1247.23	5.39386
1250.12	0.070944
1253.02	3.70936
1255.91	0.87608
1258.8	3.89745
1261.69	5.31916
1264.59	4.03574
1267.48	5.66132
1270.37	6.41831
1273.26	3.99837
1276.16	3.93808
1279.05	1.09489
1281.94	0.756664
1284.83	1.37518
1287.73	0.866676
1290.62	1.06055
1293.51	1.29929
1296.4	0.554305
1299.3	6.42132
1302.19	5.46332
