Measurement: Raman, 532 nm, unoriented, Raman Data Processed
Mineral: Schultenite
Rruff sample: R050584
Ideal chemistry: Pb^2+^(As^5+^O_3_OH)
Locality: Tsumeb mine, Tsumeb, Otavi District, Oshikoto, Namibia
Source: University of Arizona Mineral Museum
Description: Colorless prismatic crystals with obvious striations, associated with keyite, R050585, and zincolivenite, R050583
Measured chemistry: Pb_1.00_(As_1.00_O_3_OH)
Raman shift (cm-1)	intensity
127.841	0
130.734	151.058
133.627	1494.7
136.519	4276.37
139.412	7622.08
142.305	11937.1
145.197	17035.2
148.09	18870.9
150.983	14721.7
153.875	9222.45
156.768	5318.55
159.661	2851.74
162.554	1283.01
165.446	254.488
168.339	224.122
171.232	116.989
174.124	110.49
177.017	365.657
179.91	769.252
182.803	1157.42
185.695	1682.46
188.588	2486
191.481	3423.68
194.373	3796.48
197.266	3328.02
200.159	2070.03
203.051	1061.34
205.944	440.04
208.837	55.5598
211.729	132.507
214.622	118.123
217.515	58.3242
220.407	87.9831
223.3	223.04
226.193	218.815
229.086	172.361
231.978	201.822
234.871	178.307
237.764	207.291
240.656	276.794
243.549	347.94
246.442	445.385
249.334	551.776
252.227	640.497
255.12	665.075
258.013	755.498
260.905	833.946
263.798	904.403
266.691	967.34
269.583	909.84
272.476	748.124
275.369	807.814
278.262	852.581
281.154	907.037
284.047	824.919
286.94	600.583
289.832	499.257
292.725	425.406
295.618	373.904
298.51	352.148
301.403	254.644
304.296	408.781
307.188	484.325
310.081	563.394
312.974	686.022
315.867	766.615
318.759	787.817
321.652	603.664
324.545	457.779
327.437	224.575
330.33	49.4377
333.223	34.2578
336.115	48.97
339.008	44.4668
341.901	0.87793
344.794	42.5898
347.686	143.351
350.579	254.403
353.472	496.302
356.364	567.043
359.257	587.396
362.15	582.335
365.043	807.959
367.935	1038.56
370.828	1315.76
373.721	1788.75
376.613	2115.29
379.506	2536.29
382.399	2875.11
385.291	2965.01
388.184	2789.88
391.077	2419.04
393.969	1849.1
396.862	1384.32
399.755	1282.56
402.648	1549.94
405.54	2031.81
408.433	2837.57
411.326	4125.16
414.218	5544.61
417.111	5783.67
420.004	3950.58
422.897	2013.04
425.789	872.818
428.682	243.771
431.575	41.3901
434.467	111.371
437.36	98.6199
440.253	45.3662
443.145	251.747
446.038	500.449
448.931	816.425
451.824	1147.75
454.716	1363.36
457.609	1629.96
460.502	1797.67
463.394	1878.04
466.287	1859.77
469.18	1707.05
472.072	1506.34
474.965	1226.63
477.858	942.346
480.75	717.554
483.643	616.181
486.536	408.327
489.429	281.936
492.321	165.781
495.214	78.7565
498.107	16.6007
500.999	82.4672
503.892	88.2189
506.785	131.926
509.678	157.152
512.57	121.23
515.463	104.33
518.356	90.1148
521.248	126.54
524.141	126.262
527.034	105.829
529.926	64.529
532.819	38.3864
535.712	31.063
538.604	13.6027
541.497	24.903
544.39	0.397827
547.283	38.7771
550.175	17.3723
553.068	46.0695
555.961	17.3494
558.853	25.6964
561.746	44.6114
564.639	68.4347
567.531	85.3648
570.424	88.4741
573.317	118.659
576.21	120.393
579.102	116.766
581.995	155.059
584.888	193.981
587.78	163.191
590.673	212.915
593.566	216.475
596.458	256.167
599.351	199.316
602.244	187.743
605.136	212.378
608.029	226.214
610.922	232.022
613.815	226.224
616.707	229.083
619.6	221.755
622.493	226.869
625.385	209.237
628.278	235.029
631.171	244.019
634.063	248.47
636.956	237.671
639.849	256.327
642.742	258.814
645.634	239.063
648.527	269.243
651.42	287.768
654.312	301.926
657.205	333.816
660.098	345.629
662.99	357.052
665.883	373.014
668.776	403.836
671.669	389.153
674.561	412.23
677.454	428.987
680.347	390.715
683.239	362.828
686.132	338.521
689.025	314.893
691.918	266.286
694.81	226.965
697.703	199.531
700.596	151.904
703.488	103.94
706.381	79.7647
709.274	56.173
712.166	6.59009
715.059	13.1707
717.952	42.0061
720.845	81.1731
723.737	141.155
726.63	91.5305
729.523	125.368
732.415	135.197
735.308	96.8193
738.201	36.5786
741.093	42.208
743.986	165.751
746.879	333.146
749.771	499.96
752.664	632.727
755.557	830.924
758.45	1064.06
761.342	1339.28
764.235	1791.02
767.128	2359.22
770.02	3136.27
772.913	4142.9
775.806	5463.9
778.698	7077.45
781.591	8992.79
784.484	11419
787.377	14085.6
790.269	16913.4
793.162	19392.5
796.055	21223.8
798.947	22689.1
801.84	23314.9
804.733	24191.8
807.625	25658
810.518	28488.6
813.411	33071.5
816.304	39007.1
819.196	43768.3
822.089	46822.9
824.982	49691.3
827.874	45743.9
830.767	29352.4
833.66	15793.3
836.552	9039.21
839.445	5809.53
842.338	4129.18
845.231	3275.39
848.123	2817.75
851.016	2668.38
853.909	2453.84
856.801	1991.54
859.694	1218.2
862.587	654.154
865.479	438.254
868.372	457.96
871.265	679.564
874.158	930.993
877.05	1193.43
879.943	1255.23
882.836	1096.92
885.728	632.563
888.621	280.52
891.514	44.5972
894.406	105.424
897.299	142.83
900.192	173.782
903.085	154.818
905.977	127.694
908.87	115.912
911.763	70.9791
914.655	15.7033
917.548	36.7238
920.441	86.2974
923.333	120.815
926.226	140.957
929.119	202.856
932.011	210.273
934.904	224.869
937.797	277.987
940.69	273.243
943.582	314.514
946.475	325.184
949.368	356.332
952.26	347.552
955.153	355.624
958.046	353.936
960.938	305.093
963.831	284.423
966.724	276.787
969.617	267.625
972.509	238.518
975.402	217.498
978.295	226.215
981.187	225.796
984.08	243.566
986.973	231.721
989.865	247.7
992.758	218.568
995.651	223.442
998.544	234.042
1001.44	184.376
1004.33	219.773
1007.22	303.492
1010.11	162.976
1013.01	140.652
1015.9	142.375
1018.79	308.377
1021.68	112.967
1024.58	88.146
1027.47	108.377
1030.36	73.2722
1033.26	94.3646
1036.15	91.9808
1039.04	54.3376
1041.93	53.3006
1044.83	57.2705
1047.72	23.5508
1050.61	24.9396
1053.51	42.0848
1056.4	41.7013
1059.29	34.8246
1062.18	37.4229
1065.08	81.8935
1067.97	30.6154
1070.86	20.9904
1073.75	25.1601
1076.65	8.06207
1079.54	8.86865
1082.43	18.962
1085.33	8.30011
1088.22	2.44128
1091.11	4.09311
1094	0.52475
1096.89	10.6205
1099.79	5.54663
1102.68	4.52405
1105.57	24.7033
1108.47	1.04816
1111.36	6.48047
1114.25	0.72168
1117.14	7.80118
1120.04	8.24158
1122.93	3.74377
1125.82	11.3946
1128.71	2.68487
1131.61	14.1489
1134.5	0.152527
1137.39	24.2386
1140.29	14.061
1143.18	8.31232
1146.07	14.3036
1148.96	34.2612
1151.86	3.19128
1154.75	86.6202
1157.64	8.77698
1160.54	9.79755
1163.43	3.08966
1166.32	10.0019
1169.21	15.4881
1172.11	18.3936
1175	0.61731
1177.89	35.9659
1180.78	18.1493
1183.68	15.201
1186.57	22.2966
1189.46	9.77972
1192.35	14.0219
1195.25	34.3893
1198.14	48.6261
1201.03	13.0027
1203.92	12.306
1206.82	46.6826
1209.71	25.3978
1212.6	24.6902
1215.5	23.4489
1218.39	35.0299
1221.28	36.7495
1224.17	17.7347
1227.07	24.5181
1229.96	9.35736
1232.85	38.4772
1235.74	126.883
1238.64	0
