Measurement: Raman, 780 nm, unoriented, Raman Data Processed
Mineral: Schuetteite
Rruff sample: R080079
Ideal chemistry: Hg_3_O_2_(SO_4_)
Locality: Oceanic Mine, Adelaida District, San Luis Obispo Co., California, USA
Source: Michael Scott
Description: Bright yellow earthy druse associated with earthy red cinnabar
Raman shift (cm-1)	intensity
153.27	0
156.163	5.24854
159.055	7.65088
161.948	6.03906
164.841	18.0981
167.734	32.3608
170.626	22.9224
173.519	29.519
176.412	33.9199
179.304	54.936
182.197	70.2505
185.09	98.2324
187.982	135.381
190.875	175.128
193.768	236.668
196.661	304.567
199.553	374.282
202.446	450.953
205.339	537.019
208.231	620.021
211.124	685.586
214.017	741.412
216.91	753.581
219.802	724.848
222.695	654.269
225.588	546.867
228.48	422.956
231.373	312.3
234.266	201.551
237.158	132.817
240.051	87.8291
242.944	63.543
245.837	27.8843
248.729	19.4072
251.622	10.436
254.515	7.47852
257.407	0.246582
260.3	6.37793
263.193	2.05566
266.085	9.00122
268.978	0.87915
271.871	0.475342
274.764	7.8457
277.656	8.50293
280.549	0.109863
283.442	13.1306
286.334	9.78613
289.227	20.5127
292.12	30.1628
295.012	29.4802
297.905	43.206
300.798	55.2087
303.69	71.9761
306.583	75.7168
309.476	76.4126
312.369	96.5442
315.261	118.96
318.154	124.874
321.047	136.613
323.939	141.626
326.832	141.72
329.725	156.354
332.618	157.714
335.51	175.519
338.403	192.609
341.296	209.053
344.188	217.244
347.081	226.049
349.974	230.533
352.866	233.669
355.759	225.829
358.652	225.508
361.545	203.101
364.437	192.173
367.33	157.562
370.223	139.87
373.115	108.808
376.008	90.689
378.901	51.8376
381.793	35.8906
384.686	15.8328
387.579	4.83081
390.471	4.50391
393.364	10.2607
396.257	10.5928
399.15	2.75928
402.042	6.72363
404.935	16.6775
407.828	33.6533
410.72	55.6074
413.613	89.7327
416.506	132.62
419.399	156.128
422.291	156.298
425.184	107.516
428.077	53.3543
430.969	40.4812
433.862	44.521
436.755	40.124
439.647	46.3611
442.54	60.1143
445.433	72.6221
448.325	95.5029
451.218	103.061
454.111	98.2822
457.004	59.5144
459.896	43.6279
462.789	46.0901
465.682	47.5869
468.574	42.8291
471.467	62.4395
474.36	65.2996
477.252	79.8603
480.145	91.0381
483.038	122.679
485.931	135.627
488.823	150.691
491.716	162.472
494.609	155.592
497.501	143.267
500.394	112.585
503.287	99.529
506.18	97.4065
509.072	94.4177
511.965	88.9653
514.858	71.6206
517.75	73.7478
520.643	56.4712
523.536	42.8794
526.428	26.2966
529.321	20.5149
532.214	18.6582
535.106	11.1138
537.999	0.644043
540.892	1.09717
543.785	0.850586
546.677	0.456299
549.57	11.4265
552.463	3.48413
555.355	2.28833
558.248	3.10522
561.141	3.69458
564.034	0.205811
566.926	0.364258
569.819	9.6936
572.712	7.29028
575.604	8.39307
578.497	6.72119
581.39	12.717
584.282	15.9868
587.175	20.0686
590.068	30.5679
592.96	36.9775
595.853	27.1443
598.746	44.1609
601.639	41.8669
604.531	40.5215
607.424	42.2698
610.317	31.2952
613.209	35.437
616.102	39.8479
618.995	61.2122
621.888	72.2598
624.78	78.0068
627.673	98.6948
630.566	95.4141
633.458	81.8982
636.351	42.4092
639.244	14.1304
642.136	9.08594
645.029	6.26245
647.922	8.2456
650.814	4.19678
653.707	12.5134
656.6	10.0942
659.493	11.2234
662.385	20.1977
665.278	29.8911
668.171	45.3909
671.063	59.2329
673.956	69.0884
676.849	51.1819
679.741	15.5264
682.634	9.42041
685.527	9.53271
688.42	7.96533
691.312	4.74146
694.205	6.74146
697.098	5.00806
699.99	0.412598
702.883	5.17847
705.776	6.55103
708.668	9.23926
711.561	7.27979
714.454	3.35205
717.347	7.5376
720.239	10.0491
723.132	6.73975
726.025	4.70093
728.917	0.63208
731.81	15.5071
734.703	17.5386
737.596	16.7505
740.488	20.8438
743.381	16.9443
746.274	24.2771
749.166	23.2139
752.059	13.3347
754.952	9.28711
757.844	12.8767
760.737	7.63989
763.63	10.24
766.523	8.30127
769.415	1.88867
772.308	0.631592
775.201	9.16919
778.093	3.95874
780.986	3.70386
783.879	6.3938
786.771	0.543945
789.664	6.59033
792.557	3.90527
795.449	7.73315
798.342	7.55542
801.235	7.24634
804.128	4.40942
807.02	11.9609
809.913	16.6633
812.806	14.1272
815.698	10.2898
818.591	22.3049
821.484	19.1428
824.376	19.9553
827.269	20.4827
830.162	22.0181
833.055	21.5918
835.947	17.6697
838.84	22.9439
841.733	21.0122
844.625	18.0969
847.518	12.8472
850.411	15.3579
853.303	18.9128
856.196	10.4111
859.089	16.4624
861.982	11.6738
864.874	21.5645
867.767	21.7498
870.66	13.3425
873.552	17.4656
876.445	16.666
879.338	11.0266
882.231	10.5615
885.123	18.7605
888.016	7.97754
890.909	4.0271
893.801	18.8362
896.694	11.3955
899.587	12.8457
902.479	8.44727
905.372	5.09668
908.265	7.13818
911.158	1.63892
914.05	2.53101
916.943	0.740479
919.836	1.69434
922.728	5.50928
925.621	2.46216
928.514	4.70508
931.406	0.919189
934.299	2.81934
937.192	1.05395
940.084	0.443359
942.977	3.1875
945.87	0.105225
948.763	0.243408
951.655	7.02661
954.548	13.8118
957.441	28.0373
960.333	56.1243
963.226	103.892
966.119	145.523
969.011	208.854
971.904	286.77
974.797	382.77
977.689	307.553
980.582	133.554
983.475	53.7649
986.368	27.6924
989.26	15.0835
992.153	4.8894
995.046	17.2854
997.938	26.145
1000.83	48.4937
1003.72	74.6916
1006.62	120.101
1009.51	163.096
1012.4	208.36
1015.29	272.971
1018.19	292.631
1021.08	299.239
1023.97	345.322
1026.87	351.296
1029.76	213.625
1032.65	87.7373
1035.54	31.4258
1038.44	15.6118
1041.33	2.00073
1044.22	5.17456
1047.11	0.626221
1050.01	8.81226
1052.9	14.21
1055.79	24.9477
1058.68	23.0386
1061.58	31.79
1064.47	32.7261
1067.36	30.564
1070.26	31.5376
1073.15	30.0388
1076.04	31.3845
1078.93	32.9822
1081.83	27.8601
1084.72	22.6879
1087.61	23.24
1090.51	21.1526
1093.4	12.9579
1096.29	10.8147
1099.18	3.0719
1102.08	0.97522
1104.97	1.03272
1107.86	2.15845
1110.75	0.573975
1113.65	1.2157
1116.54	1.00855
1119.43	4.98096
1122.32	9.15454
1125.22	12.8872
1128.11	24.0911
1131	5.98047
1133.89	5.35022
1136.79	9.69849
1139.68	5.07922
1142.57	4.39746
1145.47	11.6652
1148.36	16.6289
1151.25	16.6321
1154.14	11.0743
1157.04	24.0835
1159.93	33.5416
1162.82	28.9081
1165.71	35.9028
1168.61	40.7552
1171.5	38.5663
1174.39	23.907
1177.29	14.1614
1180.18	16.5276
1183.07	11.5513
1185.96	8.72925
1188.86	6.70435
1191.75	15.7356
1194.64	9.88037
1197.54	8.13672
1200.43	3.32983
1203.32	8.25195
1206.21	1.63184
1209.11	2.19312
1212	2.60156
1214.89	2.86768
1217.78	6.2041
1220.68	0.54834
1223.57	4.84106
1226.46	0.338379
1229.35	5.55493
