Measurement: Raman, 532 nm, unoriented, Raman Data Processed
Mineral: Schuilingite-(Nd)
Rruff sample: R100063
Ideal chemistry: CuPbNd(CO_3_)_3_(OH)1.5H_2_O
Locality: Kasompi, 70 km. west of Kambove, Katanga, Congo
Source: William W Pinch
Description: Azure-blue, prismatic crystals. Same sample as used by Schindler and Hawthorne (1999) for structure determination
Raman shift (cm-1)	intensity
155.096	0
157.988	15.1113
160.881	1.47583
163.774	121.124
166.667	210.531
169.559	312.509
172.452	413.833
175.345	507.25
178.237	547.326
181.13	527.223
184.023	452.859
186.916	337.197
189.808	237.746
192.701	147.428
195.594	78.4644
198.486	37.3064
201.379	33.6956
204.272	43.9333
207.164	63.8403
210.057	80.2349
212.95	101.734
215.843	148.596
218.735	215.449
221.628	324.32
224.521	429.506
227.413	553.649
230.306	674.784
233.199	790.557
236.091	909.197
238.984	1022.66
241.877	1116.82
244.769	1114.27
247.662	971.534
250.555	743.455
253.448	534.285
256.34	365.793
259.233	256.911
262.126	180.859
265.018	165.195
267.911	157.46
270.804	176.545
273.697	203.086
276.589	239.084
279.482	285.844
282.375	303.89
285.267	286.823
288.16	234.867
291.053	160.834
293.945	108.321
296.838	70.0004
299.731	38.2817
302.623	17.3572
305.516	9.58484
308.409	2.16626
311.302	7.46777
314.194	18.5355
317.087	13.5089
319.98	14.2997
322.872	3.90686
325.765	4.39734
328.658	10.3574
331.55	17.6195
334.443	15.6119
337.336	28.941
340.229	27.2766
343.121	28.5912
346.014	19.9515
348.907	13.7089
351.799	17.0341
354.692	21.85
357.585	25.0303
360.478	29.802
363.37	55.2773
366.263	53.9598
369.156	51.8558
372.048	42.3301
374.941	38.9601
377.834	40.0638
380.726	38.7801
383.619	47.7841
386.512	70.5176
389.404	105.426
392.297	152.694
395.19	207.99
398.083	289.152
400.975	368.202
403.868	451.639
406.761	506.383
409.653	546.271
412.546	537.346
415.439	504.849
418.332	459.908
421.224	446.497
424.117	453.851
427.01	405.779
429.902	331.441
432.795	229.234
435.688	149.261
438.58	99.9226
441.473	64.3777
444.366	37.3635
447.259	25.3486
450.151	20.2251
453.044	20.8955
455.937	19.0413
458.829	17.6902
461.722	34.9004
464.615	55.1624
467.507	60.456
470.4	58.3872
473.293	52.9019
476.185	33.6428
479.078	30.8923
481.971	26.4368
484.864	23.3713
487.756	14.0706
490.649	6.00781
493.542	8.77124
496.434	0.979736
499.327	2.08032
502.22	5.74902
505.113	0.773438
508.005	2.6626
510.898	3.00708
513.791	3.01929
516.683	1.63159
519.576	4.13184
522.469	8.01538
525.361	2.82324
528.254	1.49097
531.147	1.68799
534.04	1.28613
536.932	1.03735
539.825	9.24048
542.718	7.64111
545.61	4.87329
548.503	4.53906
551.396	10.8113
554.288	11.073
557.181	7.41479
560.074	9.07739
562.967	11.6445
565.859	17.3186
568.752	21.1296
571.645	23.5913
574.537	19.7209
577.43	14.8191
580.323	17.9011
583.216	24.1104
586.108	22.2388
589.001	29.3298
591.894	21.0713
594.786	24.8633
597.679	23.3103
600.572	21.6428
603.464	26.6118
606.357	19.7051
609.25	21.7815
612.142	23.3491
615.035	17.7224
617.928	15.1741
620.821	5.05225
623.713	5.16064
626.606	4.31494
629.499	1.4895
632.391	2.92993
635.284	5.41064
638.177	1.43945
641.069	3.55078
643.962	2.85327
646.855	1.6687
649.747	8.86768
652.64	12.4876
655.533	7.6355
658.426	9.03662
661.318	5.90405
664.211	6.53931
667.104	0.35498
669.996	11.3796
672.889	0.593994
675.782	11.0984
678.674	13.3237
681.567	25.1611
684.46	35.2742
687.353	47.4815
690.245	70.7151
693.138	125.826
696.031	169.686
698.923	150.528
701.816	95.1184
704.709	122.256
707.601	183.435
710.494	240.114
713.387	275.01
716.28	275.493
719.172	250.652
722.065	182.265
724.958	139.087
727.85	149.715
730.743	183.507
733.636	250.297
736.529	371.856
739.421	483.064
742.314	463.368
745.207	289.826
748.099	155.213
750.992	86.1252
753.885	51.1616
756.777	33.3352
759.67	24.7659
762.563	15.6704
765.456	10.3237
768.348	9.45459
771.241	6.99561
774.134	11.2805
777.026	7.7915
779.919	9.2229
782.812	4.44507
785.704	5.62256
788.597	0.21582
791.49	5.24463
794.383	8.06738
797.275	1.71436
800.168	0.634033
803.061	4.79102
805.953	4.92871
808.846	1.7124
811.739	8.5874
814.631	6.4519
817.524	3.3103
820.417	4.26123
823.309	8.85449
826.202	9.771
829.095	9.39355
831.988	27.5537
834.88	41.8962
837.773	54.2668
840.666	74.3147
843.558	61.6565
846.451	40.5408
849.344	25.5598
852.236	17.8323
855.129	17.437
858.022	17.1091
860.915	17.523
863.807	14.6143
866.7	13.6282
869.593	6.68506
872.485	11.0347
875.378	13.4692
878.271	9.43359
881.163	11.6777
884.056	10.7178
886.949	14.9568
889.842	23.7002
892.734	25.5715
895.627	33.8396
898.52	32.3811
901.412	43.1865
904.305	54.0659
907.198	59.1148
910.091	64.6433
912.983	81.5466
915.876	91.2966
918.769	99.53
921.661	104.068
924.554	102.79
927.447	92.9648
930.339	77.8159
933.232	61.2315
936.125	41.6206
939.018	30.0935
941.91	29.1494
944.803	21.2358
947.696	19.5967
950.588	18.4258
953.481	13.4802
956.374	6.62671
959.266	8.4646
962.159	8.1936
965.052	0.858887
967.944	4.48022
970.837	3.09741
973.73	0.329346
976.623	2.19434
979.515	4.18115
982.408	6.73193
985.301	6.58496
988.193	12.302
991.086	6.00391
993.979	0.739014
996.871	5.21924
999.764	5.052
1002.66	5.25293
1005.55	5.99121
1008.44	9.32251
1011.34	5.25903
1014.23	8.63623
1017.12	7.61011
1020.01	8.42188
1022.91	6.65894
1025.8	8.61133
1028.69	12.2778
1031.58	20.6062
1034.48	26.7646
1037.37	41.2861
1040.26	53.312
1043.15	71.9814
1046.05	114.342
1048.94	186.279
1051.83	289.089
1054.73	440.281
1057.62	644.841
1060.51	844.641
1063.4	865.249
1066.3	630.907
1069.19	412.809
1072.08	337.635
1074.97	370.135
1077.87	484.893
1080.76	650.519
1083.65	863.034
1086.55	992.615
1089.44	859.31
1092.33	683.422
1095.22	666.819
1098.12	730.071
1101.01	738.479
1103.9	576.197
1106.79	327.689
1109.69	138.589
1112.58	69.3884
1115.47	29.7061
1118.37	23.0376
1121.26	22.1238
1124.15	9.80615
1127.04	7.78589
1129.94	2.66992
1132.83	5.79736
1135.72	7.06763
1138.61	7.45044
1141.51	3.52685
1144.4	0.505371
1147.29	3.46533
1150.18	3.68164
1153.08	8.2478
1155.97	7.10913
1158.86	6.79394
1161.76	4.92236
1164.65	2.49731
1167.54	2.7229
1170.43	6.17041
1173.33	2.7146
1176.22	4.28442
1179.11	1.94995
1182	8.09863
1184.9	4.04663
1187.79	4.00317
1190.68	0.372559
1193.58	0.908447
1196.47	10.2288
1199.36	15.0832
1202.25	11.9094
1205.15	15.6848
1208.04	16.1899
1210.93	14.2468
1213.82	22.2622
1216.72	21.0762
1219.61	8.79028
1222.5	9.33594
1225.39	9.83301
1228.29	10.2722
1231.18	15.6526
1234.07	12.7471
1236.97	5.92725
1239.86	1.99853
1242.75	9.65601
1245.64	8.30664
1248.54	18.4863
1251.43	18.1899
1254.32	14.4675
1257.21	5.32275
1260.11	9.63721
1263	12.374
1265.89	9.65649
1268.79	15.5356
1271.68	8.46484
1274.57	7.16455
1277.46	6.52197
1280.36	1.72925
1283.25	0.843262
1286.14	0.970215
1289.03	0.654297
1291.93	5.6311
1294.82	6.84619
1297.71	7.49414
1300.61	18.6645
