Measurement: Raman, 532 nm, unoriented, Raman Data Processed
Mineral: Schulenbergite
Rruff sample: R060992
Ideal chemistry: (Cu,Zn)_7_(SO_4_)_2_(OH)_10_3H_2_O
Locality: Platosa mine, Bermejillo, Mapimi Municipality, Mexico
Source: Peter Megaw
Description: Coating of blue-green thin, tabular hexagonal crystals associated with gypsum, linarite, and serpierite
Raman shift (cm-1)	intensity
123.451	0
126.826	38.4348
130.201	120.323
133.576	73.9813
136.951	83.2194
140.326	141.142
143.7	181.721
147.075	224.163
150.45	184.348
153.825	211.712
157.2	247.165
160.574	245.572
163.949	237.115
167.324	126.324
170.699	96.0387
174.074	55.5503
177.448	42.121
180.823	86.2068
184.198	84.028
187.573	66.2206
190.948	118.135
194.323	133.891
197.697	146.65
201.072	130.681
204.447	172.316
207.822	212.966
211.197	245.726
214.571	220.62
217.946	214.792
221.321	249.64
224.696	278.006
228.071	306.491
231.446	320.283
234.82	356.686
238.195	368.057
241.57	310.279
244.945	327.327
248.32	310.071
251.694	295.227
255.069	251.808
258.444	249.76
261.819	188.087
265.194	110.911
268.568	87.7083
271.943	82.257
275.318	8.36646
278.693	36.7645
282.068	2.69421
285.442	25.6493
288.817	3.03711
292.192	48.1909
295.567	54.3916
298.942	126.4
302.317	198.834
305.691	183.237
309.066	123.627
312.441	51.9477
315.816	9.19214
319.191	25.7379
322.565	25.9591
325.94	16.3123
329.315	14.0666
332.69	22.3619
336.065	2.86841
339.44	20.0787
342.814	12.74
346.189	18.2771
349.564	3.15906
352.939	18.8385
356.314	59.3931
359.688	45.9503
363.063	151.665
366.438	150.889
369.813	251.412
373.188	323.508
376.562	319.654
379.937	415.047
383.312	453.757
386.687	567.284
390.062	613.493
393.437	649.178
396.811	651.82
400.186	601.736
403.561	514.903
406.936	401.398
410.311	351.632
413.685	273.185
417.06	272.59
420.435	246.258
423.81	281.752
427.185	380.406
430.56	441.392
433.934	530.245
437.309	673.514
440.684	788.236
444.059	919.918
447.434	962.328
450.808	965.669
454.183	954.013
457.558	878.412
460.933	774.033
464.308	690.002
467.683	597.093
471.057	434.868
474.432	321.204
477.807	228.399
481.182	160.681
484.557	114.049
487.931	72.2913
491.306	70.334
494.681	89.2256
498.056	92.7673
501.431	157.236
504.805	174.819
508.18	174.915
511.555	206.507
514.93	182.756
518.305	166.223
521.679	173.626
525.054	116.252
528.429	95.3323
531.804	41.1903
535.179	12.9409
538.554	22.4156
541.928	16.1519
545.303	9.82996
548.678	15.7351
552.053	43.5411
555.428	18.2205
558.802	0.174316
562.177	22.3191
565.552	24.1794
568.927	53.9637
572.302	114.782
575.677	131.958
579.051	142.72
582.426	189.16
585.801	326.5
589.176	386.841
592.551	558.361
595.925	773.659
599.3	929.811
602.675	1145.83
606.05	1242.34
609.425	1136.24
612.799	975.007
616.174	766.799
619.549	668.382
622.924	574.655
626.299	453.848
629.673	353.92
633.048	278.562
636.423	209.351
639.798	148.797
643.173	138.479
646.548	94.2681
649.922	90.5153
653.297	67.0974
656.672	46.5283
660.047	41.9917
663.422	26.4817
666.797	45.2278
670.171	28.014
673.546	36.9082
676.921	13.5658
680.296	30.7521
683.67	46.7882
687.045	6.29993
690.42	14.777
693.795	55.0896
697.17	16.679
700.545	14.632
703.919	20.1868
707.294	11.2623
710.669	10.428
714.044	41.4636
717.419	23.0516
720.793	50.7074
724.168	49.0203
727.543	74.9539
730.918	57.5162
734.293	26.5503
737.668	56.2598
741.042	31.6798
744.417	2.1853
747.792	21.8203
751.167	6.51587
754.542	9.65527
757.916	9.68909
761.291	25.4915
764.666	11.1337
768.041	50.1782
771.416	27.208
774.79	51.3407
778.165	29.7775
781.54	52.925
784.915	68.7914
788.29	109.359
791.665	96.1597
795.039	78.3325
798.414	66.5663
801.789	49.2388
805.164	44.8842
808.539	84.8209
811.913	47.707
815.288	53.3215
818.663	68.2733
822.038	68.7607
825.413	90.9276
828.788	102.046
832.162	43.8674
835.537	76.1321
838.912	45.0591
842.287	35.922
845.662	32.5035
849.036	11.1792
852.411	11.308
855.786	7.66943
859.161	27.8746
862.536	39.1628
865.91	51.9085
869.285	38.169
872.66	11.1414
876.035	1.82593
879.41	20.3445
882.784	22.0757
886.159	40.6398
889.534	18.8742
892.909	10.2781
896.284	30.9358
899.659	20.7512
903.033	16.6384
906.408	39.4294
909.783	39.0431
913.158	20.6682
916.533	18.6323
919.908	64.9785
923.282	29.8649
926.657	96.4397
930.032	112.22
933.407	93.541
936.782	137.421
940.156	175.366
943.531	204.511
946.906	356.736
950.281	461.788
953.656	753.271
957.03	1235.7
960.405	1898.99
963.78	2829.53
967.155	3695.74
970.53	4050.99
973.904	3672.33
977.279	2879.29
980.654	2312.47
984.029	2171.97
987.404	2336.12
990.779	2129.57
994.153	1445.16
997.528	832.508
1000.9	417.035
1004.28	249.16
1007.65	196.906
1011.03	139.318
1014.4	130.5
1017.78	90.8267
1021.15	74.8852
1024.53	87.4771
1027.9	45.4692
1031.28	22.7859
1034.65	15.1047
1038.03	1.15747
1041.4	20.2239
1044.78	1.0686
1048.15	18.3987
1051.53	17.9297
1054.9	12.3494
1058.28	7.80884
1061.65	44.0288
1065.03	51.2685
1068.4	68.5356
1071.77	148.138
1075.15	165.253
1078.52	258.075
1081.9	326.141
1085.27	460.458
1088.65	620.928
1092.02	729.751
1095.4	632.788
1098.77	516.398
1102.15	425.65
1105.52	416.476
1108.9	434.003
1112.27	379.751
1115.65	378.944
1119.02	376.248
1122.4	328.148
1125.77	321.38
1129.15	310.635
1132.52	312.423
1135.9	302.562
1139.27	273.357
1142.64	231.396
1146.02	228.267
1149.39	199.991
1152.77	195.618
1156.14	163.451
1159.52	129.042
1162.89	91.1864
1166.27	43.1191
1169.64	0.820313
1173.02	33.6932
1176.39	21.0221
1179.77	11.1325
1183.14	39.8773
1186.52	3.6582
1189.89	25.8052
1193.27	18.6949
1196.64	30.8388
1200.02	10.821
1203.39	8.83545
1206.77	19.2526
1210.14	63.2508
1213.52	28.9855
1216.89	32.6549
1220.27	46.7494
1223.64	20.0266
1227.02	34.0807
1230.39	70.8324
1233.77	64.3407
1237.14	79.4006
1240.52	28.5892
1243.89	45.4729
1247.26	41.8287
1250.64	31.3031
1254.01	52.6036
1257.39	43.4354
1260.76	28.7564
1264.14	16.0012
1267.51	45.5071
1270.89	14.0577
1274.26	15.533
1277.64	34.3098
1281.01	34.173
1284.39	15.9216
1287.76	2.09802
1291.14	36.6696
