Measurement: Raman, 785 nm, unoriented, Raman Data Processed
Mineral: Schumacherite
Rruff sample: R060759
Ideal chemistry: Bi_3_O(VO_4_)_2_(OH)
Locality: Pucher shaft, Schneeberg district, Sachsen, Germany
Source: Michael Scott
Description: Dirty yellow platy aggregates associated with reddish-brown pucherite
Raman shift (cm-1)	intensity
155.758	0
158.651	256.918
161.544	2967.03
164.436	6340.43
167.329	8048.97
170.222	7474.58
173.114	5365.97
176.007	3388.39
178.9	2662.35
181.793	3481.12
184.685	6105.28
187.578	10094.8
190.471	15039.9
193.363	19810.8
196.256	24111.7
199.149	26012.8
202.042	25433.1
204.934	24538
207.827	23078.2
210.72	21593.5
213.612	19721.9
216.505	17698
219.398	14985
222.29	12301
225.183	9888.88
228.076	8025.16
230.969	6544.37
233.861	5309.44
236.754	4434.54
239.647	3046.09
242.539	1816.07
245.432	901.055
248.325	164.488
251.217	572.59
254.11	589.102
257.003	836.297
259.896	339.508
262.788	168.168
265.681	885.812
268.574	1032.23
271.466	979.691
274.359	640.352
277.252	351.512
280.144	111.652
283.037	106.668
285.93	333.551
288.822	920.074
291.715	2529.24
294.608	5019.48
297.5	8362.76
300.393	11302.6
303.286	12568.8
306.179	12647.4
309.071	13417.4
311.964	14305.7
314.857	16915.6
317.749	19966.2
320.642	22335.8
323.535	23650.9
326.428	22542.5
329.32	19569.7
332.213	15858.9
335.106	13201.7
337.998	11475.3
340.891	10460.8
343.784	10729.6
346.676	11195.1
349.569	11918.8
352.462	12768.4
355.354	13234.6
358.247	12396
361.14	11086.1
364.033	9342.4
366.925	8137.27
369.818	7637.54
372.711	7803.88
375.603	8199.44
378.496	8966.7
381.389	8704.88
384.281	8446.56
387.174	7425.59
390.067	6565.69
392.96	5584.12
395.852	4717.39
398.745	3931.27
401.638	3274.5
404.53	2529.01
407.423	1912.12
410.316	1506.39
413.209	1488.19
416.101	1369.5
418.994	1083.2
421.887	986.059
424.779	541.004
427.672	294.445
430.565	2.58203
433.457	244.758
436.35	182.801
439.243	210.898
442.135	80.4648
445.028	8.49219
447.921	54.1016
450.814	78.9141
453.706	457.695
456.599	281.898
459.492	135.832
462.384	259.316
465.277	385.094
468.17	573.539
471.062	1129.08
473.955	1268.26
476.848	1428.39
479.74	1583.85
482.633	1474.29
485.526	1410.02
488.419	1364.4
491.311	1227.43
494.204	1009.53
497.097	618.66
499.989	458.637
502.882	467.731
505.775	305.773
508.668	324.785
511.56	335.789
514.453	354.68
517.346	389.199
520.238	332.547
523.131	278.859
526.024	248.965
528.916	333.047
531.809	280.219
534.702	233.422
537.595	849.102
540.487	761.406
543.38	601.387
546.273	617.133
549.165	580.477
552.058	680.188
554.951	671.309
557.843	739.106
560.736	694.062
563.629	847.023
566.521	593.672
569.414	301.004
572.307	245.144
575.2	190.148
578.092	372.984
580.985	443.332
583.878	489.133
586.77	368.086
589.663	309.535
592.556	246.336
595.448	84.6758
598.341	399.867
601.234	160.125
604.127	378.109
607.019	515.266
609.912	575.742
612.805	612.488
615.697	646.773
618.59	695.379
621.483	850.797
624.375	1001.51
627.268	899.93
630.161	944.848
633.053	1026.54
635.946	1149.77
638.839	1084.84
641.732	1042.31
644.624	1041.75
647.517	762.277
650.41	943.356
653.302	891.262
656.195	913.633
659.088	920.07
661.981	622.711
664.873	506.555
667.766	518.938
670.659	455.121
673.551	409.945
676.444	424.148
679.337	246.477
682.229	125.281
685.122	20.3359
688.015	141.82
690.908	129.711
693.8	101.91
696.693	134.731
699.586	56.0117
702.478	121.359
705.371	403.758
708.264	99.4062
711.156	174.758
714.049	113.43
716.942	466.75
719.835	911.273
722.727	1372.96
725.62	1667.75
728.513	1914.77
731.405	1904.43
734.298	1848.6
737.191	1948.3
740.083	1899.3
742.976	1824.77
745.869	1714.5
748.761	2087.25
751.654	2114.86
754.547	2310.7
757.44	2462.86
760.332	2284.95
763.225	2010.63
766.118	1878.05
769.01	1564.3
771.903	1301.83
774.796	1052.48
777.688	606.926
780.581	505.148
783.474	420.137
786.367	625.676
789.259	614.094
792.152	491.312
795.045	283.277
797.937	350.402
800.83	360.496
803.723	582.961
806.615	875.023
809.508	1380.38
812.401	2207.8
815.294	3190.97
818.186	4571.13
821.079	6332.59
823.972	8975.93
826.864	12407.7
829.757	16557.5
832.65	21275
835.542	26480.8
838.435	31810
841.328	38226.6
844.221	45444.1
847.113	52913.9
850.006	57819.1
852.899	56696.8
855.791	49190.2
858.684	38424.9
861.577	28324.6
864.469	20507.1
867.362	15114.7
870.255	10870.5
873.148	8182.6
876.04	6190.07
878.933	4814.25
881.826	3568.42
884.718	2660.56
887.611	1922.97
890.504	1544.46
893.396	900.289
896.289	474.281
899.182	152.93
902.074	16.8594
904.967	70.3242
907.86	60.6562
910.753	56.2656
913.645	130.719
916.538	96.7617
919.431	184.602
922.323	213.398
925.216	120.402
928.109	10.9023
931.001	65.3203
933.894	266.844
936.787	268.41
939.68	380.277
942.572	545.184
945.465	773.402
948.358	1024.72
951.25	1059.65
954.143	1058.17
957.036	1042.97
959.928	1023.81
962.821	1095.57
965.714	1060.19
968.607	959.4
971.499	854.789
974.392	887.18
977.285	912.779
980.177	873.4
983.07	697.504
985.963	573.449
988.856	371.867
991.748	142.666
994.641	195.338
997.534	390.164
1000.43	448.908
1003.32	362.514
1006.21	384.197
1009.1	394.043
1012	563.15
1014.89	494.795
1017.78	482.65
1020.67	373.725
1023.57	380.008
1026.46	483.562
1029.35	605.877
1032.25	554.295
1035.14	652.834
1038.03	686.213
1040.92	538.664
1043.82	489.127
1046.71	162.477
1049.6	279.246
1052.49	278.707
1055.39	222.764
1058.28	237.791
1061.17	154.607
1064.07	117.488
1066.96	111.307
1069.85	111.365
1072.74	35.8516
1075.64	183.977
1078.53	186.19
1081.42	136.527
1084.31	167.234
1087.21	87.6113
1090.1	122.852
1092.99	284.826
1095.88	190.078
1098.78	285.072
1101.67	228.727
1104.56	66.8613
1107.46	78.1641
1110.35	218.67
1113.24	113.494
1116.13	220.17
1119.03	119.414
1121.92	74.3379
1124.81	55.6914
1127.7	115.17
1130.6	40.7539
1133.49	68.7207
1136.38	85.418
1139.28	22.166
1142.17	11.8652
1145.06	35.9531
1147.95	138.057
1150.85	67.0684
1153.74	0.222656
1156.63	0.611328
1159.53	127.117
1162.42	125.519
1165.31	46.8594
1168.2	259.397
1171.1	301.074
1173.99	234.678
1176.88	487.281
1179.77	531.947
1182.67	657.135
1185.56	715.275
1188.45	1124.33
1191.34	1336.82
1194.24	1613.18
1197.13	1963.01
1200.02	2250.11
1202.91	2230.96
1205.81	2563.78
1208.7	2540.75
1211.59	2656.1
1214.49	2680.35
1217.38	2606.71
1220.27	2527.12
1223.16	2329.95
1226.06	1935.52
1228.95	1619.91
1231.84	1365.12
1234.73	893.908
1237.63	1036.7
1240.52	701.633
1243.41	431.178
1246.31	351.316
1249.2	526.814
1252.09	364.67
1254.98	7.87305
