Measurement: Raman, 532 nm, unoriented, Raman Data Processed
Mineral: Schumacherite
Rruff sample: R060759
Ideal chemistry: Bi_3_O(VO_4_)_2_(OH)
Locality: Pucher shaft, Schneeberg district, Sachsen, Germany
Source: Michael Scott
Description: Dirty yellow platy aggregates associated with reddish-brown pucherite
Raman shift (cm-1)	intensity
118.147	0
121.04	375.863
123.933	4134.24
126.825	6841.47
129.718	7689.64
132.611	7942.53
135.504	8701.28
138.396	10657.9
141.289	13424.5
144.182	16904.4
147.074	19988.4
149.967	22302.7
152.86	23664.8
155.752	25520.8
158.645	27932.6
161.538	28314
164.43	26932.9
167.323	23157.5
170.216	19513
173.109	16689
176.001	15673.9
178.894	16484.5
181.787	19447.9
184.679	24276.4
187.572	29829.1
190.465	35330.1
193.357	39489.8
196.25	41934.1
199.143	42834.6
202.036	41802.3
204.928	40563
207.821	38461.2
210.714	35483.8
213.606	32063.2
216.499	28270
219.392	23715.9
222.285	19522.2
225.177	15756.8
228.07	12828.9
230.963	9928.85
233.855	7037.1
236.748	4485.48
239.641	2437.99
242.533	1035.7
245.426	38.8906
248.319	1055.9
251.212	1743.31
254.104	2021.83
256.997	1632.93
259.89	532.336
262.782	729.281
265.675	1593.01
268.568	1690.05
271.46	1345.04
274.353	788.852
277.246	268.531
280.138	323.445
283.031	1196.81
285.924	3105.51
288.817	6451.76
291.709	11079.8
294.602	15767.8
297.495	20425.4
300.387	23586.7
303.28	24976.3
306.173	25308.8
309.065	26292.3
311.958	28136.3
314.851	31329.2
317.743	34294.4
320.636	36727.8
323.529	36555.1
326.422	34290.4
329.314	30113
332.207	26087.8
335.1	22990.3
337.992	21427.4
340.885	20913.3
343.778	20744.7
346.671	21848.7
349.563	23211.7
352.456	24161
355.349	24343.3
358.241	23524.3
361.134	22370
364.027	20650.1
366.919	19389.7
369.812	19383.5
372.705	19842.9
375.598	20377.4
378.49	20573.8
381.383	19908.3
384.276	18922.9
387.168	17164.6
390.061	14373.1
392.954	11747.5
395.846	9252.05
398.739	7706.48
401.632	6292.72
404.524	5245.76
407.417	4503.44
410.31	3641.26
413.203	2943.48
416.095	2599.5
418.988	1957.31
421.881	1331.37
424.773	1067.72
427.666	621.277
430.559	228.324
433.452	99.9648
436.344	253.805
439.237	305.57
442.13	544.82
445.022	468.543
447.915	619.652
450.808	539.875
453.7	452.051
456.593	79.9102
459.486	60.1211
462.378	321.523
465.271	1040.48
468.164	1621.85
471.057	2135.23
473.949	2490.6
476.842	2300.52
479.735	2358.93
482.627	2290.96
485.52	1932.85
488.413	1601.25
491.305	1303.6
494.198	1001.37
497.091	993.109
499.983	695.25
502.876	710.158
505.769	457.897
508.662	363.203
511.554	121.873
514.447	33.9883
517.34	150.463
520.232	254.209
523.125	348.609
526.018	372.522
528.91	505.352
531.803	541.041
534.696	607.574
537.589	905.166
540.481	1028.05
543.374	1356.44
546.267	1565.08
549.159	1544.91
552.052	1444.09
554.945	1423.95
557.837	1254.62
560.73	1376.88
563.623	1304.84
566.516	1422.83
569.408	1451.99
572.301	1514.35
575.194	1333.6
578.086	1454.64
580.979	1359
583.872	1465.58
586.764	1426.05
589.657	1501.15
592.55	1365.02
595.443	1553.46
598.335	1417.97
601.228	1686.17
604.121	1953.12
607.013	2305.15
609.906	2444.79
612.799	2653.13
615.692	2774.05
618.584	3137.03
621.477	3483.26
624.37	3699.77
627.262	3800.73
630.155	3932.32
633.048	4007.05
635.94	4164.85
638.833	4227.53
641.726	4323.48
644.619	4450.95
647.511	4419.38
650.404	4249.9
653.297	3733.91
656.189	3461.25
659.082	2988.03
661.975	2545.18
664.867	2262.8
667.76	1970.6
670.653	1720.68
673.545	1205.52
676.438	771.777
679.331	599.648
682.224	336.969
685.116	188.695
688.009	33.9062
690.902	226.031
693.794	188.055
696.687	454.059
699.58	527.519
702.472	482.977
705.365	175.688
708.258	450.856
711.15	1018.73
714.043	2104.68
716.936	3174.91
719.829	4497.57
722.721	5585.16
725.614	6705.44
728.507	7351.02
731.399	7476.89
734.292	7487.78
737.185	7433.57
740.077	7143.77
742.97	7382.35
745.863	7662.25
748.756	7808.88
751.648	7445.01
754.541	7441.52
757.434	7129.95
760.326	5945.4
763.219	5150.68
766.112	4141.09
769.005	3442.05
771.897	2234.28
774.79	1020.95
777.683	320.332
780.575	138.965
783.468	325.816
786.361	244.695
789.253	142.859
792.146	379.797
795.039	1273.81
797.932	1858.69
800.824	2933.7
803.717	4887.76
806.61	7208.44
809.502	10298.7
812.395	14394.2
815.288	20055.2
818.18	27198.9
821.073	36479.4
823.966	48437.5
826.859	62849.5
829.751	80164.3
832.644	99895.2
835.537	122392
838.429	148068
841.322	173984
844.215	199099
847.107	216943
850	220109
852.893	204684
855.785	175452
858.678	140944
861.571	108369
864.464	82341.6
867.356	62637.9
870.249	47648.1
873.142	37062.9
876.034	28810.3
878.927	22880.8
881.82	17571.3
884.712	13761
887.605	10791.9
890.498	8504.5
893.391	6258.99
896.283	4757.06
899.176	3090.54
902.069	1932.09
904.961	1224.88
907.854	554.734
910.747	54.8516
913.639	352.398
916.532	582.723
919.425	593.352
922.317	431.293
925.21	196.285
928.103	263.082
930.996	144.449
933.888	78.8438
936.781	521.277
939.674	849.676
942.566	1051.53
945.459	1403.01
948.352	1733.37
951.245	2031.38
954.137	2188.31
957.03	2365.31
959.923	2434.49
962.815	2472
965.708	2531.71
968.601	2562.52
971.493	2693.43
974.386	2639.72
977.279	2680.05
980.172	2427.69
983.064	2308.03
985.957	2104.73
988.85	1763.51
991.742	1609.81
994.635	1497.67
997.528	1441.04
1000.42	1421.62
1003.31	1317.26
1006.21	1465.49
1009.1	1294.85
1011.99	1535.29
1014.88	1661.79
1017.78	1642.33
1020.67	1765.81
1023.56	2014
1026.45	2015.93
1029.35	2050.37
1032.24	1897.88
1035.13	1733.27
1038.03	1638.27
1040.92	1509.39
1043.81	1193.58
1046.7	936.348
1049.6	884.848
1052.49	1085.09
1055.38	812.012
1058.27	715.777
1061.17	742.184
1064.06	323.207
1066.95	314.008
1069.85	273.758
1072.74	405.269
1075.63	249.094
1078.52	110.629
1081.42	96.543
1084.31	143.574
1087.2	188.652
1090.09	76.2734
1092.99	295.852
1095.88	154.098
1098.77	267
1101.66	176.894
1104.56	99.2305
1107.45	117.824
1110.34	87.5156
1113.24	13.3516
1116.13	107.219
1119.02	138.461
1121.91	249.824
1124.81	7.57422
1127.7	109.219
1130.59	189.059
1133.48	145.766
1136.38	50.6992
1139.27	132.938
1142.16	164.613
1145.06	35.3359
1147.95	25.1172
1150.84	138.82
1153.73	108.574
1156.63	145.644
1159.52	58.6875
1162.41	41.5859
1165.3	6
1168.2	67.9414
1171.09	130.043
1173.98	305.883
1176.88	279.121
1179.77	173.773
1182.66	86.8125
1185.55	228.41
1188.45	40.9453
1191.34	108.879
1194.23	59.1875
1197.12	12.8242
1200.02	74.1016
1202.91	35.2383
1205.8	145.672
1208.69	176.394
1211.59	215.816
1214.48	137.59
1217.37	48.8633
1220.27	19.0898
1223.16	127.559
1226.05	139.18
1228.94	340.309
1231.84	246.578
1234.73	332.629
1237.62	332.902
1240.51	206.731
1243.41	295.969
1246.3	387.656
1249.19	336.879
1252.09	209.094
1254.98	348.027
1257.87	329.473
1260.76	141.984
1263.66	0.511719
1266.55	81.0742
1269.44	0
