Measurement: Raman, 780 nm, unoriented, Raman Data Processed
Mineral: Schultenite
Rruff sample: R050584
Ideal chemistry: Pb^2+^(As^5+^O_3_OH)
Locality: Tsumeb mine, Tsumeb, Otavi District, Oshikoto, Namibia
Source: University of Arizona Mineral Museum
Description: Colorless prismatic crystals with obvious striations, associated with keyite, R050585, and zincolivenite, R050583
Measured chemistry: Pb_1.00_(As_1.00_O_3_OH)
Raman shift (cm-1)	intensity
118.559	0
121.452	14.5586
124.345	398.514
127.237	1123.31
130.13	1400.18
133.023	1162.11
135.915	1744.08
138.808	3174.76
141.701	5073
144.594	7149.62
147.486	9038.62
150.379	9013.95
153.272	6916.58
156.164	4486.11
159.057	2574.54
161.95	1433.33
164.842	865.71
167.735	559.045
170.628	465.532
173.52	499.938
176.413	558.954
179.306	802.246
182.199	1156.13
185.091	1681.25
187.984	2272.19
190.877	2803.53
193.769	3323.77
196.662	3363.89
199.555	2519.56
202.447	1547.6
205.34	787.618
208.233	373.294
211.126	77.9114
214.018	20.9437
216.911	67.3273
219.804	49.334
222.696	90.9016
225.589	59.3132
228.482	21.8928
231.375	35.5485
234.267	26.3345
237.16	65.1171
240.053	108.27
242.945	191.598
245.838	210.143
248.731	299.846
251.623	336.987
254.516	386.152
257.409	408.629
260.301	459.081
263.194	529.042
266.087	516.53
268.98	529.052
271.872	512.136
274.765	474.778
277.658	456.468
280.55	308.169
283.443	250.939
286.336	247.638
289.228	183.232
292.121	134.433
295.014	121.575
297.907	67.2203
300.799	76.4209
303.692	93.4586
306.585	81.4062
309.477	62.0073
312.37	75.7107
315.263	85.3757
318.156	88.0758
321.048	44.4546
323.941	34.3062
326.834	40.026
329.726	0.506836
332.619	27.2808
335.512	25.3543
338.404	12.8884
341.297	7.6471
344.19	75.6683
347.082	78.6421
349.975	117.676
352.868	192.413
355.761	283.581
358.653	256.466
361.546	252.532
364.439	283.291
367.331	328.746
370.224	434.654
373.117	594.032
376.01	692.673
378.902	877.5
381.795	1039.03
384.688	1129.7
387.58	1184.15
390.473	1110.84
393.366	910.259
396.258	778.455
399.151	736.003
402.044	792.068
404.937	1134.17
407.829	1636.67
410.722	2395.42
413.615	3335.23
416.507	3845.8
419.4	3012.09
422.293	1768.99
425.185	835.938
428.078	333.14
430.971	85.7235
433.863	19.4567
436.756	82.2732
439.649	16.192
442.542	44.9504
445.434	154.794
448.327	305.526
451.22	497.757
454.112	700.019
457.005	951.373
459.898	1212.9
462.791	1413.68
465.683	1552.97
468.576	1595.51
471.469	1563.16
474.361	1441.48
477.254	1290.41
480.147	1072.35
483.039	907.752
485.932	784.512
488.825	600.892
491.717	521.033
494.61	353.341
497.503	288.513
500.396	224.7
503.288	197.365
506.181	160.754
509.074	120.942
511.966	85.2953
514.859	68.6331
517.752	49.5883
520.644	4.93823
523.537	14.6395
526.43	36.5917
529.323	11.7406
532.215	18.9977
535.108	5.20123
538.001	8.18671
540.893	18.1024
543.786	19.0278
546.679	3.06006
549.572	25.626
552.464	35.5401
555.357	22.9039
558.25	41.1152
561.142	43.3758
564.035	25.4059
566.928	43.852
569.82	29.3641
572.713	26.5897
575.606	30.9114
578.499	43.5132
581.391	57.0596
584.284	72.9777
587.177	62.0535
590.069	72.2878
592.962	73.7704
595.855	80.1678
598.747	79.5264
601.64	54.4207
604.533	76.5269
607.426	60.8239
610.318	79.1868
613.211	66.0868
616.104	77.0629
618.996	65.3621
621.889	51.1758
624.782	64.5049
627.674	68.0637
630.567	81.5026
633.46	84.6042
636.352	88.6552
639.245	76.7543
642.138	62.074
645.031	66.3005
647.923	66.3224
650.816	90.6187
653.709	84.1238
656.601	115.639
659.494	111.368
662.387	118.588
665.279	134.643
668.172	135.188
671.065	139.471
673.958	119.792
676.85	135.628
679.743	110.211
682.636	92.6556
685.528	90.0824
688.421	94.5284
691.314	67.758
694.207	33.7443
697.099	48.4541
699.992	64.68
702.885	35.9235
705.777	5.20282
708.67	21.9008
711.563	9.05237
714.455	33.8023
717.348	23.9222
720.241	41.8983
723.134	50.9313
726.026	26.8191
728.919	36.6521
731.812	21.2971
734.704	7.44165
737.597	7.18494
740.49	57.4524
743.382	95.6985
746.275	140.567
749.168	227.255
752.061	237.962
754.953	331.502
757.846	493.813
760.739	590.828
763.631	806.449
766.524	976.942
769.417	1293.95
772.309	1605.54
775.202	2137.52
778.095	2699.56
780.987	3444.63
783.88	4309.47
786.773	5331.49
789.666	6511.04
792.558	7563.76
795.451	8568.97
798.344	9483.19
801.236	10228.6
804.129	10880.4
807.022	11722.4
809.914	13039
812.807	14819.8
815.7	17391.7
818.593	20153.1
821.485	22607.7
824.378	25000.3
827.271	25124.5
830.163	18912.1
833.056	11071.6
835.949	6276.8
838.841	3762.36
841.734	2515.81
844.627	1787.26
847.519	1295.6
850.412	936.165
853.305	712.84
856.198	506.77
859.09	324.047
861.983	210.484
864.876	154.568
867.768	127.857
870.661	132.015
873.554	111.304
876.447	53.3565
879.339	25.3151
882.232	11.1149
885.125	30.3787
888.017	38.7297
890.91	37.4914
893.803	24.967
896.695	13.2286
899.588	27.0078
902.481	26.6949
905.374	19.9787
908.266	14.958
911.159	1.4444
914.052	18.9382
916.944	35.014
919.837	31.9448
922.73	33.8933
925.622	61.3961
928.515	52.0639
931.408	64.1883
934.301	91.8377
937.193	104.564
940.086	100.974
942.979	97.8308
945.871	122.719
948.764	112.695
951.657	115.027
954.549	117.31
957.442	120.902
960.335	118.24
963.227	110.153
966.12	118.037
969.013	105.585
971.906	96.5035
974.798	92.4114
977.691	116.744
980.584	101.32
983.476	86.003
986.369	97.668
989.262	96.3621
992.154	84.861
995.047	96.7838
997.94	77.5856
1000.83	76.547
1003.73	71.0603
1006.62	64.446
1009.51	62.57
1012.4	50.1245
1015.3	64.3189
1018.19	61.9998
1021.08	58.1666
1023.97	45.6321
1026.87	47.5589
1029.76	51.2971
1032.65	61.4114
1035.55	52.8895
1038.44	34.6933
1041.33	1.36621
1044.22	29.9695
1047.12	39.5698
1050.01	21.7405
1052.9	32.8011
1055.79	58.2507
1058.69	23.2088
1061.58	16.5077
1064.47	21.9579
1067.37	24.6632
1070.26	24.8695
1073.15	16.2318
1076.04	23.5367
1078.94	17.7456
1081.83	8.51981
1084.72	5.40585
1087.61	15.8059
1090.51	23.1985
1093.4	13.5159
1096.29	4.82391
1099.18	12.4709
1102.08	3.87174
1104.97	7.90631
1107.86	16.9733
1110.76	12.2165
1113.65	4.56973
1116.54	31.125
1119.43	2.40027
1122.33	10.6441
1125.22	1.81357
1128.11	7.04096
1131	8.81281
1133.9	17.7235
1136.79	8.67667
1139.68	14.9485
1142.58	9.70575
1145.47	35.3304
1148.36	6.83249
1151.25	13.7279
1154.15	1.26679
1157.04	11.4369
1159.93	12.7194
1162.82	0.583771
1165.72	7.16132
1168.61	24.3778
1171.5	3.72684
1174.39	7.03842
1177.29	20.0066
1180.18	5.40378
1183.07	2.19638
1185.96	2.34619
1188.86	0.069855
1191.75	6.85294
1194.64	12.9826
1197.54	10.5388
1200.43	5.89557
1203.32	3.76791
1206.21	18.7093
1209.11	21.9846
1212	14.6119
1214.89	1.0567
1217.79	6.51721
1220.68	20.0555
1223.57	20.7109
1226.46	25.5735
1229.36	28.468
1232.25	17.6355
1235.14	20.0976
1238.03	12.6266
1240.93	33.3864
1243.82	22.4783
1246.71	12.4807
1249.61	6.14877
1252.5	1.71097
1255.39	8.29639
1258.28	27.519
1261.18	12.865
1264.07	0.282013
