Measurement: Raman, 532 nm, unoriented, Raman Data Processed
Mineral: Schwartzembergite
Rruff sample: R050159
Ideal chemistry: Pb^2+^_5_H_2_I^3+^O_6_Cl_3_
Locality: Ponderosa mine, Sierra Gorda, Antofagasta, Chile
Source: Jim McGlasson
Description: Orange thin plates
Raman shift (cm-1)	intensity
126.781	0
129.674	558.277
132.567	2876.03
135.459	5910.05
138.352	9362.04
141.245	11481.3
144.137	10257.6
147.03	7606.85
149.923	5299.71
152.815	4062.88
155.708	3199.92
158.601	2566.84
161.494	1961.26
164.386	1185.96
167.279	578.669
170.172	57.7378
173.064	164.471
175.957	246.4
178.85	111.165
181.743	69.4614
184.635	229.625
187.528	518.744
190.421	879.261
193.313	1338.57
196.206	1729.67
199.099	2287.49
201.991	2820.1
204.884	3374.2
207.777	3833.62
210.669	4231.44
213.562	4502.6
216.455	4620.07
219.348	4608.04
222.24	4483.17
225.133	4214.87
228.026	3875.78
230.918	3518.31
233.811	3043.93
236.704	2570.37
239.597	2127.53
242.489	1779.29
245.382	1335.55
248.275	986.109
251.167	665.079
254.06	310.104
256.953	207.187
259.846	15.6128
262.738	84.4243
265.631	133.582
268.524	111.103
271.416	0.140137
274.309	90.6616
277.202	249.021
280.094	403.734
282.987	593.509
285.88	783.151
288.772	932.881
291.665	1142.44
294.558	1261.64
297.451	1417.45
300.343	1518.37
303.236	1514.69
306.129	1459.49
309.021	1322.3
311.914	1183.48
314.807	965.925
317.7	790.398
320.592	639.012
323.485	493.211
326.378	300.957
329.27	238.528
332.163	264.433
335.056	266.898
337.948	391.94
340.841	501.237
343.734	599.973
346.627	823.693
349.519	965.778
352.412	1198.34
355.305	1488.26
358.197	1827.8
361.09	2072.85
363.983	2465.21
366.875	2838.36
369.768	3189.49
372.661	3374.86
375.553	3350.57
378.446	3150.41
381.339	2881.72
384.232	2423.26
387.124	2058.64
390.017	1615.36
392.91	1272.27
395.802	1001.12
398.695	797.162
401.588	495.742
404.481	358.425
407.373	241.775
410.266	171.406
413.159	112.066
416.051	15.9346
418.944	49.2744
421.837	45.0625
424.729	28.2925
427.622	65.7773
430.515	43.3472
433.408	57.7627
436.3	66.8125
439.193	99.1011
442.086	128.461
444.978	171.438
447.871	177.735
450.764	302.325
453.656	298.089
456.549	399.754
459.442	392.048
462.335	391.563
465.227	494.519
468.12	510.07
471.013	577.698
473.905	562.01
476.798	586.477
479.691	567.625
482.584	454.174
485.476	348.491
488.369	244.432
491.262	108.398
494.154	68.4585
497.047	19.9932
499.94	0.979004
502.832	22.1162
505.725	48.1387
508.618	71.395
511.51	20.126
514.403	130.412
517.296	101.434
520.189	188.807
523.081	265.854
525.974	378.26
528.867	413.438
531.759	406.244
534.652	362.927
537.545	362.613
540.438	317.177
543.33	295.678
546.223	264.47
549.116	256.962
552.008	218.157
554.901	201.307
557.794	106.129
560.686	109.976
563.579	25.2822
566.472	13.8657
569.365	19.1528
572.257	29.1621
575.15	30.3052
578.043	11.3169
580.935	83.8413
583.828	44.0742
586.721	62.4307
589.613	28.0928
592.506	10.3086
595.399	15.563
598.292	118.523
601.184	157.94
604.077	278.922
606.97	323.02
609.862	418.198
612.755	621.529
615.648	788.094
618.54	963.743
621.433	1274.74
624.326	1607.17
627.219	2090.65
630.111	2650.22
633.004	3358.95
635.897	4557.83
638.789	6046.75
641.682	8239.3
644.575	11149.8
647.467	15417.5
650.36	20964.8
653.253	27938.9
656.146	35573
659.038	43399.1
661.931	49474.2
664.824	52659.1
667.716	51874.3
670.609	47087.8
673.502	39258.1
676.394	30566.5
679.287	22386.5
682.18	15786.8
685.073	10818
687.965	7285.34
690.858	4859.31
693.751	3328.96
696.643	2343.59
699.536	1592.11
702.429	1093.97
705.322	754.481
708.214	538.448
711.107	432.863
714	397.199
716.892	298.303
719.785	299.292
722.678	361.378
725.57	250.051
728.463	149.356
731.356	72.707
734.249	8.59815
737.141	100.076
740.034	15.5737
742.927	89.7935
745.819	50.1548
748.712	40.4893
751.605	96.7515
754.497	28.2466
757.39	5.96094
760.283	4.56982
763.176	44.5249
766.068	39.2046
768.961	34
771.854	81.1445
774.746	45.6992
777.639	93.6567
780.532	92.1289
783.424	80.2432
786.317	155.592
789.21	115.899
792.102	188.846
794.995	207.734
797.888	218.667
800.781	285.317
803.673	293.949
806.566	291.942
809.459	288.209
812.351	237.886
815.244	242.906
818.137	301.529
821.029	217.84
823.922	195.398
826.815	145.495
829.708	168.92
832.6	170.228
835.493	106.813
838.386	94.3462
841.278	144.721
844.171	127.079
847.064	64.1904
849.957	11.999
852.849	72.46
855.742	37.1733
858.635	81.2627
861.527	77.9287
864.42	105.84
867.313	34.8848
870.205	20.6064
873.098	88.5649
875.991	47.0337
878.884	131.325
881.776	120.219
884.669	75.2637
887.562	109.827
890.454	88.145
893.347	58.4932
896.24	69.5527
899.133	101.737
902.025	66.5977
904.918	38.4341
907.811	116.321
910.703	31.2144
913.596	99.499
916.489	39.8262
919.381	18.1675
922.274	34.9438
925.167	25.939
928.059	6.49756
930.952	10.2407
933.845	47.9268
936.738	20.7593
939.63	40.9194
942.523	14.4634
945.416	47.6953
948.308	8.59619
951.201	98.106
954.094	82.1035
956.986	17.2856
959.879	44.7617
962.772	1.90674
965.665	37.4004
968.557	52.3364
971.45	75.4404
974.343	3.25391
977.235	29.4277
980.128	15.2935
983.021	26.27
985.913	38.3291
988.806	27.2197
991.699	28.7407
994.592	62.3081
997.484	89.1543
1000.38	66.0019
1003.27	44.2998
1006.16	57.2222
1009.05	115.766
1011.95	112.426
1014.84	171.542
1017.73	146.416
1020.63	191.366
1023.52	193.67
1026.41	226.397
1029.3	211.976
1032.2	237.765
1035.09	243.06
1037.98	247.088
1040.88	301.934
1043.77	223.334
1046.66	235.963
1049.55	240.848
1052.45	163.248
1055.34	108.369
1058.23	198.848
1061.12	167.157
1064.02	127.503
1066.91	109.265
1069.8	152.763
1072.69	37.5664
1075.59	113.291
1078.48	64.3018
1081.37	82.4541
1084.27	76.8408
1087.16	70.8018
1090.05	53.3086
1092.94	60.2788
1095.84	70.1182
1098.73	14.0523
1101.62	7.91406
1104.51	36.7617
1107.41	35.3047
1110.3	30.4898
1113.19	44.2358
1116.09	86.9429
1118.98	53.9009
1121.87	27.9941
1124.76	17.9565
1127.66	222.504
1130.55	58.5942
1133.44	77.2822
1136.33	28.9756
1139.23	28.1182
1142.12	83.1963
1145.01	62.874
1147.9	55.7876
1150.8	11.9487
1153.69	75.7729
1156.58	36.2842
1159.48	56.8975
1162.37	84.2329
1165.26	19.6382
1168.15	59.8184
1171.05	19.3926
1173.94	77.9653
1176.83	19.1572
1179.72	67.6982
1182.62	144.718
1185.51	22.0855
1188.4	37.6914
1191.3	52.3408
1194.19	87.8926
1197.08	34.1484
1199.97	21.4316
1202.87	47.8716
1205.76	129.661
1208.65	38.4033
1211.54	75.5527
1214.44	49.6758
1217.33	10.5933
1220.22	9.2251
1223.12	80.0957
1226.01	50.6704
1228.9	85.1558
1231.79	61.7017
1234.69	69.6841
1237.58	24.8149
1240.47	2.89502
1243.36	68.8975
1246.26	36.9072
1249.15	60.2915
1252.04	38.3892
1254.93	0
