Measurement: Raman, 532 nm, unoriented, Raman Data Processed
Mineral: Schwartzembergite
Rruff sample: R070429
Ideal chemistry: Pb^2+^_5_H_2_I^3+^O_6_Cl_3_
Locality: Venado mine, Copiapo, Chile
Source: Bob Jenkins
Description: Bright yellow/orange tabular crystals associated with blue diaboleite and colorless cerussite
Raman shift (cm-1)	intensity
156.19	0
159.565	193.238
162.94	255.47
166.315	210.537
169.69	2.07812
173.064	15.9668
176.439	139.838
179.814	345.256
183.189	563.939
186.564	966.563
189.939	1445.17
193.313	1939.15
196.688	2545.63
200.063	3149.39
203.438	3669.18
206.813	4178.26
210.187	4605.74
213.562	5025.44
216.937	5112.52
220.312	5067.54
223.687	4817.37
227.061	4476.31
230.436	3845.67
233.811	3318.3
237.186	2681.23
240.561	2266.48
243.936	1687.56
247.31	1274.23
250.685	872.747
254.06	480.588
257.435	231.851
260.81	142.449
264.185	65.9092
267.559	136.345
270.934	119.233
274.309	16.6035
277.684	95.9258
281.059	202.588
284.433	540.364
287.808	685.813
291.183	950.596
294.558	1179.59
297.933	1428.14
301.308	1510.49
304.682	1600.72
308.057	1477.32
311.432	1277.58
314.807	1043.94
318.182	779.776
321.556	586.884
324.931	441.188
328.306	303.084
331.681	294.777
335.056	319.894
338.43	370.242
341.805	556.975
345.18	778.606
348.555	940.865
351.93	1179.16
355.305	1412.34
358.679	1652.5
362.054	2010.1
365.429	2361.38
368.804	2706.52
372.179	2886.05
375.553	3149.97
378.928	2938.16
382.303	2659.77
385.678	2265.55
389.053	1896.82
392.428	1473.7
395.802	1066.9
399.177	761.148
402.552	600.388
405.927	349.377
409.302	210.333
412.676	159.671
416.051	20.7139
419.426	12.3789
422.801	31.4336
426.176	20.1895
429.551	11.4912
432.925	6.05078
436.3	30.1406
439.675	40.8057
443.05	63.9453
446.425	72.7598
449.8	100.975
453.174	131.523
456.549	231.393
459.924	261.853
463.299	226.857
466.674	359.925
470.048	335.825
473.423	388.059
476.798	471.31
480.173	404.544
483.548	305.769
486.923	269.933
490.297	127.411
493.672	41.0449
497.047	79.4375
500.422	38.04
503.797	18.0859
507.171	17.1084
510.546	121.295
513.921	64.4404
517.296	143.299
520.671	272.38
524.045	182.746
527.42	299.813
530.795	429.711
534.17	398.823
537.545	396.597
540.92	416.87
544.294	398.804
547.669	306.481
551.044	213.475
554.419	257.545
557.794	183.326
561.168	207.433
564.543	114.283
567.918	162.33
571.293	3.77051
574.668	58.5859
578.043	1.6084
581.417	5.39746
584.792	68.1894
588.167	11.3203
591.542	50.1387
594.917	89.3057
598.292	3.30371
601.666	9.81055
605.041	86.0381
608.416	257.21
611.791	349.227
615.166	548.206
618.54	667.063
621.915	971.59
625.29	1433.6
628.665	1917.05
632.04	2651.37
635.414	3620.43
638.789	5062.46
642.164	7171.44
645.539	10408.2
648.914	14974
652.289	21520.8
655.663	29405.6
659.038	37896
662.413	45272.8
665.788	48736
669.163	46148.1
672.538	38733.6
675.912	28887.1
679.287	19834.5
682.662	12696.3
686.037	7934.35
689.412	4823.35
692.786	2935.3
696.161	1840.66
699.536	1056.63
702.911	694.582
706.286	484.819
709.66	366.565
713.035	480.508
716.41	499.284
719.785	449.164
723.16	615.82
726.535	401.562
729.909	290.467
733.284	225.322
736.659	95.2139
740.034	111.435
743.409	45.6123
746.784	10.9258
750.158	208.835
753.533	62.0332
756.908	76.6045
760.283	93.3301
763.658	30.5928
767.032	14.1104
770.407	39.5254
773.782	98.1123
777.157	18.7861
780.532	35.9258
783.907	152.414
787.281	150.491
790.656	219.148
794.031	208.226
797.406	229.762
800.781	229.33
804.155	225.583
807.53	316.132
810.905	275.677
814.28	279.62
817.655	319.385
821.029	204.878
824.404	283.293
827.779	240.737
831.154	123.462
834.529	179.214
837.904	84.1631
841.278	105.065
844.653	129.812
848.028	109.957
851.403	76.6562
854.778	123.277
858.153	41.7217
861.527	99.9814
864.902	47.9228
868.277	73.8916
871.652	81.9023
875.027	100.879
878.401	157.286
881.776	138.647
885.151	64.5576
888.526	147.972
891.901	34.9111
895.275	86.0059
898.65	97.666
902.025	108.113
905.4	48.8428
908.775	52.2959
912.15	30.7725
915.524	25.084
918.899	53.375
922.274	48.4365
925.649	19.5791
929.024	35.873
932.399	21.9854
935.773	65.1416
939.148	61.2373
942.523	26.5928
945.898	85.1006
949.273	40.1055
952.647	59.5225
956.022	56.4893
959.397	57.7539
962.772	81.5361
966.147	79.5215
969.521	66.6348
972.896	32.2617
976.271	23.0859
979.646	37.4395
983.021	24.7295
986.396	32.5703
989.77	8.12207
993.145	50.8477
996.52	79.9014
999.895	62.2744
1003.27	119.623
1006.64	129.885
1010.02	76.9873
1013.39	146.161
1016.77	209.801
1020.14	125.1
1023.52	213.93
1026.89	278.874
1030.27	184.685
1033.64	182.525
1037.02	337.035
1040.39	212.576
1043.77	130.707
1047.14	250.149
1050.52	253.263
1053.89	129.768
1057.27	85.7578
1060.64	176.468
1064.02	31.2373
1067.39	120.191
1070.77	32.5215
1074.14	58.8213
1077.52	73.7568
1080.89	12.1572
1084.27	25.0244
1087.64	23.9199
1091.02	136.789
1094.39	8.83594
1097.77	93.8213
1101.14	81.4424
1104.51	5.07422
1107.89	21.8057
1111.26	65.9453
1114.64	90.8818
1118.01	44.0547
1121.39	75.7002
1124.76	110.634
1128.14	47.5869
1131.51	133.512
1134.89	89.3369
1138.26	91.9072
1141.64	4.78711
1145.01	167.588
1148.39	40.4375
1151.76	14.9551
1155.14	113.119
1158.51	0.488281
1161.89	54.6074
1165.26	74.2715
1168.64	54.4453
1172.01	70.75
1175.38	5.40234
1178.76	111.627
1182.13	17.8027
1185.51	64.1426
1188.88	101.205
1192.26	63.2598
1195.63	57.0996
1199.01	70.8086
1202.38	4.91211
1205.76	113.793
1209.13	86.4785
1212.51	79.2363
1215.88	122.834
1219.26	112.539
1222.63	87.0879
1226.01	50.332
1229.38	36.5176
1232.76	118.539
1236.13	61.2676
1239.51	172.012
1242.88	85.3027
1246.26	142.223
1249.63	16.2539
1253.01	70.1074
1256.38	130.35
1259.76	108.098
1263.13	166.682
1266.51	80.5547
1269.88	4.75
1273.26	69.1309
1276.63	85.832
1280.01	131.375
1283.38	127.826
1286.75	35.2148
1290.13	126.34
1293.5	59.0156
1296.88	73.541
1300.25	98.9941
1303.63	96.1328
1307	57.2871
1310.38	102.58
1313.75	33.3359
1317.13	17.9102
