Measurement: Raman, 785 nm, unoriented, Raman Data Processed
Mineral: Schwartzembergite
Rruff sample: R050159
Ideal chemistry: Pb^2+^_5_H_2_I^3+^O_6_Cl_3_
Locality: Ponderosa mine, Sierra Gorda, Antofagasta, Chile
Source: Jim McGlasson
Description: Orange thin plates
Raman shift (cm-1)	intensity
119.101	0
121.993	0.392456
124.886	171.637
127.779	1240.19
130.672	3270.79
133.564	5951.56
136.457	8780.73
139.35	11172.3
142.242	13444.8
145.135	14757.4
148.028	14508.7
150.92	13225.1
153.813	10754.5
156.706	8022.05
159.599	5821.91
162.491	4485.04
165.384	3665.13
168.277	3152.05
171.169	2749.16
174.062	2436.95
176.955	2280.8
179.847	2339.42
182.74	2442.75
185.633	2965.3
188.525	3577.87
191.418	4445.99
194.311	5329.84
197.204	6453.41
200.096	7629.77
202.989	8796.03
205.882	9681.83
208.774	10832
211.667	11663.6
214.56	12386.1
217.452	12770.5
220.345	12809.3
223.238	12488.5
226.131	11809.2
229.023	10801.1
231.916	9786.22
234.809	8596.73
237.701	7465.29
240.594	6357.52
243.487	5221.54
246.38	4117.49
249.272	2950.1
252.165	2018.77
255.058	1223.47
257.95	572.485
260.843	104.097
263.736	207.802
266.628	370.597
269.521	378.637
272.414	321.019
275.307	207.352
278.199	73.6699
281.092	405.25
283.985	826.996
286.877	1261.48
289.77	1713.59
292.663	2202.23
295.555	2666.39
298.448	3120.55
301.341	3452.53
304.233	3685.44
307.126	3581.54
310.019	3326.85
312.912	2925.17
315.804	2512.43
318.697	2058.68
321.59	1696.59
324.482	1264.38
327.375	912.403
330.268	617.273
333.161	443.503
336.053	416.127
338.946	525.61
341.839	716.178
344.731	881.804
347.624	1138.13
350.517	1404.97
353.409	1722.12
356.302	2046.94
359.195	2302.89
362.087	2568.19
364.98	2931.06
367.873	3136.51
370.766	3457.92
373.658	3620.59
376.551	3798.19
379.444	3448.83
382.336	3149.95
385.229	2706.83
388.122	2272.13
391.014	1798
393.907	1454.29
396.8	1142.99
399.693	803.646
402.585	587.758
405.478	431.016
408.371	285.135
411.263	208.321
414.156	86.9111
417.049	32.7139
419.942	7.48535
422.834	28.6064
425.727	41.4482
428.62	109.917
431.512	72.7891
434.405	36.7817
437.298	5.354
440.19	3.96435
443.083	12.8457
445.976	71.0615
448.868	62.419
451.761	119.89
454.654	159.567
457.547	168.087
460.439	249.917
463.332	383.178
466.225	489.168
469.117	608.89
472.01	811.725
474.903	972.891
477.796	1089.76
480.688	1129.51
483.581	995.274
486.474	794.588
489.366	592.785
492.259	363.13
495.152	261.918
498.044	161.099
500.937	49.7427
503.83	47.7722
506.723	39.7935
509.615	24.8931
512.508	33.7378
515.401	90.4463
518.293	146.872
521.186	182.804
524.079	275.767
526.971	381.395
529.864	439.946
532.757	490.517
535.649	504.53
538.542	469.9
541.435	444.601
544.328	372.727
547.22	315.489
550.113	222.22
553.006	205.864
555.898	194.934
558.791	110.098
561.684	120.496
564.577	59.4815
567.469	21.7166
570.362	6.06274
573.255	70.0449
576.147	61.904
579.04	67.5896
581.933	43.3257
584.825	24.2476
587.718	3.0166
590.611	29.9587
593.504	8.45264
596.396	54.5913
599.289	121.502
602.182	200.405
605.074	367.361
607.967	436.784
610.86	629.216
613.752	716.125
616.645	885.649
619.538	1092.89
622.431	1348.19
625.323	1680.11
628.216	2146.38
631.109	2751.79
634.001	3490.51
636.894	4594.24
639.787	6203.12
642.679	8385.67
645.572	11410.7
648.465	15950.8
651.357	21982
654.25	29722.7
657.143	39113.9
660.036	48683.4
662.928	56984
665.821	62185.7
668.714	62093.7
671.606	56655.7
674.499	47501.7
677.392	37034.8
680.284	27085.1
683.177	18990.9
686.07	13097.9
688.963	8939.34
691.855	6061.49
694.748	4266.63
697.641	3002.48
700.533	2088.88
703.426	1476.79
706.319	999.93
709.212	710.596
712.104	510.299
714.997	345.862
717.89	242.763
720.782	180.011
723.675	84.9448
726.568	12.6033
729.46	47.3003
732.353	34.8596
735.246	41.1826
738.139	61.8591
741.031	15.2439
743.924	38.896
746.817	7.73218
749.709	15.4763
752.602	10.5457
755.495	42.4141
758.387	46.427
761.28	57.8196
764.173	85.0203
767.066	138.46
769.958	143.556
772.851	152.113
775.744	136.226
778.636	138.261
781.529	122.599
784.422	110.946
787.314	104.574
790.207	72.1534
793.1	77.4556
795.992	108.77
798.885	80.2698
801.778	95.1038
804.671	105.996
807.563	58.1555
810.456	88.8731
813.349	95.7216
816.241	82.5775
819.134	100.878
822.027	64.3665
824.919	74.9595
827.812	86.255
830.705	55.3551
833.598	66.0631
836.49	48.2423
839.383	70.327
842.276	53.6656
845.168	38.6656
848.061	37.152
850.954	35.1073
853.846	2.74731
856.739	23.4179
859.632	9.99365
862.525	33.1029
865.417	50.5852
868.31	68.71
871.203	46.3151
874.095	27.236
876.988	33.6697
879.881	25.5841
882.774	45.7339
885.666	30.4625
888.559	29.1074
891.452	37.3758
894.344	49.9233
897.237	29.8496
900.13	64.6805
903.022	32.9006
905.915	26.5068
908.808	30.4601
911.701	48.9072
914.593	0.171387
917.486	19.1431
920.379	2.22693
923.271	26.6672
926.164	20.5868
929.057	20.1886
931.949	2.6582
934.842	19.3241
937.735	35.0272
940.628	1.81714
943.52	26.9496
946.413	47.4054
949.306	4.87122
952.198	40.8669
955.091	37.8826
957.984	85.8516
960.876	33.8717
963.769	66.092
966.662	39.9357
969.554	39.1179
972.447	5.50757
975.34	29.3606
978.233	13.4766
981.125	4.23364
984.018	13.5941
986.911	15.3208
989.803	6.93298
992.696	29.488
995.589	29.0223
998.481	3.44495
1001.37	9.151
1004.27	11.4929
1007.16	43.0115
1010.05	40.9176
1012.95	26.4091
1015.84	49.626
1018.73	68.8788
1021.62	79.7129
1024.52	94.7689
1027.41	91.5842
1030.3	95.9247
1033.19	84.5337
1036.09	95.8779
1038.98	95.6025
1041.87	106.856
1044.77	112.949
1047.66	108.622
1050.55	84.5819
1053.44	112.123
1056.34	96.6693
1059.23	47.9468
1062.12	71.1423
1065.01	54.9161
1067.91	70.4399
1070.8	42.6156
1073.69	9.21326
1076.58	35.4689
1079.48	4.34705
1082.37	27.4845
1085.26	26.0555
1088.15	34.5381
1091.05	35.7207
1093.94	22.7166
1096.83	1.32385
1099.73	32.6379
1102.62	17.0525
1105.51	8.56494
1108.4	23.5902
1111.3	6.4884
1114.19	19.8398
1117.08	17.3977
1119.97	21.0345
1122.87	10.7965
1125.76	34.3409
1128.65	39.1469
1131.55	22.3876
1134.44	39.6461
1137.33	21.2935
1140.22	29.7034
1143.12	22.2456
1146.01	29.1472
1148.9	19.8888
1151.8	24.0309
1154.69	18.4375
1157.58	32.6246
1160.47	9.40173
1163.37	20.1108
1166.26	13.8976
1169.15	32.9211
1172.04	19.5491
1174.94	30.264
1177.83	35.4492
1180.72	32.9102
1183.61	12.3308
1186.51	41.3286
1189.4	10.231
1192.29	53.4659
1195.18	27.5592
1198.08	59.1435
1200.97	39.8151
1203.86	26.6537
1206.76	32.2574
1209.65	41.1888
1212.54	48.1364
1215.43	21.2059
1218.33	19.8594
1221.22	24.2322
