Measurement: Raman, 785 nm, unoriented, Raman Data Processed
Mineral: Schwartzembergite
Rruff sample: R070429
Ideal chemistry: Pb^2+^_5_H_2_I^3+^O_6_Cl_3_
Locality: Venado mine, Copiapo, Chile
Source: Bob Jenkins
Description: Bright yellow/orange tabular crystals associated with blue diaboleite and colorless cerussite
Raman shift (cm-1)	intensity
166.83	0
169.723	64.4568
172.616	2.72485
175.508	7.32935
178.401	93.0723
181.294	271.058
184.186	503.38
187.079	799.318
189.972	1182.44
192.864	1615.52
195.757	2095.89
198.65	2583.16
201.543	3137.19
204.435	3619.24
207.328	4015.12
210.221	4434.77
213.113	4695.48
216.006	5005.95
218.899	5118.76
221.792	5073.48
224.684	4900.89
227.577	4525.52
230.47	3986.13
233.362	3490.9
236.255	2997.61
239.148	2552.13
242.041	2071.45
244.933	1679.23
247.826	1282.18
250.719	884.124
253.611	582.429
256.504	362.149
259.397	175.583
262.289	49.8152
265.182	65.2044
268.075	78.7839
270.967	71.6851
273.86	58.2957
276.753	96.7844
279.646	198.524
282.538	368.244
285.431	595.021
288.324	892.284
291.216	1182.17
294.109	1369.12
297.002	1506.51
299.894	1625.37
302.787	1694.17
305.68	1625.84
308.572	1492.46
311.465	1359.26
314.358	1142.94
317.251	896.857
320.143	701.632
323.036	515.754
325.929	391.232
328.821	281.625
331.714	213.445
334.607	184.179
337.5	240.61
340.392	269.208
343.285	377.594
346.178	507.556
349.07	589.873
351.963	683.097
354.856	794.746
357.748	856.382
360.641	900.386
363.534	1003.61
366.426	1021.9
369.319	1173.77
372.212	1244.67
375.105	1324.01
377.997	1279.93
380.89	1236.76
383.783	1095.75
386.675	982.028
389.568	831.019
392.461	719.274
395.353	600.29
398.246	487.52
401.139	415.661
404.032	376.14
406.924	372.64
409.817	369.558
412.71	275.425
415.602	173.744
418.495	97.0137
421.388	34.6977
424.281	20.0601
427.173	0.94043
430.066	21.4775
432.959	9.86841
435.851	27.3438
438.744	19.9756
441.637	22.0269
444.529	16.097
447.422	21.624
450.315	6.73779
453.208	15.4337
456.1	34.535
458.993	78.4595
461.886	103.846
464.778	128.032
467.671	217.009
470.564	276.219
473.457	363.468
476.349	462.669
479.242	489.369
482.135	454.085
485.027	364.478
487.92	254.867
490.813	176.805
493.705	154.404
496.598	104.345
499.491	88.1197
502.384	60.6127
505.276	39.8635
508.169	24.9702
511.062	38.9281
513.954	66.5571
516.847	34.4705
519.74	82.3746
522.632	116.32
525.525	153.06
528.418	167.583
531.311	195.501
534.203	194.508
537.096	182.113
539.989	196.472
542.881	167.058
545.774	120.095
548.667	93.6432
551.559	67.6227
554.452	61.5658
557.345	65.053
560.237	34.9699
563.13	43.2126
566.023	12.5158
568.915	6.68481
571.808	33.5718
574.701	32.5575
577.594	3.35242
580.486	21.371
583.379	36.6307
586.272	20.2651
589.164	27.5289
592.057	28.1713
594.95	61.6505
597.842	92.3779
600.735	165.636
603.628	215.052
606.521	288.57
609.413	312.853
612.306	338.229
615.199	403.582
618.091	422.773
620.984	521.131
623.877	619.894
626.769	721.133
629.662	956.791
632.555	1184.99
635.448	1548.61
638.34	2028.26
641.233	2751.67
644.126	3671.85
647.018	5072.03
649.911	6932.11
652.804	9577.48
655.697	12793.2
658.589	16540
661.482	20120
664.375	22999.3
667.267	24013.2
670.16	22642.4
673.053	19343.3
675.945	15071.9
678.838	11118.9
681.731	7773.83
684.624	5200.3
687.516	3507.06
690.409	2346.08
693.302	1558.45
696.194	1040.6
699.087	734.386
701.98	493.951
704.872	325.175
707.765	233.025
710.658	138.092
713.551	111.879
716.443	73.6112
719.336	51.7961
722.229	43.7034
725.121	13.0377
728.014	24.5852
730.907	26.8966
733.799	21.3929
736.692	31.2825
739.585	13.069
742.477	13.6173
745.37	14.1451
748.263	18.4591
751.156	8.2572
754.048	5.94067
756.941	20.1293
759.834	13.9507
762.726	25.5448
765.619	25.0088
768.512	29.7791
771.404	42.7581
774.297	51.8757
777.19	28.6528
780.083	20.2162
782.975	39.0797
785.868	36.6932
788.761	40.4215
791.653	47.0842
794.546	60.3135
797.439	59.2068
800.332	47.0873
803.224	61.7105
806.117	68.4663
809.01	70.4031
811.902	72.9523
814.795	57.9302
817.688	42.9154
820.58	49.9367
823.473	62.5635
826.366	65.1585
829.259	41.0773
832.151	47.6686
835.044	49.9103
837.937	24.5312
840.829	6.05383
843.722	0.413086
846.615	22.6989
849.507	5.28833
852.4	35.5925
855.293	16.8131
858.186	2.48254
861.078	32.2039
863.971	21.8938
866.864	6.35828
869.756	18.9168
872.649	8.1394
875.542	38.7714
878.434	17.3021
881.327	22.2794
884.22	16.4449
887.112	35.1145
890.005	14.2091
892.898	21.3596
895.791	22.4285
898.683	25.2097
901.576	19.6822
904.469	18.9446
907.361	1.17578
910.254	25.9396
913.147	8.90515
916.04	22.7555
918.932	14.2766
921.825	17.3953
924.718	2.55225
927.61	26.0214
930.503	9.42395
933.396	7.71436
936.288	10.1356
939.181	7.67456
942.074	26.1953
944.967	33.3135
947.859	8.00403
950.752	15.2457
953.645	19.2716
956.537	11.2512
959.43	22.8491
962.323	37.9038
965.216	32.4346
968.108	33.3556
971.001	28.9273
973.894	39.1896
976.786	18.9719
979.679	15.8341
982.572	9.39307
985.464	8.86658
988.357	1.95581
991.25	23.2185
994.143	17.7407
997.035	3.21313
999.928	1.20703
1002.82	30.1337
1005.71	31.9928
1008.61	24.2859
1011.5	15.7754
1014.39	3.04553
1017.28	18.7369
1020.18	23.3456
1023.07	51.7221
1025.96	22.3367
1028.86	26.6919
1031.75	22.9056
1034.64	21.375
1037.53	13.8852
1040.43	15.5521
1043.32	25.7199
1046.21	8.3855
1049.1	28.6798
1052	52.6082
1054.89	6.33765
1057.78	22.2669
1060.67	4.55884
1063.57	28.6758
1066.46	8.56006
1069.35	11.8575
1072.24	0.500854
1075.14	5.521
1078.03	20.6155
1080.92	18.6564
1083.82	28.9452
1086.71	50.5571
1089.6	43.148
1092.49	44.223
1095.39	71.3567
1098.28	117.595
1101.17	146.714
1104.07	181.436
1106.96	200.13
1109.85	248.439
1112.74	243.262
1115.64	288.774
1118.53	287.894
1121.42	324.647
1124.31	313.883
1127.21	317.066
1130.1	283.923
1132.99	275.547
1135.88	264.623
1138.78	211.177
1141.67	197.024
1144.56	165.282
1147.46	82.5654
1150.35	97.7874
1153.24	67.5593
1156.13	27.0049
1159.03	0.086182
1161.92	8.4729
1164.81	6.57422
1167.7	5.38818
1170.6	49.2978
1173.49	49.6065
1176.38	57.5605
1179.28	106.071
1182.17	157.654
1185.06	177.891
1187.95	194.315
1190.85	230.244
1193.74	289.474
1196.63	327.164
1199.52	247.416
1202.42	241.573
1205.31	223.204
1208.2	219.835
1211.1	175.903
1213.99	112.269
1216.88	126.17
1219.77	49.6624
1222.67	50.0432
1225.56	45.2476
1228.45	32.3538
1231.34	48.4958
1234.24	17.7812
1237.13	8.02271
1240.02	1.94092
1242.91	0
