Measurement: Raman, 532 nm, unoriented, Raman Data Processed
Mineral: Scolecite
Rruff sample: R040111
Ideal chemistry: Ca(Si_3_Al_2_)O_10_3H_2_O
Locality: Bombay-Poona area, Mahahashtra Province, India
Source: National Museums of Canada
Description: Pale pink prismatic crystals in parallel or near parallel aggregates
Measured chemistry: Ca_0.98_(Si_3.05_Al_1.95_)O_10_Â·3H_2_O
Raman shift (cm-1)	intensity
147.251	0
150.626	187.068
154.001	1339.52
157.376	3097.63
160.75	2753.17
164.125	1732.04
167.5	883.599
170.875	692.189
174.25	928.566
177.625	1839.23
180.999	3724.51
184.374	3564.76
187.749	1642.32
191.124	470.889
194.499	174.871
197.874	356.612
201.248	724.031
204.623	1029.96
207.998	400.246
211.373	130.539
214.748	299.777
218.122	1129.25
221.497	2742.49
224.872	2698.98
228.247	1381.76
231.622	1003.82
234.996	426.906
238.371	131.775
241.746	184.839
245.121	44.5312
248.496	551.609
251.871	1419.47
255.245	2264.05
258.62	1334.16
261.995	493.905
265.37	370.731
268.745	648.439
272.12	1004.97
275.494	867.5
278.869	1107.81
282.244	1604.46
285.619	1191.92
288.994	767.197
292.368	330.762
295.743	53.9072
299.118	98.2085
302.493	67.1123
305.868	42.5322
309.243	262.161
312.617	575.793
315.992	842.078
319.367	1003.45
322.742	1074.45
326.117	1279.2
329.491	1406.14
332.866	1051.04
336.241	830.812
339.616	916.677
342.991	1005.56
346.365	843.418
349.74	796.885
353.115	602.419
356.49	456.764
359.865	674.481
363.24	691.914
366.614	649.937
369.989	796.282
373.364	832.899
376.739	750.172
380.114	538.922
383.488	284.677
386.863	139.762
390.238	17.0654
393.613	10.5723
396.988	200.926
400.363	552.519
403.737	921.359
407.112	847.433
410.487	313.405
413.862	37.3569
417.237	0.284668
420.611	244.929
423.986	778.155
427.361	1607.33
430.736	2622.95
434.111	3570.19
437.486	3802.6
440.86	3498.67
444.235	3405.92
447.61	3079.9
450.985	2438.35
454.36	1631.29
457.735	938.06
461.109	568.12
464.484	328.818
467.859	165.057
471.234	44.8496
474.609	35.1397
477.983	62.1807
481.358	64.2481
484.733	15.2217
488.108	29.3691
491.483	13.3213
494.858	123.681
498.232	114.302
501.607	282.281
504.982	410.532
508.357	671.251
511.732	1068.08
515.106	1547.38
518.481	2356.72
521.856	3833.82
525.231	6265.33
528.606	10290.4
531.981	15729.3
535.355	19045.4
538.73	12338.9
542.105	6020.19
545.48	3239.64
548.855	1938.56
552.229	1216.23
555.604	862.74
558.979	692.912
562.354	593.065
565.729	416.754
569.104	345.984
572.478	341.397
575.853	179.891
579.228	218.547
582.603	182.27
585.978	170.106
589.352	239.382
592.727	215.148
596.102	266.289
599.477	230.297
602.852	132.299
606.227	133.394
609.601	40.1855
612.976	35.166
616.351	56.1133
619.726	64.9971
623.101	46.8545
626.476	11.876
629.85	2.36035
633.225	4.85254
636.6	3.53418
639.975	102.202
643.35	128.74
646.724	258.172
650.099	255.26
653.474	423.447
656.849	449.151
660.224	558.075
663.598	754.995
666.973	862.201
670.348	981.822
673.723	882.048
677.098	549.526
680.472	436.143
683.847	171.952
687.222	110.059
690.597	159.756
693.972	210.19
697.347	186.589
700.721	430.582
704.096	598.02
707.471	616.305
710.846	583.153
714.221	404.608
717.596	455.208
720.97	462.507
724.345	584.512
727.72	597.222
731.095	707.429
734.47	619.449
737.844	421.975
741.219	353.478
744.594	362.777
747.969	441.851
751.344	552.89
754.719	526.152
758.093	491.604
761.468	321.004
764.843	179.467
768.218	151.424
771.593	94.2842
774.967	35.7148
778.342	7.08691
781.717	33.6855
785.092	13.1094
788.467	9.49512
791.842	26.1416
795.216	33.25
798.591	14.2012
801.966	50.8076
805.341	0.727539
808.716	96.1231
812.091	26.042
815.465	51.5332
818.84	35.3955
822.215	72.5381
825.59	4.67285
828.965	156.638
832.339	2.14551
835.714	63.5049
839.089	124.227
842.464	107.677
845.839	121.782
849.213	125.164
852.588	48.7871
855.963	77.6709
859.338	87.6328
862.713	17.7393
866.087	87.9853
869.462	27.6006
872.837	106.638
876.212	147.213
879.587	0.942383
882.962	46.581
886.337	38.46
889.711	65.832
893.086	55.2725
896.461	11.4619
899.836	20.6787
903.211	19.7412
906.585	23.8564
909.96	56.9824
913.335	56.1426
916.71	52.5342
920.085	26.1436
923.46	116.272
926.834	100.774
930.209	69.3311
933.584	61.5527
936.959	5.55469
940.334	143.519
943.708	162.672
947.083	345.253
950.458	350.812
953.833	131.47
957.208	87.1074
960.582	30.4189
963.957	21.4268
967.332	28.4248
970.707	72.9824
974.082	158.259
977.457	271.215
980.831	522.457
984.206	959.019
987.581	1014.34
990.956	604.307
994.331	351.642
997.705	271.829
1001.08	401.845
1004.46	563.393
1007.83	496.476
1011.21	283.207
1014.58	304.24
1017.95	380.149
1021.33	428.374
1024.7	359.421
1028.08	443.205
1031.45	645.953
1034.83	803.781
1038.2	931.157
1041.58	1154.52
1044.95	1832.38
1048.33	1957.16
1051.7	1073.1
1055.08	446.093
1058.45	184.83
1061.83	140.694
1065.2	62.6533
1068.58	0.826172
1071.95	39.6455
1075.33	36.0059
1078.7	91.0576
1082.08	182.965
1085.45	239.754
1088.83	400.94
1092.2	495.147
1095.58	614.577
1098.95	641.601
1102.33	477.99
1105.7	327.133
1109.07	183.591
1112.45	98.1797
1115.82	38.3125
1119.2	80.1602
1122.57	45.6367
1125.95	9.46094
1129.32	6.23926
1132.7	18.6641
1136.07	20.624
1139.45	53.1035
1142.82	20.498
1146.2	90.7598
1149.57	71.3809
1152.95	19.4346
1156.32	3.19043
1159.7	61.9531
1163.07	81.8555
1166.45	63.2734
1169.82	60.6387
1173.2	114.956
1176.57	144.533
1179.95	86.9697
1183.32	100.289
1186.69	151.848
1190.07	54.3906
1193.44	58.5147
1196.82	88.1875
1200.19	61.1895
1203.57	63.7754
1206.94	44.1631
1210.32	72.4082
1213.69	68.2012
1217.07	65.9346
1220.44	84.0361
1223.82	41.0469
1227.19	111.691
1230.57	33.5176
1233.94	58.8623
1237.32	96.8037
1240.69	52.1211
1244.07	74.1856
1247.44	59.2441
1250.82	132.461
1254.19	62.1133
1257.57	1.46973
1260.94	94.1973
1264.32	93.3232
1267.69	94.2139
1271.07	85.3428
1274.44	131.587
1277.82	20.0127
1281.19	72.6269
1284.57	88.5596
1287.94	156.213
1291.32	67.707
1294.69	97.4912
1298.06	74.6397
1301.44	15.584
1304.81	131.185
1308.19	6.39844
1311.56	65.3848
1314.94	0
