Measurement: Raman, 514 nm, unoriented, Raman Data Processed
Mineral: Scolecite
Rruff sample: R050083
Ideal chemistry: Ca(Si_3_Al_2_)O_10_3H_2_O
Locality: near Ahmednagar, Maharashtra, India
Source: Rock Currier
Description: Colorless acicular single crystals associated with fluorapophyllite
Measured chemistry: (Ca_.992_Na_.008_)[Al_2_Si_3_O_10_]Â·3H_2_O
Raman shift (cm-1)	intensity
135.083	0
139.243	1709.36
143.401	832.768
147.557	3.634
151.711	537.652
155.863	2308.12
160.013	2005.38
164.161	1014.37
168.308	650.223
172.452	724.319
176.594	1149.65
180.734	2019.25
184.872	2420.92
189.008	2080.16
193.143	1732.73
197.275	1707.86
201.405	1922.95
205.534	2247.84
209.66	1513.35
213.784	345.547
217.907	618.343
222.027	999.784
226.146	424.971
230.263	134.998
234.377	62.931
238.49	194.332
242.601	79.271
246.709	86.066
250.816	53.966
254.921	305.106
259.024	441.03
263.125	284.978
267.224	475.96
271.321	937.539
275.416	652.872
279.51	1350.74
283.601	1756.7
287.69	1043.77
291.778	540.035
295.863	159.625
299.947	61.126
304.029	1.229
308.108	123.414
312.186	318.986
316.262	287.405
320.336	203.553
324.408	338.04
328.478	455.142
332.546	668.62
336.612	822.992
340.677	1033.4
344.739	1115.01
348.799	927.13
352.858	779.342
356.915	655.91
360.969	571.578
365.022	395.183
369.073	351.759
373.122	221.329
377.169	184.915
381.215	231.686
385.258	159.861
389.299	148.293
393.339	374.84
397.376	532.928
401.412	310.782
405.446	604.721
409.478	394.189
413.508	364.66
417.536	220.146
421.562	302.224
425.586	688.441
429.609	1205.01
433.629	1672.46
437.648	1298.26
441.665	923.669
445.68	986.389
449.693	812.969
453.704	827.092
457.713	428.021
461.721	224.479
465.726	205.886
469.73	72.16
473.731	189.14
477.731	234.745
481.729	173.883
485.725	110.591
489.72	325.249
493.712	272.8
497.703	270.246
501.691	524.146
505.678	687.678
509.663	695.792
513.646	1047.81
517.627	1676.77
521.607	2585.69
525.584	4700.56
529.56	9428.31
533.534	16373.2
537.506	13527.8
541.476	6448.14
545.444	3314.3
549.41	1944.66
553.375	1388.08
557.337	1046.9
561.298	725.116
565.257	573.843
569.214	616.028
573.17	558.497
577.123	474.992
581.075	468.445
585.024	175.851
588.972	279.212
592.918	54.514
596.863	252.745
600.805	212.893
604.746	310.902
608.685	44.705
612.621	53.57
616.557	28.211
620.49	182.721
624.421	580.986
628.351	782.801
632.279	233.891
636.205	29.076
640.129	25.67
644.051	10.16
647.972	273.09
651.89	23.104
655.807	208.227
659.722	311.436
663.636	216.869
667.547	323.01
671.457	371.125
675.365	308.045
679.271	283.166
683.175	372.301
687.077	325.896
690.978	538.07
694.877	664.178
698.774	562.35
702.669	742.461
706.562	1160.35
710.454	910.051
714.344	442.85
718.232	579.137
722.118	409.195
726.002	317.135
729.885	501.953
733.766	369.646
737.645	412.215
741.522	236.662
745.397	478.031
749.271	537.912
753.143	516.984
757.013	486.047
760.881	577.904
764.748	339.264
768.613	105.398
772.476	111.006
776.337	233.992
780.196	159.828
784.054	54.311
787.91	36.686
791.764	21.592
795.616	50.43
799.467	22.791
803.316	134.133
807.163	199.564
811.008	65.73
814.851	36.518
818.693	54.902
822.533	41.477
826.371	83.945
830.208	144.336
834.042	153.338
837.875	160
841.706	89.004
845.536	199.537
849.363	6.859
853.189	67.881
857.013	271.27
860.836	272.449
864.656	374.588
868.475	342.682
872.292	154.689
876.108	197.633
879.922	312.504
883.733	298.494
887.544	226.426
891.352	178.314
895.159	223.154
898.964	370.936
902.767	238.656
906.568	261.316
910.368	224.936
914.166	283.559
917.962	194.174
921.757	438.455
925.55	457.732
929.341	532.504
933.13	496.037
936.918	422.795
940.703	450.727
944.488	583.102
948.27	613.287
952.051	608.777
955.83	594.633
959.607	387.598
963.383	306.836
967.156	440.652
970.928	390.395
974.699	425.762
978.468	314.006
982.234	518.012
986	722.918
989.763	966.475
993.525	623.93
997.285	921.164
1001.04	1194.12
1004.8	1094.5
1008.55	1148.7
1012.31	1027.3
1016.06	851.543
1019.81	702.377
1023.56	592.008
1027.31	924.477
1031.05	1270.99
1034.79	1338.44
1038.53	1066.34
1042.27	1434.31
1046.01	1517.11
1049.75	1532.51
1053.48	972.441
1057.22	1050.72
1060.95	720.646
1064.68	572.336
1068.4	651.328
1072.13	657.17
1075.86	690.395
1079.58	591.07
1083.3	614.822
1087.02	584.508
1090.74	550.859
1094.45	504.334
1098.17	612.312
1101.88	676.131
1105.59	720.805
1109.3	205.592
1113.01	77.395
1116.71	230.08
1120.42	79.436
1124.12	175.516
1127.82	387.627
1131.52	290.215
1135.22	207.498
1138.91	314.439
1142.61	10.867
1146.3	78.604
1149.99	142.672
1153.68	189.379
1157.37	92.713
1161.06	145.953
1164.74	102.41
1168.42	246.852
1172.1	92.859
1175.78	243.752
1179.46	177.572
1183.14	392.346
1186.81	325.055
1190.48	57.713
1194.15	129.33
1197.83	393.957
1201.49	198.596
1205.16	407.303
1208.82	68.08
1212.49	206.295
1216.15	235.654
1219.81	101.588
1223.46	318.535
1227.12	370.225
1230.78	430.846
1234.43	273.58
1238.08	441.293
1241.73	401.848
1245.38	587.924
1249.03	0.186
1252.67	135.32
1256.31	1.807
1259.95	321.293
1263.6	68.572
1267.23	313.42
1270.87	10.385
1274.51	305.805
1278.14	114.598
1281.77	255.152
1285.4	216.873
1289.03	61.848
1292.66	118.689
1296.28	160.295
1299.91	133.566
1303.53	0
