Measurement: Raman, 785 nm, unoriented, Raman Data Processed
Mineral: Scolecite
Rruff sample: R040111
Ideal chemistry: Ca(Si_3_Al_2_)O_10_3H_2_O
Locality: Bombay-Poona area, Mahahashtra Province, India
Source: National Museums of Canada
Description: Pale pink prismatic crystals in parallel or near parallel aggregates
Measured chemistry: Ca_0.98_(Si_3.05_Al_1.95_)O_10_Â·3H_2_O
Raman shift (cm-1)	intensity
148.982	0
151.875	90.1054
154.768	442.316
157.66	889.966
160.553	673.447
163.446	277.942
166.338	55.4739
169.231	38.0356
172.124	128.023
175.017	247.867
177.909	591.571
180.802	1192.67
183.695	1478.74
186.587	1021.24
189.48	413.42
192.373	99.0159
195.265	67.6547
198.158	198.434
201.051	392.98
203.944	588.763
206.836	400.037
209.729	133.336
212.622	45.6865
215.514	123.659
218.407	361.856
221.3	813.081
224.192	893.833
227.085	566.947
229.978	319.244
232.87	197.448
235.763	52.4373
238.656	65.2402
241.549	62.2057
244.441	14.9534
247.334	81.6955
250.227	268.67
253.119	527.958
256.012	659.994
258.905	542.49
261.798	320.471
264.69	297.58
267.583	393.681
270.476	599.316
273.368	735.467
276.261	635.412
279.154	791.329
282.046	1014.47
284.939	804.681
287.832	553.943
290.724	306.112
293.617	172.234
296.51	69.1928
299.403	16.2864
302.295	21.5177
305.188	2.41809
308.081	52.4935
310.973	121.079
313.866	212.989
316.759	289.082
319.651	347.76
322.544	407.183
325.437	501.212
328.33	693.327
331.222	698.598
334.115	498.047
337.008	447.888
339.9	472.83
342.793	488.731
345.686	456.623
348.579	382.377
351.471	322.155
354.364	269.731
357.257	254.724
360.149	326.649
363.042	410.161
365.935	372.138
368.827	382.765
371.72	434.399
374.613	440.51
377.505	387.538
380.398	292.866
383.291	178.941
386.184	92.6122
389.076	37.7971
391.969	8.57068
394.862	7.38153
397.754	43.1055
400.647	111.817
403.54	211.807
406.433	202.08
409.325	115.861
412.218	0.29364
415.111	0.550781
418.003	55.7722
420.896	176.416
423.789	352.507
426.681	650.696
429.574	980.486
432.467	1310.66
435.36	1468.31
438.252	1502.61
441.145	1472.28
444.038	1428.03
446.93	1337.85
449.823	1129.31
452.716	836.342
455.608	498.778
458.501	317.266
461.394	171.359
464.286	84.0337
467.179	29.1368
470.072	7.88226
472.965	16.2792
475.857	17.8734
478.75	1.05975
481.643	22.5024
484.535	8.64697
487.428	5.19721
490.321	28.8138
493.214	59.4993
496.106	84.191
498.999	109.711
501.892	163.331
504.784	227.001
507.677	328.835
510.57	443.961
513.462	651.846
516.355	867.029
519.248	1306.24
522.14	1898.42
525.033	2939.77
527.926	4397.26
530.819	6650.49
533.711	8919.49
536.604	8547.98
539.497	5508.94
542.389	3033.54
545.282	1772.77
548.175	1145.98
551.067	804.826
553.96	585.865
556.853	473.218
559.745	420.288
562.638	343.853
565.531	301.567
568.424	269.332
571.316	223.942
574.209	178.94
577.102	164.833
579.994	146.121
582.887	129.978
585.78	119.893
588.673	113.187
591.565	111.829
594.458	99.1466
597.351	77.4956
600.243	77.7352
603.136	40.7154
606.029	47.385
608.921	7.33758
611.814	3.94592
614.707	21.6992
617.6	35.6325
620.492	3.79364
623.385	10.6276
626.278	4.09229
629.17	0.888
632.063	4.16589
634.956	9.92602
637.848	25.8943
640.741	11.4772
643.634	24.0239
646.527	31.6587
649.419	64.2223
652.312	74.1288
655.205	96.7935
658.097	89.7369
660.99	130.007
663.883	130.085
666.775	195.452
669.668	204.725
672.561	171.916
675.454	143.815
678.346	103.045
681.239	81.8511
684.132	78.4586
687.024	84.2191
689.917	125.183
692.81	149.715
695.702	192.562
698.595	216.536
701.488	271.564
704.381	354.703
707.273	344.012
710.166	279.073
713.059	216.684
715.951	183.977
718.844	172.938
721.737	184.375
724.63	192.813
727.522	258.801
730.415	281.995
733.308	287.28
736.2	211.508
739.093	146.821
741.986	140.212
744.878	140.136
747.771	155.053
750.664	199.211
753.557	208.137
756.449	198.97
759.342	170.919
762.235	128.238
765.127	77.4436
768.02	45.9876
770.913	11.6402
773.805	19.3532
776.698	15.8224
779.591	5.10178
782.484	13.0594
785.376	16.75
788.269	9.95306
791.162	9.79022
794.054	3.85886
796.947	2.33933
799.84	2.54245
802.732	2.29779
805.625	12.2699
808.518	13.019
811.41	16.1439
814.303	14.2132
817.196	30.7346
820.089	3.26028
822.981	37.4289
825.874	12.8153
828.767	16.3409
831.659	37.9293
834.552	23.4731
837.445	40.9026
840.337	45.5292
843.23	19.5733
846.123	31.6109
849.016	30.9985
851.908	30.0861
854.801	31.6319
857.694	33.7299
860.586	27.8725
863.479	34.4703
866.372	31.4473
869.264	34.301
872.157	25.7078
875.05	28.0572
877.943	22.2446
880.835	15.5174
883.728	4.9726
886.621	30.0203
889.513	12.7524
892.406	8.22031
895.299	16.1391
898.192	16.0916
901.084	5.95554
903.977	5.63019
906.87	9.29633
909.762	17.1261
912.655	20.698
915.548	31.3681
918.44	19.9549
921.333	23.752
924.226	57.5869
927.119	59.4957
930.011	57.4815
932.904	43.8572
935.797	18.6179
938.689	36.2108
941.582	40.4031
944.475	68.9702
947.367	112.16
950.26	134.245
953.153	69.7479
956.045	28.9177
958.938	25.1255
961.831	11.0635
964.724	4.14099
967.616	13.794
970.509	21.9121
973.402	18.7454
976.294	25.902
979.187	98.5341
982.08	185.513
984.972	270.536
987.865	316.562
990.758	209.537
993.651	169.555
996.543	132.132
999.436	143.422
1002.33	223.652
1005.22	250.216
1008.11	225.451
1011.01	185.109
1013.9	179.417
1016.79	210.193
1019.68	201.567
1022.58	162.122
1025.47	198.311
1028.36	212.125
1031.26	333.926
1034.15	373.542
1037.04	337.267
1039.93	400.97
1042.83	532.843
1045.72	728.315
1048.61	682.514
1051.51	423.339
1054.4	189.083
1057.29	96.4738
1060.18	37.63
1063.08	26.2015
1065.97	8.03284
1068.86	8.76428
1071.75	0.482452
1074.65	12.6782
1077.54	1.77316
1080.43	19.4527
1083.32	26.1089
1086.22	40.9258
1089.11	111.613
1092	151.371
1094.89	175.794
1097.79	211.142
1100.68	169.41
1103.57	125.224
1106.47	92.1427
1109.36	39.5024
1112.25	22.5643
1115.14	20.4117
1118.04	6.52374
1120.93	4.11215
1123.82	2.11133
1126.71	4.32977
1129.61	7.79538
1132.5	11.4613
1135.39	0.113831
1138.29	4.76929
1141.18	9.95102
1144.07	2.23239
1146.96	11.0379
1149.86	12.2912
1152.75	9.55978
1155.64	14.5318
1158.53	8.35538
1161.43	17.0758
1164.32	9.12769
1167.21	11.0499
1170.11	22.2292
1173	7.39941
1175.89	0.667938
1178.78	25.5555
1181.68	16.0858
1184.57	14.5362
1187.46	30.9084
1190.35	16.885
1193.25	23.7071
1196.14	6.82233
1199.03	5.94403
1201.92	11.055
1204.82	14.9842
1207.71	14.5317
1210.6	6.78989
1213.5	7.42145
1216.39	1.92429
1219.28	2.8627
1222.17	9.62747
1225.07	3.96286
1227.96	6.62711
1230.85	6.79089
1233.74	10.9292
1236.64	10.0762
1239.53	22.1482
1242.42	5.44183
