Measurement: Raman, 532 nm, unoriented, Raman Data Processed
Mineral: Scolecite
Rruff sample: R050083
Ideal chemistry: Ca(Si_3_Al_2_)O_10_3H_2_O
Locality: near Ahmednagar, Maharashtra, India
Source: Rock Currier
Description: Colorless acicular single crystals associated with fluorapophyllite
Measured chemistry: (Ca_.992_Na_.008_)[Al_2_Si_3_O_10_]Â·3H_2_O
Raman shift (cm-1)	intensity
147.733	0
151.108	82.1498
154.483	437.279
157.858	811.723
161.233	598.242
164.607	318.361
167.982	115.168
171.357	75.213
174.732	168.069
178.107	434.765
181.482	736.852
184.856	571.018
188.231	199.048
191.606	17.9649
194.981	1.30811
198.356	53.0759
201.731	146.911
205.105	153.11
208.48	69.2186
211.855	29.9906
215.23	159.364
218.605	407.992
221.979	773.15
225.354	604.211
228.729	324.378
232.104	210.854
235.479	48.7954
238.853	33.1422
242.228	20.782
245.603	55.7213
248.978	195.022
252.353	394.516
255.727	517.578
259.102	246.048
262.477	105.593
265.852	93.2199
269.227	155.117
272.602	244.644
275.976	234.652
279.351	346.219
282.726	418.863
286.101	271.003
289.476	156.91
292.851	58.0921
296.225	5.61609
299.6	14.4423
302.975	12.1483
306.35	16.8293
309.725	97.4849
313.099	170.682
316.474	214.021
319.849	238.924
323.224	264.65
326.599	277.876
329.974	299.516
333.348	242.238
336.723	227.615
340.098	250.234
343.473	239.719
346.848	211.925
350.223	174.567
353.597	147.97
356.972	126.205
360.347	181.54
363.722	129.344
367.097	98.8669
370.471	107.808
373.846	91.3793
377.221	79.3874
380.596	35.8294
383.971	1.59027
387.346	3.87207
390.72	4.39526
394.095	23.0925
397.47	97.3061
400.845	181.978
404.219	272.279
407.594	207.992
410.969	82.0118
414.344	34.2479
417.719	50.9593
421.094	178.267
424.469	354.684
427.843	598.507
431.218	849.608
434.593	1086.42
437.968	1097.91
441.343	1024.52
444.717	918.815
448.092	807.277
451.467	643.84
454.842	430.972
458.217	259.903
461.591	152.701
464.966	74.8279
468.341	23.2087
471.716	8.91647
475.091	3.29486
478.466	8.76944
481.84	3.85443
485.215	6.13586
488.59	12.661
491.965	0.520782
495.34	22.4883
498.714	40.0418
502.089	94.9981
505.464	148.548
508.839	252.911
512.214	398.772
515.589	609.762
518.963	982.09
522.338	1590.22
525.713	2535.07
529.088	3767.11
532.463	5145.44
535.837	5198.33
539.212	3123.44
542.587	1538.29
545.962	866.22
549.337	517.874
552.712	346.389
556.086	251.56
559.461	196.177
562.836	164.514
566.211	129.958
569.586	97.6492
572.96	103.299
576.335	85.3597
579.71	74.2747
583.085	75.2508
586.46	63.5517
589.835	95.8529
593.209	89.2675
596.584	57.7973
599.959	70.4508
603.334	34.115
606.709	28.5011
610.083	34.4512
613.458	4.1395
616.833	0.068481
620.208	8.87558
623.583	17.1654
626.958	2.19827
630.332	1.69638
633.707	7.91748
637.082	14.8815
640.457	17.8992
643.832	36.1951
647.207	64.9038
650.581	77.3875
653.956	93.2197
657.331	147.077
660.706	192.294
664.081	247.342
667.455	287.936
670.83	300.037
674.205	249.982
677.58	167.78
680.955	107.032
684.33	74.0639
687.704	61.0836
691.079	59.3851
694.454	63.6505
697.829	89.6774
701.204	140.871
704.578	188.716
707.953	169.281
711.328	145.243
714.703	127.743
718.078	142.456
721.452	128.298
724.827	140.187
728.202	159.91
731.577	172.364
734.952	154.865
738.327	122.255
741.701	113.487
745.076	111.434
748.451	128.787
751.826	168.38
755.201	174.823
758.576	133.974
761.95	83.262
765.325	48.727
768.7	17.7166
772.075	3.00751
775.45	15.1163
778.824	18.5334
782.199	5.67389
785.574	5.08902
788.949	5.04877
792.324	0.109222
795.698	5.05719
799.073	1.52835
802.448	11.1352
805.823	3.03821
809.198	21.6337
812.573	6.04874
815.947	14.4503
819.322	29.1242
822.697	16.3164
826.072	16.4419
829.447	32.0063
832.822	18.8829
836.196	27.27
839.571	18.1096
842.946	29.3845
846.321	20.3404
849.696	26.6566
853.07	11.8596
856.445	15.5618
859.82	16.8587
863.195	26.8693
866.57	28.4544
869.944	20.0788
873.319	18.7885
876.694	18.68
880.069	9.16348
883.444	16.9614
886.819	18.9967
890.193	12.6505
893.568	5.86273
896.943	4.32904
900.318	2.16147
903.693	16.2947
907.067	15.7892
910.442	4.6029
913.817	17.7998
917.192	15.2061
920.567	28.9116
923.942	36.3345
927.316	26.3808
930.691	12.5695
934.066	19.6534
937.441	15.3822
940.816	39.2561
944.191	54.932
947.565	81.314
950.94	69.3597
954.315	26.7983
957.69	16.7874
961.065	0.197723
964.439	4.90576
967.814	8.07791
971.189	12.1187
974.564	33.7026
977.939	94.4597
981.313	177.464
984.688	269.576
988.063	233.711
991.438	130.644
994.813	99.6171
998.188	86.1436
1001.56	107.566
1004.94	133.116
1008.31	122.295
1011.69	123.406
1015.06	107.477
1018.44	113.802
1021.81	103.533
1025.19	116.889
1028.56	151.515
1031.94	197.866
1035.31	223.887
1038.68	252.081
1042.06	361.705
1045.43	487.304
1048.81	425.141
1052.18	183.808
1055.56	77.2393
1058.93	30.4221
1062.31	7.60544
1065.68	4.79282
1069.06	0.579865
1072.43	7.93698
1075.81	3.23511
1079.18	20.5069
1082.56	28.3251
1085.93	66.0261
1089.31	131.117
1092.68	160.609
1096.06	210.637
1099.43	190.169
1102.81	144.815
1106.18	78.6513
1109.56	58.2087
1112.93	33.9134
1116.31	32.4835
1119.68	16.4499
1123.06	6.22144
1126.43	13.0162
1129.81	8.57761
1133.18	16.891
1136.56	12.9369
1139.93	3.05954
1143.31	3.48093
1146.68	4.9678
1150.05	3.11749
1153.43	3.48087
1156.8	4.26868
1160.18	9.4689
1163.55	1.31811
1166.93	18.2215
1170.3	8.31592
1173.68	3.06216
1177.05	19.2958
1180.43	15.5954
1183.8	8.96335
1187.18	1.00302
1190.55	10.1641
1193.93	14.0939
1197.3	11.7326
1200.68	13.0187
1204.05	12.2204
1207.43	6.24036
1210.8	12.8394
1214.18	11.2562
1217.55	7.78937
1220.93	1.79721
1224.3	16.1235
1227.67	14.647
1231.05	19.8191
1234.42	13.3399
1237.8	16.7657
1241.17	6.80298
1244.55	16.286
1247.92	2.85281
1251.3	0.015564
1254.67	17.9054
1258.05	18.5843
1261.42	19.8931
1264.8	16.9117
1268.17	11.3156
1271.55	3.88077
1274.92	20.0637
1278.3	11.4333
1281.67	3.16803
1285.05	3.28796
1288.42	15.505
1291.8	5.9368
1295.17	15.0692
1298.55	11.7382
1301.92	1.67789
1305.3	11.7689
1308.67	1.10059
