Measurement: Raman, 785 nm, unoriented, Raman Data Processed
Mineral: Scolecite
Rruff sample: R050083
Ideal chemistry: Ca(Si_3_Al_2_)O_10_3H_2_O
Locality: near Ahmednagar, Maharashtra, India
Source: Rock Currier
Description: Colorless acicular single crystals associated with fluorapophyllite
Measured chemistry: (Ca_.992_Na_.008_)[Al_2_Si_3_O_10_]Â·3H_2_O
Raman shift (cm-1)	intensity
121.501	0
124.394	4.97961
127.287	70.6319
130.18	125.303
133.072	185.648
135.965	199.199
138.858	209.268
141.75	265.877
144.643	291.456
147.536	408.585
150.429	526.595
153.321	704.837
156.214	841.448
159.107	840.188
161.999	629.069
164.892	459.747
167.785	397.44
170.677	427.597
173.57	467.012
176.463	511.8
179.356	649.285
182.248	864.373
185.141	827.472
188.034	618.808
190.926	385.237
193.819	261.626
196.712	216.993
199.604	271.974
202.497	356.546
205.39	391.793
208.282	272.422
211.175	133.783
214.068	105.982
216.961	163.419
219.853	254.384
222.746	402.697
225.639	319.759
228.531	188.555
231.424	105.889
234.317	42.0205
237.209	7.40112
240.102	51.3804
242.995	13.8915
245.888	1.64697
248.78	49.0227
251.673	125.65
254.566	213.967
257.458	237.22
260.351	184.43
263.244	144.849
266.137	152.432
269.029	225.242
271.922	322.627
274.815	346.732
277.707	323.556
280.6	454.005
283.493	489.826
286.385	331.637
289.278	209.622
292.171	118.834
295.063	53.9734
297.956	8.12268
300.849	18.5104
303.742	10.7257
306.634	2.61014
309.527	30.6468
312.42	77.3726
315.312	113.207
318.205	148.212
321.098	169.355
323.99	212.142
326.883	283.789
329.776	345.937
332.669	339.551
335.561	277.383
338.454	246.309
341.347	268.968
344.239	285.637
347.132	242.256
350.025	219.465
352.918	169.666
355.81	173.516
358.703	177.883
361.596	215.042
364.488	218.378
367.381	185.926
370.274	199.317
373.166	221.787
376.059	196.828
378.952	155.563
381.844	116.647
384.737	73.1834
387.63	41.1578
390.523	10.2677
393.415	5.21847
396.308	0.339935
399.201	13.0449
402.093	55.1056
404.986	84.8279
407.879	74.3055
410.772	28.7591
413.664	2.5632
416.557	40.5382
419.45	98.2545
422.342	191.233
425.235	291.043
428.128	420.854
431.02	595.106
433.913	739.824
436.806	799.012
439.699	741.354
442.591	718.397
445.484	693.787
448.377	609.629
451.269	484.15
454.162	335.355
457.055	196.498
459.947	128.229
462.84	61.5558
465.733	21.9336
468.625	5.65842
471.518	4.64358
474.411	17.7874
477.304	20.2949
480.196	4.17401
483.089	11.4554
485.982	4.21786
488.874	11.6169
491.767	21.5781
494.66	40.096
497.553	59.5408
500.445	83.7505
503.338	107.201
506.231	153.755
509.123	210.182
512.016	305.006
514.909	431.667
517.802	606.594
520.694	902.218
523.587	1366.5
526.48	1981.1
529.372	2834.86
532.265	3916.86
535.158	4646.38
538.05	3787.07
540.943	2257.74
543.836	1253.63
546.729	760.537
549.621	528.231
552.514	384.298
555.407	288.32
558.299	224.874
561.192	202.306
564.085	176.04
566.977	150.823
569.87	129.089
572.763	106.105
575.655	86.3302
578.548	77.9621
581.441	63.5276
584.333	66.2643
587.226	73.8955
590.119	59.9285
593.012	54.0291
595.904	44.6253
598.797	31.6195
601.69	23.8247
604.582	25.0586
607.475	10.4894
610.368	6.47394
613.26	6.02853
616.153	10.9107
619.046	11.9751
621.939	9.88174
624.831	2.59473
627.724	1.98731
630.617	3.36764
633.509	4.44464
636.402	6.55725
639.295	4.43298
642.188	11.7844
645.08	15.4327
647.973	17.3469
650.866	23.7761
653.758	35.0506
656.651	45.9698
659.544	42.3992
662.436	63.0605
665.329	88.2127
668.222	89.6196
671.115	77.0434
674.007	79.4389
676.9	57.119
679.793	41.5781
682.685	38.4177
685.578	48.0161
688.471	46.7785
691.363	81.5993
694.256	84.7989
697.149	94.6222
700.042	131.538
702.934	157.736
705.827	192.223
708.72	160.082
711.612	134.564
714.505	109.069
717.398	107.213
720.29	88.7545
723.183	112.762
726.076	120.642
728.968	136.914
731.861	152.121
734.754	116.213
737.647	89.7224
740.539	69.5048
743.432	67.7592
746.325	65.701
749.217	82.3184
752.11	89.5509
755.003	97.0534
757.895	84.6059
760.788	80.8466
763.681	37.591
766.574	27.7428
769.466	18.1174
772.359	8.6906
775.252	2.14069
778.144	1.0799
781.037	0.49501
783.93	8.82661
786.822	7.22501
789.715	4.84389
792.608	6.40926
795.501	3.43179
798.393	4.65839
801.286	2.45732
804.179	3.0598
807.071	25.113
809.964	0.124512
812.857	8.46182
815.75	11.4459
818.642	12.2909
821.535	9.66333
824.428	0.889023
827.32	11.4467
830.213	14.0247
833.106	26.3932
835.998	9.00908
838.891	25.5292
841.784	24.0414
844.677	26.967
847.569	19.0748
850.462	15.0655
853.355	11.991
856.247	11.5266
859.14	8.24933
862.033	13.9474
864.925	3.00554
867.818	9.68687
870.711	3.99542
873.604	12.2291
876.496	14.1028
879.389	2.40549
882.282	22.6282
885.174	9.26788
888.067	15.7727
890.96	7.19414
893.852	10.7465
896.745	3.90616
899.638	0.217529
902.53	6.71857
905.423	10.3049
908.316	3.93886
911.209	7.64816
914.101	2.46018
916.994	19.223
919.887	17.2857
922.779	25.9941
925.672	28.9766
928.565	21.3264
931.457	15.447
934.35	16.0363
937.243	12.0372
940.136	23.1308
943.028	28.0889
945.921	45.1678
948.814	72.2974
951.706	50.338
954.599	25.9171
957.492	8.40773
960.385	5.31201
963.277	2.30147
966.17	5.63228
969.063	4.16856
971.955	12.0533
974.848	16.2899
977.741	36.1318
980.633	62.7871
983.526	116.524
986.419	151.365
989.312	127.345
992.204	85.9863
995.097	67.9269
997.99	63.8922
1000.88	69.2549
1003.77	98.5874
1006.67	99.5437
1009.56	98.3962
1012.45	61.6639
1015.35	77.4321
1018.24	94.9664
1021.13	83.4377
1024.02	68.5026
1026.92	96.8206
1029.81	129.588
1032.7	170.091
1035.6	175.883
1038.49	184.87
1041.38	201.35
1044.27	317.413
1047.17	359.314
1050.06	291.414
1052.95	135.673
1055.84	68.5332
1058.74	30.4641
1061.63	16.3956
1064.52	12.1114
1067.41	7.09148
1070.31	0.076569
1073.2	9.15369
1076.09	2.72469
1078.98	4.08936
1081.88	10.5044
1084.77	13.8686
1087.66	31.4652
1090.56	50.353
1093.45	72.2228
1096.34	95.0897
1099.23	75.5626
1102.13	68.446
1105.02	39.5763
1107.91	27.8418
1110.81	32.2829
1113.7	15.1886
1116.59	10.6865
1119.48	7.75549
1122.38	0.806015
1125.27	5.4436
1128.16	1.14096
1131.05	3.77704
1133.95	1.25633
1136.84	13.0071
1139.73	4.75558
1142.62	6.32291
1145.52	11.3221
1148.41	6.45125
1151.3	1.22331
1154.19	3.05498
1157.09	10.8213
1159.98	3.57332
1162.87	11.6891
1165.77	11.6081
1168.66	14.2379
1171.55	13.584
1174.44	16.9688
1177.34	10.6395
1180.23	12.8011
1183.12	14.6604
1186.02	22.4527
1188.91	12.5508
1191.8	22.5907
1194.69	9.53018
1197.59	15.0785
1200.48	10.6896
1203.37	1.9427
1206.26	13.248
1209.16	19.9861
1212.05	12.6796
1214.94	9.06348
1217.84	10.4623
1220.73	13.3489
1223.62	15.8667
1226.51	5.65468
1229.41	10.1566
1232.3	7.53552
1235.19	5.43439
