Measurement: Raman, 514 nm, unoriented, Raman Data Processed
Mineral: Scolecite
Rruff sample: R040111
Ideal chemistry: Ca(Si_3_Al_2_)O_10_3H_2_O
Locality: Bombay-Poona area, Mahahashtra Province, India
Source: National Museums of Canada
Description: Pale pink prismatic crystals in parallel or near parallel aggregates
Measured chemistry: Ca_0.98_(Si_3.05_Al_1.95_)O_10_Â·3H_2_O
Raman shift (cm-1)	intensity
79.427	0
83.614	50.712
87.798	1773.84
91.981	4873.9
96.161	7406.23
100.34	7385.2
104.516	7933.12
108.691	12149.8
112.864	9820.66
117.034	9684.4
121.203	7805.9
125.369	6260.18
129.534	3730.75
133.696	2607.64
137.857	5354.03
142.016	6151.9
146.172	3386.28
150.327	3855.01
154.48	6984.62
158.63	7527.96
162.779	4505
166.926	2863.64
171.07	2580.24
175.213	3267.94
179.354	4742.99
183.493	5751.34
187.63	4030.62
191.765	2543.18
195.898	2447.28
200.029	3335.93
204.158	3707.46
208.285	2480.5
212.41	898.111
216.533	1314.22
220.654	2391.69
224.773	1948.36
228.891	745.154
233.006	129.79
237.119	550.859
241.231	527.78
245.34	506.414
249.448	75.75
253.553	681.819
257.657	831.133
261.758	275.083
265.858	837.875
269.956	1704.29
274.052	2103.48
278.146	3431.89
282.237	3741.14
286.327	2066.82
290.416	849.259
294.502	53.556
298.586	240.409
302.668	253.528
306.749	104.188
310.827	181.919
314.903	440.162
318.978	822.982
323.051	1327.47
327.121	2215.56
331.19	2602.48
335.257	2291.36
339.322	2450.55
343.385	2497.72
347.446	2149.81
351.505	1799.78
355.563	1560.31
359.618	1895.75
363.672	2123.88
367.723	2010.88
371.773	1939.71
375.821	1630.36
379.866	1547.82
383.91	954.075
387.952	581.122
391.992	548.953
396.031	598.448
400.067	840.037
404.101	921.64
408.134	548.724
412.165	554.464
416.193	739.79
420.22	1090
424.245	2164.97
428.268	3687.7
432.289	5319.08
436.309	5811.1
440.326	5622.72
444.342	5385.94
448.355	4683.82
452.367	3176.64
456.377	1574.73
460.385	758.095
464.391	492.138
468.395	195.199
472.398	13.748
476.398	232.135
480.397	24.197
484.394	30.977
488.389	48.549
492.382	116.391
496.373	388.465
500.362	600.248
504.349	1002.42
508.335	1589.1
512.319	2265.61
516.3	3552.87
520.28	5858.9
524.259	10009.7
528.235	19867.3
532.209	35867.7
536.182	37666.8
540.152	20684.8
544.121	9895.48
548.088	5441.01
552.053	3546.24
556.017	2444.72
559.978	2095.4
563.938	1698.16
567.895	1439.94
571.851	1061.33
575.805	1044.58
579.758	613.602
583.708	406.396
587.657	470.967
591.603	626.316
595.548	470.445
599.491	280.355
603.432	137.045
607.372	368.504
611.309	93.656
615.245	41.09
619.179	45.67
623.111	27.744
627.041	228.639
630.97	158.277
634.896	337.891
638.821	163.719
642.744	250.514
646.665	288.277
650.584	322.564
654.502	507.492
658.418	58.625
662.331	195.199
666.244	577.625
670.154	478.34
674.062	500.281
677.969	466.166
681.874	591.572
685.777	834.908
689.678	769.441
693.577	1098.36
697.475	1012.03
701.371	1722.69
705.265	1837.53
709.157	1887.15
713.047	1252.79
716.936	1289.31
720.823	1366.17
724.708	1198.96
728.591	1654.65
732.472	1653.99
736.352	1189.36
740.23	661.568
744.106	732.992
747.98	795.186
751.853	1167.77
755.723	1176.06
759.592	1136.1
763.459	508.043
767.325	75.988
771.188	679.422
775.05	344.799
778.91	148.717
782.768	95.258
786.625	38.885
790.479	229.096
794.332	140.031
798.183	64.93
802.033	22.184
805.88	71.434
809.726	187.184
813.57	64.756
817.413	150.029
821.253	302.412
825.092	396.512
828.929	204.475
832.764	410.4
836.598	174.238
840.429	310.084
844.259	60.043
848.088	213.025
851.914	238.938
855.739	71.229
859.562	223.426
863.383	505.027
867.203	112.326
871.02	313.459
874.836	182.561
878.65	163.578
882.463	260.502
886.274	320.348
890.083	393.1
893.89	270.756
897.695	75.322
901.499	343.785
905.301	318.16
909.102	249.506
912.9	365.586
916.697	590.646
920.492	854.059
924.285	646.221
928.077	896.447
931.867	622.311
935.655	542.842
939.442	530.744
943.226	697.186
947.009	897.457
950.791	1094.37
954.57	841.75
958.348	539.074
962.124	293.539
965.899	520.141
969.671	235.453
973.442	232.777
977.211	867.07
980.979	1096.17
984.745	2049.61
988.509	2236.52
992.271	1652.2
996.032	1094.19
999.791	1534.37
1003.55	1484.87
1007.3	1880.01
1011.06	1665
1014.81	1610.19
1018.56	1977.24
1022.31	2098.86
1026.06	1892.2
1029.8	2012.95
1033.55	2789.26
1037.29	2618.52
1041.03	2739.55
1044.77	3950.43
1048.5	4866.61
1052.24	2651.57
1055.97	1554.54
1059.7	1033.85
1063.43	820.426
1067.16	604.818
1070.89	460.871
1074.61	489.049
1078.34	412.975
1082.06	593.645
1085.78	1429.2
1089.5	942.055
1093.21	1048.62
1096.93	1165.73
1100.64	1244.02
1104.35	1162.01
1108.06	559.941
1111.77	512.143
1115.48	387.242
1119.18	134.012
1122.89	874.031
1126.59	319.588
1130.29	155.375
1133.99	262.293
1137.68	452.17
1141.38	7.877
1145.07	83.221
1148.76	89.373
1152.45	3.211
1156.14	45.631
1159.83	137.832
1163.51	145.102
1167.19	248.438
1170.88	238.961
1174.56	130.779
1178.23	305.211
1181.91	203.553
1185.59	460.719
1189.26	424.986
1192.93	291.564
1196.6	353.066
1200.27	365.221
1203.94	495.904
1207.6	397.021
1211.27	436.383
1214.93	306.584
1218.59	99.277
1222.25	288.014
1225.9	552.281
1229.56	488.514
1233.21	355.383
1236.86	305.809
1240.51	291.107
1244.16	263.436
1247.81	498.797
1251.45	427.379
1255.1	478.559
1258.74	139.477
1262.38	16.523
1266.02	353.277
1269.66	188.172
1273.29	340.977
1276.93	178
1280.56	263.219
1284.19	190.059
1287.82	166.305
1291.45	111.289
1295.07	114.793
1298.7	114.375
1302.32	36.762
1305.94	138.086
1309.56	232.902
1313.18	1.379
1316.8	285.887
1320.41	153.977
1324.02	116.414
1327.63	278.637
1331.24	220.27
1334.85	77.926
1338.46	100.504
1342.06	341.02
1345.67	149.457
1349.27	361.266
1352.87	675.059
1356.47	690.059
1360.07	646.184
1363.66	424.418
1367.25	449.73
1370.85	506.121
1374.44	326.609
1378.03	326.16
1381.61	355.242
1385.2	365.68
1388.78	309.375
1392.37	496.027
1395.95	665.086
1399.53	547.07
1403.1	594.789
1406.68	244.91
1410.26	507.344
1413.83	500.676
1417.4	255.527
1420.97	644.074
1424.54	120.168
1428.1	306.562
1431.67	540.195
1435.23	491.227
1438.8	902.266
1442.36	599.586
1445.91	765.418
1449.47	470.125
1453.03	704.422
1456.58	677.406
1460.13	533.98
1463.68	136.453
1467.23	222.609
1470.78	269.23
1474.33	493.457
1477.87	248.891
1481.42	185.016
1484.96	302.324
1488.5	1.926
