Measurement: Raman, 532 nm, unoriented, Raman Data Processed
Mineral: Scorodite
Rruff sample: R050465
Ideal chemistry: Fe^3+^As^5+^O_4_2H_2_O
Locality: Minas Gerais, Brazil
Source: University of Arizona Mineral Museum
Description: Group of blue prismatic to tabular crystals displaying many modifying forms
Measured chemistry: Fe^3+^_1.00_As_1.00_O_4_Â·2H_2_O
Raman shift (cm-1)	intensity
147.416	0
150.308	13.3879
153.201	122.528
156.094	149.332
158.986	232.664
161.879	505.836
164.772	861.85
167.664	1357.11
170.557	1677.55
173.45	1909.53
176.343	2508.81
179.235	3351.9
182.128	2899.76
185.021	1994.37
187.913	1253.91
190.806	622.105
193.699	345.009
196.591	223.416
199.484	126.727
202.377	57.8622
205.269	2.57849
208.162	31.0069
211.055	9.06445
213.948	37.2604
216.84	12.9589
219.733	40.8885
222.626	35.481
225.518	17.5283
228.411	64.0677
231.304	132.913
234.196	223.127
237.089	207.05
239.982	180.296
242.875	189.947
245.767	209.143
248.66	292.934
251.553	314.058
254.445	213.729
257.338	72.0576
260.231	68.6935
263.123	143.508
266.016	254.426
268.909	414.906
271.802	587.621
274.694	718.267
277.587	657.948
280.48	495.835
283.372	447.285
286.265	507.951
289.158	596.292
292.05	610.695
294.943	478.099
297.836	261.782
300.729	153.194
303.621	143.174
306.514	196.581
309.407	244.816
312.299	290.772
315.192	303.778
318.085	266.2
320.978	275
323.87	372.801
326.763	563.978
329.656	822.837
332.548	1121.5
335.441	1300.5
338.334	1266.68
341.226	1033.57
344.119	708.615
347.012	400.366
349.904	177.672
352.797	28.396
355.69	58.3749
358.583	98.3157
361.475	85.5376
364.368	37.4519
367.261	51.7996
370.153	180.961
373.046	345.339
375.939	532.417
378.832	715.344
381.724	757.972
384.617	670.191
387.51	549.098
390.402	464.332
393.295	423.57
396.188	455.479
399.08	554.745
401.973	722.024
404.866	939.688
407.759	1186.26
410.651	1447.54
413.544	1621.07
416.437	1697.07
419.329	1676.61
422.222	1608.78
425.115	1489.54
428.007	1324.06
430.9	1158.38
433.793	1019.76
436.685	945.835
439.578	926.361
442.471	932.292
445.364	990.608
448.256	1048.78
451.149	1069.67
454.042	1040.59
456.934	976.725
459.827	907.302
462.72	842.187
465.613	759.694
468.505	703.079
471.398	653.541
474.291	643.404
477.183	665.705
480.076	696.909
482.969	717.08
485.861	678.875
488.754	589.167
491.647	468.389
494.539	356.216
497.432	250.059
500.325	173.762
503.218	103.781
506.11	55.3159
509.003	18.8746
511.896	6.96799
514.788	20.4917
517.681	30.7985
520.574	31.88
523.466	25.3798
526.359	22.9702
529.252	14.485
532.145	9.25076
535.037	2.79361
537.93	11.1014
540.823	22.5492
543.715	30.1602
546.608	41.0866
549.501	43.7494
552.394	55.5305
555.286	62.4074
558.179	66.8494
561.072	77.6469
563.964	84.8066
566.857	93.2016
569.75	98.6415
572.642	102.163
575.535	103.736
578.428	97.0396
581.321	93.2318
584.213	86.8166
587.106	83.9471
589.999	78.3266
592.891	77.7122
595.784	81.5543
598.677	80.7775
601.569	89.3905
604.462	93.6417
607.355	93.0056
610.247	104.327
613.14	109.182
616.033	115.4
618.926	113.943
621.818	112.011
624.711	107.922
627.604	105.939
630.496	99.9105
633.389	90.3052
636.282	80.9842
639.174	73.7696
642.067	66.9845
644.96	58.086
647.852	53.7125
650.745	45.2545
653.638	43.8598
656.531	36.4662
659.423	31.7366
662.316	27.2511
665.209	22.1522
668.101	16.1903
670.994	19.8559
673.887	10.1843
676.779	14.0415
679.672	10.8572
682.565	12.4297
685.458	17.0537
688.35	20.6703
691.243	25.3931
694.136	31.9461
697.028	36.6607
699.921	30.9501
702.814	31.8476
705.707	39.967
708.599	29.8832
711.492	31.3284
714.385	33.4765
717.277	28.998
720.17	24.4998
723.063	23.2037
725.955	17.2014
728.848	12.3507
731.741	4.93909
734.634	1.86902
737.526	4.40387
740.419	13.6361
743.312	18.368
746.204	24.7086
749.097	21.5626
751.99	24.2142
754.882	18.3705
757.775	7.48328
760.668	23.9905
763.561	63.2086
766.453	119.892
769.346	184.897
772.239	285.255
775.131	424.731
778.024	625.174
780.917	948.812
783.809	1435.74
786.702	2136.24
789.595	3051.13
792.487	4246.14
795.38	5754.95
798.273	7000.97
801.166	7236.34
804.058	6744.03
806.951	6343.43
809.844	5935.4
812.736	5138.17
815.629	4041.66
818.522	3031.95
821.415	2327.62
824.307	1998.57
827.2	1945.96
830.093	1910.28
832.985	1471.17
835.878	841.069
838.771	421.648
841.663	202.66
844.556	93.14
847.449	54.723
850.342	59.0858
853.234	90.0266
856.127	152.517
859.02	250.288
861.912	378.384
864.805	510.952
867.698	645.181
870.591	740.034
873.483	840.857
876.376	944.344
879.269	1100.44
882.161	1303.51
885.054	1547.03
887.947	1775.43
890.839	1879.5
893.732	1734.24
896.625	1412.66
899.518	1083.18
902.41	838.251
905.303	681.036
908.196	534.789
911.088	367.819
913.981	227.35
916.874	121.933
919.766	70.0409
922.659	28.6199
925.552	12.2315
928.444	8.4491
931.337	20.4065
934.23	23.9464
937.123	24.6581
940.015	18.5218
942.908	12.7782
945.801	9.52762
948.693	2.9036
951.586	5.34405
954.479	15.3613
957.371	23.5653
960.264	32.1397
963.157	38.6317
966.05	46.2869
968.942	55.4946
971.835	58.7346
974.728	71.403
977.62	78.3288
980.513	84.1302
983.406	89.6069
986.298	92.5462
989.191	95.5286
992.084	89.6851
994.977	90.2518
997.869	83.2561
1000.76	83.1413
1003.65	73.9893
1006.55	68.7111
1009.44	69.064
1012.33	69.4296
1015.23	67.4
1018.12	63.1402
1021.01	60.9857
1023.9	57.102
1026.8	52.5482
1029.69	49.1512
1032.58	47.932
1035.47	43.5297
1038.37	45.0488
1041.26	40.7477
1044.15	38.0658
1047.05	42.8362
1049.94	37.0157
1052.83	37.4946
1055.72	30.4006
1058.62	29.7199
1061.51	22.4206
1064.4	22.4649
1067.29	15.5125
1070.19	15.0639
1073.08	15.0852
1075.97	11.5242
1078.87	9.05241
1081.76	8.11833
1084.65	6.80928
1087.54	7.04912
1090.44	3.85326
1093.33	1.98828
1096.22	2.52882
1099.11	3.12474
1102.01	3.32341
1104.9	1.48877
1107.79	0.523605
1110.68	5.593
1113.58	7.69835
1116.47	3.03656
1119.36	4.61339
1122.26	1.89021
1125.15	1.33505
1128.04	0.995193
1130.93	0.923447
1133.83	4.18961
1136.72	3.12006
1139.61	1.22737
1142.5	0.971695
1145.4	0.370529
1148.29	1.7276
1151.18	3.92447
1154.08	0.007004
1156.97	0.273148
1159.86	0.326599
1162.75	0.984634
1165.65	0.157791
1168.54	2.23116
1171.43	0.797241
1174.32	0.378815
1177.22	4.92075
1180.11	0.136475
1183	5.48917
1185.89	5.02766
1188.79	5.52766
1191.68	6.76036
1194.57	3.62698
1197.47	8.42874
1200.36	6.47244
1203.25	8.76201
1206.14	8.13939
1209.04	6.64558
1211.93	7.78256
1214.82	7.1878
1217.71	5.24823
1220.61	3.8019
1223.5	0.156342
1226.39	4.50131
1229.29	3.59088
1232.18	5.30588
1235.07	4.71222
1237.96	6.25961
1240.86	1.16182
1243.75	2.46878
1246.64	5.11842
1249.53	3.10791
1252.43	3.8409
1255.32	3.73047
1258.21	1.37941
1261.11	2.65157
1264	0.681168
1266.89	1.97228
1269.78	1.31287
1272.68	7.81384
1275.57	5.32051
1278.46	1.43333
1281.35	0.000687
