Measurement: Raman, 780 nm, unoriented, Raman Data Processed
Mineral: Scorodite
Rruff sample: R050465
Ideal chemistry: Fe^3+^As^5+^O_4_2H_2_O
Locality: Minas Gerais, Brazil
Source: University of Arizona Mineral Museum
Description: Group of blue prismatic to tabular crystals displaying many modifying forms
Measured chemistry: Fe^3+^_1.00_As_1.00_O_4_Â·2H_2_O
Raman shift (cm-1)	intensity
150.191	0
153.084	0.783409
155.976	10.8138
158.869	39.4644
161.762	86.7893
164.654	127.88
167.547	189.68
170.44	272.478
173.333	380.833
176.225	564.525
179.118	779.007
182.011	653.585
184.903	342.236
187.796	177.863
190.689	90.6463
193.581	53.1175
196.474	32.0173
199.367	18.7383
202.26	13.7971
205.152	7.21791
208.045	3.68192
210.938	10.571
213.83	26.2428
216.723	20.4384
219.616	1.92154
222.508	7.7831
225.401	0.943893
228.294	17.5172
231.187	53.0383
234.079	88.403
236.972	94.7137
239.865	85.542
242.757	91.3406
245.65	114.646
248.543	151.12
251.435	163.215
254.328	109.858
257.221	38.7072
260.114	7.33438
263.006	4.97406
265.899	3.52512
268.792	8.85176
271.684	25.875
274.577	47.8973
277.47	63.4365
280.363	75.0424
283.255	98.4712
286.148	141.536
289.041	191.405
291.933	224.316
294.826	193.881
297.719	117.739
300.611	57.9998
303.504	30.9409
306.397	20.818
309.289	22.8584
312.182	25.7114
315.075	21.7997
317.968	18.0986
320.86	21.9729
323.753	33.0154
326.646	60.133
329.538	99.843
332.431	146.606
335.324	181.531
338.216	183.172
341.109	154.877
344.002	108.737
346.895	66.7837
349.787	32.5112
352.68	11.7209
355.573	2.11768
358.465	9.8291
361.358	10.2276
364.251	7.7849
367.144	2.63765
370.036	13.6286
372.929	29.8555
375.822	48.2011
378.714	65.7519
381.607	72.5173
384.5	65.1903
387.392	48.3939
390.285	34.2804
393.178	29.4019
396.071	35.2297
398.963	49.696
401.856	73.4485
404.749	106.375
407.641	151.529
410.534	196.518
413.427	249.28
416.32	290.649
419.212	331.499
422.105	356.086
424.998	371.577
427.89	349.373
430.783	301.876
433.676	245.126
436.568	192.118
439.461	153.065
442.354	125.72
445.247	108.182
448.139	97.9432
451.032	87.4555
453.925	81.5024
456.817	79.4561
459.71	78.221
462.603	79.3989
465.495	80.3002
468.388	78.987
471.281	77.3379
474.173	77.8589
477.066	79.9169
479.959	88.3703
482.852	94.4373
485.744	94.4933
488.637	84.8725
491.53	72.6774
494.422	59.8586
497.315	45.315
500.208	35.6176
503.101	22.9238
505.993	14.6612
508.886	8.27631
511.779	3.02687
514.671	0.418968
517.564	2.55846
520.457	3.93576
523.349	3.92059
526.242	2.9564
529.135	2.60859
532.028	2.16371
534.92	1.32889
537.813	0.61451
540.706	1.66069
543.598	2.16265
546.491	4.26273
549.384	5.6522
552.277	5.48021
555.169	8.5132
558.062	9.72264
560.955	10.2363
563.847	11.5497
566.74	12.8059
569.633	14.6111
572.525	15.1915
575.418	15.1754
578.311	15.5946
581.203	15.194
584.096	14.0135
586.989	14.1105
589.882	12.8923
592.774	12.5174
595.667	12.1429
598.56	11.5243
601.452	11.5301
604.345	12.2825
607.238	12.094
610.13	12.757
613.023	12.1337
615.916	12.2797
618.809	11.6921
621.701	10.9379
624.594	11.5889
627.487	9.83271
630.379	10.7442
633.272	10.1435
636.165	9.30494
639.058	9.15819
641.95	9.30356
644.843	8.41503
647.736	7.94219
650.628	7.02546
653.521	7.66571
656.414	7.54787
659.307	6.99371
662.199	7.52288
665.092	7.70808
667.985	7.51066
670.877	7.99534
673.77	8.26975
676.663	7.7104
679.555	7.80424
682.448	8.22869
685.341	7.24133
688.234	7.07338
691.126	6.81538
694.019	5.43366
696.912	5.01587
699.804	4.028
702.697	4.21396
705.59	2.245
708.482	1.76021
711.375	1.62446
714.268	1.79759
717.16	0.274952
720.053	0.560635
722.946	1.32849
725.839	0.870995
728.731	1.31708
731.624	2.01958
734.517	1.10685
737.409	1.45537
740.302	1.41862
743.195	0.046265
746.087	0.442841
748.98	2.68266
751.873	5.87167
754.766	9.75244
757.658	15.1238
760.551	19.149
763.444	27.4902
766.336	37.0372
769.229	50.6401
772.122	63.875
775.014	83.5453
777.907	112.269
780.8	152.494
783.693	213.037
786.585	291.935
789.478	410.559
792.371	566.815
795.263	790.102
798.156	996.47
801.049	1070.9
803.942	1064.44
806.834	1052.85
809.727	993.358
812.62	797.351
815.512	544.462
818.405	339.241
821.298	209.169
824.19	135.429
827.083	95.4789
829.976	70.3448
832.869	45.0725
835.761	18.0714
838.654	1.63571
841.547	2.89765
844.439	2.80798
847.332	4.34346
850.225	18.5207
853.117	37.8838
856.01	62.3242
858.903	97.9253
861.796	134.911
864.688	175.748
867.581	211.37
870.474	237.1
873.366	257.786
876.259	277.472
879.152	299.762
882.044	331.654
884.937	374.929
887.83	415.61
890.723	422.135
893.615	382.022
896.508	299.578
899.401	210.673
902.293	143.518
905.186	99.7458
908.079	68.704
910.971	45.839
913.864	28.5511
916.757	16.9009
919.65	10.3448
922.542	7.85204
925.435	3.52635
928.328	1.71772
931.22	0.619114
934.113	1.01725
937.006	2.18211
939.899	1.9622
942.791	1.2734
945.684	1.19945
948.577	0.066422
951.469	0.41188
954.362	0.995678
957.255	1.46257
960.148	2.33245
963.04	4.33848
965.933	5.23864
968.826	5.49594
971.718	5.78498
974.611	7.43235
977.504	8.67463
980.396	9.59056
983.289	10.3981
986.182	11.065
989.074	11.5898
991.967	12.0974
994.86	11.72
997.753	10.8962
1000.64	10.605
1003.54	9.62431
1006.43	9.30896
1009.32	8.71723
1012.22	8.98809
1015.11	8.78984
1018	7.41163
1020.89	7.35234
1023.79	6.39147
1026.68	6.90475
1029.57	5.91962
1032.46	5.40885
1035.36	5.1006
1038.25	4.69594
1041.14	5.17274
1044.04	4.38442
1046.93	4.68371
1049.82	4.90341
1052.71	3.90289
1055.61	3.35681
1058.5	3.3547
1061.39	3.0881
1064.29	2.59465
1067.18	2.189
1070.07	2.20847
1072.96	1.43468
1075.86	1.45362
1078.75	1.16813
1081.64	1.27553
1084.53	1.19001
1087.43	0.595272
1090.32	0.264994
1093.21	0.261385
1096.1	0.588501
1099	0.51932
1101.89	0.931551
1104.78	0.202833
1107.67	0.747271
1110.57	0.872889
1113.46	0.11195
1116.35	0.374685
1119.25	0.19524
1122.14	0.105957
1125.03	0.305084
1127.92	0.303452
1130.82	0.314064
1133.71	0.126253
1136.6	0.205729
1139.49	0.064358
1142.39	0.059858
1145.28	0.042128
1148.17	0.099628
1151.07	0.48826
1153.96	0.208546
1156.85	0.330135
1159.74	0.363796
1162.64	0.505392
1165.53	0.495386
1168.42	0.495344
1171.32	0.183117
1174.21	0.037624
1177.1	0.497707
1179.99	0.268923
1182.88	0.459053
1185.78	0.694088
1188.67	0.501402
1191.56	0.374435
1194.46	0.532671
1197.35	0.694513
1200.24	0.908964
1203.13	1.2432
1206.03	0.497314
1208.92	0.64459
1211.81	0.467089
1214.7	1.39481
1217.6	0.540611
1220.49	0.155687
1223.38	0.176098
1226.28	0.488834
1229.17	0.390116
1232.06	0.114819
1234.95	0.442429
1237.85	0.226789
1240.74	0.537186
1243.63	0.332413
1246.53	0.194571
1249.42	0.721947
1252.31	0.596006
1255.2	1.07348
1258.1	0.19606
1260.99	0.395002
1263.88	0.528065
1266.77	1.31792
1269.67	0.027979
1272.56	1.01406
1275.45	0.321749
1278.35	0.531811
1281.24	0.844198
1284.13	0.364494
1287.02	0.102348
