Measurement: Raman, 532 nm, unoriented, Raman Data Processed
Mineral: Scottyite
Rruff sample: R150111
Ideal chemistry: BaCu^2+^_2_Si_2_O_7_
Locality: Synthetic
Source: Yan Chen and Shouhua Feng
Description: Dark blue powder
Raman shift (cm-1)	intensity
113.407	0
116.782	50.2059
120.157	69.4939
123.531	24.0352
126.906	0.558685
130.281	5.17441
133.656	14.5725
137.031	26.0669
140.405	74.6967
143.78	91.6253
147.155	118.953
150.53	142.207
153.905	172.315
157.28	179.864
160.654	150.405
164.029	121.944
167.404	83.7841
170.779	52.8872
174.154	25.6677
177.528	9.66896
180.903	1.27908
184.278	1.29659
187.653	2.8046
191.028	2.80898
194.403	3.39389
197.777	0.116547
201.152	0.397751
204.527	4.57228
207.902	5.11586
211.277	6.79637
214.651	7.33681
218.026	6.38092
221.401	2.88028
224.776	0.247101
228.151	0.854111
231.525	0.92511
234.9	2.91649
238.275	0.237152
241.65	3.31238
245.025	4.46837
248.4	5.28592
251.774	3.42252
255.149	6.44592
258.524	8.18755
261.899	9.26343
265.274	15.0725
268.649	16.9124
272.023	23.1145
275.398	25.2869
278.773	30.4448
282.148	36.8525
285.523	50.0919
288.897	63.0493
292.272	77.215
295.647	87.9116
299.022	93.0325
302.397	89.3221
305.772	81.6615
309.146	71.3906
312.521	59.9914
315.896	48.2123
319.271	40.1468
322.646	32.9272
326.02	29.259
329.395	23.5314
332.77	24.171
336.145	24.1366
339.52	26.6792
342.894	30.0414
346.269	34.3004
349.644	31.7371
353.019	29.3598
356.394	21.8083
359.769	15.0408
363.143	7.01686
366.518	1.79724
369.893	2.3101
373.268	0.889114
376.643	0.114044
380.017	1.51869
383.392	0.831696
386.767	1.80002
390.142	0.657776
393.517	0.947388
396.892	0.207245
400.266	0.373947
403.641	0.697647
407.016	1.61015
410.391	2.51895
413.766	0.927673
417.14	3.63393
420.515	5.36641
423.89	5.94028
427.265	8.33977
430.64	10.8372
434.014	17.1423
437.389	26.1092
440.764	40.8647
444.139	56.1858
447.514	76.4918
450.889	100.34
454.263	120.124
457.638	120.423
461.013	92.4922
464.388	56.6156
467.763	35.2765
471.137	22.1754
474.512	13.9063
477.887	8.1566
481.262	5.04262
484.637	2.86704
488.012	2.18089
491.386	0.85981
494.761	0.89846
498.136	0.209381
501.511	1.13905
504.886	0.463211
508.26	0.244774
511.635	0.794777
515.01	0.389969
518.385	2.54227
521.76	3.65027
525.135	4.51386
528.509	10.1029
531.884	12.7116
535.259	19.42
538.634	24.1638
542.009	34.4779
545.384	46.8296
548.758	58.5279
552.133	68.786
555.508	68.7185
558.883	62.9946
562.258	56.2218
565.632	46.8515
569.007	39.2765
572.382	32.9858
575.757	27.0054
579.132	25.5025
582.506	23.4559
585.881	23.9905
589.256	22.6445
592.631	26.2148
596.006	23.2477
599.381	21.0632
602.755	19.5481
606.13	17.47
609.505	13.6544
612.88	9.88482
616.255	5.3107
619.63	2.40929
623.004	1.0397
626.379	2.22578
629.754	1.13885
633.129	0.081024
636.504	1.04308
639.878	3.05363
643.253	6.9007
646.628	9.42642
650.003	16.443
653.378	23.6755
656.752	35.1637
660.127	47.5535
663.502	60.2447
666.877	66.8074
670.252	60.9386
673.626	51.8881
677.001	34.95
680.376	21.7707
683.751	12.6791
687.126	6.85134
690.501	3.35866
693.875	2.59187
697.25	0.245552
700.625	0.257767
704	0.800056
707.375	1.14948
710.75	0.689751
714.124	0.224518
717.499	0.875458
720.874	1.43624
724.249	1.59198
727.624	1.35407
730.998	0.414375
734.373	2.56304
737.748	1.94566
741.123	2.43317
744.498	3.01518
747.872	2.48052
751.247	1.76367
754.622	2.46165
757.997	3.39082
761.372	4.71928
764.747	3.22101
768.121	3.58932
771.496	3.30011
774.871	2.03333
778.246	0.665901
781.621	2.29427
784.995	1.5487
788.37	2.17835
791.745	1.78619
795.12	1.54779
798.495	0.278259
801.87	1.12782
805.244	0.595871
808.619	0.538757
811.994	0.0187
815.369	0.15918
818.744	0.195801
822.119	1.30331
825.493	1.02739
828.868	3.23623
832.243	2.19653
835.618	1.15044
838.993	2.31457
842.367	2.09631
845.742	5.2318
849.117	5.21513
852.492	6.97786
855.867	8.09032
859.241	12.6752
862.616	15.7194
865.991	15.6171
869.366	19.7161
872.741	22.357
876.115	26.1018
879.49	32.2252
882.865	38.9832
886.24	44.7135
889.615	42.1585
892.99	40.6906
896.364	36.5701
899.739	31.0372
903.114	26.7602
906.489	19.7817
909.864	14.7875
913.239	10.2223
916.613	8.11488
919.988	7.70229
923.363	6.34039
926.738	5.28711
930.113	5.58834
933.487	4.72062
936.862	2.89297
940.237	4.01723
943.612	3.74264
946.987	5.8114
950.361	5.75188
953.736	3.90527
957.111	3.65164
960.486	2.54078
963.861	0.878754
967.236	0.780846
970.61	1.74236
973.985	0.257362
977.36	1.17419
980.735	2.9762
984.11	2.77805
987.485	2.02949
990.859	3.56979
994.234	4.61571
997.609	7.06274
1000.98	7.64715
1004.36	7.02853
1007.73	7.28973
1011.11	6.96796
1014.48	4.5974
1017.86	3.26777
1021.23	2.63802
1024.61	2.25923
1027.98	2.17731
1031.36	0.329277
1034.73	1.00761
1038.11	1.0275
1041.48	1.07699
1044.86	1.02955
1048.23	0.89502
1051.61	1.91333
1054.98	2.29279
1058.36	2.08804
1061.73	0.679825
1065.11	2.31094
1068.48	1.7141
1071.86	2.75584
1075.23	1.42522
1078.6	1.69286
1081.98	0.896179
1085.35	1.27239
1088.73	0.367828
1092.1	3.59325
1095.48	0.504837
1098.85	1.0014
1102.23	1.84808
1105.6	1.87655
1108.98	1.57663
1112.35	0.885406
1115.73	2.76947
1119.1	1.08245
1122.48	0.157906
1125.85	1.5431
1129.23	3.19987
1132.6	2.76457
1135.98	1.93658
1139.35	1.36739
1142.73	2.30784
1146.1	1.68819
1149.48	1.28578
1152.85	1.01729
1156.22	2.4433
1159.6	1.33826
1162.97	1.03913
1166.35	0.414948
1169.72	5.17073
1173.1	2.47282
1176.47	1.02517
1179.85	1.2326
1183.22	0.452133
1186.6	1.94591
1189.97	0.997406
1193.35	0.938583
1196.72	0.497437
1200.1	1.21687
1203.47	1.49921
1206.85	3.00444
1210.22	2.41793
1213.6	1.7021
1216.97	1.72461
1220.35	0.853264
1223.72	1.38311
1227.1	1.1433
1230.47	0.480759
1233.85	0.753212
1237.22	1.28014
1240.6	0.740364
1243.97	0.834679
1247.35	2.2609
1250.72	1.31279
1254.1	1.84203
1257.47	0.610741
1260.85	2.02687
1264.22	2.42255
1267.59	2.06089
1270.97	1.60329
1274.34	0.57869
1277.72	0.465179
1281.09	1.80713
1284.47	2.67379
1287.84	1.51618
1291.22	0.379509
1294.59	1.75726
1297.97	1.45937
1301.34	0.15892
