Measurement: Raman, 532 nm, unoriented, Raman Data Processed
Mineral: Scottyite
Rruff sample: R141116
Ideal chemistry: BaCu^2+^_2_Si_2_O_7_
Locality: Wessels mine, Kalahari Manganese Fields, Northern Cape Province, South Africa
Source: Jaco and Tania Janse van Nieuwenhuizen
Description: Dark blue granular or blocky crystals associated with light-blue platy lavinskyite (R141115) and blue wesselsite.
Measured chemistry: Ba_1.01_Sr_0.02_Cu_2.03_Na_0.01_Si_1.97_O_7_; (Scottyite is light grey material in image, associated with dark grey R141115 lavinskyite)
Raman shift (cm-1)	intensity
103.765	0
107.139	17.6065
110.514	14.5407
113.889	14.2627
117.264	58.019
120.639	135.788
124.013	347.037
127.388	36.2929
130.763	8.07954
134.138	1.16965
137.513	4.49008
140.888	38.2271
144.262	48.089
147.637	81.2872
151.012	138.875
154.387	251.421
157.762	405.539
161.137	622.906
164.511	412.173
167.886	175.082
171.261	142.765
174.636	103.059
178.011	56.5733
181.385	11.823
184.76	3.68349
188.135	4.73898
191.51	6.48076
194.885	1.45023
198.26	2.8896
201.634	2.15788
205.009	3.92886
208.384	8.60643
211.759	15.9548
215.133	24.0261
218.508	33.1425
221.883	21.2766
225.258	16.3414
228.633	6.2545
232.008	1.19643
235.382	1.50325
238.757	3.96503
242.132	4.07684
245.507	7.07391
248.882	3.05952
252.256	1.29375
255.631	1.22559
259.006	0.914703
262.381	2.1082
265.756	4.67941
269.131	0.655174
272.505	3.00348
275.88	2.94997
279.255	5.54096
282.63	8.07274
286.005	13.4217
289.38	23.5368
292.754	34.8462
296.129	60.0487
299.504	108.25
302.879	181.072
306.254	203.608
309.628	181.647
313.003	223.201
316.378	259.305
319.753	176.448
323.128	95.6361
326.502	52.7185
329.877	41.5249
333.252	33.3236
336.627	29.801
340.002	27.1291
343.377	25.3763
346.751	29.3477
350.126	45.7339
353.501	61.974
356.876	92.8516
360.251	123.384
363.625	78.7814
367	30.1541
370.375	11.1858
373.75	4.38373
377.125	0.462585
380.5	1.11491
383.874	2.36556
387.249	0.953934
390.624	1.68514
393.999	5.92294
397.374	6.46248
400.748	2.36877
404.123	0.786736
407.498	0.584511
410.873	1.56478
414.248	2.03805
417.623	6.9444
420.997	9.40955
424.372	11.7833
427.747	8.03709
431.122	5.81363
434.497	5.31863
437.872	5.63026
441.246	12.4941
444.621	25.0503
447.996	46.7431
451.371	86.2612
454.745	144.03
458.12	242.785
461.495	229.893
464.87	82.1543
468.245	33.7741
471.62	18.035
474.994	9.95469
478.369	4.59999
481.744	3.88863
485.119	3.41035
488.494	1.76026
491.868	0.712723
495.243	0.779213
498.618	0.695457
501.993	2.71056
505.368	1.48082
508.743	4.03871
512.117	0.48941
515.492	1.14976
518.867	1.54924
522.242	1.76073
525.617	3.08766
528.991	4.65584
532.366	9.89102
535.741	16.4664
539.116	17.2183
542.491	20.8911
545.866	30.3308
549.24	50.8636
552.615	87.0292
555.99	139.408
559.365	203.57
562.74	228.239
566.115	148.971
569.489	86.0508
572.864	60.224
576.239	52.7364
579.614	48.9554
582.989	41.2059
586.363	37.5297
589.738	38.5131
593.113	42.304
596.488	49.7931
599.863	61.8901
603.237	67.969
606.612	60.8282
609.987	50.1463
613.362	39.3521
616.737	25.5591
620.112	11.6286
623.486	5.91948
626.861	1.10996
630.236	1.02957
633.611	0.516434
636.986	1.5937
640.361	0.924507
643.735	0.129105
647.11	1.41136
650.485	3.58768
653.86	6.8265
657.235	12.3007
660.609	23.7076
663.984	42.2316
667.359	76.0143
670.734	130.776
674.109	201.866
677.484	219.087
680.858	135.911
684.233	67.382
687.608	32.8748
690.983	18.2433
694.357	10.3284
697.732	4.88773
701.107	2.65578
704.482	2.83756
707.857	1.52788
711.232	1.40834
714.606	0.630898
717.981	0.607803
721.356	0.00647
724.731	1.68121
728.106	1.64492
731.481	0.174644
734.855	1.70087
738.23	1.12871
741.605	3.79124
744.98	0.412231
748.355	1.98949
751.729	2.17425
755.104	0.426949
758.479	4.20292
761.854	2.64349
765.229	1.60877
768.604	2.36925
771.978	3.24231
775.353	2.85234
778.728	0.719215
782.103	2.54566
785.478	3.93037
788.852	1.72437
792.227	0.308052
795.602	0.104958
798.977	0.488701
802.352	1.52432
805.726	0.319527
809.101	0.983162
812.476	0.786652
815.851	0.685516
819.226	0.596207
822.601	0.945839
825.975	1.04559
829.35	2.23237
832.725	0.596527
836.1	0.624329
839.475	0.761009
842.85	1.66834
846.224	0.705452
849.599	1.37684
852.974	1.01397
856.349	1.87698
859.724	4.76165
863.098	11.6469
866.473	15.0253
869.848	11.2812
873.223	7.60978
876.598	8.798
879.972	14.6088
883.347	23.9851
886.722	43.181
890.097	70.8524
893.472	109.259
896.847	131.495
900.221	121.015
903.596	105.736
906.971	84.1278
910.346	56.7105
913.721	34.9844
917.096	22.711
920.47	16.2921
923.845	13.4411
927.22	9.69891
930.595	9.05
933.97	5.04999
937.344	4.39142
940.719	4.32962
944.094	4.98542
947.469	7.09316
950.844	8.7707
954.218	15.3435
957.593	19.5673
960.968	17.4471
964.343	12.9157
967.718	8.00062
971.092	2.20171
974.467	1.83434
977.842	1.09926
981.217	1.84565
984.592	0.138794
987.967	0.282593
991.341	1.49775
994.716	0.466095
998.091	1.74474
1001.47	0.313919
1004.84	0.288406
1008.22	3.97018
1011.59	9.10772
1014.97	14.4991
1018.34	19.7794
1021.72	14.3826
1025.09	9.56861
1028.46	5.05744
1031.84	3.17533
1035.21	0.842102
1038.59	0.916054
1041.96	2.55866
1045.34	4.10077
1048.71	0.989235
1052.09	1.49998
1055.46	3.38345
1058.84	1.11432
1062.21	0.229813
1065.59	1.63348
1068.96	1.3735
1072.34	1.27445
1075.71	0.517822
1079.09	2.91435
1082.46	2.27943
1085.84	1.44605
1089.21	0.749168
1092.59	2.18611
1095.96	0.244911
1099.34	0.665478
1102.71	0.893192
1106.09	1.72874
1109.46	1.90107
1112.84	0.372105
1116.21	1.80747
1119.58	0.629211
1122.96	0.837585
1126.33	1.99073
1129.71	1.07081
1133.08	1.95491
1136.46	2.83977
1139.83	2.38346
1143.21	2.12404
1146.58	1.26617
1149.96	2.14023
1153.33	1.87044
1156.71	2.82656
1160.08	1.75088
1163.46	1.7434
1166.83	2.41626
1170.21	2.23912
1173.58	2.08813
1176.96	1.84636
1180.33	2.34682
1183.71	0.699444
1187.08	0.356686
1190.46	0.726093
1193.83	1.04643
1197.2	0.8769
1200.58	1.50236
1203.95	2.17797
1207.33	2.13015
1210.7	2.50213
1214.08	1.92401
1217.45	2.25325
1220.83	1.92373
1224.2	3.02369
1227.58	0.985538
1230.95	0.082863
1234.33	1.96243
1237.7	1.40155
1241.08	0.480461
1244.45	0.264469
1247.83	2.01931
1251.2	1.15587
1254.58	1.78307
1257.95	1.24273
1261.33	1.54841
1264.7	1.12641
1268.08	1.53929
1271.45	0.25621
1274.83	0.20446
1278.2	2.22926
1281.58	2.33553
1284.95	2.4708
1288.33	0.993759
1291.7	1.28941
1295.08	0.260502
1298.45	0.431889
1301.83	0
