Measurement: Raman, 785 nm, unoriented, Raman Data Processed
Mineral: Scotlandite
Rruff sample: R060764
Ideal chemistry: PbS^4+^O_3_
Locality: Lady Anne Hopetoun shaft. Leadhills, Lanarkshire, Scotland
Source: Michael Scott
Description: Radiating group of colorless spear-head shaped prismatic crystals
Measured chemistry: Pb_1.00_S^4+^_1.00_O_3_; trace amounts of Fe
Raman shift (cm-1)	intensity
88.744	0
92.119	80.5187
95.493	51.5853
98.868	64.835
102.243	35.3314
105.618	113.354
108.993	61.7182
112.368	51.179
115.742	34.5467
119.117	45.156
122.492	25.744
125.867	141.488
129.242	336.11
132.616	483.41
135.991	535.233
139.366	936.772
142.741	1684.46
146.116	1996.41
149.49	1729.85
152.865	1417.56
156.24	1209.22
159.615	1180.46
162.99	1229.9
166.365	1319.3
169.739	1431.59
173.114	1524.61
176.489	1693.93
179.864	2044.35
183.239	2508.2
186.613	2836.95
189.988	2796.51
193.363	2612.88
196.738	2405.76
200.113	2155.31
203.488	1805.54
206.862	1480.59
210.237	1164.96
213.612	891.181
216.987	733.085
220.362	617.771
223.736	494.442
227.111	440.564
230.486	310.967
233.861	260.51
237.236	242.097
240.611	193.088
243.985	132.296
247.36	111.54
250.735	108.037
254.11	38.8173
257.485	45.4479
260.859	15.9334
264.234	31.4954
267.609	3.25537
270.984	6.24365
274.359	4.47888
277.733	2.42456
281.108	1.48792
284.483	18.5377
287.858	22.2936
291.233	35.8663
294.608	10.6016
297.982	22.7178
301.357	12.6965
304.732	20.6719
308.107	45.4181
311.482	42.7508
314.857	26.9215
318.231	30.8686
321.606	18.8893
324.981	50.2805
328.356	50.6281
331.731	50.3234
335.105	47.5435
338.48	40.8872
341.855	34.9952
345.23	44.9312
348.605	57.3676
351.979	37.852
355.354	38.331
358.729	34.0004
362.104	11.1398
365.479	0.632446
368.853	33.5011
372.228	7.84814
375.603	40.3984
378.978	9.02685
382.353	17.0204
385.728	16.1847
389.102	8.66174
392.477	22.1676
395.852	12.1263
399.227	29.5143
402.602	1.74475
405.977	18.5256
409.351	6.7887
412.726	31.5729
416.101	33.1464
419.476	55.9886
422.851	88.4398
426.225	103.559
429.6	135.294
432.975	186.957
436.35	193.236
439.725	225.299
443.099	264.95
446.474	293.748
449.849	269.08
453.224	254.269
456.599	406.769
459.974	750.504
463.348	1812.09
466.723	4713.84
470.098	8648.21
473.473	11924.8
476.848	4818.62
480.223	1527.39
483.597	647.436
486.972	387.002
490.347	239.647
493.722	153.23
497.097	93.2314
500.471	48.5089
503.846	51.3773
507.221	59.2634
510.596	62.5571
513.971	63.1974
517.346	56.1191
520.72	74.922
524.095	50.1232
527.47	49.0725
530.845	9.19531
534.219	6.32581
537.594	6.99707
540.969	18.5414
544.344	0.190552
547.719	16.506
551.094	14.3315
554.468	6.43481
557.843	10.5554
561.218	12.0098
564.593	2.27039
567.968	26.327
571.343	7.17725
574.717	19.2141
578.092	15.5095
581.467	19.7135
584.842	19.8313
588.217	62.4747
591.591	24.6239
594.966	17.7413
598.341	55.7717
601.716	57.8758
605.091	77.7841
608.466	109.431
611.84	133.009
615.215	315.636
618.59	520.583
621.965	627.861
625.34	388.841
628.714	163.532
632.089	91.0179
635.464	63.5181
638.839	13.9788
642.214	3.29907
645.589	3.9668
648.963	3.57654
652.338	9.20252
655.713	23.0126
659.088	1.33093
662.463	11.168
665.837	5.25244
669.212	36.8042
672.587	43.998
675.962	41.5907
679.337	35.0621
682.711	32.2614
686.086	10.7197
689.461	47.0524
692.836	20.5284
696.211	25.3317
699.586	8.87085
702.96	22.3344
706.335	31.0524
709.71	3.41016
713.085	50.272
716.46	39.8815
719.834	56.3275
723.209	29.7993
726.584	37.4191
729.959	60.0217
733.334	44.3878
736.709	52.1564
740.083	29.3224
743.458	70.0803
746.833	69.4308
750.208	94.174
753.583	93.7399
756.958	85.1488
760.332	100.153
763.707	62.3196
767.082	65.4367
770.457	69.8109
773.831	82.9216
777.206	34.803
780.581	64.3774
783.956	39.4417
787.331	63.2545
790.706	51.9051
794.08	52.3171
797.455	14.2306
800.83	13.7098
804.205	8.98303
807.58	6.98816
810.955	2.13269
814.329	4.57324
817.704	17.7732
821.079	23.1379
824.454	6.03784
827.829	2.49426
831.203	5.64172
834.578	7.82764
837.953	28.8718
841.328	7.27197
844.703	12.3684
848.078	8.85474
851.452	8.72021
854.827	40.3315
858.202	67.5002
861.577	124.793
864.951	208.049
868.326	224.845
871.701	266.543
875.076	289.628
878.451	299.068
881.826	246.075
885.2	255.001
888.575	232.389
891.95	209.25
895.325	200.642
898.7	248.868
902.075	264.076
905.449	345.455
908.824	550.811
912.199	842.312
915.574	1230.63
918.949	1855.96
922.323	2579.38
925.698	3434.66
929.073	4166.95
932.448	4674
935.823	4734.08
939.198	4325.65
942.572	3632.35
945.947	2806.67
949.322	2111.73
952.697	1530.45
956.072	1108.98
959.446	778.9
962.821	639.689
966.196	583.446
969.571	586.268
972.946	597.727
976.32	541.141
979.695	417.636
983.07	259.627
986.445	163.847
989.82	55.7419
993.195	27.3008
996.569	2.64868
999.944	17.0508
1003.32	17.3386
1006.69	4.53369
1010.07	10.0684
1013.44	11.6462
1016.82	5.63086
1020.19	2.86792
1023.57	8.16089
1026.94	7.69116
1030.32	77.1201
1033.69	70.4507
1037.07	85.2971
1040.44	84.0339
1043.82	88.1741
1047.19	199.912
1050.57	244.707
1053.94	138.665
1057.32	103.722
1060.69	48.3332
1064.07	80.0867
1067.44	79.8325
1070.82	87.4175
1074.19	76.948
1077.57	66.6213
1080.94	54.6255
1084.32	33.3108
1087.69	24.1939
1091.06	56.1045
1094.44	42.8955
1097.81	65.7993
1101.19	72.7986
1104.56	48.405
1107.94	4.32056
1111.31	47.5505
1114.69	86.1133
1118.06	20.4016
1121.44	47.0532
1124.81	30.5933
1128.19	50.4438
1131.56	36.3691
1134.94	14.3259
1138.31	26.5974
1141.69	43.6472
1145.06	44.5442
1148.44	8.17407
1151.81	16.8069
1155.19	6.82519
1158.56	19.6047
1161.93	25.26
1165.31	43.249
1168.68	59.3347
1172.06	85.6916
1175.43	119.798
1178.81	98.4197
1182.18	89.9477
1185.56	149.521
1188.93	157.825
1192.31	222.598
1195.68	237.086
1199.06	233.417
1202.43	262.314
1205.81	258.319
1209.18	177.297
1212.56	164.905
1215.93	139.332
1219.31	87.8694
1222.68	18.8723
1226.06	12.8335
1229.43	7.39697
1232.81	1.1167
1236.18	7.04297
1239.56	7.67725
1242.93	88.3198
1246.31	134.751
1249.68	105.467
1253.06	113.466
1256.43	144.979
1259.81	125.491
1263.18	73.7751
1266.56	134.412
1269.93	37.6008
