Measurement: Raman, 780 nm, unoriented, Raman Data Processed
Mineral: Scotlandite
Rruff sample: R100043
Ideal chemistry: PbS^4+^O_3_
Locality: Grand Reef mine, Klondyke, Aravaipa District, Graham County, Arizona, USA
Source: William W. Pinch
Description: Colorless, elongated tabular crystals associated with aravaipaite R100032 and laurelite R100011
Raman shift (cm-1)	intensity
124.87	0
128.244	7.46692
131.619	87.8768
134.994	284.333
138.369	708.199
141.744	1475.68
145.119	1725.93
148.493	781.895
151.868	305.924
155.243	157.395
158.618	84.8359
161.993	61.4868
165.367	42.4928
168.742	45.8387
172.117	70.2479
175.492	112.634
178.867	206.958
182.242	332.083
185.616	449.896
188.991	452.254
192.366	336.763
195.741	260.099
199.115	213.299
202.49	161.19
205.865	110.054
209.24	66.6612
212.615	42.2967
215.99	17.6068
219.364	12.9563
222.739	5.39365
226.114	2.51865
229.489	5.06534
232.864	5.5733
236.238	4.80248
239.613	4.12003
242.988	3.02
246.363	0.543686
249.738	2.58009
253.113	5.18918
256.487	5.05208
259.862	6.94368
263.237	7.44021
266.612	8.5719
269.987	11.1065
273.361	10.6291
276.736	17.0095
280.111	14.8459
283.486	23.4253
286.861	17.6314
290.236	20.039
293.61	20.1363
296.985	19.2647
300.36	19.7065
303.735	14.8793
307.11	15.5104
310.485	17.647
313.859	14.8887
317.234	13.3745
320.609	15.7663
323.984	17.3825
327.359	15.3655
330.733	10.773
334.108	6.27305
337.483	7.62379
340.858	6.10134
344.233	8.52813
347.608	6.92461
350.982	8.1246
354.357	6.52823
357.732	7.01018
361.107	4.24246
364.482	3.49064
367.856	2.42057
371.231	0.680161
374.606	0.292854
377.981	1.51508
381.356	5.86838
384.731	0.053314
388.105	5.22243
391.48	1.62841
394.855	2.52163
398.23	0.490639
401.605	0.977936
404.979	2.38378
408.354	6.86091
411.729	7.13705
415.104	7.85464
418.479	12.8656
421.853	13.9513
425.228	16.7937
428.603	16.1636
431.978	17.6423
435.353	19.3771
438.728	17.0343
442.102	17.3798
445.477	22.8053
448.852	24.1715
452.227	30.1683
455.602	50.5761
458.976	104.447
462.351	215.853
465.726	480.518
469.101	1062.81
472.476	2242.52
475.851	1170.73
479.225	241.303
482.6	78.8936
485.975	34.3915
489.35	19.2742
492.725	9.37679
496.099	1.44534
499.474	2.22955
502.849	2.72151
506.224	3.03731
509.599	6.0773
512.973	9.1732
516.348	2.00163
519.723	7.26533
523.098	5.32936
526.473	5.05608
529.848	3.31621
533.222	1.29972
536.597	0.310989
539.972	1.23154
543.347	2.6741
546.722	2.23116
550.096	0.750755
553.471	0.959846
556.846	1.04404
560.221	0.247223
563.596	0.809349
566.971	0.468895
570.345	2.76781
573.72	5.35076
577.095	3.66924
580.47	1.27
583.845	4.02443
587.22	1.82748
590.594	3.2778
593.969	2.11381
597.344	5.80807
600.719	4.56772
604.094	10.6714
607.468	7.44727
610.843	16.1983
614.218	35.6693
617.593	72.411
620.968	119.802
624.342	103.138
627.717	37.2332
631.092	15.8427
634.467	9.52107
637.842	6.40861
641.217	3.50008
644.591	0.954651
647.966	0.916878
651.341	1.70212
654.716	0.985489
658.091	1.96144
661.466	2.62089
664.84	4.99676
668.215	4.6123
671.59	5.38258
674.965	6.33757
678.34	2.79262
681.714	5.51028
685.089	5.41272
688.464	6.45052
691.839	4.98186
695.214	4.46973
698.588	2.17208
701.963	0.166557
705.338	2.15496
708.713	0.403061
712.088	3.86126
715.462	6.03712
718.837	3.35021
722.212	4.17371
725.587	6.90666
728.962	9.37959
732.337	3.53748
735.711	7.27651
739.086	7.78255
742.461	8.8787
745.836	9.04278
749.211	10.2405
752.586	6.86703
755.96	11.5672
759.335	9.40217
762.71	8.77891
766.085	8.45306
769.46	9.7401
772.834	7.18023
776.209	8.03883
779.584	9.12315
782.959	9.15334
786.334	7.37646
789.708	3.82622
793.083	8.61273
796.458	2.52618
799.833	2.7037
803.208	0.047691
806.583	0.914009
809.957	2.97642
813.332	1.48728
816.707	0.659874
820.082	1.27026
823.457	1.29961
826.832	3.35506
830.206	2.11664
833.581	1.41464
836.956	2.32115
840.331	5.45503
843.706	2.83032
847.08	0.255028
850.455	2.43863
853.83	5.42292
857.205	10.6478
860.58	20.5878
863.955	42.6418
867.329	62.1171
870.704	80.0637
874.079	99.1901
877.454	102.353
880.829	90.4243
884.203	86.2278
887.578	73.2245
890.953	66.1469
894.328	62.4975
897.703	56.745
901.077	52.1722
904.452	55.1488
907.827	76.2841
911.202	110.7
914.577	191.598
917.952	299.842
921.326	450.192
924.701	614.803
928.076	754.126
931.451	859.888
934.826	874.572
938.2	813.622
941.575	701.276
944.95	555.638
948.325	411.636
951.7	291.209
955.074	205.775
958.449	145.816
961.824	103.352
965.199	72.3849
968.574	52.7998
971.949	40.9841
975.323	33.0845
978.698	26.298
982.073	18.2648
985.448	6.63018
988.823	5.20679
992.197	1.46216
995.572	0.360977
998.947	5.49686
1002.32	2.02135
1005.7	1.31037
1009.07	2.55923
1012.45	1.5438
1015.82	1.16423
1019.2	0.487129
1022.57	0.127678
1025.95	2.09121
1029.32	3.88233
1032.69	3.03407
1036.07	5.08914
1039.44	3.74947
1042.82	9.11571
1046.19	7.04896
1049.57	9.88442
1052.94	9.40872
1056.32	9.32761
1059.69	8.77778
1063.07	11.8185
1066.44	11.698
1069.82	8.03988
1073.19	8.62117
1076.57	9.35295
1079.94	10.7559
1083.32	9.03427
1086.69	7.30108
1090.07	5.6475
1093.44	7.03459
1096.82	7.39259
1100.19	10.7341
1103.57	9.14948
1106.94	6.35354
1110.32	7.48345
1113.69	7.49642
1117.07	9.98116
1120.44	8.94257
1123.82	5.75341
1127.19	3.51862
1130.57	6.58021
1133.94	4.10202
1137.32	7.07778
1140.69	6.77055
1144.06	5.47817
1147.44	3.66773
1150.81	3.10629
1154.19	4.68104
1157.56	2.92541
1160.94	0.796272
1164.31	2.42835
1167.69	0.754303
1171.06	0.06662
1174.44	0.765495
1177.81	1.4617
1181.19	0.440186
1184.56	2.03303
1187.94	4.43497
1191.31	2.12161
1194.69	3.45143
1198.06	2.28186
1201.44	5.19125
1204.81	2.35825
1208.19	1.89604
1211.56	1.87035
1214.93	3.75799
1218.31	0.834709
1221.68	0.731026
1225.06	6.89721
1228.43	2.81549
1231.81	1.7285
1235.18	6.68989
1238.56	5.00686
1241.93	6.8236
1245.31	12.0972
1248.68	12.7239
1252.06	8.46637
1255.43	9.43483
1258.81	3.53748
1262.18	11.0734
1265.56	3.91813
1268.93	4.04725
1272.31	1.59417
1275.68	0.278633
1279.06	3.11611
1282.43	3.71825
