Measurement: Raman, 532 nm, unoriented, Raman Data Processed
Mineral: Scotlandite
Rruff sample: R100043
Ideal chemistry: PbS^4+^O_3_
Locality: Grand Reef mine, Klondyke, Aravaipa District, Graham County, Arizona, USA
Source: William W. Pinch
Description: Colorless, elongated tabular crystals associated with aravaipaite R100032 and laurelite R100011
Raman shift (cm-1)	intensity
148.828	0
151.721	0.532766
154.614	0.417408
157.506	13.5533
160.399	36.2758
163.292	52.7985
166.185	63.85
169.077	93.7915
171.97	133.543
174.863	196.302
177.755	267.979
180.648	317.857
183.541	392.753
186.433	464.778
189.326	476.278
192.219	417.042
195.112	360.81
198.004	324.696
200.897	288.643
203.79	246.686
206.682	205.063
209.575	163.804
212.468	133.364
215.36	107.774
218.253	88.9351
221.146	72.5432
224.038	62.8099
226.931	54.9814
229.824	44.3359
232.717	38.5516
235.609	31.1764
238.502	24.8272
241.395	21.4646
244.287	17.6897
247.18	16.7347
250.073	13.4667
252.965	9.90255
255.858	8.04601
258.751	7.14873
261.644	4.50402
264.536	3.29483
267.429	0.948944
270.322	0.2136
273.214	0.088058
276.107	0.159447
279	1.03286
281.892	1.88522
284.785	2.58415
287.678	0.446323
290.571	0.611156
293.463	1.13054
296.356	0.256485
299.249	2.22841
302.141	0.300911
305.034	2.54481
307.927	0.504108
310.82	4.27318
313.712	3.20987
316.605	3.02815
319.498	3.98823
322.39	4.66763
325.283	2.5276
328.176	6.06862
331.068	7.06885
333.961	2.94669
336.854	4.91084
339.747	2.44414
342.639	2.28877
345.532	2.52217
348.425	2.3614
351.317	2.53169
354.21	2.6589
357.103	3.3213
359.995	2.19664
362.888	2.7529
365.781	0.73896
368.673	0.523941
371.566	1.82878
374.459	0.519863
377.352	0.304626
380.244	0.806194
383.137	0.293705
386.03	0.911583
388.922	0.21088
391.815	3.41335
394.708	0.120464
397.601	0.759754
400.493	0.94902
403.386	1.08513
406.279	2.13062
409.171	6.47918
412.064	5.75954
414.957	8.97638
417.849	11.4802
420.742	15.4337
423.635	14.7995
426.527	17.7977
429.42	18.3466
432.313	19.394
435.206	17.9825
438.098	17.7605
440.991	20.3171
443.884	24.4206
446.776	27.5642
449.669	30.5113
452.562	40.8992
455.454	64.6456
458.347	137.008
461.24	314.05
464.133	492.7
467.025	766.781
469.918	1274.28
472.811	1931.75
475.703	1635.63
478.596	458.587
481.489	142.633
484.382	63.6735
487.274	31.4456
490.167	16.7744
493.06	10.209
495.952	2.64278
498.845	4.0729
501.738	1.27143
504.63	1.36062
507.523	5.13485
510.416	6.15407
513.308	8.98258
516.201	5.92835
519.094	5.68576
521.987	6.73154
524.879	3.97646
527.772	4.86591
530.665	1.51731
533.557	0.210293
536.45	2.22362
539.343	0.46801
542.236	0.401745
545.128	0.316841
548.021	0.260937
550.914	0.427723
553.806	1.19217
556.699	0.331398
559.592	0.547977
562.484	0.747795
565.377	2.28833
568.27	1.02899
571.163	3.36159
574.055	4.66586
576.948	3.05961
579.841	3.50043
582.733	1.60364
585.626	3.80719
588.519	2.84808
591.411	2.32534
594.304	4.19952
597.197	4.0054
600.09	5.93525
602.982	6.78779
605.875	13.9043
608.768	22.021
611.66	41.9528
614.553	65.6945
617.446	98.0623
620.338	134.544
623.231	146.599
626.124	89.6245
629.016	38.484
631.909	17.7489
634.802	8.85366
637.695	4.97696
640.587	1.41065
643.48	1.05533
646.373	1.49478
649.265	0.206299
652.158	0.504032
655.051	0.371506
657.943	0.738018
660.836	0.112701
663.729	2.06218
666.622	2.53982
669.514	3.7099
672.407	5.14693
675.3	4.94095
678.192	4.33836
681.085	3.88143
683.978	4.55521
686.87	4.33825
689.763	3.30011
692.656	2.50035
695.549	3.69389
698.441	4.27082
701.334	4.92276
704.227	3.45042
707.119	5.34156
710.012	3.38938
712.905	3.84448
715.798	4.10049
718.69	3.50624
721.583	5.6962
724.476	5.60156
727.368	7.23384
730.261	5.245
733.154	6.99542
736.046	5.61807
738.939	6.32748
741.832	5.45272
744.725	9.13348
747.617	7.52187
750.51	11.1662
753.403	11.118
756.295	9.44204
759.188	11.2917
762.081	12.2562
764.973	9.35418
767.866	10.7288
770.759	8.01894
773.652	9.61754
776.544	7.78912
779.437	6.77898
782.33	8.03514
785.222	5.88544
788.115	6.23498
791.008	4.68052
793.9	2.66586
796.793	2.67985
799.686	2.10783
802.578	0.486671
805.471	3.04599
808.364	0.573036
811.257	0.285252
814.149	0.325775
817.042	0.559135
819.935	0.392532
822.827	0.788017
825.72	0.329285
828.613	2.45816
831.505	1.66354
834.398	3.01564
837.291	0.480103
840.184	2.3643
843.076	0.081459
845.969	0.157265
848.862	3.63328
851.754	7.31791
854.647	12.8265
857.54	21.0027
860.433	32.2564
863.325	46.5821
866.218	68.4788
869.111	92.1555
872.003	109.757
874.896	117.464
877.789	113.71
880.681	98.4425
883.574	79.9672
886.467	66.4245
889.36	57.187
892.252	46.633
895.145	37.5948
898.038	35.5945
900.93	33.4945
903.823	43.5171
906.716	57.959
909.608	87.4957
912.501	140.311
915.394	215.362
918.287	322.894
921.179	452.14
924.072	596.545
926.965	727.667
929.857	833.206
932.75	884.759
935.643	888.995
938.535	829.332
941.428	736.74
944.321	614.972
947.213	484.686
950.106	368.248
952.999	276.239
955.892	202.501
958.784	146.547
961.677	111.002
964.57	84.6336
967.462	66.2352
970.355	52.9263
973.248	42.2436
976.14	32.8495
979.033	30.0099
981.926	20.8385
984.819	13.8662
987.711	9.89248
990.604	2.82736
993.497	0.031479
996.389	0.451317
999.282	2.77184
1002.17	3.34847
1005.07	3.39099
1007.96	4.07847
1010.85	2.39262
1013.75	0.707291
1016.64	1.63733
1019.53	1.64473
1022.42	0.344498
1025.32	0.708942
1028.21	2.51066
1031.1	4.15599
1033.99	4.03582
1036.89	5.98606
1039.78	7.66605
1042.67	6.65335
1045.57	10.4982
1048.46	11.0273
1051.35	12.1759
1054.24	11.0063
1057.14	12.7138
1060.03	11.3418
1062.92	12.2956
1065.81	11.792
1068.71	7.92818
1071.6	8.96086
1074.49	8.34337
1077.38	7.39228
1080.28	6.00092
1083.17	7.46738
1086.06	8.4403
1088.96	8.47148
1091.85	9.53364
1094.74	9.33178
1097.63	8.43538
1100.53	9.90838
1103.42	9.93397
1106.31	9.29923
1109.2	8.27126
1112.1	10.1811
1114.99	7.89262
1117.88	8.12815
1120.78	7.17272
1123.67	6.32325
1126.56	6.23967
1129.45	5.55572
1132.35	4.16278
1135.24	5.63425
1138.13	2.51025
1141.02	3.96725
1143.92	5.35982
1146.81	2.83275
1149.7	4.15219
1152.6	3.22035
1155.49	2.12497
1158.38	0.785938
1161.27	1.29779
1164.17	0.847233
1167.06	3.05622
1169.95	0.441502
1172.84	1.12718
1175.74	1.51272
1178.63	1.32792
1181.52	0.333279
1184.41	0.080368
1187.31	0.699207
1190.2	1.1259
1193.09	0.061069
1195.99	0.167377
1198.88	0.931522
1201.77	1.46507
1204.66	3.27097
1207.56	1.41169
1210.45	3.50727
1213.34	1.56374
1216.23	2.26701
1219.13	0.628498
1222.02	0.829315
1224.91	1.50137
1227.81	0.697086
1230.7	1.50176
1233.59	1.03673
1236.48	4.03922
1239.38	6.78729
1242.27	7.58435
1245.16	11.8306
1248.05	13.8227
1250.95	13.2796
1253.84	10.6524
1256.73	8.41814
1259.62	6.8532
1262.52	8.69023
1265.41	6.9938
1268.3	4.70936
1271.2	6.21952
1274.09	2.18531
1276.98	3.62525
1279.87	3.18692
1282.77	0.225544
1285.66	0.177898
1288.55	0.768307
1291.44	1.58011
1294.34	0.169811
1297.23	0.709126
1300.12	0.037254
1303.02	0
