Measurement: Raman, 532 nm, unoriented, Raman Data Processed
Mineral: Scotlandite
Rruff sample: R060764
Ideal chemistry: PbS^4+^O_3_
Locality: Lady Anne Hopetoun shaft. Leadhills, Lanarkshire, Scotland
Source: Michael Scott
Description: Radiating group of colorless spear-head shaped prismatic crystals
Measured chemistry: Pb_1.00_S^4+^_1.00_O_3_; trace amounts of Fe
Raman shift (cm-1)	intensity
119.594	0
122.969	996.398
126.344	1710.43
129.719	2716.09
133.094	4609.65
136.468	7852.81
139.843	11238.9
143.218	12502.2
146.593	9943.15
149.968	7392.69
153.342	6352.52
156.717	5822.59
160.092	6000.25
163.467	5992.16
166.842	6076.65
170.217	6362.51
173.591	7156.19
176.966	8542.91
180.341	10186.2
183.716	11628.4
187.091	12210.5
190.465	11703
193.84	10979.2
197.215	10242.5
200.59	9082.37
203.965	7932.02
207.339	6751.85
210.714	5512.74
214.089	4646.86
217.464	3943.16
220.839	3322.4
224.214	2842.69
227.588	2510.46
230.963	2148.62
234.338	1867.18
237.713	1603.52
241.088	1465.93
244.462	1291.94
247.837	1159.36
251.212	931.273
254.587	778.423
257.962	627.503
261.336	602.253
264.711	560.861
268.086	455.993
271.461	405.054
274.836	326.178
278.211	359.061
281.585	231.926
284.96	180.028
288.335	143.087
291.71	90.346
295.085	89.778
298.459	61.065
301.834	31.216
305.209	95.86
308.584	125.329
311.959	90.01
315.333	11.866
318.708	63.644
322.083	63.398
325.458	59.493
328.833	50.793
332.208	84.643
335.582	76.633
338.957	66.169
342.332	56.009
345.707	64.671
349.082	12.434
352.457	46.28
355.831	31.124
359.206	41.399
362.581	65.164
365.956	74.453
369.331	13.518
372.705	21.299
376.08	40.104
379.455	0.469
382.83	8.387
386.205	27.365
389.579	79.075
392.954	71.655
396.329	60.171
399.704	144.16
403.079	142.841
406.453	121.281
409.828	231.852
413.203	306.725
416.578	470.158
419.953	542.694
423.328	656.624
426.702	801.162
430.077	910.84
433.452	991.258
436.827	1162.76
440.202	1267.28
443.576	1429.39
446.951	1470.76
450.326	1460.96
453.701	1787.09
457.076	2964.77
460.451	6809.3
463.825	13427.5
467.2	22396.4
470.575	34735.4
473.95	42461.3
477.325	16244.7
480.699	5559.13
484.074	2688.45
487.449	1657.33
490.824	997.007
494.199	655.631
497.573	394.999
500.948	306.246
504.323	223.296
507.698	363.262
511.073	353.478
514.448	313.599
517.822	354.889
521.197	337.506
524.572	312.456
527.947	237.271
531.322	169.122
534.696	16.627
538.071	52.971
541.446	9.437
544.821	58.837
548.196	8.381
551.57	34.768
554.945	20.615
558.32	16.565
561.695	98.284
565.07	86.159
568.445	44.204
571.819	92.567
575.194	116.746
578.569	89.236
581.944	102.714
585.319	172.227
588.693	158.884
592.068	209.5
595.443	203.796
598.818	249.506
602.193	447.06
605.568	703.996
608.942	1194.65
612.317	1876.76
615.692	2742.21
619.067	3955.06
622.442	4128.14
625.816	2253.71
629.191	1039.45
632.566	543.396
635.941	250.139
639.316	167.297
642.69	45.459
646.065	82.514
649.44	23.957
652.815	197.865
656.19	143.234
659.565	80.838
662.939	83.188
666.314	110.436
669.689	152.428
673.064	184.844
676.439	43.195
679.813	4.924
683.188	75.977
686.563	67.082
689.938	52.715
693.313	129.668
696.688	78.199
700.062	27.773
703.437	46.912
706.812	36.941
710.187	62.346
713.562	13.865
716.936	62.535
720.311	27.701
723.686	39.072
727.061	87.535
730.436	24.578
733.81	47.953
737.185	1.436
740.56	1.584
743.935	30.707
747.31	37.848
750.685	62.73
754.059	167.236
757.434	34.572
760.809	145.438
764.184	121.695
767.559	46.357
770.933	46.297
774.308	22.748
777.683	46.414
781.058	134.418
784.433	93.473
787.807	57.615
791.182	86.535
794.557	12.539
797.932	29.783
801.307	103.459
804.682	66.254
808.056	20.885
811.431	20.793
814.806	106.959
818.181	169.107
821.556	121.385
824.93	210.885
828.305	412.342
831.68	417.105
835.055	466.949
838.43	598.535
841.805	786.506
845.179	808.74
848.554	989.285
851.929	1081.29
855.304	1311.1
858.679	1701.38
862.054	2125.51
865.428	2438.82
868.803	2839.87
872.178	3114.03
875.553	3432.89
878.927	3404.22
882.302	3414.78
885.677	3535.29
889.052	3590.77
892.427	3708.51
895.802	3986.8
899.176	4075.69
902.551	4503.45
905.926	5487.01
909.301	6928.75
912.676	9037.63
916.05	12110.1
919.425	16001.1
922.8	20602.1
926.175	25092.5
929.55	28253
932.925	29700.6
936.299	28991.4
939.674	26304.2
943.049	22232.1
946.424	17669.1
949.799	13563.1
953.173	10479.3
956.548	8144.76
959.923	6478.64
963.298	5475.64
966.673	4805
970.047	4649.83
973.422	4431.46
976.797	4142.77
980.172	3106.88
983.547	2196.93
986.922	1483.72
990.296	1062.37
993.671	739.229
997.046	610.369
1000.42	441.953
1003.8	369.998
1007.17	299.061
1010.54	160.061
1013.92	115.418
1017.29	92.104
1020.67	92.162
1024.05	172.5
1027.42	135.807
1030.79	349.729
1034.17	245.963
1037.54	239.23
1040.92	405.406
1044.29	471.02
1047.67	805.52
1051.04	759.572
1054.42	308.117
1057.79	236.49
1061.17	29.998
1064.54	8.273
1067.92	15.975
1071.29	24.799
1074.67	74.889
1078.04	123.77
1081.42	219.887
1084.79	19.158
1088.17	42.342
1091.54	82.945
1094.92	84.213
1098.29	195.74
1101.66	163.541
1105.04	187.557
1108.41	162.172
1111.79	90.867
1115.16	20.406
1118.54	57.203
1121.91	109.773
1125.29	87.225
1128.66	62.904
1132.04	91.008
1135.41	102.375
1138.79	11.887
1142.16	48.041
1145.54	9.232
1148.91	65.805
1152.29	25.975
1155.66	4.158
1159.04	25.557
1162.41	4.783
1165.79	184.775
1169.16	144.424
1172.54	89.467
1175.91	31.859
1179.29	10.438
1182.66	8.301
1186.04	1.213
1189.41	43.578
1192.79	90.545
1196.16	24.945
1199.54	64.291
1202.91	112.184
1206.29	204.197
1209.66	158.744
1213.03	125.703
1216.41	48.484
1219.78	108.18
1223.16	98.135
1226.53	86.205
1229.91	12
1233.28	208.588
1236.66	286.697
1240.03	359.072
1243.41	319.867
1246.78	551.238
1250.16	427.223
1253.53	250.049
1256.91	277.754
1260.28	165.373
1263.66	71.801
1267.03	113.426
1270.41	261.002
1273.78	378.506
1277.16	245.723
1280.53	136.896
1283.9	34.926
1287.28	171.146
1290.65	103.998
1294.03	0.475
1297.4	22.516
1300.78	0
