Measurement: Raman, 780 nm, unoriented, Raman Data Processed
Mineral: Scottyite
Rruff sample: R120077
Ideal chemistry: BaCu_2_Si_2_O_7_
Locality: Wessels mine, Kalahari Manganese Fields, Northern Cape Province, South Africa
Source: William W. Pinch and Marcus Origlieri
Description: Blue massive, associated with R120019 wesselsite and R120057 lavinskyite
Measured chemistry: Ba_1.00_Sr_0.01_Na_0.01_Cu_2.04_Si_1.97_O_7_ ; (Scottyite is light grey material in image, associated with dark grey R120057 lavinskyite, and medium gray R120019 wesselsite
Raman shift (cm-1)	intensity
108.478	0
111.852	5.53786
115.227	30.3046
118.602	93.761
121.977	152.207
125.352	20.6596
128.726	1.01491
132.101	0.152313
135.476	16.4956
138.851	46.6042
142.226	89.77
145.601	77.9102
148.975	98.2662
152.35	154.027
155.725	210.228
159.1	267.772
162.475	261.447
165.85	301.435
169.224	321.355
172.599	183.96
175.974	76.6233
179.349	29.5544
182.724	18.83
186.098	29.7149
189.473	33.615
192.848	5.13779
196.223	1.49713
199.598	2.40178
202.972	1.93195
206.347	1.87883
209.722	8.33395
213.097	15.5587
216.472	14.8614
219.847	14.627
223.221	5.48535
226.596	0.292007
229.971	1.30787
233.346	0.892654
236.721	2.604
240.095	7.21648
243.47	7.62247
246.845	4.01997
250.22	3.0253
253.595	4.34634
256.969	4.27036
260.344	9.85092
263.719	19.8437
267.094	37.428
270.469	54.8963
273.844	37.0849
277.218	13.7654
280.593	9.83963
283.968	13.4347
287.343	24.4544
290.718	43.5448
294.092	73.6865
297.467	113.654
300.842	152.172
304.217	191.758
307.592	219.797
310.967	209.59
314.341	157.9
317.716	106.713
321.091	72.6638
324.466	52.0991
327.841	40.1168
331.216	31.792
334.59	29.6317
337.965	33.5565
341.34	45.7628
344.715	69.3868
348.09	100.74
351.464	135.404
354.839	153.655
358.214	124.451
361.589	73.0706
364.964	40.0088
368.339	20.4731
371.713	12.3104
375.088	4.26648
378.463	2.0427
381.838	0.260323
385.213	0.059868
388.587	1.01696
391.962	1.12763
395.337	0.497299
398.712	0.394234
402.087	0.032074
405.462	1.43889
408.836	1.61431
412.211	0.278839
415.586	0.544739
418.961	0.794792
422.336	0.744812
425.71	2.03769
429.085	3.97862
432.46	6.37498
435.835	11.2386
439.21	18.228
442.584	30.0713
445.959	49.7617
449.334	74.5176
452.709	94.4946
456.084	123.175
459.459	119.108
462.833	65.9905
466.208	33.2418
469.583	18.965
472.958	11.7972
476.333	7.16273
479.707	5.29517
483.082	3.00101
486.457	1.23297
489.832	0.531845
493.207	0.28656
496.582	0.337875
499.956	0.528763
503.331	0.920815
506.706	1.16219
510.081	1.49232
513.456	2.91163
516.83	3.44067
520.205	6.58946
523.58	7.72998
526.955	9.65582
530.33	14.1151
533.705	18.0591
537.079	24.2316
540.454	34.2331
543.829	53.0406
547.204	84.7937
550.579	128.282
553.953	172.118
557.328	189.237
560.703	162.275
564.078	123.611
567.453	93.0512
570.827	75.9371
574.202	63.0021
577.577	47.754
580.952	37.972
584.327	28.6016
587.702	24.4837
591.076	21.9586
594.451	20.4972
597.826	18.2266
601.201	15.9778
604.576	14.0284
607.951	11.7706
611.325	8.46144
614.7	4.77747
618.075	1.83461
621.45	1.00407
624.825	1.01244
628.199	0.690765
631.574	0.417168
634.949	1.26789
638.324	2.69023
641.699	4.16537
645.073	8.5054
648.448	14.2364
651.823	22.116
655.198	35.3394
658.573	56.1812
661.948	86.2297
665.322	132.232
668.697	184.906
672.072	203.513
675.447	156.66
678.822	89.3602
682.197	50.3537
685.571	29.1562
688.946	17.5923
692.321	10.9454
695.696	6.87422
699.071	4.36655
702.445	2.438
705.82	1.13713
709.195	0.683578
712.57	0.467125
715.945	0.587387
719.319	0.311684
722.694	0.248848
726.069	0.302582
729.444	0.196915
732.819	0.396004
736.193	0.778351
739.568	0.334702
742.943	0.628952
746.318	0.398087
749.693	1.58189
753.068	1.15816
756.442	0.817245
759.817	0.938873
763.192	0.962891
766.567	1.29347
769.942	1.1606
773.317	0.001434
776.691	0.257675
780.066	0.317169
783.441	1.26114
786.816	0.696136
790.191	1.18736
793.565	1.67906
796.94	0.865784
800.315	0.300461
803.69	0.14595
807.065	0.512283
810.439	0.384109
813.814	0.253998
817.189	0.056915
820.564	0.253189
823.939	0.861206
827.314	0.046982
830.688	0.147141
834.063	0.022247
837.438	0.180313
840.813	1.56207
844.188	0.296402
847.562	0.743774
850.937	3.50121
854.312	4.14653
857.687	7.43991
861.062	11.7144
864.437	13.5258
867.811	12.2253
871.186	14.3327
874.561	17.8326
877.936	25.5576
881.311	37.5335
884.686	55.3758
888.06	72.5501
891.435	86.5038
894.81	86.8557
898.185	85.6504
901.56	80.4347
904.934	68.176
908.309	47.3259
911.684	31.2563
915.059	19.0091
918.434	12.8849
921.808	10.4825
925.183	6.09001
928.558	4.63144
931.933	5.05336
935.308	4.31825
938.683	2.36183
942.057	4.66812
945.432	8.39609
948.807	13.9077
952.182	14.7798
955.557	9.77599
958.932	5.10494
962.306	2.9675
965.681	0.875656
969.056	1.60347
972.431	0.770538
975.806	0.681656
979.18	0.827469
982.555	0.961578
985.93	0.016998
989.305	0.65065
992.68	2.33496
996.054	3.02376
999.429	4.98337
1002.8	9.83418
1006.18	15.0496
1009.55	20.1624
1012.93	18.393
1016.3	15.7024
1019.68	10.4196
1023.05	6.86789
1026.43	5.40015
1029.8	3.89445
1033.18	2.95203
1036.55	2.40277
1039.93	3.77748
1043.3	2.31166
1046.68	1.72234
1050.05	0.756866
1053.43	0.52655
1056.8	0.932816
1060.18	2.87353
1063.55	0.904327
1066.93	1.76526
1070.3	1.24112
1073.67	1.16397
1077.05	0.914185
1080.42	1.33048
1083.8	1.17023
1087.17	1.18439
1090.55	1.11682
1093.92	2.60019
1097.3	1.49091
1100.67	1.05231
1104.05	1.38489
1107.42	0.443146
1110.8	0.908691
1114.17	0.653107
1117.55	0.047943
1120.92	0.337219
1124.3	1.72452
1127.67	0.734802
1131.05	1.0578
1134.42	2.68396
1137.8	2.96811
1141.17	2.91293
1144.55	1.31992
1147.92	2.49448
1151.3	2.87308
1154.67	3.19171
1158.05	1.18277
1161.42	3.31042
1164.8	2.59601
1168.17	3.19589
1171.55	2.81256
1174.92	3.3067
1178.3	3.48026
1181.67	3.32474
1185.04	4.67041
1188.42	2.1701
1191.79	3.76321
1195.17	4.17987
1198.54	1.0628
1201.92	4.02994
1205.29	4.39871
1208.67	2.29086
1212.04	3.37753
1215.42	1.64377
1218.79	3.70844
1222.17	0.700043
1225.54	1.9144
1228.92	1.29358
1232.29	0.59906
1235.67	1.06067
1239.04	2.44983
1242.42	0.982391
1245.79	0.405121
1249.17	2.72553
1252.54	3.59586
1255.91	3.71429
1259.29	2.86368
1262.66	4.3736
1266.04	2.16315
1269.41	4.107
1272.79	1.21851
1276.16	0.272125
1279.54	0.470825
1282.91	1.03827
