Measurement: Raman, 780 nm, unoriented, Raman Data Processed
Mineral: Scrutinyite
Rruff sample: R080018
Ideal chemistry: PbO_2_
Locality: Snake Pit, lower Mex-Tex mine, Hansonburg District, Socorro County, New Mexico, USA
Source: William W. Pinch
Description: Dark reddish brown thin rectangular plates associated with black plattnerite, R080019, on the surface of a quartz crystal.
Raman shift (cm-1)	intensity
126.812	0
130.187	0.109161
133.561	1.81897
136.936	1.5531
140.311	0.038391
143.686	2.1485
147.061	2.62799
150.436	6.50473
153.81	5.41821
157.185	8.14652
160.56	12.486
163.935	15.5967
167.31	13.9863
170.685	8.25046
174.059	1.65216
177.434	0.737488
180.809	1.68469
184.184	1.3526
187.559	1.4111
190.933	3.36047
194.308	5.45654
197.683	5.98486
201.058	11.8852
204.433	17.4419
207.808	28.2626
211.182	34.9062
214.557	43.5977
217.932	52.7846
221.307	61.8959
224.682	65.3927
228.056	56.3903
231.431	40.7433
234.806	27.7425
238.181	17.5664
241.556	13.8547
244.93	10.2755
248.305	5.90863
251.68	4.26666
255.055	2.173
258.43	1.03619
261.805	0.780212
265.179	1.03371
268.554	1.51404
271.929	0.100067
275.304	0.765762
278.679	0.231415
282.053	0.852646
285.428	0.114365
288.803	0.860733
292.178	0.396484
295.553	0.215363
298.928	0.120514
302.302	0.829407
305.677	0.74617
309.052	2.26175
312.427	0.462372
315.802	1.34888
319.176	0.927597
322.551	0.315125
325.926	2.13104
329.301	0.569153
332.676	1.19203
336.05	1.21707
339.425	1.4874
342.8	3.27406
346.175	4.43762
349.55	5.87763
352.925	7.19727
356.299	10.3786
359.674	10.5967
363.049	13.0183
366.424	10.1341
369.799	8.74854
373.173	5.5304
376.548	4.48433
379.923	3.71815
383.298	2.15225
386.673	3.05415
390.048	2.22951
393.422	2.20776
396.797	2.80267
400.172	2.56399
403.547	1.10677
406.922	1.37927
410.296	1.78838
413.671	1.08789
417.046	0.759583
420.421	0.595764
423.796	0.408051
427.171	0.203415
430.545	0.001999
433.92	0.677505
437.295	0.617218
440.67	0.57019
444.045	0.089218
447.42	1.02307
450.794	0.406982
454.169	0.097473
457.544	0.648361
460.919	1.67767
464.293	1.97717
467.668	2.11743
471.043	1.15837
474.418	1.17886
477.793	1.42238
481.168	1.89316
484.542	3.13458
487.917	3.13422
491.292	4.08623
494.667	6.2357
498.042	7.76573
501.416	8.82111
504.791	9.84605
508.166	10.6797
511.541	11.5254
514.916	10.3005
518.291	10.5557
521.665	10.5694
525.04	9.94582
528.415	9.07627
531.79	8.269
535.165	8.38117
538.539	7.04886
541.914	5.29018
545.289	4.38374
548.664	2.89908
552.039	1.91196
555.414	1.06199
558.788	0.485611
562.163	0.143005
565.538	0.279633
568.913	1.18639
572.288	0.897781
575.663	0.154541
579.037	0.798042
582.412	1.1982
585.787	0.372688
589.162	1.10938
592.537	0.091446
595.911	2.05055
599.286	1.46155
602.661	3.11928
606.036	2.2727
609.411	2.73605
612.785	3.56065
616.16	3.19501
619.535	4.24177
622.91	2.13562
626.285	2.58987
629.659	3.40979
633.034	2.80654
636.409	1.4014
639.784	1.64055
643.159	2.35044
646.534	1.19939
649.908	1.68678
653.283	0.911324
656.658	0.924797
660.033	1.07187
663.408	1.17794
666.783	1.23866
670.157	0.980988
673.532	0.197853
676.907	0.065002
680.282	0.697105
683.657	0.939087
687.031	0.787086
690.406	0.005432
693.781	1.4456
697.156	0.106606
700.531	0.532867
703.905	0.160255
707.28	0.634262
710.655	0.822609
714.03	0.008286
717.405	0.788536
720.78	1.35667
724.154	0.677338
727.529	1.37047
730.904	0.733765
734.279	0.984482
737.654	0.44429
741.029	0.723839
744.403	0.916306
747.778	0.41708
751.153	0.49152
754.528	0.663914
757.903	1.0973
761.277	0.778111
764.652	0.513813
768.027	0.134647
771.402	0.728458
774.777	0.039505
778.152	0.151157
781.526	0.189224
784.901	0.359341
788.276	1.69381
791.651	0.667801
795.026	1.29895
798.4	0.307011
801.775	0.476849
805.15	0.860741
808.525	0.737484
811.9	1.31353
815.274	1.5368
818.649	0.882713
822.024	0.834976
825.399	1.66491
828.774	1.02211
832.149	0.626171
835.523	1.30846
838.898	0.760681
842.273	0.922394
845.648	0.747601
849.023	1.53048
852.397	1.20913
855.772	1.0383
859.147	1.31145
862.522	0.597233
865.897	1.25698
869.271	0.52132
872.646	0.827389
876.021	1.21956
879.396	0.526806
882.771	0.395069
886.146	1.0367
889.52	0.283527
892.895	0.637867
896.27	0.422333
899.645	0.638969
903.02	0.202145
906.394	0.579086
909.769	0.016014
913.144	0.326805
916.519	0.576126
919.894	0.517502
923.269	0.158672
926.643	0.680904
930.018	0.735291
933.393	0.00214
936.768	0.210266
940.143	0.350891
943.518	0.452232
946.892	1.40177
950.267	0.421848
953.642	0.803642
957.017	0.155216
960.391	0.824642
963.766	0.239105
967.141	0.441246
970.516	0.841732
973.891	0.62096
977.266	0.708202
980.64	0.742962
984.015	0.954021
987.39	0.71283
990.765	0.228149
994.14	0.009815
997.514	0.265812
1000.89	1.03221
1004.26	0.541294
1007.64	0.920994
1011.01	0.812614
1014.39	0.243893
1017.76	0.646435
1021.14	0.383259
1024.51	0.615417
1027.89	0.97974
1031.26	0.638489
1034.64	0.656345
1038.01	0.593727
1041.39	0.645283
1044.76	0.623688
1048.14	0.887268
1051.51	0.891376
1054.89	0.950455
1058.26	0.917213
1061.64	0.398861
1065.01	0.456524
1068.39	0.034512
1071.76	0.836121
1075.13	0.319248
1078.51	0.004921
1081.88	0.962906
1085.26	0.896111
1088.63	0.373058
1092.01	0.430195
1095.38	0.013409
1098.76	0.787796
1102.13	0.002243
1105.51	0.141972
1108.88	0.801098
1112.26	0.216213
1115.63	0.513683
1119.01	0.178009
1122.38	0.031269
1125.76	0.06163
1129.13	0.429283
1132.51	0.407188
1135.88	0.408363
1139.26	0.385479
1142.63	0.531712
1146.01	0.360886
1149.38	0.211205
1152.76	0.330269
1156.13	0.072975
1159.51	0.391304
1162.88	0.093666
1166.26	0.031385
1169.63	0.122452
1173.01	0.582972
1176.38	0.433443
1179.76	0.55113
1183.13	0.021624
1186.5	0.363667
1189.88	0.109344
1193.25	0.679142
1196.63	0.169552
1200	0.566416
1203.38	0.167576
1206.75	0.283823
1210.13	0.318697
1213.5	0.474318
1216.88	0.699957
1220.25	0.797884
1223.63	0.931164
1227	0.757832
1230.38	0.964994
1233.75	0.855148
1237.13	1.17538
1240.5	1.05713
1243.88	1.18464
1247.25	0.603889
1250.63	1.09684
1254	1.44037
1257.38	0.911823
1260.75	0.837297
1264.12	0.657944
1267.5	0.571676
1270.88	0.918379
1274.25	0.759212
1277.62	0.80689
1281	1.08451
1284.37	0.06036
1287.75	0.521393
