Measurement: Raman, 532 nm, unoriented, Raman Data Processed
Mineral: Searlesite
Rruff sample: R060076
Ideal chemistry: NaBSi_2_O_5_(OH)_2_
Locality: near Cave Spring, Esperalda County, Nevada, USA
Source: Dave Bunk Minerals
Description: Colorless prismatic single crystals
Raman shift (cm-1)	intensity
136.311	0
139.686	8.29565
143.061	25.5477
146.435	44.9048
149.81	61.8925
153.185	86.0625
156.56	98.8053
159.935	103.698
163.31	117.071
166.684	67.2627
170.059	40.1577
173.434	53.7583
176.809	35.382
180.184	3.58557
183.559	2.06152
186.933	12.1421
190.308	18.5099
193.683	23.601
197.058	50.051
200.433	91.4098
203.807	122.656
207.182	149.958
210.557	177.437
213.932	218.948
217.307	180.565
220.681	85.6534
224.056	22.4694
227.431	2.40772
230.806	6.45227
234.181	6.9303
237.555	1.91309
240.93	7.84424
244.305	13.6056
247.68	19.2156
251.055	20.6467
254.43	29.0359
257.804	54.627
261.179	87.8068
264.554	126.893
267.929	180.567
271.304	258.477
274.678	313.247
278.053	272.464
281.428	133.99
284.803	54.3306
288.178	22.3845
291.553	3.97729
294.927	1.24768
298.302	6.51416
301.677	2.72559
305.052	7.18811
308.427	25.0594
311.801	43.7249
315.176	62.3879
318.551	51.556
321.926	26.0757
325.301	10.153
328.675	15.7471
332.05	16.6836
335.425	8.50207
338.8	0.774048
342.175	5.78967
345.55	34.2522
348.924	66.4437
352.299	99.1405
355.674	144.273
359.049	210.968
362.424	267.991
365.798	277.66
369.173	202.92
372.548	106.713
375.923	46.7837
379.298	11.3159
382.673	1.96643
386.047	6.32458
389.422	3.36072
392.797	11.2024
396.172	28.9565
399.547	64.1514
402.921	103.849
406.296	160.333
409.671	245.47
413.046	308.996
416.421	317.941
419.796	337.186
423.17	395.385
426.545	458.469
429.92	386.297
433.295	243.637
436.67	137.62
440.045	79.095
443.419	44.062
446.794	17.5447
450.169	7.09363
453.544	10.4755
456.918	18.3522
460.293	45.958
463.668	80.7743
467.043	125.78
470.418	188.022
473.793	284.644
477.167	354.347
480.542	265.729
483.917	127.59
487.292	49.9637
490.667	24.7616
494.041	8.271
497.416	1.11743
500.791	6.3772
504.166	1.64514
507.541	4.30347
510.916	5.86694
514.29	8.21387
517.665	24.0752
521.04	46.9094
524.415	71.5354
527.79	110.836
531.164	175.938
534.539	229.153
537.914	200.753
541.289	127.4
544.664	97.6802
548.039	87.3987
551.413	88.2773
554.788	104.529
558.163	106.584
561.538	103.597
564.913	84.2151
568.288	60.2293
571.662	35.3835
575.037	27.8498
578.412	23.6355
581.787	25.6487
585.162	25.2546
588.536	11.4006
591.911	10.5645
595.286	4.99365
598.661	0.4021
602.036	2.86475
605.41	2.24365
608.785	1.40503
612.16	3.48779
615.535	0.373047
618.91	2.31665
622.284	9.45874
625.659	3.68115
629.034	7.4917
632.409	7.64819
635.784	5.74683
639.159	8.2019
642.533	4.17969
645.908	5.62524
649.283	19.3396
652.658	21.905
656.033	28.7644
659.408	36.6155
662.782	47.1489
666.157	63.9871
669.532	94.8962
672.907	137.386
676.282	186.76
679.656	237.156
683.031	199.953
686.406	100.61
689.781	52.9963
693.156	34.76
696.53	22.8498
699.905	14.2127
703.28	4.50854
706.655	9.58667
710.03	7.82788
713.404	8.93286
716.779	6.96899
720.154	7.68237
723.529	9.88379
726.904	4.80347
730.279	4.12988
733.653	3.70459
737.028	4.71973
740.403	2.25049
743.778	2.80469
747.153	1.35547
750.528	1.15796
753.902	2.43335
757.277	5.09204
760.652	2.61792
764.027	5.21216
767.402	9.95264
770.776	17.4243
774.151	18.5291
777.526	16.3274
780.901	11.1262
784.276	14.0376
787.65	15.0603
791.025	17.6755
794.4	12.5173
797.775	8.05713
801.15	2.10376
804.525	5.25073
807.899	3.07959
811.274	5.17725
814.649	4.83545
818.024	5.02441
821.399	1.78931
824.774	4.52588
828.148	0.838379
831.523	0.679199
834.898	12.0559
838.273	6.41528
841.648	4.57349
845.022	4.47144
848.397	1.55298
851.772	4.40845
855.147	5.26807
858.522	7.70532
861.896	8.01123
865.271	10.1123
868.646	9.72315
872.021	4.68701
875.396	6.39356
878.771	4.30151
882.145	13.3926
885.52	10.2356
888.895	9.54932
892.27	5.9126
895.645	4.12354
899.019	10.9805
902.394	13.3005
905.769	18.8801
909.144	27.2402
912.519	35.8169
915.894	47.364
919.268	51.4819
922.643	53.782
926.018	48.406
929.393	35.1536
932.768	32.2778
936.143	31.9983
939.517	16.9524
942.892	9.28687
946.267	0.231201
949.642	0.109863
953.016	1.10132
956.391	3.16602
959.766	3.69019
963.141	1.81103
966.516	0.897949
969.891	6.5874
973.265	15.7468
976.64	19.0681
980.015	14.5378
983.39	21.0547
986.765	21.7991
990.139	19.8936
993.514	12.1553
996.889	6.26611
1000.26	13.7395
1003.64	22.8332
1007.01	14.6553
1010.39	13.6143
1013.76	18.4968
1017.14	22.321
1020.51	21.666
1023.89	23.6355
1027.26	21.4326
1030.64	17.2642
1034.01	12.1406
1037.39	12.749
1040.76	15.4714
1044.14	13.772
1047.51	8.50659
1050.89	6.11523
1054.26	0.455566
1057.64	3.20337
1061.01	0.617188
1064.38	4.99316
1067.76	1.37353
1071.13	2.73022
1074.51	3.77197
1077.88	6.7793
1081.26	0.754883
1084.63	1.84277
1088.01	5.2478
1091.38	6.09619
1094.76	2.88477
1098.13	6.58569
1101.51	6.0188
1104.88	2.20581
1108.26	8.50122
1111.63	12.0474
1115.01	14.0964
1118.38	10.7664
1121.76	14.9233
1125.13	25.2366
1128.51	20.0322
1131.88	18.0725
1135.26	10.7412
1138.63	13.9087
1142.01	13.364
1145.38	14.5437
1148.76	20.3447
1152.13	27.4675
1155.51	36.2444
1158.88	35.3633
1162.26	33.6187
1165.63	25.0669
1169.01	20.8889
1172.38	6.7019
1175.75	11.6521
1179.13	9.01392
1182.5	7.10913
1185.88	8.34473
1189.25	10.751
1192.63	4.39502
1196	9.77026
1199.38	13.001
1202.75	20.467
1206.13	14.9973
1209.5	13.3369
1212.88	8.0061
1216.25	5.6499
1219.63	6.99219
1223	10.3794
1226.38	2.69849
1229.75	5.19849
1233.13	4.35864
1236.5	4.64526
1239.88	0.072266
1243.25	0.687744
1246.62	0.838623
1250	5.37305
1253.38	1.06006
1256.75	2.0105
1260.12	1.29541
1263.5	6.05396
1266.87	8.36646
1270.25	4.67822
1273.62	5.22974
1277	6.94092
1280.37	9.41065
1283.75	5.24829
1287.12	9.19043
1290.5	11.5332
1293.87	6.70044
1297.25	3.8938
