Measurement: Raman, 780 nm, unoriented, Raman Data Processed
Mineral: Searlesite
Rruff sample: R060076
Ideal chemistry: NaBSi_2_O_5_(OH)_2_
Locality: near Cave Spring, Esperalda County, Nevada, USA
Source: Dave Bunk Minerals
Description: Colorless prismatic single crystals
Raman shift (cm-1)	intensity
127.316	0
130.208	0.175537
133.101	4.16913
135.994	7.45862
138.886	13.1369
141.779	19.391
144.672	20.4154
147.564	22.2592
150.457	25.4782
153.35	26.8557
156.243	26.2731
159.135	27.2622
162.028	22.998
164.921	16.8827
167.813	12.1472
170.706	12.4632
173.599	11.0269
176.491	7.05746
179.384	3.41785
182.277	5.60596
185.169	8.47552
188.062	5.95197
190.955	9.79422
193.848	12.1649
196.74	19.7329
199.633	25.9123
202.526	30.2086
205.418	33.0413
208.311	34.6996
211.204	37.5009
214.096	31.8687
216.989	21.0286
219.882	10.5
222.775	2.53272
225.667	1.17895
228.56	0.690552
231.453	0.455109
234.345	0.730927
237.238	0.564423
240.131	2.33283
243.024	2.85416
245.916	4.76596
248.809	4.47916
251.702	6.78223
254.594	11.4293
257.487	15.1528
260.38	22.5651
263.272	25.2077
266.165	29.5154
269.058	39.4492
271.95	42.5842
274.843	37.3074
277.736	24.7724
280.629	9.09378
283.521	4.90274
286.414	2.70187
289.307	0.308929
292.199	2.04352
295.092	0.911987
297.985	0.670135
300.877	2.23865
303.77	2.95813
306.663	2.39996
309.556	5.11713
312.448	5.96365
315.341	8.14227
318.234	5.04498
321.126	3.04428
324.019	3.86874
326.912	3.97427
329.805	3.91421
332.697	3.48199
335.59	2.08252
338.483	4.02097
341.375	5.56885
344.268	8.98145
347.161	12.8135
350.053	16.4119
352.946	22.5657
355.839	28.6381
358.731	35.3214
361.624	40.4504
364.517	36.2978
367.41	27.5747
370.302	17.5211
373.195	9.31021
376.088	3.10678
378.98	1.50006
381.873	0.043243
384.766	1.5257
387.659	0.500275
390.551	0.901703
393.444	2.27795
396.337	7.96612
399.229	12.4354
402.122	19.1817
405.015	25.0701
407.907	35.2784
410.8	41.7023
413.693	41.0314
416.586	43.2077
419.478	46.7955
422.371	52.5828
425.264	55.0208
428.156	43.2279
431.049	31.8851
433.942	20.4062
436.834	11.5614
439.727	6.75522
442.62	4.71625
445.512	4.22824
448.405	1.56726
451.298	2.5358
454.191	3.87784
457.083	5.97687
459.976	12.533
462.869	17.8047
465.761	23.9916
468.654	31.8124
471.547	40.3266
474.44	46.8955
477.332	41.3797
480.225	25.201
483.118	12.5576
486.01	6.19989
488.903	3.74316
491.796	0.977112
494.688	0.184723
497.581	1.31458
500.474	1.54681
503.366	0.049866
506.259	0.16217
509.152	0.423492
512.045	2.20728
514.937	2.98898
517.83	4.95172
520.723	6.73541
523.615	7.38394
526.508	13.3196
529.401	21.0191
532.293	22.7743
535.186	19.0381
538.079	14.6355
540.972	9.56949
543.864	7.86661
546.757	7.2883
549.65	7.444
552.542	9.70526
555.435	9.91657
558.328	10.0823
561.221	6.88657
564.113	4.21112
567.006	3.65753
569.899	1.492
572.791	1.33551
575.684	2.44223
578.577	1.20163
581.469	2.40616
584.362	1.30365
587.255	0.304291
590.148	1.39889
593.04	1.16385
595.933	0.947174
598.826	0.462219
601.718	0.996552
604.611	0.997467
607.504	0.664246
610.396	0.033478
613.289	0.640656
616.182	0.329407
619.074	0.582275
621.967	0.499908
624.86	1.44354
627.753	0.638184
630.645	1.54932
633.538	1.01257
636.431	0.858826
639.323	2.25147
642.216	1.76184
645.109	1.4017
648.001	3.33258
650.894	3.47467
653.787	3.77664
656.68	2.45184
659.572	4.60605
662.465	4.75259
665.358	8.15645
668.25	11.5291
671.143	14.0474
674.036	21.6308
676.928	24.7158
679.821	21.847
682.714	14.6935
685.607	7.02918
688.499	3.74541
691.392	5.22989
694.285	1.14345
697.177	0.677155
700.07	0.742523
702.963	0.37146
705.856	1.26877
708.748	0.99707
711.641	0.998688
714.534	0.551743
717.426	1.4935
720.319	2.72746
723.212	2.15485
726.104	1.66161
728.997	1.37146
731.89	0.95932
734.783	2.39038
737.675	0.752869
740.568	0.396042
743.461	0.595108
746.353	2.20619
749.246	0.234955
752.139	0.13385
755.031	1.02123
757.924	0.056763
760.817	0.612762
763.71	1.38275
766.602	0.984253
769.495	1.35614
772.388	0.490738
775.28	2.2435
778.173	2.21079
781.066	3.35213
783.958	3.22157
786.851	2.67804
789.744	2.10741
792.636	1.98828
795.529	1.19183
798.422	1.08055
801.315	1.00853
804.207	0.501633
807.1	0.76236
809.993	0.944275
812.885	0.968643
815.778	0.741898
818.671	1.31284
821.563	0.108521
824.456	1.75607
827.349	0.223648
830.242	2.40451
833.134	1.51446
836.027	1.96329
838.92	2.16432
841.812	1.73212
844.705	1.41986
847.598	3.17488
850.49	0.320419
853.383	2.24683
856.276	1.79504
859.169	1.66553
862.061	3.43823
864.954	1.39787
867.847	2.64301
870.739	2.56763
873.632	2.81194
876.525	1.96115
879.418	2.15178
882.31	1.14528
885.203	0.875854
888.096	0.299988
890.988	0.093979
893.881	0.028183
896.774	2.09653
899.666	1.27638
902.559	2.25143
905.452	0.815308
908.345	2.03728
911.237	2.90877
914.13	3.83955
917.023	4.20555
919.915	4.22592
922.808	3.48604
925.701	1.61356
928.593	2.63474
931.486	2.62434
934.379	1.83496
937.271	0.882278
940.164	1.17491
943.057	0.356567
945.949	0.626846
948.842	0.049744
951.735	0.765808
954.628	0.330246
957.52	0.866333
960.413	0.038239
963.306	1.23879
966.198	1.84966
969.091	1.48503
971.984	1.0513
974.876	1.94389
977.769	1.66925
980.662	1.81316
983.555	2.90686
986.447	2.39156
989.34	0.761536
992.233	1.33357
995.125	0.082306
998.018	1.9667
1000.91	0.132645
1003.8	1.00978
1006.7	1.82509
1009.59	2.58011
1012.48	2.64023
1015.37	2.12578
1018.27	3.66299
1021.16	2.19426
1024.05	4.09096
1026.94	1.1866
1029.84	1.39359
1032.73	2.03258
1035.62	1.44116
1038.52	1.74164
1041.41	0.795181
1044.3	1.02936
1047.19	0.734756
1050.09	1.33305
1052.98	1.35152
1055.87	0.809296
1058.77	1.85593
1061.66	1.37128
1064.55	1.02286
1067.44	0.39801
1070.34	0.094284
1073.23	0.1978
1076.12	0.557053
1079.01	0.080612
1081.91	0.831635
1084.8	0.10675
1087.69	0.075089
1090.58	1.3128
1093.48	0.351028
1096.37	1.77272
1099.26	0.650177
1102.15	1.49324
1105.05	0.618698
1107.94	0.137375
1110.83	0.361923
1113.73	1.75592
1116.62	1.97282
1119.51	2.10998
1122.4	2.22713
1125.3	3.27971
1128.19	2.56813
1131.08	2.86469
1133.97	1.64329
1136.87	0.939331
1139.76	2.4166
1142.65	3.11679
1145.55	2.93507
1148.44	3.12875
1151.33	4.73538
1154.22	5.60121
1157.12	5.27583
1160.01	4.37987
1162.9	3.15579
1165.8	3.30692
1168.69	2.22784
1171.58	2.29968
1174.47	1.39861
1177.37	1.44249
1180.26	1.10371
1183.15	1.66199
1186.04	1.57143
1188.94	2.94693
1191.83	2.29401
1194.72	3.00549
1197.61	1.69544
1200.51	1.91838
1203.4	2.87927
1206.29	2.24112
1209.18	1.62015
1212.08	1.11931
1214.97	0.756073
1217.86	1.40585
1220.76	0.96225
1223.65	0.49733
1226.54	0.164978
1229.43	0.375748
1232.33	1.04677
1235.22	0.561279
1238.11	0.201981
1241.01	0.323273
1243.9	1.01924
1246.79	1.49794
1249.68	0.400162
1252.58	0.469803
1255.47	0.55101
1258.36	1.13812
1261.25	0.023376
1264.15	0.264114
1267.04	1.10983
1269.93	0.379333
1272.83	1.48766
1275.72	0.881866
1278.61	1.97983
1281.5	0.010086
