Measurement: Raman, 785 nm, unoriented, Raman Data Processed
Mineral: Seeligerite
Rruff sample: R060714
Ideal chemistry: Pb_3_(IO_4_)Cl_3_
Locality: San Francisco mine, Sierra Gorda, Chile
Source: Bob Jenkins
Description: A mass of bright yellow platelets associated with colorless quartz
Raman shift (cm-1)	intensity
131.652	0
134.545	278.662
137.437	20.959
140.33	196.54
143.223	1021.7
146.115	1598.54
149.008	1925.4
151.901	1942.08
154.794	1577.04
157.686	1081.57
160.579	845.838
163.472	805.949
166.364	1016.31
169.257	1666.94
172.15	2460.46
175.042	3284.76
177.935	3229.02
180.828	1882.04
183.721	846.164
186.613	393.362
189.506	258.244
192.399	280.227
195.291	333.32
198.184	479.476
201.077	706.013
203.969	958.71
206.862	1297.46
209.755	1726.69
212.648	2479.19
215.54	3409.64
218.433	4366.63
221.326	5237.61
224.218	5827.47
227.111	5987.46
230.004	5538.91
232.896	4784.29
235.789	3811.76
238.682	2849.17
241.574	2041.74
244.467	1523.72
247.36	1143.72
250.253	875.874
253.145	644.844
256.038	512.284
258.931	384.931
261.823	263.435
264.716	182.292
267.609	111.432
270.501	34.5812
273.394	30.8242
276.287	35.4513
279.18	1.32544
282.072	0.363892
284.965	6.38684
287.858	19.8007
290.75	29.4377
293.643	26.8879
296.536	34.0762
299.428	1.86231
302.321	2.15625
305.214	13.2495
308.107	41.4305
310.999	31.9191
313.892	14.9127
316.785	0.147217
319.677	7.46802
322.57	2.03522
325.463	36.0205
328.355	61.2994
331.248	64.6429
334.141	70.1593
337.034	85.2709
339.926	72.5302
342.819	80.9481
345.712	123.419
348.604	148.477
351.497	194.363
354.39	313.748
357.283	395.019
360.175	526.977
363.068	597.694
365.961	435.766
368.853	287.195
371.746	193.937
374.639	124.79
377.531	71.1413
380.424	21.3544
383.317	3.22803
386.21	18.9821
389.102	13.9785
391.995	9.67633
394.888	7.79211
397.78	10.4374
400.673	21.5603
403.566	35.6741
406.458	72.8611
409.351	104.372
412.244	145.13
415.137	194.948
418.029	248.925
420.922	362.026
423.815	531.512
426.707	759.773
429.6	1188.19
432.493	1813.97
435.385	2996.84
438.278	4638.33
441.171	6339.05
444.064	6737.07
446.956	5293.26
449.849	3316.61
452.742	2097.46
455.634	1461.11
458.527	1249.83
461.42	1164.93
464.312	1092.21
467.205	825.913
470.098	612.509
472.991	511.932
475.883	493.23
478.776	489.749
481.669	564.601
484.561	615.849
487.454	644.019
490.347	649.393
493.239	602.212
496.132	480.767
499.025	376.654
501.918	311.333
504.81	266.338
507.703	215.403
510.596	200.074
513.488	159.952
516.381	142.025
519.274	106.688
522.166	133.282
525.059	81.8516
527.952	63.2357
530.844	56.2093
533.737	24.6726
536.63	28.5634
539.523	6.5437
542.415	6.76685
545.308	24.477
548.201	29.4678
551.093	17.5559
553.986	8.6709
556.879	0.018127
559.771	6.64032
562.664	3.61774
565.557	31.0491
568.45	10.6354
571.342	7.19409
574.235	25.7108
577.128	58.5675
580.02	90.9393
582.913	71.9007
585.806	111.921
588.699	135.537
591.591	180.849
594.484	204.303
597.377	243.514
600.269	258.597
603.162	317.144
606.055	338.524
608.948	416.63
611.84	493.305
614.733	589.073
617.626	731.88
620.518	900.607
623.411	1170.1
626.304	1513.58
629.196	1945.95
632.089	2695.19
634.982	3788.34
637.875	5559.17
640.767	8298.31
643.66	12300.2
646.553	17190.8
649.445	21499.9
652.338	21823.2
655.231	16912.7
658.123	10926.4
661.016	6755.84
663.909	4197.95
666.802	2731.14
669.694	1885.72
672.587	1264.98
675.48	931.753
678.372	650.827
681.265	440.043
684.158	306.255
687.05	215.646
689.943	154.836
692.836	111.358
695.729	67.0281
698.621	41.1391
701.514	23.6729
704.407	8.34454
707.299	22.9575
710.192	10.6755
713.085	6.1687
715.977	5.64056
718.87	11.3678
721.763	13.7058
724.656	4.81
727.548	14.4282
730.441	4.44446
733.334	1.3587
736.226	7.7619
739.119	28.7333
742.012	30.1901
744.904	47.1142
747.797	75.6522
750.69	89.8862
753.583	114.895
756.475	97.4664
759.368	103.165
762.261	103.254
765.153	104.186
768.046	52.2824
770.939	85.0292
773.831	66.1636
776.724	60.5904
779.617	40.3587
782.51	50.7053
785.402	44.3035
788.295	42.8543
791.188	24.3224
794.08	53.5962
796.973	30.8721
799.866	22.6446
802.758	30.3893
805.651	38.1283
808.544	64.3939
811.437	46.0077
814.329	18.2066
817.222	11.9771
820.115	9.56122
823.007	17.7837
825.9	0.902222
828.793	12.2287
831.685	0.252319
834.578	5.29004
837.471	0.142761
840.364	18.9221
843.256	18.3181
846.149	14.6857
849.042	10.5923
851.934	5.19336
854.827	7.23297
857.72	33.7214
860.612	20.2538
863.505	37.7549
866.398	24.8814
869.291	24.1701
872.183	23.0153
875.076	4.61954
877.969	18.7469
880.861	7.54517
883.754	3.68945
886.647	12.9122
889.539	9.54748
892.432	21.1405
895.325	16.283
898.218	1.21527
901.11	27.9537
904.003	26.1761
906.896	22.822
909.788	23.6366
912.681	10.783
915.574	2.30692
918.466	2.97415
921.359	13.3545
924.252	21.6771
927.145	0.555939
930.037	32.8954
932.93	8.66126
935.823	8.9393
938.715	32.7563
941.608	9.61762
944.501	15.09
947.393	18.1616
950.286	14.0366
953.179	5.60977
956.072	12.8993
958.964	11.9854
961.857	2.00272
964.75	11.7002
967.642	9.88904
970.535	29.6309
973.428	12.5925
976.32	10.8483
979.213	16.353
982.106	27.0857
984.999	4.09204
987.891	0.712555
990.784	4.43765
993.677	2.37036
996.569	10.9353
999.462	8.15585
1002.36	19.0674
1005.25	29.7223
1008.14	35.7796
1011.03	42.7588
1013.93	32.9911
1016.82	41.3754
1019.71	44.6898
1022.6	24.7478
1025.5	16.1593
1028.39	72.2029
1031.28	41.5313
1034.17	16.894
1037.07	37.4945
1039.96	39.9412
1042.85	37.823
1045.74	35.403
1048.64	32.3931
1051.53	18.2635
1054.42	23.1366
1057.32	30.5724
1060.21	4.8428
1063.1	32.5933
1065.99	37.7637
1068.89	39.6486
1071.78	22.2395
1074.67	12.515
1077.57	13.563
1080.46	35.1356
1083.35	24.8273
1086.24	0.259338
1089.14	21.1551
1092.03	7.29837
1094.92	7.2132
1097.81	7.38095
1100.71	25.23
1103.6	7.8219
1106.49	10.8805
1109.38	9.48697
1112.28	14.5428
1115.17	5.50565
1118.06	23.1294
1120.96	11.7047
1123.85	29.4717
1126.74	33.6911
1129.63	16.7865
1132.53	17.4176
1135.42	19.0362
1138.31	17.1623
1141.2	24.1142
1144.1	9.27969
1146.99	14.4203
1149.88	13.4515
1152.78	5.51611
1155.67	34.2196
1158.56	19.3283
1161.45	25.5173
1164.35	2.13464
1167.24	13.4755
1170.13	19.566
1173.02	14.4797
1175.92	26.0841
1178.81	2.77313
1181.7	23.8351
1184.6	27.9686
1187.49	5.22473
1190.38	21.7667
1193.27	18.3318
1196.17	4.75052
1199.06	33.1877
1201.95	18.0411
1204.84	22.3901
1207.74	5.48962
1210.63	14.215
1213.52	12.335
1216.41	17.4969
1219.31	32.0183
1222.2	16.0734
1225.09	20.1757
1227.98	15.4333
1230.88	27.0336
1233.77	18.3547
1236.66	17.6152
1239.56	14.092
1242.45	14.7208
1245.34	32.2128
1248.23	25.5147
1251.13	22.9971
1254.02	5.63129
1256.91	0.186859
1259.81	22.0878
