Measurement: Raman, 532 nm, unoriented, Raman Data Processed
Mineral: Seeligerite
Rruff sample: R060714
Ideal chemistry: Pb_3_(IO_4_)Cl_3_
Locality: San Francisco mine, Sierra Gorda, Chile
Source: Bob Jenkins
Description: A mass of bright yellow platelets associated with colorless quartz
Raman shift (cm-1)	intensity
124.415	0
127.308	430.386
130.201	487.552
133.094	50.5386
135.986	221.452
138.879	840.15
141.772	1534.83
144.664	2330.36
147.557	2381.46
150.45	2544.44
153.342	2768.13
156.235	2238.66
159.128	1384.28
162.02	1053.71
164.913	1296.19
167.806	1981.49
170.699	3185.1
173.591	4418.4
176.484	5522.86
179.377	4793.29
182.269	2444.03
185.162	1227.18
188.055	666.559
190.947	588.625
193.84	603.273
196.733	748.451
199.626	1104.87
202.518	1515.31
205.411	2173.75
208.304	3064.63
211.196	4173.44
214.089	5489.28
216.982	7147.1
219.874	8514.03
222.767	9522.44
225.66	10059.8
228.553	9757.75
231.445	8698.96
234.338	7222.59
237.231	5604.34
240.123	4263.41
243.016	3165.62
245.909	2456.97
248.801	1900
251.694	1379.58
254.587	1090.17
257.48	791.572
260.372	621.187
263.265	525.502
266.158	354.337
269.05	195.484
271.943	139.551
274.836	37.915
277.728	32.5176
280.621	26.2983
283.514	19.2688
286.406	9.47021
289.299	6.16797
292.192	61.3755
295.085	69.9307
297.977	69.7978
300.87	39.7432
303.763	69.4092
306.655	30.7266
309.548	18.2979
312.441	1.70923
315.333	14.1108
318.226	2.98706
321.119	33.1194
324.012	72.4941
326.904	87.5151
329.797	95.5234
332.69	109.108
335.582	165.248
338.475	157.815
341.368	172.719
344.26	207.411
347.153	319.547
350.046	472.722
352.939	706.652
355.831	982.915
358.724	1247.04
361.617	1484.65
364.509	1360.11
367.402	949.327
370.295	565.394
373.188	324.23
376.08	220.641
378.973	105.363
381.866	28.5435
384.758	11.9802
387.651	42.605
390.544	37.6018
393.436	46.4431
396.329	12.741
399.222	22.1433
402.114	39.1406
405.007	151.158
407.9	151.974
410.793	240.793
413.685	400.844
416.578	513.674
419.471	770.474
422.363	1027.15
425.256	1558.62
428.149	2350.41
431.041	3703.31
433.934	5609.52
436.827	8094.26
439.72	10980.4
442.612	13214.2
445.505	12318.7
448.398	8852.62
451.29	5705.5
454.183	3890.36
457.076	2975.08
459.968	2668.09
462.861	2622.34
465.754	2403.51
468.647	1849.17
471.539	1515.81
474.432	1315.78
477.325	1201.76
480.217	1209.04
483.11	1293.87
486.003	1344.56
488.895	1338.52
491.788	1217.93
494.681	1091.53
497.573	892.591
500.466	727.928
503.359	594.306
506.252	512.483
509.144	423.029
512.037	357.887
514.93	298.496
517.822	341.302
520.715	278.568
523.608	266.053
526.5	201.78
529.393	217.961
532.286	101.663
535.179	59.2676
538.071	22.9529
540.964	5.44067
543.857	15.1221
546.749	46.0364
549.642	19.0264
552.535	73.1096
555.427	43.4321
558.32	54.0723
561.213	25.304
564.106	7.5022
566.998	37.4114
569.891	22.811
572.784	81.3259
575.676	113.306
578.569	91.387
581.462	203.593
584.354	247.464
587.247	273.309
590.14	383.137
593.032	471.876
595.925	561.756
598.818	675.104
601.711	749.315
604.603	920.686
607.496	1073.73
610.389	1267.18
613.281	1461.87
616.174	1800.31
619.067	2236.71
621.959	2841.47
624.852	3628.62
627.745	4793.03
630.638	6402.51
633.53	8879.98
636.423	12502.5
639.316	17624.9
642.208	24499.6
645.101	33261
647.994	42981.1
650.886	49336
653.779	46004.2
656.672	34061.9
659.565	22481.2
662.457	13986.4
665.35	9052.18
668.243	6031.69
671.135	4167.38
674.028	2872.28
676.921	2022.34
679.813	1458.4
682.706	1028.56
685.599	701.925
688.492	495.694
691.384	317.682
694.277	207.495
697.17	134.025
700.062	60.9534
702.955	18.7666
705.848	37.0857
708.74	17.4099
711.633	10.4395
714.526	15.3877
717.419	35.1931
720.311	42.2097
723.204	22.9126
726.097	28.7173
728.989	3.83154
731.882	11.4717
734.775	28.4002
737.667	29.884
740.56	36.3325
743.453	133.265
746.346	209.964
749.238	249.116
752.131	186.574
755.024	308.938
757.916	308.648
760.809	338.895
763.702	304.997
766.594	258.452
769.487	263.407
772.38	209.258
775.273	214.168
778.165	251.664
781.058	189.827
783.951	210.79
786.843	234.612
789.736	276.252
792.629	336.644
795.521	393.163
798.414	458.566
801.307	521.272
804.2	587.198
807.092	596.474
809.985	501.127
812.878	366.443
815.77	301.996
818.663	238.48
821.556	194.3
824.448	99.3
827.341	63.3586
830.234	37.0225
833.127	45.2527
836.019	9.84106
838.912	12.4746
841.805	16.032
844.697	21.4922
847.59	19.512
850.483	14.9739
853.375	0.003662
856.268	30.0869
859.161	84.668
862.054	61.9077
864.946	98.949
867.839	83.5164
870.732	96.0476
873.624	76.3589
876.517	61.7087
879.41	89.281
882.302	21.9929
885.195	48.2871
888.088	23.6204
890.98	21.0798
893.873	79.2427
896.766	46.3245
899.659	24.1416
902.551	4.6875
905.444	2.33252
908.337	12.2234
911.229	12.1201
914.122	0.094971
917.015	7.66431
919.907	12.4805
922.8	19.696
925.693	61.616
928.586	46.8455
931.478	35.419
934.371	10.5403
937.264	0.530762
940.156	34.2546
943.049	5.38818
945.942	40.4883
948.834	7.93726
951.727	28.9155
954.62	32.706
957.513	29.9175
960.405	28.3965
963.298	37.228
966.191	1.46875
969.083	44.408
971.976	9.00903
974.869	2.03345
977.761	67.1899
980.654	14.8166
983.547	53.9932
986.44	32.4277
989.332	8.20312
992.225	29.436
995.118	46.7207
998.01	53.7583
1000.9	41.3904
1003.8	61.2524
1006.69	71.3862
1009.58	86.4695
1012.47	87.0166
1015.37	169.092
1018.26	224.37
1021.15	207.411
1024.05	205.529
1026.94	226.865
1029.83	157.081
1032.72	152.853
1035.62	167.36
1038.51	111.381
1041.4	149.603
1044.29	83.2051
1047.19	97.1475
1050.08	65.6543
1052.97	56.79
1055.86	82.0603
1058.76	54.9331
1061.65	77.5642
1064.54	94.2695
1067.43	114.059
1070.33	336.518
1073.22	17.3345
1076.11	60.9922
1079.01	11.4148
1081.9	70.8818
1084.79	55.0161
1087.68	72.7327
1090.58	13.8955
1093.47	40.5569
1096.36	32.3897
1099.26	27.5283
1102.15	43.5569
1105.04	22.5369
1107.93	35.5798
1110.83	71.4053
1113.72	236.2
1116.61	40.7866
1119.5	10.4548
1122.4	13.7861
1125.29	28.1819
1128.18	12.4387
1131.07	35.227
1133.97	38.8638
1136.86	1.27978
1139.75	89.449
1142.64	63.4463
1145.54	5.01099
1148.43	26.8108
1151.32	65.05
1154.22	71.541
1157.11	76.3542
1160	94.1873
1162.89	40.8367
1165.79	10.7637
1168.68	16.8838
1171.57	72.4019
1174.46	51.2529
1177.36	69.4409
1180.25	55.3147
1183.14	48.3289
1186.04	38.667
1188.93	54.9868
1191.82	56.677
1194.71	35.4605
1197.61	33.1267
1200.5	64.4487
1203.39	66.3166
1206.29	20.1697
1209.18	23.0635
1212.07	50.9246
1214.96	30.3355
1217.86	34.3879
1220.75	32.0024
1223.64	34.6807
1226.53	9.19287
1229.43	36.0474
1232.32	69.6362
1235.21	68.6389
1238.1	39.7197
1241	34.1187
1243.89	28.0911
1246.78	28.1992
1249.67	42.4653
1252.57	40.0676
1255.46	0.679443
1258.35	6.58643
1261.25	4.9353
1264.14	45.447
1267.03	25.8779
1269.92	18.303
1272.82	7.02368
1275.71	21.9048
1278.6	14.4934
