Measurement: Raman, 780 nm, unoriented, Raman Data Processed
Mineral: Segelerite
Rruff sample: R080127
Ideal chemistry: CaMgFe^3+^(PO_4_)_2_(OH)4H_2_O
Locality: Tip Top mine, Custer County, South Dakota, USA
Source: Thomas A. Loomis
Description: Light yellow radiating acicular crystals, on a matrix of rockbridgeite and associated with leucophosphite (R080126)
Raman shift (cm-1)	intensity
147.967	0
150.859	0.077789
153.752	4.61136
156.645	15.5732
159.538	25.6651
162.43	34.5492
165.323	31.2371
168.216	19.5922
171.108	7.69719
174.001	1.36076
176.894	2.83928
179.786	1.33256
182.679	9.63725
185.572	14.8665
188.465	16.8666
191.357	11.4119
194.25	7.44405
197.143	3.8837
200.035	3.7066
202.928	4.94266
205.821	13.0612
208.714	24.5734
211.606	40.3231
214.499	57.1985
217.392	55.827
220.284	46.6183
223.177	40.4458
226.07	41.5121
228.962	47.6668
231.855	56.1399
234.748	60.1302
237.641	63.5948
240.533	65.3686
243.426	62.6798
246.319	57.4451
249.211	58.895
252.104	60.7964
254.997	50.5748
257.889	37.8395
260.782	30.4413
263.675	29.7869
266.567	36.923
269.46	42.6216
272.353	48.8661
275.246	53.8252
278.138	55.5115
281.031	54.2572
283.924	50.5075
286.816	43.2007
289.709	40.0745
292.602	37.3759
295.495	35.3142
298.387	38.0962
301.28	36.74
304.173	33.0573
307.065	26.6097
309.958	24.4234
312.851	22.3635
315.743	20.3287
318.636	13.4793
321.529	11.3067
324.421	8.60213
327.314	3.03221
330.207	0.758926
333.1	2.11081
335.992	1.70647
338.885	2.10274
341.778	0.716888
344.67	0.204468
347.563	1.67641
350.456	2.37297
353.349	0.926422
356.241	0.195969
359.134	0.984985
362.027	1.06822
364.919	0.652237
367.812	0.192612
370.705	1.56103
373.597	3.76382
376.49	2.31111
379.383	6.19838
382.276	8.04016
385.168	10.9055
388.061	12.9352
390.954	16.1248
393.846	18.7407
396.739	17.7451
399.632	17.7108
402.524	17.5421
405.417	18.7819
408.31	19.9438
411.202	19.5698
414.095	22.7545
416.988	24.5184
419.881	28.8441
422.773	34.0393
425.666	37.7891
428.559	44.0425
431.451	51.2236
434.344	55.7927
437.237	61.8522
440.13	68.1718
443.022	75.536
445.915	83.8308
448.808	96.0571
451.7	108.365
454.593	118.285
457.486	128.962
460.378	138.969
463.271	145.484
466.164	147.181
469.057	146.9
471.949	137.548
474.842	121.999
477.735	100.509
480.627	82.1218
483.52	61.663
486.413	46.6559
489.305	35.0678
492.198	24.8775
495.091	19.4277
497.983	13.7699
500.876	10.1361
503.769	5.50362
506.662	3.04446
509.554	1.79357
512.447	0.28698
515.34	0.389282
518.232	2.89881
521.125	1.82259
524.018	0.173676
526.91	0.678658
529.803	0.120987
532.696	1.80178
535.589	3.09378
538.481	4.51829
541.374	7.62505
544.267	11.0698
547.159	15.8951
550.052	22.2515
552.945	27.7863
555.837	32.2255
558.73	35.3004
561.623	36.845
564.516	35.1335
567.408	30.6264
570.301	24.6405
573.194	17.4277
576.086	14.0798
578.979	7.7525
581.872	4.77644
584.764	3.64126
587.657	2.21109
590.55	1.5392
593.443	1.0478
596.335	0.193985
599.228	0.139488
602.121	0.343849
605.013	0.697876
607.906	1.23447
610.799	2.06583
613.692	2.50783
616.584	4.25798
619.477	5.91201
622.37	5.90054
625.262	5.74181
628.155	5.29442
631.048	3.75411
633.94	3.93133
636.833	2.99858
639.726	1.77567
642.619	1.62133
645.511	1.38238
648.404	1.19387
651.297	2.5267
654.189	1.33095
657.082	0.797089
659.975	0.143829
662.867	1.17791
665.76	0.699898
668.653	1.55167
671.545	0.606323
674.438	1.64646
677.331	1.52926
680.224	0.076775
683.116	0.264847
686.009	1.87197
688.902	0.943901
691.794	1.0946
694.687	0.326317
697.58	1.10168
700.472	1.13551
703.365	0.343124
706.258	0.091309
709.151	1.90256
712.043	0.776627
714.936	0.253227
717.829	0.246529
720.721	0.402344
723.614	0.857597
726.507	0.689491
729.399	0.631485
732.292	0.426262
735.185	0.548973
738.078	0.107239
740.97	1.01115
743.863	0.889854
746.756	0.52301
749.648	1.1584
752.541	1.1003
755.434	0.719238
758.327	0.289452
761.219	0.589996
764.112	1.68288
767.005	1.25068
769.897	1.61584
772.79	0.19133
775.683	2.13539
778.575	0.726234
781.468	1.67644
784.361	1.97821
787.254	2.45014
790.146	1.93649
793.039	1.81752
795.932	2.5693
798.824	2.72443
801.717	1.924
804.61	3.37031
807.502	2.17369
810.395	3.14807
813.288	2.82285
816.181	4.05483
819.073	3.53142
821.966	3.42573
824.859	0.665199
827.751	2.92294
830.644	5.07136
833.537	4.24246
836.429	3.92821
839.322	3.57115
842.215	6.58413
845.107	4.51448
848	3.45132
850.893	4.41036
853.786	3.29804
856.678	4.1737
859.571	1.78101
862.464	2.20439
865.356	1.77737
868.249	2.50668
871.142	1.93252
874.034	1.04337
876.927	0.885254
879.82	1.06913
882.713	0.56562
885.605	1.96565
888.498	0.97583
891.391	0.290062
894.283	0.2714
897.176	0.260719
900.069	1.36069
902.962	1.29644
905.854	0.933655
908.747	1.00089
911.64	0.233955
914.532	1.62332
917.425	1.46464
920.318	0.978065
923.21	0.210159
926.103	2.02563
928.996	1.91805
931.888	1.4888
934.781	3.45496
937.674	3.27409
940.567	2.67976
943.459	4.87913
946.352	7.46033
949.245	13.1251
952.137	23.7892
955.03	38.847
957.923	64.6278
960.815	100.869
963.708	143.099
966.601	183.833
969.494	203.481
972.386	231.208
975.279	164.943
978.172	88.6545
981.064	62.0432
983.957	62.5362
986.85	70.5256
989.742	92.1095
992.635	120.534
995.528	135.701
998.42	115.341
1001.31	79.1792
1004.21	48.9162
1007.1	29.8357
1009.99	16.3765
1012.88	10.2414
1015.78	5.54112
1018.67	2.47716
1021.56	1.78024
1024.45	1.16399
1027.35	0.073647
1030.24	2.32864
1033.13	3.7492
1036.03	4.52791
1038.92	5.75865
1041.81	6.79333
1044.7	7.85635
1047.6	6.84352
1050.49	6.6606
1053.38	4.71797
1056.28	2.24525
1059.17	0.410362
1062.06	1.81506
1064.95	0.973969
1067.85	0.27877
1070.74	1.65376
1073.63	3.96765
1076.52	7.82119
1079.42	13.1059
1082.31	20.2223
1085.2	27.5334
1088.09	34.1166
1090.99	39.7761
1093.88	45.6377
1096.77	46.2394
1099.66	40.7384
1102.56	32.7495
1105.45	23.7438
1108.34	17.5505
1111.24	11.8713
1114.13	8.3769
1117.02	4.35258
1119.91	4.71146
1122.81	2.82223
1125.7	2.15202
1128.59	0.383698
1131.48	0.943695
1134.38	0.145401
1137.27	0.787201
1140.16	1.89973
1143.06	1.25378
1145.95	2.12347
1148.84	3.10423
1151.73	4.32843
1154.63	5.28933
1157.52	6.24614
1160.41	7.88209
1163.3	8.99612
1166.2	12.7823
1169.09	14.1067
1171.98	17.0608
1174.88	16.9783
1177.77	16.9614
1180.66	18.4143
1183.55	19.0465
1186.45	17.4056
1189.34	14.497
1192.23	10.1168
1195.12	6.16521
1198.02	5.07268
1200.91	4.32349
1203.8	1.93712
1206.69	1.19399
1209.59	1.09927
1212.48	0.509331
1215.37	1.10763
1218.27	0.200089
1221.16	0.268486
1224.05	0.398163
1226.94	1.1002
1229.84	0.623001
1232.73	1.01477
1235.62	0.841934
1238.52	1.13224
1241.41	1.37
1244.3	2.21036
1247.19	2.8737
1250.09	2.73235
1252.98	2.07404
1255.87	1.27168
1258.76	1.46327
1261.66	1.08223
1264.55	0.57888
1267.44	1.04971
1270.33	0.402832
1273.23	0.564362
1276.12	0.495514
1279.01	0.282639
1281.9	0.056953
1284.8	0.271675
