Measurement: Raman, 532 nm, unoriented, Raman Data Processed
Mineral: Segerstromite
Rruff sample: R130753
Ideal chemistry: Ca_3_(As^5+^O_4_)_2_(As^3+^(OH)_3_)_2_
Locality: Cobriza mine, Sacramento District, Copiap√≥ Province, Chile
Source: Bob Jenkins
Description: Colorless tetrahedral crystals, associated with talmessite, vladimirite, and apatite. Type sample
Measured chemistry: Ca_2.98_(AsO_4_)_2.00_[As(OH)_3_]_2.00_ ; The darker phase is fluorapatite.
Raman shift (cm-1)	intensity
89.7832	0
93.158	21.8086
96.5328	29.6065
99.9077	69.8178
103.282	72.7949
106.657	154.473
110.032	230.337
113.407	38.7742
116.782	1.04781
120.157	3.59207
123.531	5.03922
126.906	21.3113
130.281	49.0129
133.656	72.4193
137.031	53.6399
140.405	53.9054
143.78	63.4492
147.155	18.1998
150.53	0.987709
153.905	0.468872
157.28	1.37205
160.654	4.2225
164.029	2.2908
167.404	0.123245
170.779	1.50867
174.154	5.04233
177.528	6.70399
180.903	10.1968
184.278	16.256
187.653	27.786
191.028	28.5567
194.403	15.2043
197.777	6.40212
201.152	3.16011
204.527	3.57282
207.902	4.18739
211.277	4.65676
214.651	2.83739
218.026	3.36601
221.401	6.45711
224.776	11.3625
228.151	18.3975
231.525	28.2792
234.9	39.7836
238.275	47.9515
241.65	51.5591
245.025	51.7386
248.4	45.222
251.774	35.9236
255.149	28.8534
258.524	25.2189
261.899	19.2238
265.274	17.7236
268.649	14.1376
272.023	9.5264
275.398	3.31125
278.773	0.983276
282.148	1.09501
285.523	3.05179
288.897	2.10439
292.272	2.23399
295.647	0.144798
299.022	2.09201
302.397	6.12217
305.772	12.3885
309.146	20.7693
312.521	31.1902
315.896	37.4454
319.271	41.1648
322.646	47.3618
326.02	52.0615
329.395	61.7382
332.77	80.2428
336.145	112.047
339.52	155.588
342.894	206.875
346.269	264.882
349.644	321.054
353.019	346.124
356.394	318.949
359.769	258.249
363.143	196.068
366.518	135.9
369.893	85.6729
373.268	57.3789
376.643	45.8022
380.017	43.887
383.392	30.4011
386.767	16.0979
390.142	10.7644
393.517	8.87196
396.892	10.9815
400.266	15.2141
403.641	15.415
407.016	11.4927
410.391	6.28429
413.766	4.66896
417.14	4.40582
420.515	5.33115
423.89	7.99501
427.265	6.37761
430.64	0.98674
434.014	2.66212
437.389	1.79723
440.764	5.41862
444.139	16.4919
447.514	30.3932
450.889	49.3361
454.263	66.1663
457.638	72.5406
461.013	71.9022
464.388	72.2064
467.763	71.5603
471.137	57.3984
474.512	37.676
477.887	21.3977
481.262	12.1874
484.637	6.19142
488.012	3.05857
491.386	1.07524
494.761	0.621712
498.136	0.733879
501.511	1.18814
504.886	0.215485
508.26	0.392006
511.635	1.00145
515.01	1.89542
518.385	2.2981
521.76	2.69333
525.135	4.02266
528.509	3.75002
531.884	5.09
535.259	5.728
538.634	6.71473
542.009	7.37934
545.384	7.95737
548.758	9.12354
552.133	8.78504
555.508	8.88194
558.883	8.17384
562.258	7.27128
565.632	6.23315
569.007	5.85426
572.382	4.94432
575.757	5.20353
579.132	3.012
582.506	1.91641
585.881	1.56073
589.256	1.11037
592.631	0.276939
596.006	0.425049
599.381	0.942047
602.755	0.911423
606.13	0.529289
609.505	0.657303
612.88	0.095459
616.255	0.141724
619.63	1.68816
623.004	2.10104
626.379	3.40846
629.754	5.48891
633.129	7.49773
636.504	11.8895
639.878	14.8471
643.253	19.7667
646.628	26.4865
650.003	36.8701
653.378	54.4857
656.752	77.5112
660.127	115.397
663.502	169.314
666.877	237.583
670.252	329.909
673.626	410.106
677.001	409.182
680.376	349.968
683.751	377.279
687.126	494.834
690.501	761.763
693.875	1118.62
697.25	1113.5
700.625	569.32
704	289.764
707.375	180.889
710.75	127.106
714.124	87.4017
717.499	61.5084
720.874	43.5699
724.249	28.2432
727.624	17.7031
730.998	11.8479
734.373	8.26421
737.748	3.56706
741.123	1.22125
744.498	1.25555
747.872	2.76637
751.247	3.35465
754.622	0.585388
757.997	2.19527
761.372	1.61069
764.747	0.454941
768.121	1.10346
771.496	4.83414
774.871	10.888
778.246	20.9591
781.621	36.993
784.995	60.173
788.37	99.9136
791.745	132.347
795.12	119.408
798.495	114.48
801.87	114.21
805.244	95.9029
808.619	90.2211
811.994	117.014
815.369	223.292
818.744	464.994
822.119	810.214
825.493	1474.66
828.868	2213.79
832.243	1551.91
835.618	702.203
838.993	428.54
842.367	357.289
845.742	370.768
849.117	361.322
852.492	237.742
855.867	139.028
859.241	92.3526
862.616	66.5719
865.991	49.5379
869.366	37.2823
872.741	29.0048
876.115	22.5153
879.49	15.4298
882.865	11.4209
886.24	7.20863
889.615	5.01901
892.99	2.51839
896.364	1.38179
899.739	0.203056
903.114	0.63295
906.489	0.366394
909.864	1.3254
913.239	1.30301
916.613	0.3797
919.988	0.712753
923.363	1.43497
926.738	0.492828
930.113	0.313385
933.487	1.13688
936.862	0.919998
940.237	1.42793
943.612	1.79835
946.987	2.44795
950.361	2.73807
953.736	2.61842
957.111	2.60214
960.486	3.21179
963.861	3.39428
967.236	4.16207
970.61	5.51747
973.985	7.48243
977.36	10.17
980.735	13.7576
984.11	9.13887
987.485	5.01398
990.859	3.29015
994.234	3.02637
997.609	2.30977
1000.98	2.2616
1004.36	1.75427
1007.73	1.4128
1011.11	2.42835
1014.48	1.69348
1017.86	2.0627
1021.23	1.58695
1024.61	1.82063
1027.98	2.18917
1031.36	1.63054
1034.73	1.61455
1038.11	1.81712
1041.48	1.35943
1044.86	2.60325
1048.23	2.62831
1051.61	2.76289
1054.98	2.9307
1058.36	2.68105
1061.73	2.50241
1065.11	1.9475
1068.48	0.986748
1071.86	1.09646
1075.23	2.09597
1078.6	1.77068
1081.98	3.59673
1085.35	0.836433
1088.73	1.01189
1092.1	0.581848
1095.48	0.043083
1098.85	0.031464
1102.23	0.927879
1105.6	0.490616
1108.98	0.365013
1112.35	0.016029
1115.73	0.639679
1119.1	0.01226
1122.48	0.402199
1125.85	0.896759
1129.23	0.45826
1132.6	0.814133
1135.98	0.736382
1139.35	1.23151
1142.73	1.04878
1146.1	0.36718
1149.48	1.57909
1152.85	0.216629
1156.22	1.43642
1159.6	0.911873
1162.97	1.29086
1166.35	0.526749
1169.72	1.10531
1173.1	1.24382
1176.47	1.00461
1179.85	1.39397
1183.22	1.72707
1186.6	1.48313
1189.97	1.75147
1193.35	0.766991
1196.72	2.05066
1200.1	1.94414
1203.47	0.434013
1206.85	1.59275
1210.22	1.62266
1213.6	1.63104
1216.97	0.484673
1220.35	0.206245
1223.72	0.964615
1227.1	0.008736
1230.47	0.616951
1233.85	0.098465
1237.22	1.07871
1240.6	0.457954
1243.97	0.564392
1247.35	1.14234
1250.72	1.43897
1254.1	1.01191
1257.47	4.19175
1260.85	2.58454
1264.22	3.66059
1267.59	4.25765
1270.97	4.10427
1274.34	4.03079
1277.72	1.82564
1281.09	2.61545
1284.47	1.45955
1287.84	1.0443
1291.22	1.64497
1294.59	1.339
1297.97	0.909225
1301.34	0.443481
