Measurement: Raman, 780 nm, unoriented, Raman Data Processed
Mineral: Segerstromite
Rruff sample: R130753
Ideal chemistry: Ca_3_(As^5+^O_4_)_2_(As^3+^(OH)_3_)_2_
Locality: Cobriza mine, Sacramento District, Copiap√≥ Province, Chile
Source: Bob Jenkins
Description: Colorless tetrahedral crystals, associated with talmessite, vladimirite, and apatite. Type sample
Measured chemistry: Ca_2.98_(AsO_4_)_2.00_[As(OH)_3_]_2.00_ ; The darker phase is fluorapatite.
Raman shift (cm-1)	intensity
91.5599	0
94.9347	15.6944
98.3096	66.1923
101.684	51.0869
105.059	80.3631
108.434	185.882
111.809	58.1796
115.184	5.03244
118.558	3.33752
121.933	0.488785
125.308	5.16715
128.683	16.9035
132.058	35.1082
135.433	30.6991
138.807	21.8205
142.182	29.1014
145.557	12.414
148.932	0.393406
152.307	0.18676
155.681	1.97899
159.056	5.22162
162.431	5.17841
165.806	3.88988
169.181	3.4905
172.555	5.51311
175.93	6.04215
179.305	6.0674
182.68	9.47632
186.055	15.2157
189.43	20.0409
192.804	13.0326
196.179	5.75135
199.554	2.76849
202.929	2.54083
206.304	3.15917
209.678	2.40857
213.053	2.30777
216.428	1.22725
219.803	2.15795
223.178	3.48228
226.553	6.697
229.927	9.6001
233.302	14.6982
236.677	18.8909
240.052	19.7425
243.427	19.6558
246.801	18.2045
250.176	14.3016
253.551	12.2408
256.926	10.14
260.301	8.02064
263.675	7.82915
267.05	7.3465
270.425	5.56274
273.8	2.34538
277.175	0.497208
280.55	0.299278
283.924	1.02357
287.299	1.49388
290.674	0.943005
294.049	0.011223
297.424	0.792309
300.798	1.58427
304.173	3.95451
307.548	7.19149
310.923	12.0107
314.298	15.5895
317.673	17.5437
321.047	20.2898
324.422	21.1689
327.797	23.9957
331.172	28.8938
334.547	39.5853
337.921	52.752
341.296	70.6435
344.671	91.9805
348.046	117.327
351.421	136.175
354.796	137.58
358.17	121.293
361.545	94.7422
364.92	67.2993
368.295	43.6735
371.67	27.85
375.044	19.8686
378.419	18.0373
381.794	15.7707
385.169	9.27394
388.544	4.92134
391.918	4.36005
395.293	4.7937
398.668	6.76695
402.043	6.83055
405.418	6.21286
408.793	4.38051
412.167	2.53952
415.542	2.14208
418.917	1.57109
422.292	2.43314
425.667	2.23218
429.041	1.22856
432.416	0.582832
435.791	1.3586
439.166	0.058083
442.541	3.48438
445.915	7.52394
449.29	13.6459
452.665	20.3687
456.04	24.3394
459.415	24.942
462.789	25.6578
466.164	26.9361
469.539	24.7961
472.914	18.3051
476.289	10.4621
479.664	6.19561
483.038	3.187
486.413	1.55163
489.788	0.676142
493.163	0.355499
496.538	0.251797
499.913	0.420334
503.287	0.488108
506.662	0.202839
510.037	0.28791
513.412	0.507349
516.787	0.605459
520.161	0.596184
523.536	0.966496
526.911	1.0863
530.286	1.44423
533.661	2.34922
537.035	2.15708
540.41	1.78115
543.785	2.30375
547.16	3.39992
550.535	2.37196
553.909	2.99758
557.284	2.43331
560.659	2.87514
564.034	2.07355
567.409	2.00253
570.784	1.48445
574.158	1.29395
577.533	1.17775
580.908	0.368925
584.283	2.05736
587.658	0.821062
591.033	0.136587
594.407	0.013474
597.782	0.008421
601.157	0.159418
604.532	0.083754
607.907	0.061037
611.281	0.50428
614.656	0.129652
618.031	0.133141
621.406	0.275492
624.781	0.28653
628.155	0.733521
631.53	1.27782
634.905	2.65706
638.28	3.25431
641.655	4.56513
645.029	5.86523
648.404	8.56068
651.779	11.4849
655.154	17.5919
658.529	25.3632
661.904	37.0253
665.278	51.2938
668.653	71.4314
672.028	98.1581
675.403	112.346
678.778	98.3727
682.153	87.5179
685.527	98.0434
688.902	145.45
692.277	261.016
695.652	355.535
699.027	217.395
702.401	99.9677
705.776	57.6031
709.151	38.2704
712.526	26.3913
715.901	19.0234
719.275	14.1278
722.65	8.89371
726.025	5.77167
729.4	4.08645
732.775	2.213
736.149	1.29598
739.524	0.428097
742.899	0.212351
746.274	0.23015
749.649	0.579176
753.024	0.79875
756.398	0.64143
759.773	0.438328
763.148	0.100531
766.523	0.003109
769.898	1.13025
773.273	1.44656
776.647	4.091
780.022	7.03725
783.397	11.1377
786.772	19.9541
790.146	34.1198
793.521	32.7595
796.896	29.1725
800.271	29.375
803.646	26.1376
807.021	22.9113
810.395	26.1293
813.77	41.5584
817.145	78.7105
820.52	130.583
823.895	251.035
827.269	507.649
830.644	519.794
834.019	230.095
837.394	121.595
840.769	88.3121
844.144	85.009
847.518	93.3012
850.893	70.5553
854.268	40.7753
857.643	25.839
861.018	18.4162
864.393	13.4899
867.767	10.4512
871.142	8.42431
874.517	6.49996
877.892	4.83768
881.266	3.11711
884.641	2.0631
888.016	1.57744
891.391	1.14764
894.766	0.201921
898.141	0.115604
901.515	0.049046
904.89	0.253954
908.265	0.141781
911.64	0.727535
915.015	0.511589
918.389	0.173424
921.764	0.197935
925.139	0.095156
928.514	0.386702
931.889	0.191029
935.264	0.259611
938.638	0.093269
942.013	0.387665
945.388	0.818264
948.763	0.890747
952.138	0.845496
955.512	0.748997
958.887	0.541682
962.262	0.831383
965.637	1.36624
969.012	1.35506
972.386	1.59142
975.761	1.81179
979.136	3.14068
982.511	3.04133
985.886	1.13616
989.261	0.421946
992.635	0.558713
996.01	0.58185
999.385	0.487865
1002.76	0.30541
1006.13	0.356894
1009.51	0.388164
1012.88	0.5315
1016.26	0.621685
1019.63	0.280498
1023.01	0.351265
1026.38	0.199194
1029.76	0.750347
1033.13	0.528173
1036.51	0.030959
1039.88	0.440377
1043.26	0.385413
1046.63	0.479405
1050.01	0.5622
1053.38	0.737848
1056.76	0.419535
1060.13	0.762798
1063.51	0.421531
1066.88	0.983821
1070.26	0.833655
1073.63	0.625583
1077.01	0.727233
1080.38	0.278741
1083.76	0.215453
1087.13	0.233678
1090.51	0.160278
1093.88	0.329538
1097.26	0.030767
1100.63	0.05051
1104	0.23473
1107.38	0.212058
1110.75	0.036465
1114.13	0.003429
1117.5	0.022108
1120.88	0.087198
1124.25	0.261404
1127.63	0.690496
1131	0.015314
1134.38	0.06776
1137.75	0.530959
1141.13	0.323282
1144.5	0.335161
1147.88	0.207994
1151.25	0.227646
1154.63	0.140698
1158	0.626953
1161.38	0.305327
1164.75	0.537534
1168.13	0.663014
1171.5	0.468929
1174.88	0.160975
1178.25	0.314138
1181.62	0.278682
1185	0.048801
1188.38	0.76881
1191.75	0.258817
1195.12	0.584888
1198.5	0.543782
1201.87	0.439264
1205.25	0.59758
1208.62	0.213208
1212	0.320469
1215.37	0.591518
1218.75	0.268679
1222.12	0.055403
1225.5	0.691026
1228.87	0.176464
1232.25	0.525369
1235.62	0.071669
1239	0.0232
1242.37	0.502622
1245.75	0.377146
1249.12	0.453218
1252.5	0.000825
1255.87	0.633663
1259.25	0.588982
1262.62	0.612027
1265.99	0.942676
1269.37	0.78208
1272.74	0.82981
1276.12	0.677916
1279.49	0.168007
1282.87	0.200815
