Measurement: Raman, 532 nm, unoriented, Raman Data Processed
Mineral: Segelerite
Rruff sample: R080127
Ideal chemistry: CaMgFe^3+^(PO_4_)_2_(OH)4H_2_O
Locality: Tip Top mine, Custer County, South Dakota, USA
Source: Thomas A. Loomis
Description: Light yellow radiating acicular crystals, on a matrix of rockbridgeite and associated with leucophosphite (R080126)
Raman shift (cm-1)	intensity
150.208	0
153.1	37.2599
155.993	116.549
158.886	212.76
161.778	280.893
164.671	268.442
167.564	129.74
170.456	28.3843
173.349	10.8622
176.242	18.1848
179.135	6.41657
182.027	66.5296
184.92	129.471
187.813	158.598
190.705	126.185
193.598	85.585
196.491	37.2051
199.383	22.9913
202.276	43.3161
205.169	96.5859
208.061	186.325
210.954	294.605
213.847	383.087
216.74	339.827
219.632	239.11
222.525	204.715
225.418	233.489
228.31	293.442
231.203	358.513
234.096	401.44
236.988	488.854
239.881	579.692
242.774	585.116
245.667	543.663
248.559	564.657
251.452	590.355
254.345	497.738
257.237	333.791
260.13	216.169
263.023	180.329
265.916	201.625
268.808	264.606
271.701	322.539
274.594	348.514
277.486	377.199
280.379	395.253
283.272	397.659
286.164	365.042
289.057	345.809
291.95	360.189
294.842	403.784
297.735	447.227
300.628	447.611
303.521	403.331
306.413	368.946
309.306	367.845
312.199	361.844
315.091	302.997
317.984	189.827
320.877	99.3076
323.769	36.1121
326.662	0.534729
329.555	0.692749
332.448	4.5473
335.34	2.34882
338.233	20.1547
341.126	18.6718
344.018	19.0782
346.911	11.657
349.804	1.60541
352.697	3.57465
355.589	12.5455
358.482	15.7568
361.375	12.6644
364.267	9.84174
367.16	5.95129
370.053	7.38641
372.945	1.35864
375.838	2.72461
378.731	4.87628
381.623	5.99939
384.516	10.429
387.409	17.5874
390.302	22.8032
393.194	29.3033
396.087	35.0465
398.98	49.7626
401.872	65.5557
404.765	83.6017
407.658	108.411
410.55	134.594
413.443	167.4
416.336	202.574
419.229	234.609
422.121	276.608
425.014	318.211
427.907	365.89
430.799	411.049
433.692	451.657
436.585	492.887
439.478	545.412
442.37	613.579
445.263	690.731
448.156	767.687
451.048	847.234
453.941	918.331
456.834	960.138
459.726	960.936
462.619	921.364
465.512	873.675
468.404	818.471
471.297	758.139
474.19	694.887
477.083	617.56
479.975	524.035
482.868	426.322
485.761	330
488.653	253.317
491.546	186.761
494.439	138.012
497.332	102.359
500.224	70.5141
503.117	48.3516
506.01	31.6918
508.902	14.0777
511.795	5.06964
514.688	3.95892
517.58	1.87225
520.473	6.32989
523.366	3.85498
526.259	8.3941
529.151	3.3949
532.044	3.40582
534.937	1.44104
537.829	4.86468
540.722	16.6368
543.615	28.2764
546.507	47.3774
549.4	72.6794
552.293	98.0313
555.186	116.131
558.078	125.27
560.971	127.249
563.864	127.753
566.756	112.106
569.649	91.9507
572.542	74.0981
575.434	52.1551
578.327	39.7082
581.22	32.7947
584.112	27.7077
587.005	23.0632
589.898	18.5892
592.791	16.6808
595.683	9.82422
598.576	2.9707
601.469	0.559204
604.361	3.39032
607.254	1.34619
610.147	0.518372
613.039	1.91077
615.932	5.02399
618.825	9.98303
621.718	12.8493
624.61	15.1483
627.503	18.8459
630.396	20.7882
633.288	17.0072
636.181	11.1956
639.074	9.58917
641.966	8.61163
644.859	8.92127
647.752	3.75977
650.645	9.5329
653.537	12.2728
656.43	18.7466
659.323	20.4216
662.215	26.7633
665.108	28.6921
668.001	28.727
670.894	35.7808
673.786	36.3666
676.679	35.5447
679.572	33.3425
682.464	29.983
685.357	22.1462
688.25	20.0161
691.142	16.8327
694.035	17.2532
696.928	13.767
699.821	12.9746
702.713	10.1047
705.606	10.3547
708.499	7.75964
711.391	8.03748
714.284	2.56103
717.177	2.00183
720.069	3.34845
722.962	0.347595
725.855	2.10974
728.747	1.91248
731.64	0.967224
734.533	0.958374
737.426	1.75909
740.318	1.3161
743.211	1.18243
746.104	1.48615
748.996	3.47986
751.889	0.945618
754.782	0.331848
757.674	4.16095
760.567	4.12256
763.46	6.96442
766.353	9.78107
769.245	8.96252
772.138	7.8736
775.031	9.70453
777.923	7.56299
780.816	5.27283
783.709	6.30109
786.601	8.26575
789.494	8.57941
792.387	6.90497
795.28	8.87634
798.172	7.72717
801.065	2.85315
803.958	6.31726
806.85	4.30603
809.743	6.22784
812.636	2.45636
815.529	5.38715
818.421	6.20563
821.314	9.20807
824.207	5.90668
827.099	6.43878
829.992	4.74628
832.885	8.40387
835.777	5.13165
838.67	9.39185
841.563	5.87335
844.456	8.05524
847.348	7.7146
850.241	5.7226
853.134	4.24628
856.026	4.36945
858.919	0.743591
861.812	1.49994
864.704	0.789612
867.597	2.31128
870.49	0.694031
873.383	1.44269
876.275	2.51019
879.168	3.24261
882.061	0.522583
884.953	0.700806
887.846	2.65655
890.739	8.08551
893.631	14.2543
896.524	15.9877
899.417	23.2195
902.309	32.9893
905.202	35.6473
908.095	35.7838
910.988	27.5068
913.88	21.6269
916.773	14.4413
919.666	11.1866
922.558	6.11664
925.451	8.66058
928.344	4.72424
931.236	1.11084
934.129	2.37836
937.022	4.20557
939.915	6.47693
942.807	13.6384
945.7	23.5079
948.593	40.4025
951.485	72.0597
954.378	128.025
957.271	222.872
960.163	433.122
963.056	727.509
965.949	1074.44
968.842	1646.69
971.734	2282.59
974.627	1788.21
977.52	884.608
980.412	578.842
983.305	579.21
986.198	721.472
989.091	954.518
991.983	1304.41
994.876	1562.91
997.769	1358.78
1000.66	861.018
1003.55	531.954
1006.45	347.197
1009.34	215.631
1012.23	127.124
1015.12	71.6833
1018.02	35.6979
1020.91	16.7217
1023.8	6.22644
1026.7	3.12921
1029.59	8.18066
1032.48	3.20062
1035.37	3.2981
1038.27	1.59369
1041.16	3.28918
1044.05	7.68439
1046.94	16.6953
1049.84	31.6649
1052.73	32.4181
1055.62	21.5908
1058.52	14.6852
1061.41	2.86151
1064.3	6.72369
1067.19	11.3976
1070.09	25.476
1072.98	55.2416
1075.87	98.4559
1078.76	163.664
1081.66	243.347
1084.55	347.016
1087.44	440.139
1090.34	506.822
1093.23	554.988
1096.12	563.367
1099.01	516.047
1101.91	426.657
1104.8	314.94
1107.69	226.497
1110.58	151.828
1113.48	103.629
1116.37	65.7975
1119.26	42.853
1122.15	20.3682
1125.05	17.6061
1127.94	3.32855
1130.83	1.78815
1133.72	2.79321
1136.62	0.273438
1139.51	3.86139
1142.4	6.07104
1145.3	13.6495
1148.19	24.1534
1151.08	33.8554
1153.97	49.1698
1156.87	76.1007
1159.76	109.938
1162.65	162.857
1165.55	218.106
1168.44	278.269
1171.33	312.977
1174.22	273.248
1177.12	196.167
1180.01	125.355
1182.9	84.991
1185.79	52.1616
1188.69	35.5828
1191.58	23.1191
1194.47	11.8231
1197.37	5.40924
1200.26	3.81494
1203.15	1.5697
1206.04	0.543701
1208.94	3.07037
1211.83	3.80572
1214.72	3.30798
1217.61	1.172
1220.51	0.18457
1223.4	0.679871
1226.29	1.41803
1229.18	2.72693
1232.08	1.24323
1234.97	6.74847
1237.86	3.0824
1240.76	2.17682
1243.65	3.1239
1246.54	8.35095
1249.43	8.45105
1252.33	6.96088
1255.22	6.45227
1258.11	11.0176
1261	8.68701
1263.9	9.1156
1266.79	11.2997
1269.68	8.71869
1272.58	7.68604
1275.47	6.91345
1278.36	6.30164
1281.25	8.79779
1284.15	8.7829
