Measurement: Raman, 532 nm, unoriented, Raman Data Processed
Mineral: Segnitite
Rruff sample: R070492
Ideal chemistry: Pb^2+^Fe^3+^_3_(As^5+^O_4_)(As^5+^O_3_OH)(OH)_6_
Locality: Capitana mine, Copiap√≥ Province, Atacama Region, Chile
Source: Bob Jenkins
Description: Aggregate of small light green rhombohedral crystals
Raman shift (cm-1)	intensity
162.208	0
165.101	34.9145
167.994	83.8621
170.886	245.431
173.779	381.949
176.672	685.445
179.565	979.476
182.457	1311.42
185.35	1751.13
188.243	2079.39
191.135	2413.41
194.028	2352.38
196.921	2265.24
199.813	2159.8
202.706	1852.63
205.599	1631.78
208.492	1265.8
211.384	990.937
214.277	795.674
217.17	558.902
220.062	374.694
222.955	259.99
225.848	109.253
228.74	68.8906
231.633	19.1038
234.526	12.7705
237.418	7.22998
240.311	8.29614
243.204	31.6038
246.097	26.4502
248.989	37.3296
251.882	23.0234
254.775	2.16309
257.667	100.727
260.56	32.1738
263.453	95.7854
266.346	62.1858
269.238	104.451
272.131	97.2415
275.024	176.846
277.916	328.584
280.809	488.539
283.702	630.149
286.594	888.252
289.487	1169.15
292.38	1370.99
295.272	1534.94
298.165	1510.5
301.058	1534.33
303.951	1466.9
306.843	1321.84
309.736	1173.3
312.629	1036.52
315.521	869.535
318.414	712.817
321.307	575.158
324.2	440.835
327.092	316.842
329.985	186.884
332.878	80.1125
335.77	9.61035
338.663	7.94629
341.556	31.6643
344.448	34.1511
347.341	39.4692
350.234	22.8169
353.127	54.9822
356.019	58.8655
358.912	90.6313
361.805	100.151
364.697	105.124
367.59	160.838
370.483	127.067
373.375	81.9197
376.268	45.6743
379.161	56.2986
382.053	27.0894
384.946	58.9255
387.839	48.8052
390.732	122.443
393.624	179.285
396.517	307.474
399.41	414.499
402.302	576.053
405.195	660.686
408.088	811.29
410.981	1046.92
413.873	1249.51
416.766	1399.52
419.659	1639.24
422.551	1825.92
425.444	2005.28
428.337	2161.67
431.229	2272.2
434.122	2301.06
437.015	2263.35
439.908	2103.59
442.8	1917.84
445.693	1822.86
448.586	1643.22
451.478	1600.03
454.371	1664.67
457.264	1802.11
460.156	2025.61
463.049	2275.93
465.942	2612.15
468.834	2901.73
471.727	3096.02
474.62	3036.88
477.513	2753.64
480.405	2244.46
483.298	1760.37
486.191	1390.12
489.083	965.002
491.976	693.233
494.869	459.734
497.762	338.317
500.654	260.209
503.547	116.029
506.44	42.4734
509.332	18.2429
512.225	28.3835
515.118	33.1812
518.01	28.8564
520.903	47.9141
523.796	20.6829
526.688	3.43848
529.581	14.2749
532.474	139.228
535.367	165.42
538.259	173.461
541.152	276.838
544.045	382.211
546.937	445.618
549.83	443.263
552.723	546.506
555.615	536.228
558.508	573.261
561.401	582.365
564.294	577.687
567.186	583.294
570.079	513.045
572.972	461.869
575.864	436.288
578.757	330.004
581.65	335.322
584.543	276.881
587.435	219.352
590.328	192.466
593.221	159.465
596.113	169.407
599.006	133.119
601.899	112.481
604.791	145.354
607.684	202.717
610.577	243.751
613.47	288.965
616.362	312.447
619.255	279.941
622.148	253.351
625.04	182.814
627.933	134.384
630.826	68.7669
633.718	1.03601
636.611	3.82104
639.504	0.521606
642.396	3.42285
645.289	1.22913
648.182	14.3729
651.075	2.77405
653.967	35.1223
656.86	32.6043
659.753	35.2827
662.645	45.4504
665.538	59.5698
668.431	70.8643
671.323	98.5754
674.216	65.1867
677.109	77.3574
680.002	101.141
682.894	108.734
685.787	70.7191
688.68	105.486
691.572	52.6449
694.465	47.8955
697.358	33.8555
700.25	61.532
703.143	80.5436
706.036	62.3368
708.929	70.6677
711.821	91.5432
714.714	75.4218
717.607	96.8238
720.499	141.05
723.392	120.637
726.285	110.885
729.178	94.9148
732.07	94.9185
734.963	84.1143
737.856	75.3096
740.748	65.4695
743.641	56.8105
746.534	30.4255
749.426	12.9214
752.319	13.043
755.212	17.4407
758.105	16.7024
760.997	25.0156
763.89	43.0112
766.783	19.6431
769.675	27.7327
772.568	32.6204
775.461	13.3201
778.353	31.9089
781.246	88.1604
784.139	146.953
787.032	247.382
789.924	318.91
792.817	427.583
795.71	540.853
798.602	668.262
801.495	750.063
804.388	898.174
807.28	986.848
810.173	1018.2
813.066	1111.58
815.958	1148
818.851	1197
821.744	1313.31
824.637	1472.08
827.529	1668.16
830.422	1911.79
833.315	2203.1
836.207	2579.48
839.1	2872.4
841.993	3081.95
844.885	3151.09
847.778	3158.47
850.671	2908.53
853.564	2706.76
856.456	2523.62
859.349	2329.95
862.242	2167.11
865.134	1972.97
868.027	1803.79
870.92	1603.2
873.812	1399.93
876.705	1344.61
879.598	1133.79
882.491	934.577
885.383	808.665
888.276	713.835
891.169	586.091
894.061	491.977
896.954	403.816
899.847	287.842
902.74	254.313
905.632	199.932
908.525	168.238
911.418	79.0801
914.31	89.7942
917.203	65.8186
920.096	18.592
922.988	13.9153
925.881	27.7659
928.774	9.70727
931.667	17.0584
934.559	15.634
937.452	32.0432
940.345	19.1121
943.237	21.0818
946.13	13.2158
949.023	14.8696
951.915	11.6819
954.808	5.47266
957.701	22.2856
960.593	12.1891
963.486	74.1473
966.379	57.5414
969.272	108.189
972.164	156.172
975.057	186.739
977.95	215.816
980.842	308
983.735	388.148
986.628	560.802
989.52	685.91
992.413	782.008
995.306	751.996
998.199	551.232
1001.09	357.543
1003.98	182.255
1006.88	110.589
1009.77	38.5928
1012.66	19.4398
1015.55	13.474
1018.45	16.6642
1021.34	0.081421
1024.23	0.831665
1027.13	23.9319
1030.02	25.334
1032.91	46.136
1035.8	14.2225
1038.7	22.0242
1041.59	30.748
1044.48	29.6177
1047.38	42.7398
1050.27	104.461
1053.16	74.374
1056.05	90.6206
1058.94	116.383
1061.84	140.424
1064.73	157.819
1067.62	179.054
1070.52	184.602
1073.41	145.655
1076.3	187.35
1079.19	154.757
1082.09	149.935
1084.98	210.45
1087.87	191.908
1090.77	197.515
1093.66	219.163
1096.55	222.574
1099.44	181.483
1102.34	226.747
1105.23	252.812
1108.12	210.452
1111.01	190.946
1113.91	247.542
1116.8	177.024
1119.69	142.69
1122.59	104.54
1125.48	122.104
1128.37	66.9587
1131.26	62.1235
1134.16	54.2822
1137.05	74.9766
1139.94	99.7012
1142.83	128.963
1145.73	111.602
1148.62	105.952
1151.51	151.881
1154.4	124.821
1157.3	116.3
1160.19	107.738
1163.08	140.143
1165.97	121.26
1168.87	104.888
1171.76	114.033
1174.65	117.248
1177.55	110.078
1180.44	104.069
1183.33	84.9973
1186.22	34.7683
1189.12	62.1528
1192.01	36.3733
1194.9	15.2733
1197.8	10.1327
1200.69	12.9559
1203.58	18.224
1206.47	10.8229
1209.37	23.5797
1212.26	16.4574
1215.15	14.9646
1218.04	3.79199
1220.94	14.495
1223.83	70.5187
1226.72	8.02612
1229.62	43.8617
1232.51	15.7057
1235.4	61.7304
1238.29	57.2561
1241.18	31.7902
1244.08	32.3344
1246.97	45.8147
1249.86	51.9114
1252.76	45.692
1255.65	23.2
1258.54	8.01148
1261.43	22.298
1264.33	14.9405
1267.22	61.957
1270.11	35.7128
1273.01	27.9036
1275.9	45.1248
1278.79	4.66186
