Measurement: Raman, 780 nm, unoriented, Raman Data Processed
Mineral: Segnitite
Rruff sample: R100183
Ideal chemistry: Pb^2+^Fe^3+^_3_(As^5+^O_4_)(As^5+^O_3_OH)(OH)_6_
Locality: Mina Ojuela (Campo Sur), Mapimi, Durango, Mexico
Source: Marcus Origlieri
Description: Greenish-yellow blocky crystals associated with mimetite
Raman shift (cm-1)	intensity
105.551	0
108.926	0.724533
112.301	6.27559
115.675	11.0583
119.05	14.8596
122.425	19.2103
125.8	22.1965
129.175	29.4111
132.55	36.8735
135.924	37.996
139.299	25.9459
142.674	14.5185
146.049	6.62419
149.424	2.06287
152.798	0.594612
156.173	1.91731
159.548	0.124992
162.923	1.2435
166.298	2.17078
169.673	5.0659
173.047	8.99145
176.422	14.4213
179.797	20.1091
183.172	27.4324
186.547	31.7896
189.921	37.8719
193.296	43.8289
196.671	45.0917
200.046	42.8669
203.421	38.5896
206.796	34.2102
210.17	27.5893
213.545	20.9746
216.92	17.7115
220.295	12.2254
223.67	10.1474
227.044	8.48606
230.419	7.90665
233.794	9.3581
237.169	5.76545
240.544	8.12609
243.918	6.33995
247.293	5.73563
250.668	5.15926
254.043	4.44158
257.418	2.2325
260.793	0.316124
264.167	0.277824
267.542	0.533806
270.917	0.963539
274.292	0.204193
277.667	1.51921
281.041	4.26959
284.416	5.71748
287.791	5.8274
291.166	6.17009
294.541	10.0119
297.916	9.75143
301.29	9.33164
304.665	9.93823
308.04	8.97767
311.415	9.78106
314.79	9.00365
318.164	7.82359
321.539	6.75053
324.914	5.59475
328.289	5.26031
331.664	0.354103
335.038	0.019722
338.413	0.452003
341.788	0.325165
345.163	0.3582
348.538	1.42786
351.913	0.759399
355.287	1.49373
358.662	2.4139
362.037	1.28866
365.412	3.06266
368.787	1.14132
372.161	2.18798
375.536	1.34024
378.911	1.04691
382.286	1.30001
385.661	0.252598
389.036	3.42683
392.41	3.99982
395.785	4.83378
399.16	6.71988
402.535	8.75314
405.909	8.46909
409.284	13.8479
412.659	15.5098
416.034	19.705
419.409	21.902
422.784	26.1174
426.158	28.0041
429.533	28.9693
432.908	26.1684
436.283	23.6188
439.658	23.0873
443.033	20.5578
446.407	20.7672
449.782	21.3499
453.157	25.8593
456.532	30.4745
459.907	35.5878
463.281	42.0398
466.656	47.4959
470.031	53.8664
473.406	53.2893
476.781	47.4138
480.156	33.0404
483.53	22.1398
486.905	14.6826
490.28	7.49136
493.655	4.99315
497.029	3.3055
500.404	1.63372
503.779	0.828022
507.154	0.547859
510.529	0.870083
513.904	0.610893
517.278	0.545456
520.653	1.00122
524.028	0.620773
527.403	0.693111
530.778	0.693398
534.153	1.27603
537.527	1.37454
540.902	2.12413
544.277	3.22679
547.652	4.16854
551.027	6.72119
554.401	7.69431
557.776	6.7915
561.151	5.7041
564.526	5.06603
567.901	4.32694
571.275	5.28553
574.65	2.64318
578.025	1.13361
581.4	1.91268
584.775	1.10309
588.149	2.50799
591.524	0.477543
594.899	0.398193
598.274	2.1457
601.649	1.84442
605.024	3.36092
608.398	4.30463
611.773	5.08164
615.148	4.71635
618.523	4.65797
621.898	4.38396
625.273	3.32533
628.647	1.13024
632.022	0.906822
635.397	1.82743
638.772	0.222996
642.146	0.574684
645.521	0.487785
648.896	2.64069
652.271	0.393936
655.646	3.09328
659.021	1.4806
662.395	1.66423
665.77	2.00063
669.145	1.58048
672.52	2.49926
675.895	2.49915
679.269	1.39085
682.644	2.08684
686.019	3.63059
689.394	2.73953
692.769	2.52786
696.144	2.55345
699.518	1.76421
702.893	2.78278
706.268	2.37057
709.643	1.85075
713.018	1.85143
716.393	1.79559
719.767	1.0414
723.142	3.27148
726.517	2.14044
729.892	1.81462
733.266	1.57759
736.641	2.36242
740.016	0.38504
743.391	0.114155
746.766	0.870941
750.141	0.348488
753.515	0.504818
756.89	0.826298
760.265	0.616051
763.64	0.009609
767.015	1.96919
770.389	0.181232
773.764	0.661674
777.139	1.69712
780.514	0.589912
783.889	3.34796
787.264	4.9866
790.638	5.93853
794.013	7.18021
797.388	9.57434
800.763	11.1981
804.138	11.124
807.513	12.7448
810.887	12.1793
814.262	14.7015
817.637	15.0751
821.012	15.2217
824.386	16.922
827.761	18.6779
831.136	21.3863
834.511	20.9504
837.886	24.7763
841.261	24.25
844.635	26.8909
848.01	24.793
851.385	23.594
854.76	19.8356
858.135	16.2132
861.51	15.8737
864.884	15.5592
868.259	11.2302
871.634	9.42601
875.009	8.41212
878.384	9.25161
881.758	5.19352
885.133	4.95929
888.508	3.11124
891.883	3.23955
895.258	1.78735
898.632	2.13044
902.007	0.898548
905.382	1.53048
908.757	0.956596
912.132	0.934753
915.506	0.895515
918.881	0.889805
922.256	1.3932
925.631	1.23162
929.006	0.100109
932.381	0.240459
935.755	0.359455
939.13	0.797386
942.505	2.40532
945.88	0.083107
949.255	0.949303
952.63	1.11017
956.004	1.33083
959.379	0.370918
962.754	1.41647
966.129	2.48833
969.504	0.651699
972.878	1.36104
976.253	0.639862
979.628	2.88033
983.003	5.03658
986.378	6.78017
989.752	9.73156
993.127	11.4238
996.502	11.8549
999.877	7.19051
1003.25	4.47377
1006.63	2.09309
1010	1.47037
1013.38	2.35027
1016.75	0.054607
1020.13	1.19442
1023.5	1.45177
1026.88	0.592361
1030.25	1.34896
1033.62	0.38348
1037	0.4944
1040.38	0.922764
1043.75	2.50002
1047.12	1.40291
1050.5	1.85863
1053.87	2.27146
1057.25	3.16201
1060.62	3.19298
1064	2.60172
1067.37	2.17329
1070.75	1.45975
1074.12	3.28617
1077.5	3.05678
1080.87	3.7787
1084.25	3.31348
1087.62	2.90344
1091	3.61885
1094.37	1.66695
1097.75	2.44499
1101.12	2.52115
1104.5	2.5821
1107.87	3.09435
1111.25	2.20421
1114.62	1.92701
1117.99	2.24194
1121.37	1.44019
1124.74	1.56693
1128.12	0.191845
1131.49	1.50818
1134.87	0.217598
1138.24	1.05049
1141.62	1.55984
1144.99	0.010998
1148.37	1.58076
1151.74	2.12081
1155.12	0.103661
1158.49	0.132404
1161.87	2.71444
1165.24	2.54087
1168.62	0.108971
1171.99	1.93563
1175.37	0.346718
1178.74	2.40666
1182.12	1.06959
1185.49	1.29795
1188.87	1.34798
1192.24	0.816097
1195.62	1.52195
1198.99	0.023041
1202.37	0.738529
1205.74	0.334072
1209.12	2.2038
1212.49	0.286827
1215.87	0.926861
1219.24	2.96792
1222.62	2.15356
1225.99	1.5498
1229.36	1.80835
1232.74	0.912579
1236.11	3.56731
1239.49	0.257931
1242.86	2.38941
1246.24	2.34637
1249.61	0.830212
1252.99	1.9698
1256.36	2.11518
1259.74	1.97903
1263.11	4.08272
1266.49	0.858765
1269.86	1.41281
1273.24	1.71985
1276.61	2.17064
1279.99	0.426807
1283.36	1.65388
