Measurement: Raman, 785 nm, unoriented, Raman Data Processed
Mineral: Segnitite
Rruff sample: R070492
Ideal chemistry: Pb^2+^Fe^3+^_3_(As^5+^O_4_)(As^5+^O_3_OH)(OH)_6_
Locality: Capitana mine, Copiap√≥ Province, Atacama Region, Chile
Source: Bob Jenkins
Description: Aggregate of small light green rhombohedral crystals
Raman shift (cm-1)	intensity
154.184	0
157.076	16.79
159.969	251.198
162.862	839.523
165.754	1294.29
168.647	1597.2
171.54	1904.43
174.433	2251.97
177.325	2530.26
180.218	3100.64
183.111	3445.56
186.003	3569.01
188.896	3375.53
191.789	3068.89
194.681	2790.34
197.574	2384.98
200.467	2007
203.359	1690.28
206.252	1470.88
209.145	1128.03
212.038	769.184
214.93	420.595
217.823	278.346
220.716	80.3213
223.608	73.5234
226.501	8.54102
229.394	21.2676
232.286	57.5957
235.179	59.5732
238.072	103.064
240.965	142.555
243.857	248.061
246.75	349.789
249.643	498.897
252.535	573.731
255.428	596.019
258.321	770.474
261.214	870.941
264.106	994.005
266.999	1058.5
269.892	1244.62
272.784	1493.31
275.677	1726.49
278.57	2029.99
281.462	2374.42
284.355	2640.76
287.248	2976.32
290.14	3070.73
293.033	3252.3
295.926	3320.16
298.819	3217.36
301.711	3050.49
304.604	2842.49
307.497	2458.73
310.389	2274.24
313.282	1871.47
316.175	1551.08
319.067	1229.04
321.96	823.768
324.853	667.038
327.746	367.346
330.638	240.797
333.531	124.873
336.424	50.1103
339.316	59.6826
342.209	142.257
345.102	16.8457
347.995	44.7852
350.887	89.125
353.78	109.412
356.673	199.037
359.565	309.054
362.458	240.942
365.351	132.59
368.243	189.398
371.136	160.928
374.029	65.7383
376.921	16.8516
379.814	62.9629
382.707	167.878
385.6	225.301
388.492	457.789
391.385	740.699
394.278	964.376
397.17	1291.5
400.063	1461.92
402.956	1626.23
405.849	2061.92
408.741	2245.39
411.634	2494.31
414.527	2610.06
417.419	2717.03
420.312	2876.56
423.205	2850.18
426.097	2777.8
428.99	2744.53
431.883	2667.66
434.776	2475.66
437.668	2264.14
440.561	2071.83
443.454	1848.08
446.346	1579.38
449.239	1452.9
452.132	1300.51
455.024	1190.28
457.917	1165.87
460.81	1087.84
463.702	1145.92
466.595	1196.29
469.488	1183.28
472.381	1183.82
475.273	1098.58
478.166	986.61
481.059	801.695
483.951	608.112
486.844	437.967
489.737	253.4
492.63	223.011
495.522	124.541
498.415	20.3716
501.308	15.396
504.2	46.6152
507.093	37.9888
509.986	42.602
512.878	17.7529
515.771	51.7334
518.664	15.8174
521.557	33.8306
524.449	70.2974
527.342	102.075
530.235	238.445
533.127	272.828
536.02	318.853
538.913	353.421
541.805	441.903
544.698	492.357
547.591	534.943
550.484	637.879
553.376	668.328
556.269	651.643
559.162	658.452
562.054	612.855
564.947	453.328
567.84	476.793
570.732	437.832
573.625	396.033
576.518	354.152
579.41	285.764
582.303	252.696
585.196	202.209
588.089	209.979
590.981	124.074
593.874	139.848
596.767	127.897
599.659	98.6533
602.552	177.205
605.445	150.18
608.337	164.003
611.23	94.8701
614.123	86.2964
617.016	157.61
619.908	122.203
622.801	130.186
625.694	146.245
628.586	31.4873
631.479	33.2134
634.372	2.85693
637.264	10.5239
640.157	6.96338
643.05	2.92236
645.943	16.2158
648.835	56.5312
651.728	9.59375
654.621	1.52344
657.513	79.6499
660.406	34.3345
663.299	27.4741
666.192	73.2129
669.084	26.7627
671.977	72.0312
674.87	60.5532
677.762	80.6338
680.655	72.1406
683.548	32.4971
686.44	80.9492
689.333	182.526
692.226	94.1587
695.119	105.706
698.011	108.181
700.904	67.0376
703.797	5.46631
706.689	59.1948
709.582	65.7183
712.475	112.184
715.367	189.472
718.26	194.56
721.153	193.997
724.045	181.689
726.938	229.089
729.831	199.09
732.724	175.722
735.616	231.211
738.509	210.987
741.402	201.767
744.294	182.723
747.187	126.272
750.08	135.675
752.972	130.914
755.865	47.957
758.758	1.04785
761.651	13.9556
764.543	27.1777
767.436	49.4517
770.329	75.7026
773.221	63.9546
776.114	6.66309
779.007	8.15332
781.899	90.96
784.792	131.261
787.685	292.423
790.578	351.608
793.47	470.271
796.363	626.001
799.256	720.513
802.148	729.902
805.041	888.486
807.934	933.803
810.827	995.339
813.719	1067.09
816.612	1246.02
819.505	1437.36
822.397	1598.24
825.29	1888.97
828.183	2354.21
831.075	2771.74
833.968	3187.4
836.861	3679.07
839.754	4039.67
842.646	4234.86
845.539	4339.68
848.432	4219.98
851.324	4067.82
854.217	3875.85
857.11	3673.66
860.002	3329.45
862.895	3100.59
865.788	2898.3
868.681	2645.82
871.573	2268.31
874.466	2091.97
877.359	1821.63
880.251	1633.56
883.144	1437.35
886.037	1205.97
888.929	1044.03
891.822	811.743
894.715	737.567
897.607	574.165
900.5	516.172
903.393	445.506
906.286	305.859
909.178	222.477
912.071	220.665
914.964	174.762
917.856	90.9028
920.749	96.6538
923.642	37.1123
926.534	35.5972
929.427	24.0215
932.32	26.1729
935.213	8.65039
938.105	81.978
940.998	16.3867
943.891	45.668
946.783	23.9473
949.676	7.53662
952.569	42.4512
955.462	98.437
958.354	92.4116
961.247	104.326
964.14	244.45
967.032	243.894
969.925	354.283
972.818	450.482
975.71	539.545
978.603	753.899
981.496	820.189
984.389	950.92
987.281	1003.87
990.174	941.292
993.067	804.739
995.959	597.319
998.852	410.377
1001.75	231.685
1004.64	181.93
1007.53	92.5059
1010.42	68.1143
1013.32	6.57519
1016.21	24.4526
1019.1	71.1099
1021.99	0.541504
1024.89	34.0034
1027.78	67.5093
1030.67	48.3765
1033.56	57.1636
1036.46	60.5078
1039.35	86.6592
1042.24	88.1728
1045.13	27.1851
1048.03	57.7344
1050.92	51.7026
1053.81	35.6797
1056.71	92.6689
1059.6	33.73
1062.49	15.5874
1065.38	28.9536
1068.28	67.4155
1071.17	144.697
1074.06	79.7651
1076.95	42.2812
1079.85	108.116
1082.74	70.0708
1085.63	20.7856
1088.53	109.4
1091.42	81.7983
1094.31	52.481
1097.2	85.8818
1100.1	37.0957
1102.99	90.0044
1105.88	66.9775
1108.78	45.6611
1111.67	84.0576
1114.56	66.3857
1117.45	80.1397
1120.35	57.4331
1123.24	43.9155
1126.13	41.8648
1129.02	47.6377
1131.92	25.6245
1134.81	48.2285
1137.7	13.3569
1140.59	48.6909
1143.49	31.2988
1146.38	72.4394
1149.27	88.7515
1152.16	96.3799
1155.06	111.308
1157.95	121.098
1160.84	148.498
1163.74	97.5664
1166.63	70.5327
1169.52	85.7202
1172.41	79.395
1175.31	20.5727
1178.2	39.5591
1181.09	44.6294
1183.98	56.8272
1186.88	3.86816
1189.77	10.8184
1192.66	25.124
1195.56	29.365
1198.45	64.5
1201.34	26.0061
1204.23	22.1572
1207.13	16.5418
1210.02	101.639
1212.91	8.52734
1215.8	61.2568
1218.7	19.7283
1221.59	47.6794
1224.48	34.6233
1227.38	77.9055
1230.27	82.2385
1233.16	51.1484
1236.05	32.6299
1238.95	39.7458
1241.84	79.0801
1244.73	41.3999
1247.62	60.6802
1250.52	66.0842
1253.41	70.051
1256.3	66.9048
