Measurement: Raman, 532 nm, unoriented, Raman Data Processed
Mineral: Segnitite
Rruff sample: R100183
Ideal chemistry: Pb^2+^Fe^3+^_3_(As^5+^O_4_)(As^5+^O_3_OH)(OH)_6_
Locality: Mina Ojuela (Campo Sur), Mapimi, Durango, Mexico
Source: Marcus Origlieri
Description: Greenish-yellow blocky crystals associated with mimetite
Raman shift (cm-1)	intensity
175.888	0
178.78	0.477249
181.673	3.65079
184.566	24.6396
187.459	43.8974
190.351	73.7526
193.244	105.858
196.137	131.404
199.029	143.672
201.922	140.445
204.815	128.768
207.708	111.135
210.6	95.7227
213.493	73.9866
216.386	60.9948
219.278	46.0064
222.171	35.8745
225.064	26.6207
227.956	24.094
230.849	21.415
233.742	15.2253
236.635	14.5719
239.527	15.8585
242.42	19.7145
245.313	17.2736
248.205	18.0391
251.098	15.5664
253.991	11.853
256.884	6.08205
259.776	6.52409
262.669	6.57147
265.562	4.40926
268.454	0.035492
271.347	0.421829
274.24	2.96385
277.132	0.256866
280.025	0.866287
282.918	5.73035
285.81	13.1185
288.703	19.7018
291.596	28.3222
294.489	33.5747
297.381	36.3666
300.274	38.5102
303.167	39.0978
306.059	35.5795
308.952	31.5695
311.845	31.3606
314.738	29.7507
317.63	24.9607
320.523	21.7351
323.416	23.1914
326.308	17.6282
329.201	13.573
332.094	9.19191
334.986	4.74228
337.879	2.37837
340.772	0.92482
343.665	0.57486
346.557	0.480728
349.45	0.674774
352.343	0.006729
355.235	3.56854
358.128	2.36711
361.021	5.42802
363.913	4.9324
366.806	7.78757
369.699	7.70799
372.592	9.15561
375.484	7.42241
378.377	3.79521
381.27	0.684418
384.162	2.26474
387.055	0.124054
389.948	0.204727
392.841	5.70648
395.733	5.99291
398.626	11.203
401.519	15.5525
404.411	21.3164
407.304	25.8233
410.197	34.9818
413.089	42.4799
415.982	61.6841
418.875	76.5968
421.767	94.535
424.66	115.368
427.553	136.783
430.446	152.651
433.338	149.938
436.231	132.521
439.124	119.41
442.017	104.205
444.909	96.5462
447.802	89.4313
450.695	89.5765
453.587	100.424
456.48	109.245
459.373	129.592
462.265	158.991
465.158	204.291
468.051	248.274
470.943	298.913
473.836	336.475
476.729	339.779
479.622	287.794
482.514	208.424
485.407	136.519
488.3	88.2178
491.192	56.4257
494.085	38.725
496.978	25.553
499.87	15.0283
502.763	9.75501
505.656	4.54024
508.549	1.53926
511.441	1.31583
514.334	2.03967
517.227	1.24841
520.119	0.822922
523.012	1.28543
525.905	2.19469
528.798	4.23698
531.69	0.877121
534.583	3.33495
537.476	5.62566
540.368	9.2567
543.261	13.7827
546.154	16.959
549.047	19.1989
551.939	28.725
554.832	28.9751
557.725	30.9014
560.617	30.5763
563.51	29.8496
566.403	26.4629
569.295	24.1521
572.188	24.1213
575.081	15.0922
577.973	14.1796
580.866	10.5575
583.759	9.16417
586.652	5.90149
589.544	7.12518
592.437	5.43651
595.33	3.84738
598.222	7.97436
601.115	5.01063
604.008	6.02269
606.901	9.02635
609.793	14.6547
612.686	20.9754
615.579	27.3153
618.471	31.7733
621.364	30.8039
624.257	28.8634
627.149	19.6204
630.042	10.5952
632.935	4.22051
635.828	0.992767
638.72	0.733093
641.613	0.05603
644.506	0.611237
647.398	0.077209
650.291	0.462631
653.184	0.411545
656.077	2.05232
658.969	2.8083
661.862	1.95972
664.755	3.29713
667.647	0.05162
670.54	5.16916
673.433	3.96587
676.325	4.60167
679.218	5.89584
682.111	5.19459
685.004	7.42726
687.896	7.85522
690.789	7.30246
693.682	7.46965
696.574	8.49838
699.467	7.26427
702.36	8.85346
705.253	8.62264
708.145	7.07796
711.038	9.01872
713.931	5.25021
716.823	5.68338
719.716	7.17975
722.609	5.80618
725.501	7.23135
728.394	7.36902
731.287	6.52461
734.179	5.42805
737.072	4.45999
739.965	5.1317
742.858	2.10605
745.75	1.65303
748.643	0.332581
751.536	1.03178
754.428	2.70633
757.321	3.11296
760.214	0.126251
763.107	0.105499
765.999	2.77924
768.892	0.002518
771.785	1.73697
774.677	1.91966
777.57	1.56409
780.463	4.39072
783.356	7.50223
786.248	12.9676
789.141	18.5913
792.034	26.3823
794.926	31.7987
797.819	39.8999
800.712	45.8421
803.604	52.9578
806.497	58.8265
809.39	60.5949
812.283	63.1457
815.175	67.2404
818.068	66.1337
820.961	72.7152
823.853	76.8287
826.746	82.0815
829.639	85.7359
832.531	94.3783
835.424	106.215
838.317	111.895
841.21	123.001
844.102	131.4
846.995	129.719
849.888	130.58
852.78	123.205
855.673	113.078
858.566	96.6284
861.458	86.2564
864.351	75.9764
867.244	69.3829
870.136	61.5763
873.029	57.0523
875.922	44.646
878.815	40.9967
881.707	36.2918
884.6	31.1944
887.493	27.6529
890.385	22.0181
893.278	19.976
896.171	14.0717
899.064	11.8701
901.956	8.40228
904.849	6.91641
907.742	5.77032
910.634	1.71533
913.527	1.99143
916.42	0.067749
919.312	0.085663
922.205	0.50647
925.098	1.4906
927.991	1.03107
930.883	2.15677
933.776	1.84943
936.669	1.17127
939.562	1.15424
942.454	2.33395
945.347	2.64586
948.24	2.24478
951.132	0.55484
954.025	0.374054
956.918	1.18199
959.81	2.50113
962.703	0.53743
965.596	0.696945
968.489	0.504929
971.381	2.55911
974.274	0.08876
977.167	2.66011
980.059	5.06627
982.952	10.2091
985.845	15.3342
988.737	24.3544
991.63	39.1443
994.523	53.4615
997.415	60.6302
1000.31	53.2304
1003.2	33.2163
1006.09	16.7472
1008.99	5.30544
1011.88	2.95877
1014.77	3.49611
1017.66	2.05083
1020.56	0.888672
1023.45	1.81603
1026.34	1.06567
1029.23	2.29132
1032.13	0.721176
1035.02	3.65537
1037.91	0.291931
1040.81	1.65871
1043.7	2.31515
1046.59	3.78973
1049.48	3.36865
1052.38	5.80591
1055.27	6.86453
1058.16	9.15301
1061.06	7.24783
1063.95	12.7802
1066.84	10.6975
1069.73	12.4074
1072.63	12.2227
1075.52	13.2057
1078.41	12.4125
1081.3	14.7343
1084.2	16.8905
1087.09	15.788
1089.98	14.2596
1092.88	17.0304
1095.77	16.8669
1098.66	17.9081
1101.55	15.8641
1104.45	15.5316
1107.34	12.2559
1110.23	16.0897
1113.12	11.0552
1116.02	9.31238
1118.91	10.0549
1121.8	9.59711
1124.69	6.07227
1127.59	7.13623
1130.48	4.8942
1133.37	4.76325
1136.27	5.29913
1139.16	4.5867
1142.05	4.80847
1144.94	7.30811
1147.84	6.61664
1150.73	7.83365
1153.62	5.81149
1156.51	5.88672
1159.41	7.40201
1162.3	8.61838
1165.19	7.84839
1168.09	4.81601
1170.98	6.35703
1173.87	5.17691
1176.76	7.53439
1179.66	5.90353
1182.55	0.696136
1185.44	5.93991
1188.33	5.2601
1191.23	0.691345
1194.12	1.27591
1197.01	1.06921
1199.9	1.57996
1202.8	0.173859
1205.69	1.08679
1208.58	2.42065
1211.48	0.542633
1214.37	0.095184
1217.26	2.85144
1220.15	1.73621
1223.05	2.08212
1225.94	2.87271
1228.83	3.06302
1231.72	2.27927
1234.62	2.55112
1237.51	4.98865
1240.4	0.812469
1243.3	2.45078
1246.19	1.08505
1249.08	2.28699
1251.97	5.81216
1254.87	3.17136
1257.76	2.72842
1260.65	4.05957
1263.54	3.34039
1266.44	0.490417
1269.33	2.59674
1272.22	4.4769
1275.12	3.90408
1278.01	3.77109
1280.9	4.55841
1283.79	4.49634
1286.69	1.68903
1289.58	3.39194
1292.47	1.03455
1295.36	2.5401
1298.26	1.08151
1301.15	2.63647
