Measurement: Raman, 532 nm, unoriented, Raman Data Processed
Mineral: Seidozerite
Rruff sample: R130032
Ideal chemistry: (Na,Ca)_4_Mn(Ti,Zr)_2_(Si_2_O_7_)_2_(O,F,OH)_4_
Locality: Suoluaiv Mountain, Lovozero alkaline massif, Kola Peninsula, Murmanskaja Oblast', Northern Region, Russia
Source: Don Doell
Description: Radiating reddish-brown bladed crystals
Raman shift (cm-1)	intensity
187.713	0
190.606	10.0187
193.499	59.8332
196.392	88.3607
199.284	101.398
202.177	104.75
205.07	98.5202
207.962	92.79
210.855	100.51
213.748	102.042
216.64	90.1938
219.533	69.2526
222.426	55.5717
225.319	47.8107
228.211	51.8676
231.104	70.2251
233.997	92.4273
236.889	131.547
239.782	183.702
242.675	238.489
245.567	294.788
248.46	353.131
251.353	406.149
254.245	434.789
257.138	407.877
260.031	335.044
262.924	251.884
265.816	184.023
268.709	139.834
271.602	113.02
274.494	93.6768
277.387	78.2059
280.28	65.8898
283.173	51.4952
286.065	40.883
288.958	38.373
291.851	38.7631
294.743	37.4521
297.636	44.7781
300.529	52.4602
303.421	56.4274
306.314	50.4894
309.207	45.1741
312.099	33.4177
314.992	23.5455
317.885	15.1519
320.778	8.36914
323.67	2.22369
326.563	0.027191
329.456	5.98816
332.348	7.74637
335.241	9.47189
338.134	5.27756
341.027	4.04269
343.919	0.582275
346.812	3.62058
349.705	3.95755
352.597	3.96542
355.49	6.76697
358.383	8.82867
361.276	11.0805
364.168	17.8474
367.061	23.263
369.954	31.0131
372.846	36.7628
375.739	44.4766
378.632	50.6129
381.524	55.7176
384.417	56.6643
387.31	52.9855
390.202	48.5002
393.095	41.7379
395.988	35.7392
398.881	34.9454
401.773	41.1494
404.666	50.317
407.559	63.0207
410.451	73.8852
413.344	84.3333
416.237	90.293
419.13	97.7052
422.022	109.704
424.915	131.92
427.808	151.716
430.7	176.575
433.593	206.996
436.486	239.592
439.378	272.472
442.271	293.319
445.164	282.611
448.057	235.111
450.949	172.716
453.842	112.073
456.735	63.4498
459.627	33.6199
462.52	12.6137
465.413	1.02292
468.305	4.80414
471.198	3.20386
474.091	6.63989
476.983	21.9527
479.876	43.26
482.769	66.0675
485.662	91.3585
488.554	109.989
491.447	116.813
494.34	113.723
497.232	96.2893
500.125	82.1624
503.018	69.083
505.911	55.2303
508.803	46.3313
511.696	38.0824
514.589	25.2307
517.481	17.385
520.374	10.1105
523.267	6.5318
526.159	1.59784
529.052	1.17969
531.945	1.08118
534.837	1.1423
537.73	0.910583
540.623	0.654175
543.516	4.89789
546.408	12.0827
549.301	23.2804
552.194	43.0855
555.086	66.8286
557.979	93.0763
560.872	108.408
563.764	114.221
566.657	107.747
569.55	95.3159
572.443	85.7863
575.335	73.1526
578.228	66.7448
581.121	63.1091
584.013	63.9694
586.906	66.5624
589.799	62.2814
592.692	61.8657
595.584	57.4098
598.477	46.2521
601.37	30.7492
604.262	11.051
607.155	0.123627
610.048	11.8563
612.94	12.7627
615.833	4.056
618.726	11.0859
621.619	32.8704
624.511	56.0125
627.404	80.2228
630.297	101.694
633.189	115.099
636.082	123.003
638.975	123.081
641.867	119.158
644.76	119.335
647.653	118.812
650.545	122.291
653.438	128.175
656.331	139.701
659.224	149.541
662.116	159.661
665.009	164.357
667.902	161.412
670.794	146.051
673.687	127.387
676.58	112.005
679.472	98.2022
682.365	88.2631
685.258	76.0031
688.151	72.6437
691.043	69.6619
693.936	67.8288
696.829	63.5371
699.721	63.0907
702.614	58.2729
705.507	55.7789
708.399	55.1463
711.292	54.5039
714.185	51.1454
717.078	48.1461
719.97	51.9264
722.863	52.2175
725.756	51.1252
728.648	53.6112
731.541	53.8634
734.434	56.7802
737.327	57.0447
740.219	56.2937
743.112	54.6814
746.005	53.1075
748.897	48.838
751.79	44.5908
754.683	37.164
757.575	33.6035
760.468	28.6886
763.361	23.5656
766.254	17.22
769.146	14.744
772.039	8.92023
774.932	6.24805
777.824	1.07629
780.717	0.513458
783.61	3.53293
786.502	1.20831
789.395	3.51776
792.288	1.85715
795.181	1.95245
798.073	2.98605
800.966	4.08176
803.859	3.67755
806.751	3.07163
809.644	2.38715
812.537	3.30688
815.429	1.39175
818.322	0.596252
821.215	6.3038
824.107	6.91528
827	12.7305
829.893	23.4507
832.786	34.1658
835.678	51.8672
838.571	73.3824
841.464	97.6375
844.356	130.301
847.249	165.32
850.142	210.254
853.034	265.707
855.927	327
858.82	385.908
861.713	435.511
864.605	456.056
867.498	447.764
870.391	409.131
873.283	364.654
876.176	327.505
879.069	312.285
881.962	319.457
884.854	343.866
887.747	371.495
890.64	389.817
893.532	386.1
896.425	362.553
899.318	328.894
902.21	288.552
905.103	255.443
907.996	223.87
910.889	196.987
913.781	171.092
916.674	158.579
919.567	147.776
922.459	144.668
925.352	145.108
928.245	150.569
931.137	151.395
934.03	153.061
936.923	148.629
939.816	132.939
942.708	111.31
945.601	85.8212
948.494	57.5124
951.386	34.9287
954.279	19.3899
957.172	6.7204
960.064	0.477875
962.957	1.97473
965.85	5.949
968.742	4.58829
971.635	4.51755
974.528	3.81924
977.421	1.02173
980.313	1.60202
983.206	4.4212
986.099	6.8259
988.991	11.1372
991.884	18.4706
994.777	21.1387
997.669	25.3258
1000.56	25.1269
1003.46	21.3628
1006.35	19.4433
1009.24	19.0027
1012.13	21.8133
1015.03	23.3468
1017.92	27.4689
1020.81	31.2872
1023.7	34.4022
1026.6	40.3577
1029.49	45.8015
1032.38	48.8388
1035.28	52.8722
1038.17	50.1838
1041.06	46.9719
1043.95	44.8048
1046.85	36.9861
1049.74	30.4977
1052.63	22.0644
1055.52	13.4561
1058.42	9.21054
1061.31	2.17355
1064.2	0.025452
1067.09	0.133392
1069.99	0.94574
1072.88	0.55484
1075.77	3.49445
1078.66	6.90561
1081.56	11.3141
1084.45	17.5774
1087.34	24.1633
1090.24	28.2553
1093.13	33.7553
1096.02	35.2632
1098.91	41.483
1101.81	42.888
1104.7	40.9611
1107.59	40.7505
1110.48	37.6454
1113.38	35.1073
1116.27	29.6939
1119.16	25.4218
1122.06	22.0105
1124.95	16.154
1127.84	11.5761
1130.73	7.18295
1133.63	7.3389
1136.52	4.53256
1139.41	2.21631
1142.3	0.096313
1145.2	0.49585
1148.09	0.628662
1150.98	0.874878
1153.88	0.48587
1156.77	0.58139
1159.66	0.16449
1162.55	1.48312
1165.45	2.45962
1168.34	2.33035
1171.23	4.37503
1174.12	6.06451
1177.02	5.22751
1179.91	8.12073
1182.8	6.3389
1185.69	6.52747
1188.59	6.98956
1191.48	7.57163
1194.37	8.36499
1197.27	9.24042
1200.16	8.79968
1203.05	7.71149
1205.94	8.68308
1208.84	8.33838
1211.73	4.84848
1214.62	3.95538
1217.52	2.88467
1220.41	3.53171
1223.3	4.45456
1226.19	0.255432
1229.09	1.6633
1231.98	2.11743
1234.87	3.63898
1237.76	0.65976
1240.66	1.17157
1243.55	0.037567
1246.44	1.42813
1249.33	0.411957
1252.23	2.49851
1255.12	2.16467
1258.01	1.5766
1260.9	3.38559
1263.8	3.86948
1266.69	3.17658
1269.58	3.98373
1272.48	1.38449
1275.37	1.82044
1278.26	1.8551
1281.15	2.18814
1284.05	3.89392
1286.94	1.77093
1289.83	1.96811
1292.72	0.970734
1295.62	0.145538
1298.51	0.944946
1301.4	0.41571
