Measurement: Raman, 780 nm, unoriented, Raman Data Processed
Mineral: Seidozerite
Rruff sample: R130032
Ideal chemistry: (Na,Ca)_4_Mn(Ti,Zr)_2_(Si_2_O_7_)_2_(O,F,OH)_4_
Locality: Suoluaiv Mountain, Lovozero alkaline massif, Kola Peninsula, Murmanskaja Oblast', Northern Region, Russia
Source: Don Doell
Description: Radiating reddish-brown bladed crystals
Raman shift (cm-1)	intensity
124.948	0
128.322	0.12085
131.697	4.927
135.072	4.51794
138.447	1.33044
141.822	4.78137
145.197	13.3348
148.571	57.7213
151.946	119.418
155.321	186.915
158.696	215.567
162.071	226.312
165.446	246.975
168.82	256.983
172.195	247.772
175.57	244.204
178.945	232.68
182.32	211.624
185.694	198.189
189.069	181.455
192.444	168.93
195.819	163.944
199.194	165.626
202.569	178.691
205.943	180.209
209.318	176.344
212.693	168.163
216.068	143.683
219.442	116.452
222.817	106.199
226.192	105.196
229.567	128.649
232.942	157.601
236.317	211.621
239.691	262.658
243.066	336.354
246.441	412.151
249.816	470.827
253.191	491.68
256.565	428.322
259.94	314.708
263.315	209.726
266.69	144.816
270.065	108.166
273.44	79.6312
276.814	51.9592
280.189	24.3485
283.564	6.87097
286.939	4.58106
290.314	10.0023
293.688	9.61194
297.063	6.82227
300.438	16.533
303.813	27.6567
307.188	28.9457
310.562	14.0828
313.937	6.45435
317.312	0.744141
320.687	2.19177
324.062	3.65881
327.437	0.827637
330.811	4.14526
334.186	10.4938
337.561	18.7447
340.936	23.5673
344.311	33.2444
347.685	32.3286
351.06	33.2795
354.435	34.8752
357.81	40.3261
361.185	52.7228
364.56	53.9683
367.934	61.8682
371.309	61.6324
374.684	65.0942
378.059	61.0212
381.434	62.247
384.808	58.0694
388.183	50.5699
391.558	46.6885
394.933	43.1118
398.308	46.7039
401.683	53.9185
405.057	64.3052
408.432	70.2964
411.807	75.4198
415.182	72.0254
418.557	71.1171
421.931	76.8282
425.306	79.3294
428.681	83.8536
432.056	94.2113
435.431	106.941
438.805	112.808
442.18	114.008
445.555	101.448
448.93	73.6752
452.305	41.8337
455.68	20.0316
459.054	6.70093
462.429	4.94745
465.804	7.66522
469.179	3.82507
472.554	7.22406
475.928	21.6664
479.303	41.323
482.678	64.6471
486.053	81.1193
489.428	98.8167
492.803	92.9551
496.177	82.1139
499.552	69.7725
502.927	57.4772
506.302	47.5065
509.677	42.9921
513.051	35.1172
516.426	29.6719
519.801	23.5246
523.176	20.801
526.551	13.631
529.926	11.0238
533.3	3.71472
536.675	0.678467
540.05	0.000244
543.425	1.01947
546.799	3.51013
550.174	18.5714
553.549	35.0393
556.924	53.4943
560.299	61.2953
563.674	61.7259
567.048	54.7622
570.423	44.1756
573.798	35.7075
577.173	34.8708
580.548	35.1832
583.923	40.7434
587.297	45.6546
590.672	45.1032
594.047	46.9338
597.422	38.1639
600.797	25.2789
604.171	4.60724
607.546	9.31592
610.921	8.87286
614.296	1.05884
617.671	19.6261
621.045	43.8248
624.42	72.3197
627.795	93.6346
631.17	110.08
634.545	117.753
637.919	117.118
641.294	113.541
644.669	108.918
648.044	104.831
651.419	103.321
654.794	106.827
658.168	107.565
661.543	108.442
664.918	104.64
668.293	91.1282
671.668	78.7944
675.043	66.7407
678.417	51.4117
681.792	44.2085
685.167	37.6916
688.542	35.1286
691.917	30.6789
695.291	28.0245
698.666	23.6611
702.041	21.5767
705.416	20.535
708.791	20.8185
712.165	16.4496
715.54	16.6231
718.915	17.8928
722.29	20.7493
725.665	21.1125
729.039	22.6462
732.414	23.976
735.789	26.6456
739.164	27.2316
742.539	26.0734
745.914	22.856
749.288	20.1419
752.663	18.0663
756.038	13.6385
759.413	11.7624
762.788	8.95981
766.163	8.05637
769.537	4.00781
772.912	4.2467
776.287	0.058655
779.662	1.38269
783.037	1.29996
786.411	0.077728
789.786	1.72031
793.161	0.176727
796.536	1.77441
799.911	1.91254
803.285	0.704071
806.66	0.847198
810.035	1.7196
813.41	1.01416
816.785	2.28876
820.159	4.72723
823.534	6.47266
826.909	9.88443
830.284	16.8828
833.659	20.4472
837.034	28.6897
840.408	40.7916
843.783	52.6393
847.158	70.0472
850.533	91.1139
853.908	113.547
857.283	137.702
860.657	156.509
864.032	167.213
867.407	158.802
870.782	142.751
874.157	125.611
877.531	113.861
880.906	115.76
884.281	126.501
887.656	136.099
891.031	139.091
894.405	133.727
897.78	121.614
901.155	103.998
904.53	88.3576
907.905	76.816
911.279	69.0918
914.654	64.7642
918.029	64.4948
921.404	68.2447
924.779	73.8205
928.154	79.8329
931.528	86.0435
934.903	80.4394
938.278	73.5433
941.653	60.4191
945.028	48.2861
948.403	28.9544
951.777	15.848
955.152	9.74365
958.527	2.61951
961.902	0.546967
965.277	0.29895
968.651	2.81824
972.026	3.55521
975.401	2.39017
978.776	0.332153
982.151	1.75397
985.525	0.195374
988.9	4.40405
992.275	6.75076
995.65	8.19675
999.025	11.3646
1002.4	10.5442
1005.77	10.9343
1009.15	11.1623
1012.52	12.8852
1015.9	16.9589
1019.27	20.7387
1022.65	22.5587
1026.02	29.7913
1029.4	32.4798
1032.77	32.9605
1036.15	37.8943
1039.52	39.4565
1042.9	41.4871
1046.27	37.7708
1049.65	34.9239
1053.02	29.6893
1056.4	22.145
1059.77	15.4101
1063.15	7.76062
1066.52	0.922516
1069.9	2.76654
1073.27	0.676147
1076.64	1.49841
1080.02	0.370972
1083.39	1.41104
1086.77	0.355927
1090.14	0.353943
1093.52	2.77957
1096.89	0.682129
1100.27	3.27862
1103.64	1.84949
1107.02	2.76294
1110.39	4.75421
1113.77	3.45715
1117.14	4.19104
1120.52	6.35236
1123.89	11.7139
1127.27	18.7299
1130.64	17.5577
1134.02	23.0694
1137.39	28.3434
1140.77	33.103
1144.14	37.1222
1147.52	42.0825
1150.89	42.5621
1154.27	43.3656
1157.64	41.8644
1161.02	40.0095
1164.39	36.3449
1167.77	28.5761
1171.14	24.9034
1174.52	19.2339
1177.89	10.3842
1181.27	4.66205
1184.64	4.26623
1188.01	0.295166
1191.39	1.29657
1194.76	0.931335
1198.14	4.04565
1201.51	6.02673
1204.89	8.49475
1208.26	11.0695
1211.64	13.678
1215.01	23.3727
1218.39	24.7399
1221.76	29.8855
1225.14	32.2905
1228.51	25.2437
1231.89	21.353
1235.26	17.5289
1238.64	10.1466
1242.01	1.61285
1245.39	0.947937
1248.76	1.42761
1252.14	3.95367
1255.51	7.24921
1258.88	6.72046
1262.26	8.63629
1265.63	7.51788
1269.01	8.97266
1272.38	1.99719
1275.76	0.113892
1279.13	2.01782
1282.51	0.0802
