Measurement: Raman, 532 nm, unoriented, Raman Data Processed
Mineral: Sekaninaite
Rruff sample: R061053
Ideal chemistry: Fe^2+^_2_Al_4_Si_5_O_18_
Locality: Dolni Borg, Czechoslovakia
Source: Royal Ontario Museum
Description: Grayish blue massive showing well-developed parting
Measured chemistry: (Fe^2+^_1.67_Mg_0.15_Mn_0.10_[box]_0.07_Ca_0.01_)_Σ=2_Al_4.00_(Si_4.89_Al_0.11_)_Σ=5_(O_17.89_(OH)_0.11_)_Σ=18_ ·Na_0.14_
Raman shift (cm-1)	intensity
109.469	0
112.844	2.95724
116.219	97.9847
119.594	205.892
122.969	440.64
126.343	589.443
129.718	715.675
133.093	542.355
136.468	504.35
139.843	680.691
143.217	817.455
146.592	1097.53
149.967	1386.99
153.342	1401.4
156.717	929.649
160.091	633.683
163.466	523.513
166.841	449.541
170.216	395.831
173.591	317.847
176.965	337.115
180.34	356.714
183.715	305.952
187.09	294.025
190.465	333.517
193.84	330.217
197.214	312.118
200.589	128.319
203.964	14.2195
207.339	7.5116
210.714	29.318
214.089	34.7434
217.463	36.8702
220.838	62.6051
224.213	271.057
227.588	550.381
230.963	966.76
234.337	1151.77
237.712	1253.25
241.087	1016.09
244.462	1036.45
247.837	1713.6
251.212	2815.85
254.586	3395.39
257.961	2065.48
261.336	957.143
264.711	411.783
268.086	146.794
271.46	7.6449
274.835	3.06519
278.21	100.225
281.585	183.716
284.96	320.714
288.334	491.635
291.709	727.477
295.084	785.783
298.459	665.812
301.834	603.996
305.209	591.586
308.583	511.078
311.958	258.579
315.333	112.666
318.708	105.931
322.083	195.836
325.457	376.077
328.832	587.93
332.207	493.312
335.582	224.083
338.957	59.0327
342.332	15.6924
345.706	34.5049
349.081	4.33862
352.456	51.6114
355.831	68.2594
359.205	103.796
362.58	177.084
365.955	167.866
369.33	76.2617
372.705	14.1052
376.08	7.54419
379.454	5.56873
382.829	21.7882
386.204	18.0328
389.579	47.4094
392.954	29.2129
396.329	32.9662
399.703	74.2153
403.078	108.723
406.453	162.679
409.828	257.621
413.203	357.358
416.577	669.48
419.952	759.35
423.327	544.616
426.702	397.397
430.077	303.323
433.452	318.038
436.826	384.323
440.201	477.705
443.576	650.417
446.951	815.618
450.325	804.584
453.7	681.441
457.075	693.812
460.45	686.427
463.825	722.976
467.2	664.727
470.574	678.419
473.949	688.236
477.324	766.091
480.699	812.45
484.074	557.652
487.449	281.149
490.823	136.694
494.198	53.9917
497.573	7.5968
500.948	7.00415
504.323	5.6029
507.697	2.66748
511.072	21.3922
514.447	26.9065
517.822	41.2081
521.197	88.3048
524.572	198.252
527.946	307.475
531.321	520.715
534.696	850.798
538.071	1490.44
541.446	2434.3
544.82	3788.82
548.195	5194.85
551.57	5450.65
554.945	4709.42
558.32	4067.58
561.694	4085.76
565.069	4640.48
568.444	5361.91
571.819	5398.85
575.194	4155.84
578.568	2661.84
581.943	1798.62
585.318	1333.78
588.693	1101.36
592.068	1036.61
595.443	924.246
598.817	831.388
602.192	684.244
605.567	499.636
608.942	313.099
612.317	188.69
615.692	70.1545
619.066	32.858
622.441	16.2929
625.816	18.2504
629.191	11.2543
632.566	1.23377
635.94	29.8269
639.315	47.5498
642.69	127.015
646.065	98.88
649.44	138.57
652.814	241.175
656.189	362.233
659.564	579.554
662.939	798.626
666.314	893.941
669.688	671.133
673.063	385.732
676.438	151.22
679.813	76.7412
683.188	46.2352
686.563	6.49414
689.937	16.2174
693.312	1.27319
696.687	80.6224
700.062	142.448
703.437	166.912
706.812	232.993
710.186	239.788
713.561	294.649
716.936	446.882
720.311	521.315
723.686	601.934
727.06	578.395
730.435	475.033
733.81	418.961
737.185	319.35
740.56	232.727
743.934	154.726
747.309	112.096
750.684	35.5176
754.059	29.3544
757.434	45.1946
760.808	31.9236
764.183	48.8263
767.558	16.8335
770.933	27.8098
774.308	36.0597
777.683	42.5436
781.057	82.7892
784.432	57.796
787.807	19.5288
791.182	57.2134
794.557	62.8854
797.932	43.6425
801.306	39.0303
804.681	48.4569
808.056	30.201
811.431	75.4059
814.806	49.3739
818.18	67.0228
821.555	50.7884
824.93	104.654
828.305	87.6449
831.68	51.8077
835.054	23.2001
838.429	55.5065
841.804	49.0737
845.179	4.85352
848.554	20.3171
851.928	17.9311
855.303	21.7155
858.678	1.30469
862.053	5.31287
865.428	10.9729
868.803	20.5549
872.177	7.77905
875.552	39.515
878.927	72.8428
882.302	174.701
885.677	281.725
889.052	415.512
892.426	507.69
895.801	536.53
899.176	525.129
902.551	474.835
905.926	425.93
909.3	392.255
912.675	287.365
916.05	219.921
919.425	134
922.8	91.3059
926.174	94.9111
929.549	67.1016
932.924	42.4089
936.299	37.8274
939.674	88.6477
943.048	166.902
946.423	346.692
949.798	540.293
953.173	873.836
956.548	1215.77
959.923	1585.77
963.297	1984.94
966.672	2263.4
970.047	2086.43
973.422	1475.04
976.797	969.041
980.172	641.577
983.546	519.723
986.921	477.967
990.296	571.817
993.671	738.735
997.046	1038.14
1000.42	1448.03
1003.79	1819.41
1007.17	2155.8
1010.54	1876.67
1013.92	1181.47
1017.29	697.797
1020.67	405.788
1024.04	216.566
1027.42	117.85
1030.79	24.6067
1034.17	7.94714
1037.54	4.65039
1040.92	9.67615
1044.29	27.4214
1047.67	0.671631
1051.04	5.83215
1054.42	7.76611
1057.79	11.9402
1061.17	25.1472
1064.54	10.7998
1067.92	18.9325
1071.29	52.7056
1074.67	62.8525
1078.04	15.9299
1081.42	20.8136
1084.79	39.5292
1088.17	58.7097
1091.54	61.2229
1094.91	89.4984
1098.29	150.176
1101.66	176.52
1105.04	168.872
1108.41	155.494
1111.79	69.1747
1115.16	56.3278
1118.54	10.2036
1121.91	42.9733
1125.29	64.6612
1128.66	100.34
1132.04	139.567
1135.41	118.621
1138.79	158.058
1142.16	200.53
1145.54	197.526
1148.91	244.222
1152.29	264.632
1155.66	326.516
1159.04	385.053
1162.41	470.32
1165.79	595.454
1169.16	690.056
1172.54	734.677
1175.91	709.707
1179.29	527.242
1182.66	347.628
1186.04	232.155
1189.41	152.134
1192.79	91.2263
1196.16	58.3854
1199.53	30.5858
1202.91	18.4847
1206.28	27.9827
1209.66	30.1915
1213.03	33.6019
1216.41	17.863
1219.78	4.05798
1223.16	19.5743
1226.53	4.75561
1229.91	5.86975
1233.28	31.6761
1236.66	39.7097
1240.03	34.7483
1243.41	24.1956
1246.78	52.671
1250.16	18.4098
1253.53	14.4183
1256.91	20.1647
1260.28	42.8627
1263.66	15.6039
1267.03	27.5551
1270.41	38.0102
1273.78	25.8123
1277.15	21.4744
