Measurement: Raman, 785 nm, unoriented, Raman Data Processed
Mineral: Sekaninaite
Rruff sample: R061053
Ideal chemistry: Fe^2+^_2_Al_4_Si_5_O_18_
Locality: Dolni Borg, Czechoslovakia
Source: Royal Ontario Museum
Description: Grayish blue massive showing well-developed parting
Measured chemistry: (Fe^2+^_1.67_Mg_0.15_Mn_0.10_[box]_0.07_Ca_0.01_)_Σ=2_Al_4.00_(Si_4.89_Al_0.11_)_Σ=5_(O_17.89_(OH)_0.11_)_Σ=18_ ·Na_0.14_
Raman shift (cm-1)	intensity
117.189	0
120.082	4.99654
122.975	2.27226
125.867	32.7181
128.76	176.522
131.653	368.6
134.545	159.696
137.438	43.1492
140.331	79.6118
143.223	194.851
146.116	415.011
149.009	608.74
151.901	706.051
154.794	577.955
157.687	372.266
160.58	253.696
163.472	250.893
166.365	230.755
169.258	218.417
172.15	205.634
175.043	169.953
177.936	146.713
180.828	147.024
183.721	135.188
186.614	108.712
189.507	131.334
192.399	136.247
195.292	135.589
198.185	117.459
201.077	72.3315
203.97	35.7584
206.863	10.1801
209.756	4.96558
212.648	43.9118
215.541	24.9864
218.434	13.0319
221.326	59.769
224.219	86.3171
227.112	162.65
230.004	284.574
232.897	330.89
235.79	401.003
238.683	414.058
241.575	323.388
244.468	423.488
247.361	710.908
250.253	1249.55
253.146	1735.61
256.039	1538.94
258.931	870.196
261.824	443.311
264.717	246.734
267.61	121.257
270.502	50.2783
273.395	41.4849
276.288	34.1797
279.18	51.6309
282.073	75.2029
284.966	159.506
287.858	232.726
290.751	348.298
293.644	428.114
296.536	397.127
299.429	348.615
302.322	326.19
305.215	301.639
308.107	283.064
311	180.782
313.893	54.5573
316.785	25.2668
319.678	24.3322
322.571	84.6434
325.464	121.435
328.356	219.912
331.249	206.891
334.142	129.043
337.034	47.2703
339.927	23.0726
342.82	0.069794
345.712	10.6417
348.605	3.79224
351.498	4.46246
354.39	16.8232
357.283	35.5623
360.176	62.0041
363.069	100.37
365.961	87.378
368.854	41.0702
371.747	7.95569
374.639	13.5683
377.532	3.22281
380.425	10.6212
383.317	12.2753
386.21	11.4556
389.103	2.1633
391.996	20.1351
394.888	22.1627
397.781	11.0014
400.674	20.4488
403.566	41.8368
406.459	45.0411
409.352	80.9515
412.245	129.927
415.137	218.621
418.03	288.639
420.923	282.166
423.815	205.288
426.708	138.288
429.601	100.804
432.493	86.696
435.386	91.4083
438.279	92.5288
441.171	148.343
444.064	203.024
446.957	238.768
449.85	237.647
452.742	207.585
455.635	195.927
458.528	196.464
461.42	222.408
464.313	223.314
467.206	225.787
470.098	212.637
472.991	209.398
475.884	245.955
478.777	239.62
481.669	229.041
484.562	155.898
487.455	99.6274
490.347	55.8273
493.24	27.9214
496.133	9.8353
499.026	4.33865
501.918	11.4951
504.811	1.11426
507.704	3.69305
510.596	3.54004
513.489	28.268
516.382	22.1857
519.274	38.9345
522.167	75.6188
525.06	95.6441
527.952	129.053
530.845	200.187
533.738	290.69
536.631	478.815
539.523	765.644
542.416	1238.19
545.309	1831.26
548.201	2388.36
551.094	2516.37
553.987	2195.64
556.88	1875.92
559.772	1736.74
562.665	1817.79
565.558	2104.39
568.45	2419.33
571.343	2493.58
574.236	2072.41
577.128	1485.96
580.021	1013.39
582.914	756.498
585.807	609.115
588.699	551.797
591.592	503.215
594.485	463.245
597.377	419.393
600.27	376.196
603.163	279.211
606.055	231.358
608.948	168.664
611.841	110.243
614.734	67.8185
617.626	49.8653
620.519	15.4189
623.412	23.8507
626.304	4.09625
629.197	13.6231
632.09	15.6604
634.982	8.73669
637.875	15.4533
640.768	19.0945
643.66	27.5942
646.553	43.2826
649.446	83.7066
652.339	113.615
655.231	174.49
658.124	277.584
661.017	364.214
663.909	453.225
666.802	498.405
669.695	388.752
672.587	266.433
675.48	180.403
678.373	122.619
681.266	93.6429
684.158	49.5241
687.051	50.3526
689.944	37.6478
692.836	51.1717
695.729	79.3521
698.622	105.528
701.514	96.6152
704.407	112.598
707.3	128.886
710.193	117.691
713.085	127.363
715.978	141.95
718.871	137.295
721.763	153.445
724.656	160.168
727.549	148.305
730.442	103.237
733.334	109.581
736.227	81.1707
739.12	59.1026
742.012	34.0984
744.905	11.1181
747.798	9.6568
750.69	2.73007
753.583	2.09009
756.476	5.77679
759.369	4.58167
762.261	1.05106
765.154	4.53
768.047	1.8801
770.939	3.43448
773.832	14.5897
776.725	6.04187
779.617	22.8624
782.51	28.0137
785.403	27.365
788.295	37.1623
791.188	20.8432
794.081	33.0963
796.974	24.7148
799.866	3.52158
802.759	12.6129
805.652	19.2185
808.544	15.7227
811.437	23.8687
814.33	15.2896
817.222	17.8581
820.115	11.2501
823.008	13.2129
825.901	3.60757
828.793	16.3528
831.686	17.2766
834.579	0.324005
837.471	1.19556
840.364	17.4479
843.257	4.16553
846.149	5.67523
849.042	13.8076
851.935	0.55661
854.827	8.63104
857.72	4.65418
860.613	13.2836
863.506	1.57638
866.398	2.41898
869.291	14.9727
872.184	0.178101
875.076	9.42462
877.969	6.68485
880.862	11.3388
883.755	30.7913
886.647	42.8683
889.54	74.1419
892.433	71.665
895.325	116.368
898.218	119.825
901.111	99.3198
904.003	93.3368
906.896	105.583
909.789	93.2786
912.682	67.8038
915.574	44.7546
918.467	18.8334
921.36	20.4561
924.252	27.4644
927.145	41.3175
930.038	16.7996
932.93	7.44891
935.823	28.1749
938.716	19.3032
941.609	48.1528
944.501	80.3898
947.394	105.025
950.287	153.76
953.179	236.871
956.072	316.498
958.965	433.335
961.857	541.285
964.75	709.147
967.643	785.109
970.535	680.808
973.428	467.852
976.321	347.464
979.214	253.13
982.106	192.777
984.999	187.377
987.892	163.239
990.784	207.884
993.677	253.182
996.57	357.091
999.462	508.926
1002.36	656.643
1005.25	820.115
1008.14	821.576
1011.03	652.632
1013.93	455.57
1016.82	273.608
1019.71	148.391
1022.6	106.094
1025.5	44.4246
1028.39	35.9808
1031.28	17.4081
1034.17	0.320435
1037.07	1.16235
1039.96	1.26889
1042.85	9.56967
1045.75	6.39554
1048.64	3.96979
1051.53	12.1695
1054.42	7.84051
1057.32	12.5176
1060.21	2.88333
1063.1	3.42069
1065.99	13.7108
1068.89	17.8727
1071.78	35.9021
1074.67	21.4374
1077.57	20.2339
1080.46	12.5527
1083.35	2.68298
1086.24	23.5997
1089.14	20.5855
1092.03	14.328
1094.92	40.2937
1097.81	28.261
1100.71	44.2467
1103.6	62.4721
1106.49	42.2525
1109.38	19.449
1112.28	14.2614
1115.17	18.9258
1118.06	19.458
1120.96	28.8004
1123.85	10.3966
1126.74	12.295
1129.63	18.7581
1132.53	34.7108
1135.42	23.8004
1138.31	36.5162
1141.2	49.4729
1144.1	42.9571
1146.99	54.9265
1149.88	54.0405
1152.78	82.3066
1155.67	69.589
1158.56	89.4422
1161.45	115.787
1164.35	127.461
1167.24	138.799
1170.13	187.159
1173.03	198.588
1175.92	161.867
1178.81	142.568
1181.7	101.428
1184.6	67.1061
1187.49	58.7636
1190.38	37.5608
1193.27	18.4938
1196.17	6.12958
1199.06	20.4635
1201.95	1.77387
1204.84	2.79019
1207.74	14.4524
1210.63	20.2148
1213.52	21.8967
1216.41	14.9518
1219.31	16.7578
1222.2	21.8502
1225.09	18.8183
1227.99	14.8194
1230.88	16.9212
1233.77	18.1489
1236.66	18.1912
1239.56	5.45253
1242.45	14.6745
