Measurement: Raman, 780 nm, unoriented, Raman Data Processed
Mineral: Selenium
Rruff sample: R060137
Ideal chemistry: Se
Locality: Grants Uranium District, Valencia County, New Mexico, USA
Source: University of Arizona Mineral Museum
Description: Mass of gray acicular crystals
Measured chemistry: Se
Raman shift (cm-1)	intensity
134.934	0
137.826	78.6074
140.719	263.856
143.612	295.501
146.505	165.261
149.397	78.6754
152.29	21.5646
155.183	4.25758
158.075	8.22835
160.968	12.232
163.861	7.93047
166.753	3.82416
169.646	31.7928
172.539	57.4798
175.431	84.3468
178.324	108.763
181.217	133.366
184.11	152.011
187.002	172.808
189.895	194.89
192.788	234.626
195.68	292.661
198.573	373.721
201.466	472.648
204.358	588.706
207.251	787.812
210.144	1221.09
213.037	2345.4
215.929	3884.35
218.822	5056.48
221.715	6093.94
224.607	7292.87
227.5	9014.18
230.393	11598.2
233.286	14160
236.178	11126.8
239.071	6739.17
241.964	2446.83
244.856	1007.23
247.749	518.978
250.642	329.239
253.534	233.016
256.427	187.107
259.32	152.49
262.212	144.731
265.105	140.487
267.998	149.212
270.891	147.355
273.783	126.772
276.676	97.6299
279.569	65.1041
282.461	40.0092
285.354	27.503
288.247	4.92497
291.139	2.81482
294.032	8.51304
296.925	11.1578
299.817	4.30075
302.71	0.550909
305.603	1.59193
308.496	1.04363
311.388	2.2324
314.281	0.156982
317.174	1.26175
320.066	1.32619
322.959	6.48233
325.852	15.3415
328.745	17.6853
331.637	23.7799
334.53	28.6255
337.423	30.9452
340.315	29.2049
343.208	34.9428
346.101	33.9235
348.993	38.6808
351.886	37.8029
354.779	35.8833
357.671	30.7719
360.564	27.1495
363.457	24.8348
366.35	19.7082
369.242	15.4808
372.135	9.35923
375.028	5.7819
377.92	1.88455
380.813	0.113212
383.706	0.497952
386.599	0.372496
389.491	0.090037
392.384	1.47654
395.277	0.961686
398.169	6.0132
401.062	9.28237
403.955	16.256
406.847	18.63
409.74	24.7106
412.633	30.3581
415.526	48.8763
418.418	71.4267
421.311	104.812
424.204	136.646
427.096	175.053
429.989	222.487
432.882	280.842
435.774	322.843
438.667	342.277
441.56	332.861
444.452	316.847
447.345	308.492
450.238	305.592
453.13	304.287
456.023	288.924
458.916	267.048
461.809	226.958
464.701	183.52
467.594	131.065
470.487	90.6218
473.379	66.0469
476.272	45.241
479.165	28.4365
482.058	21.6081
484.95	13.7709
487.843	9.85157
490.736	8.37801
493.628	5.98246
496.521	3.08311
499.414	0.403375
502.306	1.0792
505.199	0.614461
508.092	1.63018
510.985	1.40413
513.877	1.32754
516.77	0.868359
519.663	0.521139
522.555	0.103267
525.448	0.091096
528.341	0.61491
531.233	1.98108
534.126	0.576044
537.019	0.55275
539.912	1.57877
542.804	3.21783
545.697	2.51258
548.59	2.67158
551.482	3.12903
554.375	2.81739
557.268	2.72377
560.16	4.35761
563.053	5.42827
565.946	2.90797
568.838	1.92961
571.731	3.59731
574.624	2.91695
577.516	3.92509
580.409	2.44701
583.302	2.19934
586.195	4.14811
589.087	3.99591
591.98	3.83336
594.873	3.71585
597.765	2.2731
600.658	1.47713
603.551	0.551836
606.443	1.34421
609.336	0.694467
612.229	1.28218
615.122	1.80142
618.014	3.53439
620.907	1.17941
623.8	2.00502
626.692	1.97681
629.585	0.449965
632.478	0.294537
635.37	1.53767
638.263	2.07666
641.156	1.82826
644.049	0.751897
646.941	3.49949
649.834	0.074857
652.727	0.3041
655.619	0.35385
658.512	0.307397
661.405	2.76941
664.298	3.65275
667.19	3.10788
670.083	3.05043
672.976	4.08821
675.868	3.89546
678.761	2.50281
681.654	3.85933
684.546	4.12741
687.439	5.25722
690.332	3.58575
693.225	2.50526
696.117	2.84105
699.01	2.69705
701.903	2.17074
704.795	3.38251
707.688	3.52448
710.581	0.177731
713.473	0.497739
716.366	0.823344
719.259	0.894874
722.151	1.77941
725.044	1.64047
727.937	0.147885
730.83	1.03156
733.722	1.16678
736.615	1.0489
739.508	2.50991
742.4	2.65428
745.293	2.48537
748.186	2.35319
751.078	0.777994
753.971	0.224622
756.864	0.085067
759.756	0.440714
762.649	1.52333
765.542	0.070388
768.435	1.75104
771.327	2.31396
774.22	0.088888
777.113	2.05167
780.005	2.81565
782.898	3.95631
785.791	1.40761
788.683	1.88131
791.576	1.84886
794.469	3.7205
797.362	2.04046
800.254	3.04362
803.147	3.21012
806.04	1.2578
808.932	0.080663
811.825	3.06991
814.718	0.332887
817.611	1.32669
820.503	2.71919
823.396	0.26865
826.289	0.119807
829.181	1.3631
832.074	3.37562
834.967	3.06142
837.859	0.531621
840.752	0.66305
843.645	0.595315
846.538	2.50325
849.43	2.10114
852.323	0.343309
855.216	1.21732
858.108	2.12168
861.001	1.24567
863.894	3.21379
866.786	2.85036
869.679	2.89223
872.572	1.53927
875.464	6.13021
878.357	1.66076
881.25	0.059243
884.143	2.24804
887.035	1.74174
889.928	3.72045
892.821	3.89654
895.713	2.68552
898.606	2.49101
901.499	2.58206
904.391	1.12097
907.284	0.671807
910.177	0.037827
913.069	0.451136
915.962	0.883937
918.855	1.54055
921.748	0.354898
924.64	1.72665
927.533	0.928347
930.426	1.91046
933.318	2.76062
936.211	2.17526
939.104	0.183823
941.996	0.072684
944.889	2.03561
947.782	0.122068
950.675	0.735835
953.567	1.73356
956.46	0.103566
959.353	3.51813
962.245	2.13547
965.138	1.15347
968.031	2.40736
970.923	1.01384
973.816	1.96386
976.709	0.509982
979.602	0.793385
982.494	2.44631
985.387	0.13394
988.28	1.22325
991.172	0.245891
994.065	0.532993
996.958	0.762405
999.851	0.31905
1002.74	0.54341
1005.64	0.403381
1008.53	2.0679
1011.42	2.64962
1014.31	0.191057
1017.21	3.08457
1020.1	2.40319
1022.99	1.684
1025.88	0.974197
1028.78	0.919785
1031.67	0.908711
1034.56	3.07918
1037.46	2.39026
1040.35	1.71623
1043.24	0.000621
1046.13	1.26568
1049.03	3.68262
1051.92	0.159192
1054.81	2.25478
1057.7	1.17378
1060.6	4.19676
1063.49	2.78816
1066.38	0.01648
1069.28	0.982112
1072.17	2.16233
1075.06	0.62178
1077.95	3.01275
1080.85	1.02745
1083.74	2.76195
1086.63	2.66471
1089.52	1.37962
1092.42	0.472577
1095.31	0.015107
1098.2	1.4307
1101.1	2.98585
1103.99	2.67049
1106.88	0.162193
1109.77	2.73956
1112.67	0.466344
1115.56	0.002046
1118.45	1.28903
1121.34	2.8877
1124.24	3.79715
1127.13	0.740234
1130.02	0.105255
1132.91	1.98103
1135.81	0.410474
1138.7	1.42326
1141.59	5.31598
1144.48	1.71359
1147.38	1.74189
1150.27	2.83391
1153.16	2.23478
1156.06	1.75926
1158.95	2.78657
1161.84	1.23643
1164.73	3.2507
1167.63	1.294
1170.52	0.475767
1173.41	4.24164
1176.31	3.86115
1179.2	0.769428
1182.09	2.26512
1184.98	0.115964
1187.88	1.3789
1190.77	0.724213
1193.66	0.292512
1196.55	2.29398
1199.45	0.687573
1202.34	2.90609
1205.23	0.562225
1208.12	1.16016
1211.02	1.09006
1213.91	2.79362
1216.8	1.44726
1219.7	0.861963
1222.59	1.69093
1225.48	1.41116
1228.37	0.762679
1231.27	0.167805
1234.16	0.923552
1237.05	1.65119
1239.94	0.158267
1242.84	1.73237
1245.73	0.475743
1248.62	1.81655
1251.52	3.1309
1254.41	1.53421
1257.3	1.68862
1260.19	0.251199
1263.09	1.80357
1265.98	3.22548
1268.87	2.1453
1271.76	3.60627
1274.66	0.239189
1277.55	2.27791
1280.44	2.16558
1283.34	1.05665
1286.23	0
