Measurement: Raman, 780 nm, unoriented, Raman Data Processed
Mineral: Selenium
Rruff sample: R050656
Ideal chemistry: Se
Locality: Poison Creek, Valencia County, New Mexico, USA
Source: University of Arizona Mineral Museum
Description: Gray metallic acicular crystals
Measured chemistry: Se
Raman shift (cm-1)	intensity
92.0254	0
95.4002	756.754
98.775	1060.44
102.15	1267.69
105.525	1171.83
108.9	496.248
112.274	46.8848
115.649	90.3525
119.024	277.669
122.399	2064.04
125.773	4475.44
129.148	5626.44
132.523	7644.77
135.898	10338.5
139.273	16433.8
142.648	23054
146.022	12168.5
149.397	3682.86
152.772	656.108
156.147	482.965
159.522	582.703
162.897	318.108
166.271	272.197
169.646	1238.71
173.021	1863.83
176.396	2670.49
179.771	3622.99
183.145	4380.79
186.52	4762.62
189.895	5297.57
193.27	6170.66
196.645	7457.9
200.019	9646.06
203.394	12671
206.769	16698.1
210.144	25689.2
213.519	56830.8
216.893	97851.5
220.268	127235
223.643	160621
227.018	219381
230.393	344742
233.768	486269
237.142	346068
240.517	122268
243.892	37299.6
247.267	16390.6
250.642	8982.79
254.017	6371.89
257.391	4798.47
260.766	3999.86
264.141	3776.94
267.516	3892.3
270.891	4188.52
274.265	4098.73
277.64	3144.44
281.015	2184.8
284.39	1457.68
287.765	892.446
291.139	427.458
294.514	260.734
297.889	7.85864
301.264	297.725
304.639	215.315
308.014	90.53
311.388	181.69
314.763	191.467
318.138	38.8455
321.513	3.27734
324.888	177.062
328.262	239.852
331.637	346.59
335.012	487.099
338.387	428.982
341.762	589.437
345.137	573.722
348.511	608.953
351.886	770.709
355.261	637.797
358.636	763.278
362.01	539.925
365.385	582.008
368.76	494.57
372.135	188.901
375.51	267.606
378.885	100.375
382.259	37.457
385.634	52.224
389.009	23.1322
392.384	35.4672
395.759	55.4878
399.134	65.0984
402.508	172.123
405.883	257.542
409.258	348.81
412.633	468.711
416.008	643.563
419.382	1126.27
422.757	1642.52
426.132	2343.94
429.507	3238.64
432.882	4648.49
436.257	6177.34
439.631	6663.37
443.006	6346.5
446.381	6318.97
449.756	6557.03
453.13	6723.78
456.505	6808.58
459.88	6338.11
463.255	5149.1
466.63	3806.66
470.005	2484.45
473.379	1659.53
476.754	1081.34
480.129	741.761
483.504	514.86
486.879	378.168
490.253	174.233
493.628	161.656
497.003	102.196
500.378	84.8712
503.753	33.5516
507.128	188.984
510.502	170.645
513.877	77.8226
517.252	84.0729
520.627	47.4691
524.002	35.4468
527.376	30.7681
530.751	15.3189
534.126	38.8966
537.501	18.21
540.876	80.2847
544.25	29.3663
547.625	79.2467
551	130.989
554.375	118.589
557.75	143.185
561.125	91.4329
564.499	42.2246
567.874	222.563
571.249	183.619
574.624	95.6638
577.999	92.7454
581.374	184.468
584.748	76.5938
588.123	182.436
591.498	101.433
594.873	34.6236
598.248	149.76
601.622	114.764
604.997	98.8855
608.372	90.8178
611.747	184.678
615.122	130.273
618.496	155.141
621.871	129.406
625.246	126.775
628.621	185.345
631.996	174.713
635.37	50.8915
638.745	48.9113
642.12	85.9416
645.495	46.3895
648.87	110.432
652.245	13.7972
655.619	19.9776
658.994	104.063
662.369	28.5294
665.744	176.719
669.119	67.6851
672.494	94.3687
675.868	95.7394
679.243	252.39
682.618	86.0628
685.993	100.436
689.368	137.934
692.742	71.6929
696.117	103.117
699.492	117.45
702.867	89.9266
706.242	58.4527
709.616	129.373
712.991	62.6368
716.366	121.463
719.741	74.7729
723.116	136.148
726.49	112.349
729.865	10.2698
733.24	21.5275
736.615	2.21484
739.99	104.906
743.365	33.2869
746.739	63.794
750.114	85.9042
753.489	149.096
756.864	57.0084
760.239	90.1801
763.614	128.736
766.988	119.227
770.363	119.375
773.738	82.949
777.113	93.4962
780.487	70.2647
783.862	116.743
787.237	36.9401
790.612	168.588
793.987	72.9897
797.362	92.6758
800.736	38.7433
804.111	77.4742
807.486	150.875
810.861	74.6104
814.236	103.936
817.611	2.3891
820.985	88.8549
824.36	130.493
827.735	29.6962
831.11	117.773
834.485	38.924
837.859	84.9266
841.234	32.9717
844.609	90.7704
847.984	22.4777
851.359	127.919
854.734	171.03
858.108	150.986
861.483	16.0429
864.858	78.6775
868.233	41.3757
871.607	104.465
874.982	194.894
878.357	90.2877
881.732	17.1655
885.107	68.7516
888.482	146.254
891.856	44.821
895.231	8.18939
898.606	67.9202
901.981	36.6018
905.356	65.5495
908.731	171.562
912.105	99.5427
915.48	159.393
918.855	230.018
922.23	43.7927
925.605	184.37
928.979	81.4949
932.354	119.153
935.729	98.4817
939.104	176.867
942.479	105.98
945.854	33.0973
949.228	79.9327
952.603	101.503
955.978	37.6422
959.353	41.4074
962.727	90.2751
966.102	10.9043
969.477	133.349
972.852	162.667
976.227	43.3119
979.602	106.373
982.976	51.253
986.351	144.058
989.726	7.34076
993.101	30.7852
996.476	99.4991
999.851	124.492
1003.23	182.89
1006.6	99.6082
1009.98	31.4679
1013.35	113.761
1016.73	96.1328
1020.1	142.22
1023.47	73.4901
1026.85	42.3204
1030.22	147.899
1033.6	38.0865
1036.97	28.8402
1040.35	151.674
1043.72	141.438
1047.1	93.6661
1050.47	62.6927
1053.85	39.2556
1057.22	9.24646
1060.6	135.374
1063.97	62.1962
1067.35	83.5263
1070.72	85.8964
1074.1	132.75
1077.47	218.524
1080.85	92.8587
1084.22	42.8416
1087.6	10.4848
1090.97	78.6315
1094.35	101.859
1097.72	134.044
1101.1	119.793
1104.47	41.3607
1107.84	141.96
1111.22	49.9461
1114.59	140.425
1117.97	96.5922
1121.34	93.6179
1124.72	96.1314
1128.09	118.465
1131.47	81.3764
1134.84	80.868
1138.22	178.456
1141.59	158.956
1144.97	1.78101
1148.34	127.235
1151.72	9.25043
1155.09	60.4714
1158.47	63.1227
1161.84	102.646
1165.22	82.1761
1168.59	184.003
1171.97	59.3626
1175.34	81.1445
1178.72	54.7829
1182.09	40.5022
1185.46	71.1558
1188.84	204.416
1192.21	143.079
1195.59	143.028
1198.96	95.2997
1202.34	133.25
1205.71	165.659
1209.09	79.1432
1212.46	23.3265
1215.84	75.5302
1219.21	161.285
1222.59	121.025
1225.96	143.762
1229.34	119.313
1232.71	122.738
1236.09	104.402
1239.46	135.242
1242.84	80.7618
1246.21	198.595
1249.59	170.4
1252.96	8.65567
1256.34	169.881
1259.71	72.8987
1263.09	211.782
1266.46	24.7159
1269.84	128.71
1273.21	221.002
1276.59	78.1835
1279.96	83.505
1283.34	170.989
