Measurement: Raman, 780 nm, unoriented, Raman Data Processed
Mineral: Seligmannite
Rruff sample: R100189
Ideal chemistry: CuPbAsS_3_
Locality: Palomo mine, Huancavelica Department, Peru
Source: William W. Pinch
Description: Black short prismatic crystals on galena associated with quartz and sphalerite
Raman shift (cm-1)	intensity
127.728	0
131.103	1.19872
134.478	0.153507
137.853	1.90987
141.228	1.00156
144.602	1.26067
147.977	1.16878
151.352	0.47226
154.727	1.71719
158.102	0.466095
161.477	4.26895
164.851	4.09794
168.226	5.43497
171.601	10.2711
174.976	13.6697
178.351	21.2894
181.726	28.7776
185.1	32.5272
188.475	36.5888
191.85	39.1947
195.225	35.8882
198.6	30.9963
201.974	24.5347
205.349	19.9703
208.724	10.4905
212.099	11.298
215.474	8.0178
218.848	7.50654
222.223	2.71513
225.598	3.32186
228.973	2.88169
232.348	4.98153
235.722	3.66471
239.097	2.28174
242.472	2.53932
245.847	1.762
249.222	0.752865
252.597	0.601795
255.971	0.810043
259.346	0.882397
262.721	1.25307
266.096	0.074448
269.471	1.04765
272.846	0.307735
276.22	0.390182
279.595	1.65596
282.97	2.24355
286.345	4.80507
289.719	4.28814
293.094	5.15805
296.469	7.75914
299.844	10.5119
303.219	15.6077
306.594	20.6286
309.968	28.5252
313.343	38.1099
316.718	46.0816
320.093	48.5632
323.468	50.6573
326.842	45.2534
330.217	38.5754
333.592	34.7187
336.967	34.391
340.342	36.8602
343.717	44.0857
347.091	46.7464
350.466	49.8248
353.841	43.9278
357.216	35.8714
360.591	26.5353
363.965	14.7692
367.34	9.30664
370.715	4.73397
374.09	3.09668
377.465	0.596382
380.839	0.605818
384.214	0.264362
387.589	1.9554
390.964	0.15082
394.339	0.556459
397.714	0.008459
401.088	1.33377
404.463	0.629858
407.838	0.30434
411.213	0.190775
414.588	1.14728
417.962	2.8275
421.337	0.455811
424.712	1.97243
428.087	1.4148
431.462	2.40485
434.837	0.993515
438.211	0.248147
441.586	0.772148
444.961	0.751364
448.336	3.17503
451.711	0.389816
455.085	1.62892
458.46	2.42542
461.835	2.1754
465.21	1.07461
468.585	1.64561
471.959	1.52338
475.334	1.07408
478.709	1.49907
482.084	0.884378
485.459	1.01866
488.834	2.53251
492.208	3.22358
495.583	1.19137
498.958	0.870362
502.333	0.291136
505.708	1.71478
509.082	1.24929
512.457	1.55451
515.832	0.684312
519.207	0.097079
522.582	2.54736
525.957	1.21068
529.331	0.889342
532.706	0.63709
536.081	0.129089
539.456	2.63118
542.831	1.22329
546.205	1.06626
549.58	3.09825
552.955	3.07721
556.33	2.4071
559.705	2.14542
563.08	1.85267
566.454	0.526401
569.829	1.25996
573.204	1.80697
576.579	0.544048
579.954	1.40451
583.328	0.431346
586.703	0.333157
590.078	1.59597
593.453	2.4983
596.828	1.23633
600.202	1.84307
603.577	1.69271
606.952	1.79154
610.327	0.652095
613.702	2.23944
617.077	1.21143
620.451	0.688141
623.826	3.37321
627.201	1.70131
630.576	1.66149
633.951	1.70188
637.325	1.96861
640.7	1.85927
644.075	1.54874
647.45	2.62004
650.825	3.51795
654.199	4.26383
657.574	0.68505
660.949	2.0901
664.324	2.25658
667.699	2.16331
671.073	1.33421
674.448	1.01294
677.823	3.16592
681.198	0.994605
684.573	0.900158
687.948	2.56263
691.322	2.20627
694.697	0.91268
698.072	0.741558
701.447	0.346711
704.822	1.89735
708.197	0.307539
711.571	0.60665
714.946	0.777698
718.321	0.835658
721.696	0.76542
725.071	1.6502
728.445	2.52962
731.82	1.33864
735.195	0.068115
738.57	0.051681
741.945	0.863636
745.319	1.74862
748.694	0.129729
752.069	0.504985
755.444	0.544788
758.819	1.11611
762.193	1.45744
765.568	0.996935
768.943	0.019772
772.318	0.025831
775.693	1.75986
779.068	3.03045
782.442	1.16478
785.817	0.090675
789.192	1.7285
792.567	1.40122
795.942	1.86121
799.317	1.16476
802.691	2.28951
806.066	1.58126
809.441	1.60727
812.816	0.834963
816.191	2.35245
819.565	1.49673
822.94	2.49817
826.315	1.72623
829.69	2.53331
833.065	2.52002
836.439	1.33686
839.814	1.37801
843.189	0.859278
846.564	2.70696
849.939	1.65194
853.313	3.05393
856.688	1.91234
860.063	0.657692
863.438	0.872341
866.813	0.839973
870.188	0.929042
873.562	1.25277
876.937	1.04957
880.312	2.82005
883.687	0.037704
887.062	1.74066
890.437	1.03757
893.811	2.3229
897.186	2.249
900.561	2.38043
903.936	1.7787
907.311	0.310894
910.685	0.876376
914.06	1.49422
917.435	0.827279
920.81	2.27641
924.185	1.63432
927.559	0.300426
930.934	1.43545
934.309	1.45987
937.684	1.5131
941.059	1.42344
944.433	0.275024
947.808	0.63842
951.183	1.39063
954.558	0.149778
957.933	0.864573
961.308	1.62225
964.682	0.763159
968.057	2.36812
971.432	1.61392
974.807	0.481173
978.182	1.11654
981.557	0.461889
984.931	0.634757
988.306	1.99351
991.681	3.02731
995.056	2.92816
998.431	3.12872
1001.8	0.71691
1005.18	1.88195
1008.55	1.24132
1011.93	0.632448
1015.3	1.18104
1018.68	1.8136
1022.05	0.051719
1025.43	0.483604
1028.8	0.920804
1032.18	2.09133
1035.55	0.148196
1038.93	1.69792
1042.3	1.99175
1045.68	3.01007
1049.05	1.45063
1052.43	0.677609
1055.8	0.0419
1059.18	1.20871
1062.55	0.656544
1065.93	0.221581
1069.3	1.65603
1072.68	0.270376
1076.05	2.55726
1079.43	0.721537
1082.8	1.1815
1086.18	1.72921
1089.55	1.0074
1092.92	2.02826
1096.3	2.07294
1099.67	0.791305
1103.05	2.60768
1106.42	1.28889
1109.8	1.72364
1113.17	3.19121
1116.55	2.37902
1119.92	2.39543
1123.3	1.80962
1126.67	0.613455
1130.05	2.03616
1133.42	0.700336
1136.8	2.87995
1140.17	1.67018
1143.55	2.57244
1146.92	2.45354
1150.3	2.23584
1153.67	1.74551
1157.05	2.29038
1160.42	1.63361
1163.8	1.26207
1167.17	1.91086
1170.55	2.21433
1173.92	1.53764
1177.3	1.98692
1180.67	1.32541
1184.05	0.429099
1187.42	1.42685
1190.8	1.38835
1194.17	2.13022
1197.55	0.876003
1200.92	2.20219
1204.29	0.304677
1207.67	0.804225
1211.04	1.01293
1214.42	1.76472
1217.79	1.24948
1221.17	2.82881
1224.54	2.26356
1227.92	3.98877
1231.29	1.71617
1234.67	1.48729
1238.04	3.37666
1241.42	1.71679
1244.79	1.81912
1248.17	1.18077
1251.54	1.36683
1254.92	0.242357
1258.29	1.65193
1261.67	1.21351
1265.04	2.08213
1268.42	2.50352
1271.79	1.85897
1275.16	0.80389
1278.54	1.6878
1281.91	1.48332
