Measurement: Raman, 532 nm, unoriented, Raman Data Processed
Mineral: Seligmannite
Rruff sample: R090037
Ideal chemistry: CuPbAsS_3_
Locality: Quiruvilca, La Libertad Department, Peru
Source: Marcus Origlieri
Description: Striated silver-grey short prismatic crystals on matrix
Raman shift (cm-1)	intensity
144.148	0
147.523	4.08898
150.898	5.31999
154.273	10.861
157.647	10.2281
161.022	10.4164
164.397	10.2319
167.772	6.82006
171.147	3.92856
174.522	2.13955
177.896	0.746346
181.271	1.14022
184.646	0.076385
188.021	1.84551
191.396	3.8748
194.77	5.58158
198.145	7.95858
201.52	10.2073
204.895	10.142
208.27	9.83633
211.645	8.23901
215.019	5.79879
218.394	2.66105
221.769	1.18724
225.144	0.243279
228.519	0.63195
231.893	0.193749
235.268	0.348318
238.643	0.577267
242.018	1.00331
245.393	0.420486
248.768	0.686707
252.142	0.369297
255.517	0.234467
258.892	0.397797
262.267	1.02281
265.642	0.050549
269.017	1.24274
272.391	1.91002
275.766	1.74648
279.141	0.994484
282.516	3.47593
285.891	3.35193
289.265	3.95962
292.64	4.37864
296.015	7.61512
299.39	9.0983
302.765	11.7581
306.14	14.1006
309.514	16.3415
312.889	19.5503
316.264	23.3845
319.639	23.2639
323.014	21.3622
326.389	21.7982
329.763	27.834
333.138	28.7462
336.513	23.9098
339.888	17.2662
343.263	15.2648
346.637	16.9181
350.012	20.5269
353.387	26.6291
356.762	35.4765
360.137	38.0019
363.512	27.9683
366.886	17.2534
370.261	9.65576
373.636	5.8655
377.011	3.73679
380.386	2.37155
383.76	1.35044
387.135	0.832817
390.51	0.666908
393.885	0.589548
397.26	0.696186
400.635	0.371019
404.009	0.589731
407.384	0.038092
410.759	0.290792
414.134	0.00947
417.509	0.236374
420.884	0.263783
424.258	0.637321
427.633	0.176453
431.008	0.684341
434.383	0.779579
437.758	0.940165
441.132	0.838251
444.507	1.6748
447.882	1.52758
451.257	0.921217
454.632	2.00922
458.007	0.988379
461.381	1.57237
464.756	0.801497
468.131	1.22893
471.506	0.579575
474.881	0.991451
478.255	1.48502
481.63	0.737976
485.005	0.081728
488.38	1.20929
491.755	1.1538
495.13	1.26355
498.504	1.03873
501.879	0.345734
505.254	1.18374
508.629	0.933861
512.004	0.913752
515.379	0.791473
518.753	1.1162
522.128	0.772472
525.503	0.977905
528.878	0.932207
532.253	0.368971
535.627	0.906723
539.002	0.752522
542.377	0.594572
545.752	1.31487
549.127	0.216864
552.501	0.842926
555.876	0.586329
559.251	0.080696
562.626	0.701586
566.001	0.629841
569.376	1.6989
572.75	0.647581
576.125	0.437731
579.5	0.271149
582.875	0.825716
586.25	0.02997
589.625	0.241211
592.999	0.633797
596.374	0.914501
599.749	0.415081
603.124	0.333862
606.499	0.412163
609.874	0.860401
613.248	1.38359
616.623	1.00314
619.998	0.384409
623.373	1.08634
626.748	1.0601
630.122	0.824158
633.497	1.48
636.872	0.902916
640.247	1.63269
643.622	0.968441
646.996	1.19198
650.371	1.54407
653.746	1.05613
657.121	0.013468
660.496	0.818811
663.871	1.08372
667.245	0.919693
670.62	1.38304
673.995	0.995924
677.37	1.25418
680.745	1.12322
684.12	0.816395
687.494	0.369024
690.869	1.43811
694.244	1.37288
697.619	0.061886
700.994	0.853277
704.369	0.004583
707.743	0.861626
711.118	0.332951
714.493	0.889153
717.868	0.594294
721.243	1.39454
724.617	0.80422
727.992	1.1387
731.367	0.623121
734.742	0.865643
738.117	1.58013
741.491	1.01769
744.866	0.423056
748.241	0.673708
751.616	0.737093
754.991	1.06093
758.366	0.904587
761.74	0.35738
765.115	0.1602
768.49	0.284155
771.865	0.761019
775.24	0.047825
778.615	0.116385
781.989	0.930317
785.364	0.059259
788.739	1.03995
792.114	1.04048
795.489	0.787699
798.864	0.581362
802.238	0.600052
805.613	0.379622
808.988	0.979588
812.363	0.24658
815.737	0.637594
819.112	1.01722
822.487	0.638151
825.862	1.00767
829.237	0.863955
832.612	0.654114
835.986	0.477856
839.361	0.920027
842.736	1.4739
846.111	1.59621
849.486	0.963223
852.861	1.18517
856.235	0.785051
859.61	0.95266
862.985	1.88182
866.36	1.48155
869.735	1.41524
873.11	0.970152
876.484	0.769352
879.859	1.34451
883.234	1.24567
886.609	0.977808
889.984	1.57339
893.359	0.229795
896.733	0.479853
900.108	0.540941
903.483	0.10034
906.858	0.772545
910.232	0.488947
913.607	0.385431
916.982	0.757261
920.357	0.42333
923.732	0.207354
927.107	0.467993
930.481	0.61162
933.856	0.247589
937.231	0.472183
940.606	1.09921
943.981	0.396221
947.356	0.122833
950.73	0.174984
954.105	1.33682
957.48	0.557977
960.855	0.259089
964.23	0.195894
967.605	0.423372
970.979	0.516513
974.354	0.364365
977.729	0.40597
981.104	0.256104
984.479	0.459737
987.854	0.092525
991.228	1.25637
994.603	0.267684
997.978	0.344447
1001.35	1.54442
1004.73	0.789684
1008.1	0.43355
1011.48	0.350441
1014.85	0.875977
1018.23	1.85475
1021.6	0.080259
1024.98	0.246768
1028.35	0.815018
1031.73	0.097382
1035.1	0.528549
1038.48	1.54902
1041.85	0.909298
1045.22	0.919365
1048.6	1.18427
1051.97	0.926942
1055.35	1.05191
1058.72	1.25224
1062.1	0.600947
1065.47	0.988601
1068.85	0.490065
1072.22	0.517187
1075.6	0.162194
1078.97	0.311348
1082.35	0.756892
1085.72	0.683434
1089.1	0.562816
1092.47	0.414147
1095.85	0.951508
1099.22	1.06474
1102.6	0.477481
1105.97	0.596066
1109.35	1.0084
1112.72	0.843557
1116.1	0.5594
1119.47	0.678244
1122.85	1.05798
1126.22	0.941934
1129.6	0.977487
1132.97	1.27314
1136.35	0.658344
1139.72	0.713269
1143.1	0.781083
1146.47	0.143595
1149.85	0.766626
1153.22	0.599154
1156.59	0.584405
1159.97	0.602492
1163.34	1.44363
1166.72	0.35121
1170.09	1.08319
1173.47	0.994698
1176.84	0.811261
1180.22	0.758275
1183.59	0.923821
1186.97	0.583141
1190.34	0.927217
1193.72	0.897813
1197.09	0.290669
1200.47	0.817501
1203.84	0.790538
1207.22	1.3657
1210.59	1.11817
1213.97	1.0903
1217.34	1.12325
1220.72	0.810876
1224.09	0.718083
1227.47	0.56225
1230.84	1.32671
1234.21	0.191666
1237.59	0.775166
1240.96	1.32884
1244.34	0.272985
1247.71	0.632664
1251.09	0.451864
1254.46	0.679783
1257.84	0.894304
1261.21	0.764433
1264.59	0.036139
1267.96	0.192263
1271.34	1.40854
1274.71	1.30076
1278.09	1.09251
1281.46	0.588573
1284.84	0.722637
1288.21	0.228316
1291.59	0.708307
1294.96	0.871043
1298.34	1.97414
1301.71	0.957602
