Measurement: Raman, 780 nm, unoriented, Raman Data Processed
Mineral: Seligmannite
Rruff sample: R090037
Ideal chemistry: CuPbAsS_3_
Locality: Quiruvilca, La Libertad Department, Peru
Source: Marcus Origlieri
Description: Striated silver-grey short prismatic crystals on matrix
Raman shift (cm-1)	intensity
140.277	0
143.17	0.207354
146.062	0.546976
148.955	0.772411
151.848	0.290863
154.741	0.526285
157.633	0.805353
160.526	0.93942
163.419	0.300757
166.311	0.410408
169.204	0.479019
172.097	0.129038
174.989	0.105988
177.882	1.05906
180.775	1.94069
183.667	2.89988
186.56	3.90416
189.453	4.94018
192.346	5.96235
195.238	7.38634
198.131	7.69811
201.024	7.78632
203.916	8.08421
206.809	6.94748
209.702	5.14978
212.595	4.26441
215.487	3.12344
218.38	2.65375
221.273	1.92891
224.165	1.66526
227.058	1.13297
229.951	1.71181
232.843	1.19497
235.736	1.0968
238.629	0.530204
241.522	0.402884
244.414	0.224363
247.307	0.395922
250.2	0.405195
253.092	0.101055
255.985	0.014896
258.878	0.134368
261.77	0.294086
264.663	0.052835
267.556	0.366851
270.449	0.365403
273.341	-0.0467234
276.234	0.0958947
279.127	0.528531
282.019	1.13641
284.912	1.29364
287.805	1.46843
290.697	1.23711
293.59	1.26989
296.483	1.17579
299.375	1.23451
302.268	1.2647
305.161	1.77008
308.054	2.14599
310.946	3.2221
313.839	3.00519
316.732	4.24258
319.624	4.86575
322.517	5.13681
325.41	5.83033
328.302	5.02836
331.195	5.57795
334.088	4.83918
336.981	5.12246
339.873	6.61502
342.766	8.91304
345.659	11.0725
348.551	12.5811
351.444	15.157
354.337	15.2651
357.229	13.9822
360.122	12.5077
363.015	8.81267
365.908	5.60651
368.8	3.47508
371.693	2.12904
374.586	1.22407
377.478	0.742154
380.371	0.404205
383.264	0.309704
386.156	0.355047
389.049	0.468863
391.942	0.1007
394.834	0.324585
397.727	0.421159
400.62	0.137094
403.513	0.075366
406.405	0.462044
409.298	0.201792
412.191	0.420937
415.083	0.142313
417.976	0.004945
420.869	0.312465
423.762	0.185183
426.654	0.041294
429.547	0.070729
432.44	0.045788
435.332	0.540591
438.225	0.531095
441.118	0.531542
444.01	0.251043
446.903	0.499813
449.796	1.02069
452.688	0.849261
455.581	1.28181
458.474	0.880949
461.366	0.657299
464.259	0.880753
467.152	0.994525
470.045	0.868151
472.937	0.979527
475.83	0.383953
478.723	1.12613
481.615	0.520321
484.508	0.489149
487.401	1.01779
490.293	0.155791
493.186	0.62746
496.079	1.0626
498.972	0.59476
501.864	0.198391
504.757	0.346778
507.65	0.237898
510.542	0.008764
513.435	0.734165
516.328	0.570885
519.221	0.711167
522.113	0.428069
525.006	0.034604
527.899	0.063145
530.791	0.23034
533.684	0.157004
536.577	0.123734
539.469	0.793852
542.362	0.240232
545.255	0.967339
548.148	0.576525
551.04	0.726949
553.933	0.039031
556.826	0.839418
559.718	0.009685
562.611	0.672129
565.504	0.334203
568.396	0.903157
571.289	0.522313
574.182	0.338891
577.074	0.83771
579.967	0.163178
582.86	0.386415
585.753	0.139486
588.645	0.163419
591.538	0.058532
594.431	0.615662
597.323	0.093342
600.216	0.054308
603.109	0.242319
606.001	0.46945
608.894	0.196542
611.787	0.808874
614.68	0.7478
617.572	0.732803
620.465	0.421326
623.358	0.716568
626.25	0.51468
629.143	0.44132
632.036	0.602818
634.928	0.408089
637.821	0.593209
640.714	0.22074
643.606	0.714501
646.499	0.780571
649.392	0.969562
652.285	0.548203
655.177	0.080448
658.07	0.45618
660.963	0.553244
663.855	0.633656
666.748	0.591265
669.641	0.503093
672.534	0.837292
675.426	0.860599
678.319	0.749119
681.212	0.4505
684.104	0.219099
686.997	0.104287
689.89	0.569649
692.782	0.29638
695.675	0.02573
698.568	0.45463
701.461	0.053468
704.353	0.768082
707.246	0.592515
710.139	0.521111
713.031	0.64099
715.924	0.348109
718.817	0.906618
721.709	0.404246
724.602	0.487545
727.495	0.338423
730.388	0.419333
733.28	0.729726
736.173	0.858853
739.066	0.832371
741.958	0.558922
744.851	0.063194
747.744	0.41636
750.636	0.41787
753.529	0.167768
756.422	0.178401
759.314	0.074196
762.207	0.120689
765.1	0.123838
767.993	0.193276
770.885	0.075639
773.778	0.550558
776.671	0.110389
779.563	0.687694
782.456	0.097098
785.349	0.77583
788.241	0.705339
791.134	0.511879
794.027	0.375493
796.919	0.418685
799.812	0.139542
802.705	0.357098
805.598	0.410026
808.49	0.266143
811.383	0.273676
814.276	0.587917
817.168	0.415101
820.061	0.499908
822.954	0.67752
825.846	0.432345
828.739	0.466473
831.632	0.384963
834.525	0.752107
837.417	0.596132
840.31	0.663142
843.203	0.97382
846.095	1.0655
848.988	0.249088
851.881	0.628437
854.774	0.330716
857.666	0.96396
860.559	0.78876
863.452	0.805465
866.344	1.10815
869.237	0.45622
872.13	0.353424
875.022	0.868084
877.915	0.561691
880.808	0.879823
883.7	0.704113
886.593	0.459283
889.486	0.697922
892.379	0.548732
895.271	0.797971
898.164	0.299905
901.057	0.512063
903.949	0.652018
906.842	0.695757
909.735	0.403148
912.627	0.615386
915.52	0.123716
918.413	0.072405
921.306	0.404194
924.198	0.511329
927.091	0.25866
929.984	0.219483
932.876	0.696959
935.769	0.165113
938.662	0.393912
941.554	0.526202
944.447	0.29154
947.34	0.378053
950.232	0.245694
953.125	0.25233
956.018	0.708631
958.911	0.868812
961.803	0.509447
964.696	0.133676
967.589	0.471905
970.481	0.227359
973.374	0.146484
976.267	0.253704
979.159	0.157163
982.052	0.330734
984.945	0.299247
987.838	0.236414
990.73	0.207312
993.623	0.749661
996.516	0.454407
999.408	0.324523
1002.3	0.164533
1005.19	0.184847
1008.09	0.232225
1010.98	0.182152
1013.87	0.33438
1016.76	0.519092
1019.66	0.102618
1022.55	0.109808
1025.44	0.283652
1028.34	0.329237
1031.23	0.097682
1034.12	0.074222
1037.01	0.367962
1039.91	0.522615
1042.8	0.492867
1045.69	0.439341
1048.58	0.717679
1051.48	0.962998
1054.37	0.102766
1057.26	0.778972
1060.15	0.251895
1063.05	0.320773
1065.94	0.486852
1068.83	0.520011
1071.73	0.423845
1074.62	0.120239
1077.51	0.152615
1080.4	0.278616
1083.3	0.682887
1086.19	0.504104
1089.08	0.602104
1091.97	0.386057
1094.87	0.501425
1097.76	0.880049
1100.65	0.053895
1103.55	0.597612
1106.44	0.096725
1109.33	0.916691
1112.22	0.154302
1115.12	0.85794
1118.01	0.782167
1120.9	0.741168
1123.79	0.324701
1126.69	0.861149
1129.58	0.149186
1132.47	0.557013
1135.37	0.224933
1138.26	0.856462
1141.15	0.670088
1144.04	0.449947
1146.94	0.453663
1149.83	0.390325
1152.72	0.297317
1155.61	0.24349
1158.51	0.677615
1161.4	0.441741
1164.29	0.625433
1167.18	0.39653
1170.08	0.343345
1172.97	0.554204
1175.86	1.39302
1178.76	0.516041
1181.65	0.613397
1184.54	0.049629
1187.43	0.442612
1190.33	0.481838
1193.22	0.928369
1196.11	0.668416
1199.01	0.461974
1201.9	0.853497
1204.79	0.392017
1207.68	0.494342
1210.58	0.247814
1213.47	0.167363
1216.36	0.674046
1219.25	0.075604
1222.15	0.339621
1225.04	0.784072
1227.93	0.732029
1230.82	0.202424
1233.72	0.203575
1236.61	0.170633
1239.5	0.229071
1242.39	0.396487
1245.29	0.355284
1248.18	0.813632
1251.07	0.063459
1253.97	0.843616
1256.86	0.544939
1259.75	0.316744
1262.64	0.360929
1265.54	0.109429
1268.43	0.542111
1271.32	0.158207
1274.21	0.509798
1277.11	0.058426
1280	0.054557
1282.89	0.36378
1285.79	0.000385
