Measurement: Raman, 532 nm, unoriented, Raman Data Processed
Mineral: Semseyite
Rruff sample: R080087
Ideal chemistry: Pb_9_Sb_8_S_21_
Locality: Herja Mine (Kisbánya), Baia Mare (Nagybánya), Maramures Co., Romania
Source: Michael Scott
Description: Metallic grey tabular crystals, associated with fizelyite
Measured chemistry: Pb_9.11_Ag_0.02_Sb_8.27_S_21_
Raman shift (cm-1)	intensity
134.78	0
138.155	40.6769
141.529	118.4
144.904	148.833
148.279	102.814
151.654	64.7416
155.029	42.4681
158.404	18.2689
161.778	8.0654
165.153	-0.637591
168.528	-0.518076
171.903	-0.113254
175.278	0.687549
178.652	1.27998
182.027	1.36264
185.402	3.95105
188.777	6.88553
192.152	9.69144
195.526	15.0093
198.901	22.5463
202.276	27.8018
205.651	33.1596
209.026	36.2883
212.401	38.8748
215.775	40.3108
219.15	41.0111
222.525	38.8602
225.9	36.7445
229.275	35.3801
232.649	31.7971
236.024	32.8444
239.399	31.6478
242.774	31.8482
246.149	33.6788
249.524	31.3533
252.898	30.9062
256.273	28.1443
259.648	26.1599
263.023	23.4037
266.398	19.5909
269.772	15.8986
273.147	13.7047
276.522	11.1747
279.897	7.1671
283.272	5.15388
286.647	2.89777
290.021	0.872711
293.396	1.90495
296.771	1.94867
300.146	3.55769
303.521	7.28024
306.895	10.7268
310.27	12.9597
313.645	15.2189
317.02	18.8298
320.395	21.4808
323.769	23.4795
327.144	25.589
330.519	24.0364
333.894	20.1319
337.269	15.0122
340.644	7.47521
344.018	3.35589
347.393	0.288773
350.768	0.749283
354.143	1.32752
357.518	1.33172
360.892	0.799904
364.267	0.508377
367.642	0.005707
371.017	0.018906
374.392	1.28232
377.767	2.30025
381.141	4.47012
384.516	3.53589
387.891	3.57614
391.266	5.16862
394.641	5.04336
398.015	4.80382
401.39	5.9407
404.765	6.60952
408.14	6.25069
411.515	5.92442
414.89	5.3632
418.264	5.07956
421.639	3.72682
425.014	3.77145
428.389	2.85126
431.764	3.93521
435.139	2.9653
438.513	3.33994
441.888	2.8634
445.263	3.06834
448.638	2.61809
452.013	3.89397
455.387	1.95239
458.762	2.08795
462.137	1.96546
465.512	2.82093
468.887	2.40214
472.262	2.28432
475.636	1.50732
479.011	1.35646
482.386	1.81701
485.761	2.19559
489.136	1.54951
492.51	1.51697
495.885	1.11303
499.26	1.71798
502.635	0.520004
506.01	0.356842
509.385	0.494774
512.759	0.593697
516.134	0.265488
519.509	0.665779
522.884	0.288551
526.259	0.292953
529.633	0.530121
533.008	0.652611
536.383	0.73114
539.758	0.538475
543.133	0.154251
546.507	0.82711
549.882	0.618217
553.257	0.844398
556.632	0.037216
560.007	0.478416
563.381	0.206345
566.756	1.25812
570.131	0.678265
573.506	0.117874
576.881	1.00518
580.256	0.429623
583.63	1.70998
587.005	0.227551
590.38	0.154121
593.755	0.795483
597.13	0.50642
600.505	1.12905
603.879	0.231617
607.254	0.348522
610.629	0.33604
614.004	0.613636
617.379	0.104649
620.753	0.314171
624.128	0.221565
627.503	0.79607
630.878	0.48386
634.253	0.839165
637.628	0.532642
641.002	0.061001
644.377	0.849556
647.752	0.886234
651.127	0.77755
654.502	1.08087
657.876	0.50877
661.251	1.36636
664.626	1.58712
668.001	0.593445
671.376	0.589092
674.75	1.09602
678.125	0.947388
681.5	0.010887
684.875	0.432377
688.25	0.004726
691.625	0.718307
694.999	0.377934
698.374	0.638474
701.749	0.56831
705.124	0.587772
708.499	0.182632
711.874	0.722198
715.248	0.311142
718.623	0.07732
721.998	0.885651
725.373	0.433617
728.748	0.941181
732.122	0.583443
735.497	0.22924
738.872	0.911865
742.247	1.10641
745.622	0.783573
748.996	0.47086
752.371	0.519127
755.746	0.971565
759.121	0.781406
762.496	0.742954
765.87	1.67379
769.245	0.810287
772.62	0.477154
775.995	1.12015
779.37	0.467121
782.745	0.51252
786.119	1.49511
789.494	0.494614
792.869	0.413467
796.244	1.24056
799.619	0.576118
802.994	0.663139
806.368	1.05013
809.743	0.439121
813.118	0.468876
816.493	0.783558
819.868	0.03508
823.242	0.475414
826.617	0.811768
829.992	0.99176
833.367	0.350567
836.742	0.392365
840.116	1.31498
843.491	0.814625
846.866	0.672943
850.241	1.28134
853.616	1.54883
856.991	0.232639
860.365	0.718735
863.74	0.608036
867.115	0.58382
870.49	0.551037
873.865	1.48014
877.24	0.241837
880.614	0.63615
883.989	0.703003
887.364	0.200443
890.739	1.53075
894.114	1.17938
897.488	0.100616
900.863	0.722572
904.238	0.467979
907.613	0.423889
910.988	0.730949
914.362	0.183537
917.737	0.143394
921.112	0.185658
924.487	0.482952
927.862	1.01974
931.237	0.081455
934.611	0.596943
937.986	1.09515
941.361	0.403339
944.736	0.289017
948.111	0.755497
951.486	0.423115
954.86	0.508614
958.235	0.579418
961.61	1.21629
964.985	0.848679
968.36	1.31093
971.734	1.72541
975.109	0.907719
978.484	1.2963
981.859	1.29098
985.234	0.735973
988.609	0.344143
991.983	0.818474
995.358	1.03643
998.733	0.463413
1002.11	0.790379
1005.48	0.612247
1008.86	0.133438
1012.23	0.702118
1015.61	0.624458
1018.98	0.277657
1022.36	1.02528
1025.73	1.24971
1029.11	1.18826
1032.48	0.531914
1035.86	0.332893
1039.23	0.171551
1042.61	1.38098
1045.98	0.067352
1049.36	0.912163
1052.73	1.36614
1056.11	0.961826
1059.48	0.272343
1062.85	1.19255
1066.23	1.27813
1069.6	0.219265
1072.98	1.39105
1076.35	0.562618
1079.73	1.70973
1083.1	0.390354
1086.48	0.457939
1089.85	0.423321
1093.23	0.620358
1096.6	0.579525
1099.98	0.7281
1103.35	0.716087
1106.73	0.172447
1110.1	1.12793
1113.48	1.08001
1116.85	1.13136
1120.23	0.840565
1123.6	0.649746
1126.98	1.58231
1130.35	0.992878
1133.73	0.637497
1137.1	0.671989
1140.47	0.158688
1143.85	1.03469
1147.22	0.157959
1150.6	0.815231
1153.97	0.730251
1157.35	0.182869
1160.72	0.081932
1164.1	0.310387
1167.47	0.651897
1170.85	0.318134
1174.22	1.52898
1177.6	0.597137
1180.97	0.499527
1184.35	0.610783
1187.72	0.776737
1191.1	0.439838
1194.47	0.232796
1197.85	0.993206
1201.22	0.184666
1204.6	0.79237
1207.97	0.211773
1211.35	1.00024
1214.72	0.63176
1218.1	0.139603
1221.47	0.526863
1224.85	0.119774
1228.22	0.7593
1231.6	0.994942
1234.97	0.940861
1238.35	0.321407
1241.72	1.30937
1245.09	1.54062
1248.47	1.21135
1251.84	0.809025
1255.22	1.24421
1258.59	0.723816
1261.97	0.513481
1265.34	0.849865
1268.72	1.05155
1272.09	0.322277
1275.47	0.272346
1278.84	0.178867
1282.22	1.25758
1285.59	0.762341
1288.97	0.740955
1292.34	0.074299
1295.72	0.396744
1299.09	0.616165
1302.47	0.320629
