Measurement: Raman, 780 nm, unoriented, Raman Data Processed
Mineral: Semseyite
Rruff sample: R080087
Ideal chemistry: Pb_9_Sb_8_S_21_
Locality: Herja Mine (Kisbánya), Baia Mare (Nagybánya), Maramures Co., Romania
Source: Michael Scott
Description: Metallic grey tabular crystals, associated with fizelyite
Measured chemistry: Pb_9.11_Ag_0.02_Sb_8.27_S_21_
Raman shift (cm-1)	intensity
135.432	0
138.325	172.269
141.217	1066.02
144.11	2424.23
147.003	3959.32
149.895	4532.11
152.788	3784.62
155.681	2217.33
158.573	1014.68
161.466	670.459
164.359	855.793
167.251	1006.51
170.144	804.377
173.037	501.008
175.93	79.791
178.822	199.111
181.715	47.7227
184.608	628.537
187.5	1896.86
190.393	3815.08
193.286	6275.08
196.179	8961.88
199.071	11659.6
201.964	14346.9
204.857	17302.9
207.749	20780.8
210.642	24338.3
213.535	26893.8
216.427	27182.2
219.32	24969.9
222.213	22522.2
225.106	20930.9
227.998	20490.2
230.891	20232.4
233.784	19357.4
236.676	17654.1
239.569	15167.8
242.462	12831.6
245.354	11007.6
248.247	9180.02
251.14	7151.26
254.032	5383.91
256.925	4219.63
259.818	3659.75
262.711	3424.18
265.603	3374.82
268.496	3334.69
271.389	3110.45
274.281	2652.14
277.174	1864.02
280.067	915.607
282.959	132.782
285.852	259.087
288.745	362.754
291.638	257.303
294.53	103.755
297.423	751.685
300.316	1630.53
303.208	2316.29
306.101	2862.11
308.994	3821.38
311.887	5537.21
314.779	7878.89
317.672	9345.58
320.565	8880.29
323.457	8606.13
326.35	9662.3
329.243	11446.1
332.135	11419.1
335.028	9463.1
337.921	8451.6
340.813	8718.11
343.706	8170.31
346.599	5083.37
349.492	2202.2
352.384	893.546
355.277	403.674
358.17	178.902
361.062	68.3666
363.955	36.3367
366.848	13.7681
369.74	5.89075
372.633	0.147217
375.526	11.5416
378.419	19.0485
381.311	32.5477
384.204	40.0304
387.097	40.447
389.989	60.3195
392.882	60.647
395.775	64.7562
398.668	69.1038
401.56	82.7018
404.453	73.3282
407.346	94.4347
410.238	111.564
413.131	112.343
416.024	118.729
418.916	103.687
421.809	95.4522
424.702	88.3706
427.594	78.6073
430.487	63.8918
433.38	64.3845
436.273	66.3964
439.165	50.3285
442.058	50.4838
444.951	47.9528
447.843	41.2794
450.736	29.7874
453.629	33.4762
456.522	24.0612
459.414	24.4673
462.307	25.0592
465.2	14.2884
468.092	12.1822
470.985	14.1722
473.878	0.921204
476.77	0.111816
479.663	6.52814
482.556	12.2184
485.449	13.6592
488.341	3.46692
491.234	16.7086
494.127	3.8772
497.019	0.493896
499.912	5.42194
502.805	5.41144
505.697	2.34357
508.59	2.10156
511.483	2.28888
514.375	3.68585
517.268	9.80719
520.161	14.1298
523.054	6.85919
525.946	9.27319
528.839	10.4341
531.732	6.25
534.624	16.4169
537.517	12.5258
540.41	3.69665
543.303	13.8705
546.195	6.73108
549.088	4.95837
551.981	4.88684
554.873	8.20807
557.766	15.2701
560.659	21.0779
563.551	20.6194
566.444	29.1968
569.337	35.3451
572.23	42.6028
575.122	49.1368
578.015	48.0203
580.908	56.6477
583.8	55.2572
586.693	50.0789
589.586	47.3392
592.478	47.2942
595.371	48.3834
598.264	32.5851
601.156	32.3634
604.049	30.9848
606.942	28.3501
609.835	17.2856
612.727	15.9141
615.62	9.95459
618.513	14.3613
621.405	5.73721
624.298	1.87164
627.191	5.56049
630.083	6.87347
632.976	8.1611
635.869	9.56534
638.761	12.2965
641.654	17.8234
644.547	20.252
647.44	26.7166
650.332	29.292
653.225	27.1963
656.118	26.0629
659.01	34.5988
661.903	39.1537
664.796	43.0348
667.688	39.1496
670.581	46.7584
673.474	41.3584
676.367	44.1157
679.259	38.0701
682.152	40.2398
685.045	29.7497
687.937	17.9109
690.83	18.8419
693.723	11.4392
696.615	6.88441
699.508	0.300049
702.401	2.26425
705.294	0.394348
708.186	0.439972
711.079	3.91928
713.972	1.00433
716.864	2.10478
719.757	1.78618
722.65	2.70711
725.543	3.59056
728.435	2.83945
731.328	8.70099
734.221	6.07197
737.113	8.07153
740.006	9.6787
742.899	11.3015
745.791	5.40232
748.684	9.4697
751.577	5.35823
754.47	7.64286
757.362	5.26202
760.255	9.47009
763.148	12.1043
766.04	7.69015
768.933	11.3421
771.826	8.56969
774.718	6.91836
777.611	5.07447
780.504	1.57809
783.396	4.54089
786.289	4.91518
789.182	5.34843
792.075	3.17266
794.967	5.44466
797.86	5.77081
800.753	1.03843
803.645	3.19681
806.538	2.08813
809.431	3.5267
812.323	1.90344
815.216	3.43505
818.109	1.30198
821.002	1.3736
823.894	3.743
826.787	0.209198
829.68	1.024
832.572	2.38638
835.465	2.05555
838.358	2.12205
841.25	2.55186
844.143	4.93623
847.036	1.10436
849.929	1.70145
852.821	2.5395
855.714	4.95909
858.607	2.22157
861.5	2.28585
864.392	1.08125
867.285	1.8862
870.178	4.00338
873.07	3.84534
875.963	4.8728
878.856	0.028145
881.748	1.13139
884.641	4.44128
887.534	4.3307
890.427	1.70924
893.319	5.10583
896.212	4.6563
899.105	3.81334
901.997	0.377541
904.89	7.35857
907.783	0.083359
910.675	2.99548
913.568	2.72625
916.461	3.12497
919.353	2.65206
922.246	6.17913
925.139	0.039009
928.032	2.85184
930.924	5.50092
933.817	0.637314
936.71	3.20459
939.602	2.04773
942.495	4.66528
945.388	3.61233
948.28	2.60181
951.173	2.22113
954.066	1.69257
956.958	2.77443
959.851	3.11344
962.744	3.58115
965.637	4.96663
968.529	4.32237
971.422	6.12911
974.315	1.14768
977.207	2.28506
980.1	1.85888
982.993	5.16104
985.885	3.45777
988.778	2.79909
991.671	6.77395
994.564	3.99223
997.456	4.66489
1000.35	3.89751
1003.24	3.24326
1006.13	2.09429
1009.03	2.62287
1011.92	0.96907
1014.81	2.05485
1017.71	2.60794
1020.6	3.21409
1023.49	4.4253
1026.38	3.72627
1029.28	7.70151
1032.17	4.76849
1035.06	2.23951
1037.95	3.59036
1040.85	1.46789
1043.74	3.15
1046.63	5.59312
1049.53	5.88782
1052.42	6.72529
1055.31	1.36172
1058.2	5.75911
1061.1	0.5513
1063.99	3.5369
1066.88	2.28137
1069.77	3.29946
1072.67	3.4378
1075.56	4.79577
1078.45	4.73637
1081.35	2.31205
1084.24	3.3672
1087.13	6.67658
1090.02	5.2369
1092.91	3.8019
1095.81	3.07904
1098.7	1.17553
1101.59	1.98381
1104.49	0.084702
1107.38	1.15704
1110.27	1.884
1113.16	1.54483
1116.06	3.44588
1118.95	4.62744
1121.84	3.00485
1124.73	3.7942
1127.63	0.739674
1130.52	2.86918
1133.41	1.62532
1136.31	4.81785
1139.2	0.51675
1142.09	3.19532
1144.98	4.11287
1147.88	3.12312
1150.77	5.03479
1153.66	3.38928
1156.56	0.467457
1159.45	4.63321
1162.34	1.84477
1165.23	6.28605
1168.13	3.65716
1171.02	6.39801
1173.91	5.18233
1176.8	4.75392
1179.7	3.27673
1182.59	3.3849
1185.48	1.93874
1188.38	0.517525
1191.27	5.54298
1194.16	5.90884
1197.05	3.54954
1199.94	3.61756
1202.84	2.80818
1205.73	2.63825
1208.62	1.64624
1211.52	4.89735
1214.41	2.71567
1217.3	5.60256
1220.19	2.70587
1223.09	0.791859
1225.98	0.692226
1228.87	1.61659
1231.77	4.25246
1234.66	4.95146
1237.55	4.77706
1240.44	4.84272
1243.34	2.81008
1246.23	2.77832
1249.12	0.969177
1252.01	2.6231
1254.91	2.93714
1257.8	2.04401
1260.69	2.15022
1263.59	3.05971
1266.48	0.61414
1269.37	0.487923
1272.26	3.45757
1275.16	5.95947
1278.05	2.87534
1280.94	2.43511
1283.83	4.07512
