Measurement: Raman, 780 nm, unoriented, Raman Data Processed
Mineral: Senarmontite
Rruff sample: R060002
Ideal chemistry: Sb_2_O_3_
Locality: Chenlong, Xin Yi County, Guizhou Province, China
Source: Ken Roberts
Description: Glassy coating over an altered stibnite crystal, mixed with cervantite
Measured chemistry: core and light rim: (Sb_1.99_As_0.01_)_Î£=2_O_3_
Raman shift (cm-1)	intensity
121.026	0
124.401	6.81006
127.776	0.758789
131.151	5.46704
134.526	6.78125
137.901	11.5102
141.275	25.4592
144.65	26.0032
148.025	10.4121
151.4	24.4002
154.775	38.946
158.149	63.7837
161.524	110.046
164.899	190.423
168.274	297.123
171.649	434.301
175.024	633.282
178.398	860.593
181.773	1098.59
185.148	1352.97
188.523	1575.96
191.898	1758.7
195.272	1820.07
198.647	1699.7
202.022	1422.86
205.397	1074.86
208.772	770.933
212.147	558.862
215.521	400.582
218.896	294.636
222.271	213.322
225.646	154.274
229.021	100.201
232.395	75.2437
235.77	55.9319
239.145	52.2866
242.52	51.958
245.895	54.9585
249.269	56.3174
252.644	64.0828
256.019	61.4136
259.394	64.7922
262.769	59.7524
266.144	44.1472
269.518	33.1045
272.893	22.6081
276.268	14.5193
279.643	7.33228
283.018	0.390625
286.392	3.40552
289.767	5.07031
293.142	4.81982
296.517	5.26953
299.892	3.42896
303.267	0.795654
306.641	3.49927
310.016	1.70312
313.391	3.2395
316.766	2.07568
320.141	2.73657
323.515	0.363037
326.89	3.39551
330.265	3.23901
333.64	0.437012
337.015	4.13477
340.39	8.86304
343.764	11.9351
347.139	9.98145
350.514	11.0771
353.889	14.9072
357.264	2.5044
360.639	21.1897
364.013	19.2737
367.388	39.0786
370.763	48.45
374.138	81.7502
377.512	106.863
380.887	157.24
384.262	201.644
387.637	255.054
391.012	313.943
394.387	373.994
397.761	392.996
401.136	373.967
404.511	331.69
407.886	285.633
411.261	245.349
414.635	204.78
418.01	181.675
421.385	156.502
424.76	140.954
428.135	135.929
431.51	128.378
434.884	133.326
438.259	144.084
441.634	154.568
445.009	159.395
448.384	168.751
451.759	177.621
455.133	184.546
458.508	161.345
461.883	135.555
465.258	103.612
468.633	67.553
472.007	50.2205
475.382	27.5706
478.757	12.2158
482.132	7.97241
485.507	8.86743
488.882	3.95703
492.256	6.49023
495.631	2.32495
499.006	6.02515
502.381	3.36841
505.756	3.01392
509.13	4.55713
512.505	0.313232
515.88	2.74976
519.255	0.174805
522.63	3.2251
526.005	2.8186
529.379	5.67773
532.754	7.62256
536.129	0.716797
539.504	3.44019
542.879	3.67847
546.253	4.84595
549.628	6.92114
553.003	13.5666
556.378	19.397
559.753	11.79
563.127	15.4541
566.502	21.0295
569.877	20.3269
573.252	20.8357
576.627	29.6582
580.001	29.4514
583.376	22.658
586.751	27.0689
590.126	28.7815
593.501	30.6794
596.876	27.8613
600.25	26.2739
603.625	23.6301
607	26.3818
610.375	27.1133
613.75	26.6392
617.125	26.4617
620.499	32.3403
623.874	28.4519
627.249	30.8481
630.624	31.4329
633.999	27.1444
637.373	36.5693
640.748	29.046
644.123	30.6522
647.498	24.9439
650.873	25.194
654.247	27.4125
657.622	20.2422
660.997	22.3588
664.372	14.6151
667.747	3.73303
671.122	14.4752
674.496	4.57483
677.871	0.768311
681.246	3.37085
684.621	3.85364
687.996	1.56873
691.37	3.48889
694.745	1.27063
698.12	5.39502
701.495	3.72815
704.87	0.845581
708.245	0.213501
711.619	10.3329
714.994	11.0486
718.369	7.25806
721.744	14.9352
725.119	10.4801
728.494	11.9627
731.868	9.8894
735.243	13.3113
738.618	12.6902
741.993	13.0017
745.368	7.64575
748.742	6.7981
752.117	6.44885
755.492	1.7273
758.867	4.16882
762.242	7.82422
765.616	7.79285
768.991	5.55432
772.366	1.57861
775.741	4.3634
779.116	3.44287
782.49	6.77747
785.865	9.1272
789.24	4.83276
792.615	6.83008
795.99	3.27624
799.365	7.78088
802.739	6.89209
806.114	3.13843
809.489	5.20618
812.864	13.6378
816.239	15.9147
819.614	13.8407
822.988	14.0275
826.363	5.75146
829.738	8.23657
833.113	10.4888
836.487	8.44153
839.862	12.0925
843.237	10.9399
846.612	9.23938
849.987	4.24597
853.362	5.276
856.736	6.03271
860.111	7.5426
863.486	4.25561
866.861	2.37109
870.236	8.12329
873.611	8.73914
876.985	7.85559
880.36	5.26514
883.735	2.59949
887.11	2.09522
890.485	0.112061
893.859	4.82385
897.234	4.83472
900.609	0.7854
903.984	0.589966
907.359	2.51892
910.734	1.54407
914.108	2.2793
917.483	0.891724
920.858	4.3042
924.233	4.78027
927.608	3.25745
930.982	8.60413
934.357	7.63855
937.732	7.04871
941.107	0.601929
944.482	3.99402
947.856	3.52368
951.231	7.60901
954.606	11.7889
957.981	4.1665
961.356	6.99622
964.731	2.73352
968.105	0.573853
971.48	8.86072
974.855	9.328
978.23	1.46362
981.605	1.36353
984.98	3.20923
988.354	11.2186
991.729	3.64465
995.104	4.7019
998.479	2.81641
1001.85	8.11792
1005.23	2.54346
1008.6	3.29675
1011.98	4.23572
1015.35	4.3573
1018.73	5.60266
1022.1	4.60681
1025.48	11.415
1028.85	5.96741
1032.23	9.56165
1035.6	10.3138
1038.98	8.86475
1042.35	8.58655
1045.73	11.4879
1049.1	6.12744
1052.48	7.31396
1055.85	6.25818
1059.22	8.31726
1062.6	7.39746
1065.97	7.06531
1069.35	6.04993
1072.72	7.80603
1076.1	9.04211
1079.47	11.0341
1082.85	3.30225
1086.22	10.4147
1089.6	5.74414
1092.97	6.24365
1096.35	4.89294
1099.72	11.5956
1103.1	4.87085
1106.47	5.69336
1109.85	1.97192
1113.22	6.77844
1116.6	0.225342
1119.97	1.62524
1123.35	1.23804
1126.72	9.56445
1130.1	7.35266
1133.47	4.90137
1136.85	6.06299
1140.22	6.45862
1143.6	11.3776
1146.97	10.6525
1150.35	3.77429
1153.72	4.69336
1157.1	6.96545
1160.47	9.88525
1163.85	14.096
1167.22	8.86487
1170.59	13.1377
1173.97	10.8409
1177.34	15.2416
1180.72	7.5802
1184.09	10.8981
1187.47	14.4905
1190.84	16.6338
1194.22	18.1663
1197.59	7.51697
1200.97	9.22717
1204.34	7.89587
1207.72	7.97742
1211.09	4.78894
1214.47	7.75159
1217.84	5.56177
1221.22	10.5857
1224.59	6.60962
1227.97	1.85962
1231.34	7.57495
1234.72	3.4541
1238.09	5.54578
1241.47	6.99841
1244.84	1.36096
1248.21	3.35474
1251.59	0.898315
1254.96	3.26623
1258.34	3.31506
1261.71	6.90234
1265.09	10.8509
1268.46	5.48267
1271.84	10.5045
1275.21	7.2229
1278.59	6.22864
1281.96	8.18506
1285.34	0.47583
