Measurement: Raman, 532 nm, unoriented, Raman Data Processed
Mineral: Senaite
Rruff sample: R060644
Ideal chemistry: Pb^2+^(Mn^2+^,Y^3+^,U)(Fe^2+^,Zn^2+^)_2_(Ti^4+^,Fe^3+^,Cr^3+^,V^5+^)_18_(O,OH)_38_
Locality: Fazenda Guariba, Minas Gerais, Brazil
Source: Michael Scott
Description: Black submetallic rounded grains
Raman shift (cm-1)	intensity
209.83	0
212.723	3.64133
215.616	0.590729
218.508	0.507507
221.401	2.12701
224.294	2.88211
227.186	9.7131
230.079	14.0619
232.972	26.2814
235.865	37.4541
238.757	50.2102
241.65	56.3384
244.543	59.1827
247.435	57.0812
250.328	52.3667
253.221	47.3946
256.113	41.9493
259.006	41.1124
261.899	39.0803
264.792	42.2509
267.684	55.0707
270.577	69.2062
273.47	80.7632
276.362	82.1253
279.255	78.2216
282.148	74.3591
285.041	80.3209
287.933	82.9555
290.826	84.6676
293.719	77.7007
296.611	64.7843
299.504	44.3029
302.397	26.0396
305.289	15.1191
308.182	7.64337
311.075	2.58124
313.967	3.82581
316.86	4.44949
319.753	1.77798
322.646	0.726166
325.538	1.64761
328.431	0.010254
331.324	3.13776
334.216	8.90506
337.109	16.356
340.002	28.1307
342.894	36.8105
345.787	36.509
348.68	28.4082
351.573	18.618
354.465	11.8797
357.358	6.61771
360.251	3.47235
363.143	3.97635
366.036	4.12006
368.929	11.0155
371.822	12.003
374.714	12.4453
377.607	21.5391
380.5	18.6468
383.392	16.6609
386.285	10.0369
389.178	2.3867
392.07	0.303604
394.963	2.74823
397.856	0.645416
400.748	4.65691
403.641	9.31262
406.534	16.7825
409.427	22.7317
412.319	32.1634
415.212	40.1448
418.105	45.7657
420.997	46.0566
423.89	38.6052
426.783	30.3631
429.675	23.3505
432.568	23.9743
435.461	26.8527
438.354	27.1636
441.246	30.0973
444.139	29.7553
447.032	29.9537
449.924	31.3579
452.817	27.0809
455.71	22.6566
458.603	17.7646
461.495	11.3107
464.388	4.83533
467.281	0.07872
470.173	1.36969
473.066	3.82701
475.959	4.68138
478.851	2.57767
481.744	1.67375
484.637	1.07886
487.529	3.75848
490.422	11.6404
493.315	15.8569
496.208	19.8487
499.1	23.1447
501.993	25.7027
504.886	26.9063
507.778	24.8239
510.671	21.3971
513.564	18.0607
516.457	12.3517
519.349	10.4297
522.242	9.36508
525.135	12.4009
528.027	20.2323
530.92	28.4536
533.813	42.7095
536.705	62.921
539.598	86.7987
542.491	116.501
545.384	139.227
548.276	166.765
551.169	175.58
554.062	168.975
556.954	150.317
559.847	121.494
562.74	105.59
565.632	90.0596
568.525	84.433
571.418	85.8161
574.311	87.2339
577.203	84.1178
580.096	74.7467
582.989	68.1073
585.881	59.8251
588.774	55.4341
591.667	49.3272
594.559	43.4182
597.452	40.9644
600.345	37.3481
603.237	40.1644
606.13	43.1686
609.023	45.9235
611.916	47.4331
614.808	49.0603
617.701	46.5044
620.594	40.8376
623.486	26.9381
626.379	18.2418
629.272	9.89822
632.164	7.24226
635.057	2.73605
637.95	0.637665
640.843	1.22107
643.735	0.670303
646.628	4.57243
649.521	2.87155
652.413	1.7152
655.306	1.7121
658.199	2.20196
661.091	6.56172
663.984	9.99452
666.877	14.1846
669.77	24.9529
672.662	36.2895
675.555	49.2798
678.448	58.9859
681.34	73.1283
684.233	74.3028
687.126	71.4776
690.019	56.3456
692.911	43.6103
695.804	31.8459
698.697	20.3071
701.589	18.7479
704.482	13.7488
707.375	13.4197
710.267	16.0647
713.16	13.3367
716.053	15.4512
718.946	14.6532
721.838	13.8587
724.731	8.16724
727.624	6.84735
730.516	2.77026
733.409	0.911011
736.302	0.494537
739.194	2.39975
742.087	3.2713
744.98	2.08801
747.872	0.94989
750.765	2.0307
753.658	7.0759
756.551	11.7059
759.443	16.4747
762.336	23.5511
765.229	29.3063
768.121	41.2774
771.014	52.4279
773.907	63.7254
776.799	79.1851
779.692	99.6709
782.585	119.508
785.478	146.286
788.37	170.067
791.263	194.67
794.156	210.847
797.048	211.066
799.941	199.504
802.834	172.436
805.726	140.465
808.619	111.881
811.512	92.1726
814.405	73.3827
817.297	61.307
820.19	51.7226
823.083	42.1827
825.975	37.9596
828.868	32.624
831.761	28.7275
834.654	28.1178
837.546	24.5685
840.439	28.6058
843.332	26.8414
846.224	24.4482
849.117	24.8957
852.01	25.2313
854.902	22.7568
857.795	24.6083
860.688	24.9756
863.581	24.0971
866.473	24.7701
869.366	21.3191
872.259	20.7313
875.151	20.2264
878.044	19.4439
880.937	16.8852
883.829	12.9121
886.722	10.205
889.615	10.553
892.508	7.92923
895.4	6.23462
898.293	2.84467
901.186	2.63834
904.078	1.36415
906.971	0.181519
909.864	0.915512
912.756	2.71562
915.649	3.64064
918.542	3.13521
921.434	0.924744
924.327	0.214523
927.22	0.457993
930.113	1.00693
933.005	0.347443
935.898	0.940445
938.791	2.75385
941.683	4.48978
944.576	3.02629
947.469	4.76703
950.361	6.38261
953.254	5.45059
956.147	4.83606
959.04	6.04399
961.932	7.91643
964.825	6.03723
967.718	8.34508
970.61	8.71082
973.503	7.77362
976.396	4.48772
979.288	7.10454
982.181	4.73567
985.074	7.21721
987.967	4.70314
990.859	3.42213
993.752	2.96503
996.645	5.5031
999.537	4.7209
1002.43	5.10673
1005.32	6.40224
1008.22	5.63525
1011.11	6.70991
1014	7.4894
1016.89	7.67465
1019.79	5.98628
1022.68	7.94789
1025.57	10.8074
1028.46	11.9265
1031.36	12.6411
1034.25	12.6345
1037.14	12.7676
1040.04	12.9362
1042.93	11.4681
1045.82	13.308
1048.71	11.5574
1051.61	10.3032
1054.5	8.31813
1057.39	8.50818
1060.28	7.43956
1063.18	6.9747
1066.07	5.36449
1068.96	4.68025
1071.86	3.41403
1074.75	3.51901
1077.64	0.182205
1080.53	0.997635
1083.43	0.453171
1086.32	0.805389
1089.21	1.45491
1092.1	1.902
1095	0.557846
1097.89	0.541992
1100.78	2.83861
1103.67	1.71053
1106.57	1.65899
1109.46	0.921783
1112.35	1.85361
1115.24	2.31928
1118.14	2.57126
1121.03	2.16565
1123.92	2.45511
1126.82	0.067596
1129.71	2.19039
1132.6	0.427017
1135.49	1.81496
1138.39	0.870056
1141.28	0.656929
1144.17	1.05139
1147.07	0.742813
1149.96	0.273399
1152.85	1.1369
1155.74	0.252144
1158.64	0.475418
1161.53	0.681816
1164.42	0.439262
1167.31	0.048218
1170.21	0.198357
1173.1	2.07413
1175.99	1.13406
1178.88	1.80706
1181.78	0.664612
1184.67	3.07054
1187.56	3.15527
1190.46	3.8842
1193.35	2.36532
1196.24	4.51119
1199.13	1.87598
1202.03	2.71178
1204.92	3.03382
1207.81	3.73369
1210.7	3.31988
1213.6	3.68882
1216.49	1.35143
1219.38	2.70561
1222.28	3.40943
1225.17	1.79788
1228.06	0.939842
1230.95	2.61324
1233.85	2.7352
1236.74	2.48862
1239.63	2.35961
1242.52	3.45412
1245.42	1.74308
1248.31	1.84327
1251.2	2.23556
1254.1	2.80004
1256.99	0.626846
1259.88	2.89177
1262.77	1.87831
1265.67	2.26791
1268.56	0.958351
1271.45	0.193733
1274.34	1.19014
1277.24	2.09734
1280.13	1.42613
1283.02	2.0727
1285.91	1.81468
1288.81	2.78647
1291.7	0.546074
1294.59	1.5708
1297.49	1.12466
1300.38	1.79781
