Measurement: Raman, 532 nm, unoriented, Raman Data Processed
Mineral: Senarmontite
Rruff sample: R060075
Ideal chemistry: Sb_2_O_3_
Locality: Djebel Haminate mine, Constantine, Algeria
Source: University of Arizona Mineral Museum
Description: Brown octahedra
Measured chemistry: Sb_2.00_O_3_
Raman shift (cm-1)	intensity
93.8848	0
97.2596	12.9865
100.634	58.2624
104.009	380.456
107.384	497.745
110.759	717.471
114.134	1130.81
117.508	2101.25
120.883	5378.52
124.258	2823.2
127.633	1441.45
131.008	1104.81
134.383	962.395
137.757	848.029
141.132	749.914
144.507	529.878
147.882	186.121
151.257	13.369
154.631	57.1078
158.006	100.343
161.381	51.5185
164.756	150.371
168.131	594.163
171.506	2133.94
174.88	6228.44
178.255	8639.33
181.63	11453.5
185.005	15881.3
188.38	27043
191.754	50127
195.129	21535.6
198.504	4866.17
201.879	2308.32
205.254	2123.39
208.629	2784.94
212.003	4540.53
215.378	7045.82
218.753	4675.54
222.128	1330.67
225.503	141.971
228.877	136.933
232.252	44.0698
235.627	1166.63
239.002	5867.13
242.377	9415.84
245.751	13632.7
249.126	20610
252.501	40664.8
255.876	80907.9
259.251	45765.9
262.626	19698.7
266	8705.17
269.375	3945.02
272.75	1990.39
276.125	1235.24
279.5	1465.46
282.875	2198.25
286.249	3190.4
289.624	5759.32
292.999	10542.8
296.374	10895.6
299.748	6406.57
303.123	1431.9
306.498	250.857
309.873	3.64648
313.248	23.974
316.623	240.696
319.997	332.13
323.372	119.15
326.747	30.291
330.122	81.6652
333.497	63.4414
336.872	43.2245
340.246	71.0872
343.621	278.641
346.996	530.909
350.371	811.894
353.746	1201.31
357.12	1873.53
360.495	2608.92
363.87	2855.49
367.245	3211.38
370.62	4615.4
373.995	7566.9
377.369	8559.34
380.744	4914.13
384.119	2681.48
387.494	1728.88
390.869	1239.26
394.243	1063.51
397.618	1114.48
400.993	1113.21
404.368	930.285
407.743	610.989
411.118	260.808
414.492	42.9181
417.867	38.6257
421.242	43.4062
424.617	13.1136
427.991	55.2012
431.366	234.749
434.741	835.142
438.116	2089.09
441.491	3367.49
444.866	5573.32
448.24	10366.9
451.615	16438.9
454.99	12751.5
458.365	5500.33
461.74	2810.31
465.115	1862.39
468.489	1600.79
471.864	1639.3
475.239	2055.56
478.614	3157.52
481.989	4320.92
485.363	2841.94
488.738	956.527
492.113	345.427
495.488	143.051
498.863	62.2809
502.238	57.822
505.612	125.01
508.987	176.192
512.362	66.3889
515.737	30.6265
519.112	45.7006
522.486	40.2872
525.861	51.1625
529.236	43.8326
532.611	28.8181
535.986	33.1238
539.361	32.3931
542.735	30.6216
546.11	32.2147
549.485	27.073
552.86	8.77612
556.235	1.01337
559.609	6.14947
562.984	10.0645
566.359	8.13562
569.734	8.58691
573.109	13.1259
576.484	13.3571
579.858	6.99432
583.233	8.45184
586.608	13.7668
589.983	22.5683
593.357	12.9006
596.732	15.7243
600.107	11.3516
603.482	21.1492
606.857	20.6113
610.232	24.0745
613.606	23.001
616.981	25.3833
620.356	22.3978
623.731	26.8893
627.106	10.6903
630.481	11.5522
633.855	15.4818
637.23	16.9597
640.605	22.5682
643.98	25.9355
647.355	24.3826
650.729	9.15161
654.104	2.67194
657.479	0.237427
660.854	5.88184
664.229	2.44305
667.604	1.33008
670.978	0.710449
674.353	17.0457
677.728	49.0494
681.103	61.3289
684.478	107.519
687.852	161.302
691.227	258.262
694.602	409.834
697.977	644.646
701.352	1035.93
704.726	1597.77
708.101	2324.01
711.476	3103.09
714.851	3761.48
718.226	3448.62
721.601	2131.43
724.975	1117.51
728.35	622.446
731.725	371.2
735.1	240.435
738.475	166.812
741.849	128.355
745.224	128.359
748.599	129.711
751.974	121.589
755.349	109.891
758.723	108.449
762.098	86.8978
765.473	63.5825
768.848	51.4667
772.223	51.4868
775.598	41.5715
778.972	52.2125
782.347	56.8662
785.722	72.0395
789.097	79.0114
792.472	88.7672
795.846	73.6908
799.221	61.8901
802.596	34.5101
805.971	7.97546
809.346	4.44763
812.721	4.63788
816.095	6.41681
819.47	5.47626
822.845	8.18549
826.22	4.88751
829.595	3.68811
832.97	1.49957
836.344	10.32
839.719	3.93475
843.094	11.3611
846.469	4.85809
849.844	11.6779
853.218	10.3532
856.593	12.0627
859.968	15.9034
863.343	12.8917
866.718	24.6476
870.092	19.0562
873.467	15.3997
876.842	25.9974
880.217	27.0973
883.592	17.7664
886.967	25.625
890.341	34.7856
893.716	39.6739
897.091	52.3732
900.466	67.1306
903.841	60.1196
907.216	59.7107
910.59	47.4106
913.965	50.3486
917.34	30.5938
920.715	27.2873
924.09	25.5958
927.464	30.1657
930.839	18.4749
934.214	18.6764
937.589	14.0996
940.964	13.392
944.338	1.79633
947.713	10.0666
951.088	22.2092
954.463	22.1486
957.838	22.5427
961.212	38.6773
964.587	28.334
967.962	24.9152
971.337	35.5313
974.712	35.719
978.087	17.8537
981.461	18.7545
984.836	17.5743
988.211	21.5504
991.586	5.68707
994.961	9.32159
998.335	15.9604
1001.71	8.39349
1005.09	1.16711
1008.46	11.7692
1011.84	0.249329
1015.21	0.422791
1018.58	4.51373
1021.96	5.52124
1025.33	12.2498
1028.71	2.45386
1032.08	5.47986
1035.46	3.10748
1038.83	0.098206
1042.21	2.64551
1045.58	7.1535
1048.96	2.06195
1052.33	10.6221
1055.71	5.89502
1059.08	11.3936
1062.46	7.34692
1065.83	14.386
1069.21	19.1573
1072.58	18.9426
1075.96	13.9474
1079.33	15.99
1082.71	11.1251
1086.08	15.7017
1089.45	12.068
1092.83	6.16754
1096.2	10.568
1099.58	11.3655
1102.95	9.79266
1106.33	11.1163
1109.7	4.01123
1113.08	0.680908
1116.45	9.51446
1119.83	9.1532
1123.2	0.359985
1126.58	2.44537
1129.95	5.82098
1133.33	7.11664
1136.7	3.08978
1140.08	1.05109
1143.45	9.43689
1146.83	8.47504
1150.2	7.66742
1153.58	0.28064
1156.95	19.8348
1160.33	12.509
1163.7	23.105
1167.08	17.7686
1170.45	14.6726
1173.83	20.1922
1177.2	18.8336
1180.58	24.3387
1183.95	19.1204
1187.33	16.696
1190.7	11.7722
1194.08	14.3656
1197.45	7.3764
1200.82	12.1762
1204.2	10.4883
1207.57	11.1699
1210.95	12.546
1214.32	3.01318
1217.7	9.85559
1221.07	8.5354
1224.45	10.5427
1227.82	10.2625
1231.2	9.98236
1234.57	2.7746
1237.95	4.35809
1241.32	0.364197
1244.7	15.954
1248.07	0.047302
1251.45	3.72022
1254.82	5.09613
1258.2	9.83404
1261.57	6.28278
1264.95	6.52246
1268.32	13.7051
1271.7	12.6716
1275.07	14.1107
1278.44	0.713013
1281.82	9.78943
1285.19	17.4519
1288.57	6.06226
1291.94	14.595
1295.32	8.54761
1298.69	5.47882
1302.07	9.64087
1305.44	0
