Measurement: Raman, 780 nm, unoriented, Raman Data Processed
Mineral: Senarmontite
Rruff sample: R060075
Ideal chemistry: Sb_2_O_3_
Locality: Djebel Haminate mine, Constantine, Algeria
Source: University of Arizona Mineral Museum
Description: Brown octahedra
Measured chemistry: Sb_2.00_O_3_
Raman shift (cm-1)	intensity
96.9422	0
100.317	168.538
103.692	109.44
107.067	226.355
110.442	481.191
113.816	896.93
117.191	1673.4
120.566	3812.7
123.941	1455.32
127.316	747.581
130.69	492.556
134.065	404.566
137.44	366.555
140.815	322.557
144.19	176.33
147.565	0.547119
150.939	77.6977
154.314	95.762
157.689	53.2902
161.064	45.9446
164.439	292.832
167.813	995.329
171.188	3258.45
174.563	4483.79
177.938	5501.12
181.313	7547.82
184.687	10656.2
188.062	17515.2
191.437	27733.2
194.812	10060.1
198.187	2645.28
201.561	1433.8
204.936	1424.9
208.311	1901.04
211.686	3015.85
215.061	4307.78
218.436	2350.82
221.81	640.27
225.185	15.7225
228.56	23.3164
231.935	516.042
235.31	3333.54
238.685	5921.11
242.059	7312.41
245.434	10285.5
248.809	14947.2
252.184	26644.1
255.559	44715.9
258.933	21690.9
262.308	9888.31
265.683	4239.24
269.058	1896.77
272.433	1092.54
275.808	915.377
279.182	1200.41
282.557	1542.06
285.932	2313.84
289.307	4192.46
292.682	6948.01
296.056	6318.18
299.431	3001.16
302.806	630.378
306.181	91.0856
309.556	35.3927
312.93	17.9305
316.305	156.189
319.68	190.384
323.055	40.0339
326.43	45.017
329.805	60.3253
333.179	51.0853
336.554	13.321
339.929	49.837
343.304	134.057
346.679	227.47
350.053	341.01
353.428	528.028
356.803	865.696
360.178	1112.76
363.553	1190.04
366.928	1397.76
370.302	1970.27
373.677	3053.27
377.052	3010.95
380.427	1754.01
383.802	1041.06
387.176	704.591
390.551	512.064
393.926	461.562
397.301	493.037
400.676	464.401
404.05	370.126
407.425	231.97
410.8	87.5584
414.175	2.49017
417.55	22.7211
420.925	21.0868
424.299	24.1136
427.674	114.988
431.049	406.755
434.424	1105.69
437.799	1637
441.173	2299.17
444.548	3568.45
447.923	6133.57
451.298	8926.48
454.673	5495.74
458.048	2468.84
461.422	1413.96
464.797	1096.66
468.172	961.83
471.547	990.207
474.922	1259.39
478.296	1939.64
481.671	2567.04
485.046	1369.01
488.421	458.417
491.796	183.371
495.171	85.0684
498.545	49.1042
501.92	49.3128
505.295	100.791
508.67	113.232
512.045	44.856
515.419	22.8317
518.794	25.2502
522.169	16.8869
525.544	17.3495
528.919	16.5493
532.293	5.90576
535.668	3.77783
539.043	3.26666
542.418	9.73529
545.793	1.64453
549.168	4.41382
552.542	4.52429
555.917	0.851501
559.292	4.18463
562.667	4.57422
566.042	11.6295
569.417	9.99139
572.791	2.21796
576.166	1.37897
579.541	6.2384
582.916	9.39026
586.291	5.00891
589.665	2.87384
593.04	7.43317
596.415	9.2843
599.79	11.0264
603.165	16.8791
606.539	13.993
609.914	17.4307
613.289	16.1169
616.664	19.5318
620.039	19.9387
623.414	17.0349
626.788	16.608
630.163	8.55634
633.538	13.0785
636.913	15.4256
640.288	16.596
643.663	14.1038
647.037	12.0886
650.412	6.1463
653.787	1.52277
657.162	2.95898
660.537	2.71228
663.911	1.0022
667.286	3.17426
670.661	4.26575
674.036	5.54224
677.411	21.5559
680.785	27.3405
684.16	44.3974
687.535	74.8959
690.91	119.314
694.285	191.342
697.659	296.872
701.034	466.05
704.409	664.156
707.784	907.18
711.159	1169.16
714.534	1363.92
717.908	1157.77
721.283	687.66
724.658	368.068
728.033	210.528
731.408	130.723
734.783	84.6974
738.157	61.393
741.532	51.7297
744.907	43.2283
748.282	43.269
751.657	46.217
755.031	47.1327
758.406	37.2281
761.781	32.101
765.156	25.5398
768.531	22.2643
771.905	18.5043
775.28	18.018
778.655	18.995
782.03	14.5249
785.405	24.0368
788.78	26.9641
792.154	31.3039
795.529	25.2533
798.904	17.8835
802.279	13.8924
805.654	3.03418
809.029	0.198151
812.403	0.97229
815.778	3.93796
819.153	3.93231
822.528	0.257751
825.903	1.09814
829.277	2.66782
832.652	4.19208
836.027	1.39902
839.402	5.36002
842.777	5.83514
846.151	5.40399
849.526	5.43845
852.901	3.03204
856.276	5.3089
859.651	4.14062
863.025	7.38528
866.4	9.16953
869.775	4.36267
873.15	5.74908
876.525	3.10461
879.9	3.76962
883.274	8.66498
886.649	11.9952
890.024	13.6477
893.399	17.6824
896.774	21.2223
900.149	19.9724
903.523	15.8106
906.898	16.2973
910.273	18.4503
913.648	13.1795
917.023	9.85938
920.397	10.0482
923.772	3.74264
927.147	5.20236
930.522	7.94299
933.897	4.05209
937.271	3.03833
940.646	3.76752
944.021	5.57553
947.396	2.61783
950.771	7.66415
954.146	6.24298
957.52	7.58023
960.895	12.3424
964.27	16.1043
967.645	10.1582
971.02	11.565
974.394	5.25915
977.769	7.09915
981.144	8.48038
984.519	7.32147
987.894	5.34323
991.269	4.71222
994.643	6.36713
998.018	0.336975
1001.39	3.50421
1004.77	0.174896
1008.14	1.20694
1011.52	1.51401
1014.89	0.394684
1018.27	1.26779
1021.64	1.65085
1025.02	4.06274
1028.39	1.72317
1031.77	7.5921
1035.14	4.35043
1038.52	6.4614
1041.89	0.833252
1045.27	1.43692
1048.64	6.11841
1052.02	1.85635
1055.39	5.41702
1058.77	4.21493
1062.14	12.4374
1065.52	7.50043
1068.89	7.58975
1072.26	6.35388
1075.64	8.35803
1079.01	5.61935
1082.39	8.49811
1085.76	7.22754
1089.14	13.4995
1092.51	4.72098
1095.89	8.40988
1099.26	3.67081
1102.64	4.20367
1106.01	3.48083
1109.39	6.24911
1112.76	5.50952
1116.14	3.93662
1119.51	1.99829
1122.89	3.13428
1126.26	2.59112
1129.64	1.93079
1133.01	3.57263
1136.39	0.217499
1139.76	4.46551
1143.13	0.0737
1146.51	3.52115
1149.88	4.76456
1153.26	6.80872
1156.63	8.99771
1160.01	8.84421
1163.38	7.76297
1166.76	9.16498
1170.13	12.5876
1173.51	9.8931
1176.88	12.615
1180.26	10.7605
1183.63	8.4443
1187.01	8.22293
1190.38	7.14087
1193.76	7.3822
1197.13	7.71262
1200.51	3.95181
1203.88	9.91663
1207.26	10.082
1210.63	6.0415
1214.01	8.76004
1217.38	8.13596
1220.76	4.72064
1224.13	5.2641
1227.51	4.97192
1230.88	8.31381
1234.26	1.32153
1237.63	5.68137
1241.01	7.69446
1244.38	5.08371
1247.76	7.79303
1251.13	4.77801
1254.5	0.344727
1257.88	4.50574
1261.25	0.630035
1264.63	1.20667
1268	5.45892
1271.38	9.00034
1274.75	8.90152
1278.13	3.15048
1281.5	0.112305
