Measurement: Raman, 532 nm, unoriented, Raman Data Processed
Mineral: Senegalite
Rruff sample: R050239
Ideal chemistry: Al_2_PO_4_(OH)_3_H_2_O
Locality: Kourondicko iron ore (magnetite) deposit, Faleme River Basin, Senegal
Source: Marcus Origlieri
Description: Colorless prismatic crystals
Measured chemistry: Al_2.00_P_1.00_O_4_(OH)_3_Â·H_2_O
Raman shift (cm-1)	intensity
123.155	0
126.53	11.706
129.905	113.098
133.28	372.74
136.655	286.346
140.029	147.511
143.404	121.35
146.779	148.225
150.154	60.8518
153.529	43.9985
156.903	39.0243
160.278	42.09
163.653	83.7673
167.028	212.942
170.403	49.2651
173.777	23.7872
177.152	51.8942
180.527	48.8561
183.902	53.05
187.277	66.021
190.651	81.7976
194.026	144.891
197.401	121.635
200.776	172.649
204.151	338.824
207.526	182.828
210.9	21.0121
214.275	1.08789
217.65	6.20874
221.025	27.2139
224.4	62.5968
227.774	112.996
231.149	200.29
234.524	253.273
237.899	160.479
241.274	127.371
244.649	81.4786
248.023	14.6819
251.398	20.4574
254.773	21.0441
258.148	4.91736
261.523	5.99231
264.897	22.0359
268.272	55.8792
271.647	142.438
275.022	291.013
278.397	228.812
281.772	138.73
285.146	183.381
288.521	298.804
291.896	525.522
295.271	570.448
298.646	323.623
302.02	265.816
305.395	182.974
308.77	138.061
312.145	162.317
315.52	179.142
318.894	206.663
322.269	269.197
325.644	367.658
329.019	511.735
332.394	450.13
335.769	221.419
339.143	126.379
342.518	104.564
345.893	46.6558
349.268	12.8566
352.643	6.5426
356.017	15.9697
359.392	42.0596
362.767	88.7916
366.142	124.445
369.517	111.256
372.892	78.0527
376.266	73.4354
379.641	67.6294
383.016	44.8251
386.391	25.3849
389.766	4.6366
393.14	17.0403
396.515	13.8409
399.89	3.12585
403.265	13.0308
406.64	9.78369
410.015	23.0646
413.389	52.2105
416.764	78.6781
420.139	99.5122
423.514	128.785
426.889	176.48
430.264	246.326
433.638	332.35
437.013	454.311
440.388	579.313
443.763	627.49
447.137	568.935
450.512	458.923
453.887	373.585
457.262	334.165
460.637	383.582
464.012	496.911
467.386	667.203
470.761	846.801
474.136	995.818
477.511	1136.07
480.886	1118.41
484.26	683.885
487.635	329.278
491.01	189.653
494.385	148.985
497.76	118.786
501.135	87.3384
504.509	60.6294
507.884	35.4471
511.259	13.1221
514.634	1.02307
518.009	0.324707
521.384	7.26392
524.758	8.69739
528.133	10.0977
531.508	3.87878
534.883	14.1819
538.258	41.6099
541.632	64.979
545.007	73.9296
548.382	76.406
551.757	79.4696
555.132	80.3208
558.506	91.4768
561.881	91.6315
565.256	96.49
568.631	92.4248
572.006	87.7627
575.381	78.3198
578.755	83.4856
582.13	93.9407
585.505	112.468
588.88	133.641
592.255	177.6
595.629	197.621
599.004	203.671
602.379	203.161
605.754	209.539
609.129	219.84
612.504	250.251
615.878	298.176
619.253	351.015
622.628	360.973
626.003	321.958
629.378	275.337
632.752	227.42
636.127	187.62
639.502	148.341
642.877	105.602
646.252	92.2499
649.626	68.4159
653.001	30.3125
656.376	14.1055
659.751	3.44519
663.126	8.83179
666.5	2.57471
669.875	8.83655
673.25	34.2465
676.625	31.3751
680	17.6045
683.375	3.37097
686.75	4.11975
690.124	1.04028
693.499	9.00537
696.874	26.3552
700.249	51.7388
703.624	70.1172
706.998	75.9283
710.373	65.7328
713.748	54.1786
717.123	35.1176
720.498	25.8754
723.872	13.6217
727.247	12.1912
730.622	11.8997
733.997	4.73694
737.372	2.06665
740.746	4.52222
744.121	6.13599
747.496	1.77649
750.871	1.95898
754.246	0.732056
757.621	0.183838
760.995	0.551392
764.37	0.921021
767.745	5.53601
771.12	0.702026
774.495	0.424561
777.87	0.128662
781.244	1.72644
784.619	7.99597
787.994	12.5846
791.369	2.58435
794.744	7.75378
798.118	15.3673
801.493	10.4587
804.868	15.9324
808.243	24.4904
811.618	33.6849
814.992	40.1917
818.367	43.486
821.742	46.9469
825.117	47.9827
828.492	44.7467
831.866	46.9163
835.241	38.0988
838.616	33.3918
841.991	33.1493
845.366	27.6058
848.741	20.6038
852.115	18.398
855.49	13.956
858.865	19.0554
862.24	15.5691
865.615	6.2074
868.99	3.72913
872.364	8.14111
875.739	4.69043
879.114	1.41199
882.489	3.25159
885.864	8.07459
889.238	5.25964
892.613	16.9112
895.988	8.03748
899.363	12.2216
902.738	9.18323
906.112	10.5418
909.487	6.84192
912.862	11.3602
916.237	5.65698
919.612	0.793335
922.987	4.24182
926.361	2.85718
929.736	4.24219
933.111	5.39954
936.486	6.92932
939.861	2.74976
943.236	6.84143
946.61	1.13745
949.985	0.84375
953.36	0.768677
956.735	3.09497
960.11	0.050415
963.484	5.09094
966.859	3.40149
970.234	1.56555
973.609	5.50598
976.984	7.56909
980.359	13.0093
983.733	24.3271
987.108	25.423
990.483	43.5431
993.858	50.468
997.232	65.8272
1000.61	82.5019
1003.98	123.382
1007.36	176.393
1010.73	238.403
1014.11	318.755
1017.48	397.556
1020.86	497.971
1024.23	606.02
1027.61	727.295
1030.98	825.618
1034.36	807.368
1037.73	653.544
1041.11	435.789
1044.48	285.431
1047.86	192.117
1051.23	146.209
1054.6	139.786
1057.98	152.962
1061.35	203.237
1064.73	238.863
1068.1	216.108
1071.48	147.785
1074.85	95.0702
1078.23	81.4923
1081.6	70.2531
1084.98	58.8312
1088.35	44.7587
1091.73	33.6669
1095.1	26.4666
1098.48	14.9992
1101.85	9.54675
1105.23	0.287109
1108.6	0.921631
1111.98	7.88916
1115.35	4.9939
1118.73	2.55969
1122.1	1.87244
1125.47	9.0614
1128.85	2.79492
1132.22	10.7852
1135.6	12.0405
1138.97	20.0497
1142.35	43.0593
1145.72	72.7754
1149.1	112.924
1152.47	141.036
1155.85	130.324
1159.22	94.2042
1162.6	55.4973
1165.97	37.3075
1169.35	28.7109
1172.72	16.5983
1176.1	13.7776
1179.47	20.2007
1182.85	11.6638
1186.22	10.1749
1189.6	7.20642
1192.97	14.4955
1196.35	11.0238
1199.72	11.2441
1203.1	11.9565
1206.47	14.4943
1209.85	15.2485
1213.22	21.8086
1216.6	23.4939
1219.97	20.2361
1223.35	17.4181
1226.72	13.5081
1230.1	11.204
1233.47	6.0365
1236.84	0.556274
1240.22	3.15332
1243.59	9.70276
1246.97	9.42493
1250.34	11.0094
1253.72	12.002
1257.09	7.06848
1260.47	15.4579
1263.84	6.74231
1267.22	6.71155
1270.59	2.04895
1273.97	15.6719
1277.34	7.2981
1280.72	8.17444
1284.09	5.46375
1287.47	7.33618
1290.84	5.81921
