Measurement: Raman, 780 nm, unoriented, Raman Data Processed
Mineral: Senegalite
Rruff sample: R050239
Ideal chemistry: Al_2_PO_4_(OH)_3_H_2_O
Locality: Kourondicko iron ore (magnetite) deposit, Faleme River Basin, Senegal
Source: Marcus Origlieri
Description: Colorless prismatic crystals
Measured chemistry: Al_2.00_P_1.00_O_4_(OH)_3_Â·H_2_O
Raman shift (cm-1)	intensity
123.209	0
126.584	13.116
129.959	54.3127
133.333	103.786
136.708	37.9189
140.083	35.3803
143.458	68.1524
146.833	57.576
150.208	4.06058
153.582	3.70619
156.957	0.625702
160.332	6.11424
163.707	34.4746
167.082	48.7673
170.456	6.46519
173.831	8.85123
177.206	20.2914
180.581	24.7022
183.956	40.4132
187.331	33.9191
190.705	53.3264
194.08	67.6832
197.455	62.0439
200.83	85.2398
204.205	114.506
207.579	42.68
210.954	13.8458
214.329	13.1113
217.704	19.8044
221.079	34.2385
224.453	59.4794
227.828	100.88
231.203	127.898
234.578	116.293
237.953	69.9471
241.327	66.4187
244.702	40.6111
248.077	6.61182
251.452	6.93697
254.827	4.76555
258.202	0.539581
261.576	7.00133
264.951	16.3614
268.326	36.1284
271.701	90.8006
275.076	147.139
278.45	86.1231
281.825	58.5222
285.2	78.5323
288.575	123.918
291.95	186.604
295.325	156.509
298.699	92.7227
302.074	81.2035
305.449	51.0639
308.824	49.2452
312.199	61.0282
315.574	63.3425
318.948	72.2127
322.323	93.0109
325.698	126.664
329.073	158.238
332.448	113
335.822	54.6312
339.197	39.123
342.572	33.3141
345.947	9.34311
349.322	0.751038
352.697	4.85344
356.071	13.7033
359.446	29.5154
362.821	52.5599
366.196	72.0776
369.571	58.5842
372.945	37.5524
376.32	29.8105
379.695	19.6853
383.07	12.0479
386.445	8.79868
389.82	0.256195
393.194	7.10933
396.569	6.79536
399.944	1.43109
403.319	5.63103
406.693	4.65663
410.068	8.75241
413.443	19.8037
416.818	29.9327
420.193	46.0725
423.568	68.9303
426.942	95.4552
430.317	119.597
433.692	149.874
437.067	190.895
440.442	226.345
443.817	235.764
447.191	212.874
450.566	181.536
453.941	148.78
457.316	139.409
460.691	166.669
464.065	216.369
467.44	269.787
470.815	318.234
474.19	361.146
477.565	406.882
480.94	347.136
484.314	186.02
487.689	90.4897
491.064	56.6546
494.439	44.1763
497.814	36.2735
501.188	28.7181
504.563	19.9003
507.938	15.8917
511.313	9.17339
514.688	1.44511
518.062	2.05876
521.437	4.05794
524.812	3.99019
528.187	2.11635
531.562	1.95515
534.937	10.3125
538.311	16.1416
541.686	24.8676
545.061	31.2672
548.436	32.6271
551.811	33.2744
555.186	31.9708
558.56	34.2612
561.935	32.9477
565.31	33.1735
568.685	33.2101
572.06	32.3437
575.434	34.019
578.809	34.586
582.184	39.5418
585.559	43.1521
588.934	50.7244
592.308	57.5977
595.683	67.8227
599.058	76.5921
602.433	85.1447
605.808	93.7288
609.183	99.6298
612.557	112.034
615.932	128.783
619.307	142.612
622.682	139.821
626.057	120.27
629.431	98.6044
632.806	80.9865
636.181	64.505
639.556	50.8221
642.931	41.8465
646.306	36.5101
649.68	26.8079
653.055	11.4224
656.43	2.53037
659.805	0.365265
663.18	2.19284
666.554	0.035904
669.929	2.6041
673.304	8.17125
676.679	6.79614
680.054	2.10301
683.428	2.07529
686.803	2.78037
690.178	1.17772
693.553	5.53206
696.928	13.0154
700.303	19.6359
703.677	26.5288
707.052	26.1067
710.427	19.6357
713.802	12.0035
717.177	8.19675
720.552	5.79103
723.926	3.77249
727.301	2.59961
730.676	1.53648
734.051	1.98103
737.426	1.56859
740.8	1.63882
744.175	1.56961
747.55	0.847198
750.925	0.918915
754.3	0.849503
757.674	0.874374
761.049	0.375
764.424	0.16571
767.799	0.130524
771.174	0.116409
774.548	1.07445
777.923	2.17839
781.298	2.85393
784.673	2.79665
788.048	3.47128
791.423	4.09854
794.797	4.96056
798.172	6.92728
801.547	7.92989
804.922	9.88811
808.297	12.4918
811.672	14.1729
815.046	15.8585
818.421	18.1831
821.796	19.5448
825.171	20.2969
828.546	20.2532
831.92	18.5387
835.295	18.8904
838.67	15.8145
842.045	16.3657
845.42	13.8096
848.794	14.5534
852.169	12.9164
855.544	11.173
858.919	10.1354
862.294	7.54063
865.669	5.77118
869.043	4.76298
872.418	5.02937
875.793	3.35524
879.168	3.91808
882.543	5.1884
885.918	4.55519
889.292	4.96519
892.667	4.98352
896.042	3.81166
899.417	3.35992
902.792	2.58902
906.166	2.4688
909.541	2.17304
912.916	2.03095
916.291	1.30011
919.666	0.594559
923.04	1.18764
926.415	0.281189
929.79	0.682617
933.165	0.229248
936.54	0.083923
939.914	0.240082
943.289	1.41806
946.664	0.244431
950.039	0.655121
953.414	1.02254
956.789	0.522903
960.163	0.002243
963.538	0.569687
966.913	1.40727
970.288	2.44409
973.663	4.70226
977.038	5.93468
980.412	8.91745
983.787	9.21368
987.162	12.5861
990.537	17.3897
993.912	23.4187
997.286	33.2739
1000.66	44.4198
1004.04	62.3346
1007.41	87.4872
1010.79	115.23
1014.16	144.04
1017.53	175.966
1020.91	219.529
1024.29	263.388
1027.66	299.916
1031.04	304.562
1034.41	256.934
1037.78	184.215
1041.16	119.403
1044.53	78.6222
1047.91	54.3397
1051.28	47.0405
1054.66	47.8583
1058.03	54.6094
1061.41	65.4251
1064.78	68.4236
1068.16	53.7132
1071.53	37.4205
1074.91	28.8207
1078.28	31.4667
1081.66	32.9703
1085.03	29.3168
1088.41	19.6841
1091.78	13.55
1095.16	6.60282
1098.53	2.93506
1101.91	0.688881
1105.28	0.369637
1108.65	1.60675
1112.03	2.24563
1115.4	0.635468
1118.78	0.760818
1122.15	0.405579
1125.53	1.78557
1128.9	5.41577
1132.28	7.03302
1135.65	10.1436
1139.03	14.1399
1142.4	21.9403
1145.78	35.1498
1149.15	45.2067
1152.53	47.8128
1155.9	37.6767
1159.28	24.0395
1162.65	12.6791
1166.03	7.54542
1169.4	4.88798
1172.78	1.64648
1176.15	1.8932
1179.53	1.07046
1182.9	1.07173
1186.28	0.237709
1189.65	1.55466
1193.03	2.81798
1196.4	4.11259
1199.78	3.00829
1203.15	1.97194
1206.53	1.83777
1209.9	1.60458
1213.28	2.83682
1216.65	0.949516
1220.02	1.74015
1223.4	1.94055
1226.77	0.96489
1230.15	1.55156
1233.52	0.518555
1236.9	1.0164
1240.27	0.388008
1243.65	1.09715
1247.02	1.17499
1250.4	1.6044
1253.77	0.386688
1257.15	0.493019
1260.52	0.925964
1263.9	1.44029
1267.27	0.03299
1270.65	0.963326
1274.02	1.93784
1277.4	1.3384
1280.77	1.08294
1284.15	0.942307
