Measurement: Raman, 785 nm, unoriented, Raman Data Processed
Mineral: Sengierite
Rruff sample: R070520
Ideal chemistry: Cu_2_(UO_2_)_2_(VO_4_)_2_(OH)_2_6H_2_O
Locality: Cole Shaft, Bisbee, Mule Mountains, Cochise County, Arizona, USA
Source: James Shigley
Description: Yellowish-green tabular microcrystals
Raman shift (cm-1)	intensity
159.487	0
162.38	3.24536
165.273	57.0436
168.165	59.6065
171.058	67.4493
173.951	80.8135
176.843	77.4968
179.736	105.687
182.629	88.7521
185.522	117.145
188.414	119.588
191.307	57.0497
194.2	50.872
197.092	89.5231
199.985	35.8275
202.878	65.9741
205.77	92.4499
208.663	93.3815
211.556	156.312
214.448	119.671
217.341	124.809
220.234	84.3682
223.127	123.038
226.019	136.422
228.912	128.03
231.805	135.828
234.697	162.712
237.59	165.589
240.483	177.339
243.375	130.61
246.268	127.368
249.161	103.776
252.054	61.9454
254.946	31.226
257.839	53.6344
260.732	11.8465
263.624	11.0396
266.517	23.2738
269.41	11.1475
272.302	10.2517
275.195	7.45938
278.088	20.3736
280.981	21.2351
283.873	8.01254
286.766	8.22134
289.659	39.4434
292.551	71.7051
295.444	113.993
298.337	143.496
301.229	208.473
304.122	217.039
307.015	207.051
309.908	155.968
312.8	115.22
315.693	93.2225
318.586	76.9914
321.478	65.549
324.371	114.188
327.264	137.189
330.156	194.945
333.049	261.016
335.942	319.73
338.834	375.018
341.727	460.48
344.62	503.057
347.513	507.358
350.405	520.229
353.298	542.04
356.191	558.596
359.083	613.132
361.976	694.914
364.869	776.218
367.762	876.992
370.654	917.712
373.547	846.02
376.44	763.543
379.332	609.152
382.225	455.995
385.118	370.481
388.01	287.817
390.903	258.106
393.796	266.515
396.688	269.165
399.581	316.057
402.474	367.326
405.367	378.188
408.259	396.582
411.152	380.507
414.045	339.344
416.937	227.835
419.83	144.387
422.723	83.7069
425.615	30.0256
428.508	13.9261
431.401	13.1823
434.293	7.40625
437.186	18.754
440.079	22.4683
442.972	25.4314
445.864	8.44595
448.757	6.38928
451.65	8.08817
454.542	45.2874
457.435	88.2545
460.328	120.731
463.221	175.38
466.113	228.095
469.006	272.984
471.899	336.375
474.791	393.202
477.684	423.222
480.577	397.483
483.469	397.769
486.362	325.905
489.255	254.934
492.147	235.606
495.04	201.638
497.933	183.565
500.826	156.513
503.718	142.026
506.611	122.182
509.504	75.1687
512.396	39.9455
515.289	45.9553
518.182	12.3875
521.074	19.5085
523.967	64.9728
526.86	96.8388
529.753	127.031
532.645	171.613
535.538	208.057
538.431	257.276
541.323	220.68
544.216	207.856
547.109	168.695
550.001	144.51
552.894	133.763
555.787	144.563
558.68	150.74
561.572	203.968
564.465	231.524
567.358	273.349
570.25	330.145
573.143	360.222
576.036	361.11
578.928	343.711
581.821	322.991
584.714	242.998
587.607	192.372
590.499	155.539
593.392	110.618
596.285	63.3759
599.177	43.8874
602.07	28.5161
604.963	12.5615
607.856	14.4158
610.748	0.214172
613.641	13.7385
616.534	12.1097
619.426	14.3179
622.319	10.7129
625.212	4.69565
628.104	9.84851
630.997	7.92107
633.89	26.3181
636.782	48.4126
639.675	60.3967
642.568	85.4835
645.461	109.562
648.353	95.0353
651.246	106.08
654.139	89.6207
657.031	51.4274
659.924	43.7059
662.817	14.9216
665.709	6.1597
668.602	3.16275
671.495	2.35806
674.388	7.12775
677.28	1.34476
680.173	0.698822
683.066	9.68152
685.958	15.635
688.851	36.3158
691.744	37.6635
694.636	57.2506
697.529	84.4329
700.422	125.36
703.314	147.95
706.207	215.809
709.1	272.51
711.993	369.083
714.885	471.116
717.778	567.317
720.671	683.74
723.563	845.67
726.456	1011.91
729.349	1156.41
732.241	1280.82
735.134	1324.29
738.027	1334.27
740.92	1250.65
743.812	1154.73
746.705	1017.41
749.598	868.563
752.49	739.208
755.383	628.487
758.276	503.316
761.168	446.182
764.061	359.55
766.954	324.471
769.847	243.835
772.739	187.782
775.632	188.137
778.525	137.55
781.417	98.8428
784.31	62.0929
787.203	44.2214
790.096	22.4611
792.988	13.4542
795.881	9.62732
798.774	1.8931
801.666	19.1858
804.559	19.7385
807.452	0.843414
810.344	45.3119
813.237	39.3404
816.13	90.0611
819.023	130.896
821.915	156.431
824.808	160.865
827.701	166.742
830.593	161.955
833.486	131.904
836.379	103.407
839.271	89.8837
842.164	64.5294
845.057	63.1096
847.949	59.063
850.842	43.6641
853.735	22.2359
856.628	24.575
859.52	20.9027
862.413	0.520355
865.306	2.05003
868.198	15.5311
871.091	6.90317
873.984	7.91777
876.876	2.12328
879.769	3.66121
882.662	4.96288
885.554	1.61713
888.447	8.36002
891.34	2.32761
894.233	10.3242
897.125	9.1731
900.018	15.2453
902.911	4.70605
905.803	22.2615
908.696	7.95649
911.589	27.6625
914.481	28.9987
917.374	31.1972
920.267	42.6257
923.16	52.5215
926.052	53.2589
928.945	58.4244
931.838	66.8345
934.73	76.1645
937.623	82.8978
940.516	83.5479
943.408	105.397
946.301	107.514
949.194	132.226
952.087	147.948
954.979	165.973
957.872	200.211
960.765	267.521
963.657	293.928
966.55	329.029
969.443	339.362
972.335	313.767
975.228	237.485
978.121	171.506
981.014	123.924
983.906	79.5924
986.799	65.3449
989.692	47.4692
992.584	37.0243
995.477	23.2827
998.37	13.123
1001.26	16.1704
1004.15	3.63463
1007.05	14.803
1009.94	5.57942
1012.83	11.3926
1015.73	12.5725
1018.62	4.75211
1021.51	4.77361
1024.4	11.3606
1027.3	0.962608
1030.19	6.74953
1033.08	1.35417
1035.97	5.05913
1038.87	4.19462
1041.76	7.62845
1044.65	6.44967
1047.55	1.52895
1050.44	10.6976
1053.33	5.46194
1056.22	23.8403
1059.12	15.2198
1062.01	13.1028
1064.9	8.39534
1067.8	6.88477
1070.69	13.5881
1073.58	8.6404
1076.47	1.70473
1079.37	11.939
1082.26	2.68824
1085.15	6.50198
1088.04	5.59551
1090.94	1.09006
1093.83	1.22757
1096.72	15.0889
1099.61	10.7785
1102.51	6.40245
1105.4	12.4338
1108.29	2.61414
1111.18	2.75598
1114.08	8.68267
1116.97	9.01273
1119.86	1.15498
1122.76	3.52014
1125.65	13.9738
1128.54	12.5729
1131.43	15.6561
1134.33	6.05396
1137.22	1.8498
1140.11	6.07476
1143.01	0.633957
1145.9	0.115492
1148.79	4.24365
1151.68	17.9519
1154.58	11.7536
1157.47	9.17033
1160.36	14.0226
1163.25	7.89197
1166.15	5.58569
1169.04	8.3766
1171.93	10.8727
1174.82	5.47542
1177.72	19.8234
1180.61	5.54153
1183.5	14.2759
1186.39	12.2437
1189.29	10.6385
1192.18	13.3328
1195.07	14.4935
1197.97	1.35784
1200.86	8.69878
1203.75	2.10639
1206.64	9.01616
1209.54	4.3084
1212.43	4.90298
1215.32	18.7558
1218.21	0.816319
1221.11	6.44959
1224	8.08564
1226.89	11.3008
1229.79	20.8071
1232.68	11.3109
1235.57	6.73906
1238.46	15.4603
1241.36	9.18393
1244.25	14.2813
1247.14	17.8394
1250.04	7.39833
1252.93	4.80469
1255.82	13.9414
1258.71	10.1174
1261.61	20.455
1264.5	0.040684
