Measurement: Raman, 532 nm, unoriented, Raman Data Processed
Mineral: Sengierite
Rruff sample: R070520
Ideal chemistry: Cu_2_(UO_2_)_2_(VO_4_)_2_(OH)_2_6H_2_O
Locality: Cole Shaft, Bisbee, Mule Mountains, Cochise County, Arizona, USA
Source: James Shigley
Description: Yellowish-green tabular microcrystals
Raman shift (cm-1)	intensity
164.619	0
167.512	12.6345
170.404	86.4116
173.297	146.834
176.19	377.969
179.082	506.001
181.975	635.715
184.868	710.261
187.761	731.673
190.653	530.796
193.546	344.848
196.439	292.572
199.331	483.162
202.224	774.636
205.117	1096.35
208.009	1444.38
210.902	1776.56
213.795	1743.13
216.688	1265.23
219.58	666.516
222.473	444.956
225.366	415.141
228.258	459.904
231.151	609.731
234.044	851.711
236.936	1044.69
239.829	1068.51
242.722	863.486
245.614	649.829
248.507	456.289
251.4	292.236
254.293	214.916
257.185	144.25
260.078	9.93457
262.971	9.66016
265.863	82.2888
268.756	170.315
271.649	191.527
274.541	102.623
277.434	9.3418
280.327	108.445
283.22	119.974
286.112	97.9221
289.005	14.8418
291.898	116.268
294.79	369.437
297.683	661.686
300.576	973.273
303.469	1139.45
306.361	987.626
309.254	597.122
312.147	253.628
315.039	125.552
317.932	160.472
320.825	310.762
323.717	659.623
326.61	1134
329.503	1694.41
332.396	2264.07
335.288	2957.36
338.181	3487.18
341.074	3767.18
343.966	3843.97
346.859	3576.74
349.752	3117.69
352.644	2828.28
355.537	2720.01
358.43	2837.35
361.322	3340.86
364.215	3921.41
367.108	4864.05
370.001	5670.09
372.893	5988.88
375.786	5764.96
378.679	4963
381.572	3545.91
384.464	2461.62
387.357	1795.51
390.25	1408.83
393.142	1332.21
396.035	1432.44
398.928	1716.36
401.82	2109.94
404.713	2562.26
407.606	2790.25
410.498	2896.04
413.391	2547.68
416.284	1903.33
419.177	1244.51
422.069	724.043
424.962	348.689
427.855	208.876
430.747	39.8423
433.64	24.7598
436.533	59.2288
439.425	83.1201
442.318	139.857
445.211	88.0727
448.104	54.0513
450.996	47.1494
453.889	169.371
456.782	393.81
459.674	611.352
462.567	974.716
465.46	1378.73
468.353	2025.96
471.245	2632.54
474.138	3116.56
477.031	3429.14
479.923	3429.44
482.816	3078.57
485.709	2638.31
488.601	2235.43
491.494	2016.44
494.387	1935.43
497.279	1799.19
500.172	1595.78
503.065	1371.62
505.958	1135.66
508.85	854.199
511.743	603.467
514.636	328.361
517.528	174.407
520.421	62.2664
523.314	87.8948
526.207	205.7
529.099	525.485
531.992	859.297
534.885	1296.15
537.777	1634.49
540.67	1744.49
543.563	1727.24
546.455	1389.11
549.348	1135.02
552.241	960.133
555.134	944.423
558.026	1132.29
560.919	1426.1
563.812	1936.67
566.704	2524.08
569.597	3144.95
572.49	3791.55
575.382	4055.43
578.275	4077.3
581.168	3631.38
584.061	2937.6
586.953	2167.85
589.846	1572.57
592.739	1109.26
595.631	811.606
598.524	542.717
601.417	392.117
604.309	258.74
607.202	185.21
610.095	106.63
612.987	22.0524
615.88	29.8925
618.773	55.262
621.666	85.6284
624.558	104.43
627.451	71.3143
630.344	28.2086
633.236	31.4962
636.129	183.576
639.022	382.388
641.915	610.808
644.807	860.556
647.7	985.816
650.593	1034.46
653.485	837.368
656.378	527.649
659.271	277.522
662.163	103.949
665.056	21.9343
667.949	5.89233
670.842	5.55835
673.734	22.5427
676.627	80.0701
679.52	114.552
682.412	142.036
685.305	239.215
688.198	310.386
691.091	540.468
693.983	757.898
696.876	1024.87
699.769	1347.38
702.661	1812.18
705.554	2336.3
708.447	2952.7
711.339	3764.88
714.232	4799.06
717.125	6276.87
720.018	7947.39
722.91	10057
725.803	12677.5
728.696	15319.1
731.588	17707.5
734.481	19212.2
737.374	19453.2
740.266	18431.8
743.159	16334.6
746.052	13847.6
748.944	11302.4
751.837	9275.94
754.73	7400.03
757.623	6036.16
760.515	4922.77
763.408	4080.7
766.301	3312.26
769.193	2740.86
772.086	2256.3
774.979	1782.48
777.871	1372.26
780.764	1001.94
783.657	677.479
786.55	441.266
789.442	214.671
792.335	43.7219
795.228	63.8562
798.12	124.11
801.013	101.678
803.906	64.2466
806.798	74.0491
809.691	328.633
812.584	712.975
815.477	1244.29
818.369	1734.92
821.262	2240.51
824.155	2399.46
827.047	2241.71
829.94	1818.79
832.833	1377.55
835.726	1088.8
838.618	879.457
841.511	740.806
844.404	641.606
847.296	598.327
850.189	525.38
853.082	412.822
855.975	302.381
858.867	214.918
861.76	153.463
864.653	81.6008
867.545	38.9409
870.438	43.1796
873.331	7.17017
876.223	5.28809
879.116	13.8663
882.009	34.6902
884.902	3.83679
887.794	11.681
890.687	9.98132
893.58	25.422
896.472	35.9654
899.365	68.2817
902.258	95.6421
905.15	158.88
908.043	171.879
910.936	185.482
913.828	225.691
916.721	225.26
919.614	245.836
922.507	236.387
925.399	264.644
928.292	259.248
931.185	295.64
934.077	275.968
936.97	318.005
939.863	332.18
942.755	366.212
945.648	432.737
948.541	516.416
951.434	695.282
954.326	896.419
957.219	1230.95
960.112	1702.23
963.004	2376.73
965.897	3058.28
968.79	3640.46
971.683	3732.04
974.575	3003.06
977.468	1898.89
980.361	1123.68
983.253	685.996
986.146	462.792
989.039	355.872
991.931	247.67
994.824	195.19
997.717	132.04
1000.61	72.7981
1003.5	34.7153
1006.39	11.8153
1009.29	17.3295
1012.18	0.758545
1015.07	2.29187
1017.97	1.21863
1020.86	14.3009
1023.75	3.65063
1026.64	0.922119
1029.54	4.30069
1032.43	13.3854
1035.32	7.7374
1038.21	13.592
1041.11	8.37564
1044	10.6442
1046.89	10.984
1049.79	29.5744
1052.68	30.6334
1055.57	29.9814
1058.46	32.0509
1061.36	55.0561
1064.25	45.9397
1067.14	52.7389
1070.03	77.0524
1072.93	59.0934
1075.82	66.6821
1078.71	62.4953
1081.61	34.9771
1084.5	48.4273
1087.39	46.2741
1090.28	56.6698
1093.18	24.0958
1096.07	47.9801
1098.96	53.2536
1101.85	43.7092
1104.75	29.8375
1107.64	17.8009
1110.53	10.8328
1113.42	12.7124
1116.32	19.743
1119.21	12.943
1122.1	33.4008
1125	3.04483
1127.89	18.9553
1130.78	5.76251
1133.67	14.6161
1136.57	20.0774
1139.46	18.5914
1142.35	12.5126
1145.24	0.092621
1148.14	14.203
1151.03	4.49475
1153.92	19.0011
1156.82	7.45572
1159.71	18.0093
1162.6	1.34381
1165.49	4.23004
1168.39	18.8802
1171.28	2.11081
1174.17	3.77411
1177.06	2.80136
1179.96	4.57278
1182.85	1.10818
1185.74	19.1667
1188.63	7.3128
1191.53	12.4697
1194.42	14.2086
1197.31	11.9017
1200.21	4.07404
1203.1	8.06882
1205.99	9.87875
1208.88	32.3212
1211.78	10.7063
1214.67	15.1625
1217.56	20.436
1220.45	25.2777
1223.35	13.1117
1226.24	14.4837
1229.13	4.6113
1232.03	6.44147
1234.92	4.99139
1237.81	9.06064
1240.7	11.8536
1243.6	5.4675
1246.49	20.7752
1249.38	12.3814
1252.28	0.391876
1255.17	3.66305
1258.06	18.0666
1260.95	12.0286
1263.85	13.2577
1266.74	29.217
1269.63	16.6473
1272.52	17.9056
1275.42	22.4397
1278.31	4.1654
1281.2	2.6843
1284.09	14.1791
1286.99	0.638397
