Measurement: Raman, 532 nm, unoriented, Raman Data Processed
Mineral: Sengierite
Rruff sample: R100186
Ideal chemistry: Cu_2_(UO_2_)_2_(VO_4_)_2_(OH)_2_6H_2_O
Locality: Shinkolobwe mine, Katanga, Congo
Source: William W Pinch
Description: Lime green thin plates
Raman shift (cm-1)	intensity
167.21	0
170.102	27.52
172.995	44.9795
175.888	82.2942
178.78	115.799
181.673	129.973
184.566	198.506
187.459	256.478
190.351	251.316
193.244	183.394
196.137	175.315
199.029	256.417
201.922	344.369
204.815	413.549
207.708	521.972
210.6	699.898
213.493	868.991
216.386	783.327
219.278	481.283
222.171	292.29
225.064	239.168
227.956	212.549
230.849	228.891
233.742	275.522
236.635	370.659
239.527	418.744
242.42	345.672
245.313	241.722
248.205	154.072
251.098	94.5802
253.991	80.0372
256.884	71.4835
259.776	32.2024
262.669	12.8035
265.562	20.5256
268.454	5.6781
271.347	34.3182
274.24	20.9391
277.132	11.4548
280.025	31.8537
282.918	26.8691
285.81	2.35004
288.703	32.0996
291.596	70.2115
294.489	119.19
297.381	181.852
300.274	280.812
303.167	377.549
306.059	367.837
308.952	230.155
311.845	90.4403
314.738	32.4242
317.63	26.9252
320.523	56.0765
323.416	128.535
326.308	233.792
329.201	391.496
332.094	578.027
334.986	776.482
337.879	961.524
340.772	1137.44
343.665	1255.09
346.557	1268.19
349.45	1161.67
352.343	1007.45
355.235	909.576
358.128	878.79
361.021	943.002
363.913	1079.81
366.806	1278.86
369.699	1528.51
372.592	1763.19
375.484	1860.54
378.377	1742.7
381.27	1392.05
384.162	958.231
387.055	655.51
389.948	501.479
392.841	443.882
395.733	443.553
398.626	495.666
401.519	573.82
404.411	668.001
407.304	773.005
410.197	844.948
413.089	820.378
415.982	666.367
418.875	447.101
421.767	247.901
424.66	126.364
427.553	46.9952
430.446	11.2232
433.338	15.8395
436.231	30.3188
439.124	39.9761
442.017	31.5329
444.909	24.2737
447.802	9.33478
450.695	8.70081
453.587	41.5152
456.48	89.74
459.373	155.532
462.265	252.332
465.158	378.281
468.051	497.512
470.943	644.105
473.836	830.345
476.729	1004.93
479.622	1110.76
482.514	1066.91
485.407	893.947
488.3	749.506
491.192	660.541
494.085	620.122
496.978	594.208
499.87	586.76
502.763	560.352
505.656	515.341
508.549	457.631
511.441	392.567
514.334	291.299
517.227	192.835
520.119	110.987
523.012	73.2748
525.905	88.0315
528.798	149.039
531.69	232.932
534.583	345.817
537.476	466.983
540.368	564.528
543.261	576.95
546.154	476.06
549.047	342.35
551.939	242.468
554.832	185.362
557.725	178.852
560.617	212.571
563.51	292.799
566.403	398.622
569.295	534.092
572.188	672.388
575.081	788.364
577.973	869.819
580.866	838.813
583.759	708.711
586.652	540.286
589.544	380.616
592.437	259.137
595.33	174.512
598.222	121.514
601.115	80.6776
604.008	62.3624
606.901	36.3073
609.793	25.5797
612.686	13.3782
615.579	3.74335
618.471	18.5771
621.364	30.2855
624.257	29.5797
627.149	32.2675
630.042	20.4241
632.935	14.2852
635.828	6.47833
638.72	45.0971
641.613	89.6287
644.506	148.98
647.398	216.703
650.291	266.466
653.184	263.073
656.077	201.704
658.969	112.704
661.862	54.6411
664.755	32.4503
667.647	10.4642
670.54	18.3676
673.433	25.9794
676.325	31.9846
679.218	47.9005
682.111	63.1809
685.004	83.2235
687.896	111.711
690.789	156.182
693.682	210.9
696.574	284.702
699.467	377.749
702.36	491.869
705.253	626.067
708.145	801.222
711.038	1035.02
713.931	1328.38
716.823	1717.57
719.716	2223.76
722.609	2847.25
725.501	3614.13
728.394	4495.69
731.287	5360.46
734.179	6093.14
737.072	6437.83
739.965	6247.76
742.858	5549.6
745.75	4659.98
748.643	3752.85
751.536	2970.45
754.428	2322.76
757.321	1818.54
760.214	1419.36
763.107	1101.59
765.999	865.288
768.892	665.308
771.785	514.698
774.677	386.604
777.57	278.584
780.463	199.337
783.356	135.625
786.248	88.4769
789.141	40.2317
792.034	5.53052
794.926	13.7567
797.819	24.5754
800.712	32.2024
803.604	22.4592
806.497	1.89465
809.39	35.293
812.283	99.4689
815.175	185.942
818.068	292.618
820.961	408.488
823.853	471.048
826.746	445.933
829.639	351.65
832.531	247.388
835.424	167.211
838.317	106.059
841.21	73.2464
844.102	51.1443
846.995	35.256
849.888	29.482
852.78	30.8792
855.673	20.9274
858.566	8.7608
861.458	2.69684
864.351	4.02112
867.244	0.738281
870.136	1.73608
873.029	0.344177
875.922	4.63818
878.815	3.65765
881.707	1.97876
884.6	6.32721
887.493	11.0356
890.385	15.5645
893.278	23.4794
896.171	25.6761
899.064	33.6569
901.956	38.943
904.849	50.501
907.742	58.8566
910.634	61.8227
913.527	65.8743
916.42	63.2793
919.312	61.1185
922.205	56.8738
925.098	58.7341
927.991	56.49
930.883	49.7018
933.776	46.8195
936.669	47.045
939.562	39.3838
942.454	44.5839
945.347	46.911
948.24	57.7985
951.132	72.4974
954.025	101.478
956.918	136.344
959.81	199.631
962.703	273.519
965.596	347.92
968.489	438.524
971.381	527.691
974.274	469.07
977.167	269.413
980.059	125.372
982.952	64.9836
985.845	36.0913
988.737	15.6605
991.63	7.03388
994.523	6.44
997.415	3.45227
1000.31	4.32617
1003.2	5.18506
1006.09	1.61414
1008.99	4.50568
1011.88	2.6037
1014.77	0.320496
1017.66	1.6571
1020.56	1.20074
1023.45	1.16199
1026.34	1.64404
1029.23	3.15405
1032.13	1.41272
1035.02	5.2901
1037.91	1.51917
1040.81	3.53046
1043.7	6.09088
1046.59	5.9101
1049.48	8.992
1052.38	7.26343
1055.27	10.4058
1058.16	10.2831
1061.06	11.6105
1063.95	15.9253
1066.84	13.7974
1069.73	13.5983
1072.63	11.8494
1075.52	15.5187
1078.41	10.949
1081.3	9.7406
1084.2	9.04449
1087.09	11.0677
1089.98	10.6585
1092.88	7.98511
1095.77	6.49463
1098.66	10.3688
1101.55	6.22229
1104.45	3.87579
1107.34	5.40295
1110.23	3.46106
1113.12	3.97949
1116.02	1.91614
1118.91	3.24213
1121.8	1.70361
1124.69	1.56421
1127.59	5.664
1130.48	0.321899
1133.37	4.0213
1136.27	1.16321
1139.16	0.087219
1142.05	0.496521
1144.94	4.22253
1147.84	1.18683
1150.73	4.45373
1153.62	1.49902
1156.51	0.086365
1159.41	1.14941
1162.3	3.45312
1165.19	3.26819
1168.09	0.899414
1170.98	2.58514
1173.87	3.21149
1176.76	2.99353
1179.66	2.52991
1182.55	1.70166
1185.44	4.55231
1188.33	3.19031
1191.23	4.56555
1194.12	4.52307
1197.01	5.20148
1199.9	2.46008
1202.8	3.86395
1205.69	4.80646
1208.58	5.02289
1211.48	7.17651
1214.37	3.83887
1217.26	7.41412
1220.15	5.53308
1223.05	7.05792
1225.94	3.00769
1228.83	3.84033
1231.72	4.9176
1234.62	2.39075
1237.51	5.09222
1240.4	1.86395
1243.3	2.71918
1246.19	0.062927
1249.08	1.36298
1251.97	4.13348
1254.87	3.62872
1257.76	4.42303
1260.65	3.14301
1263.54	5.39777
1266.44	0.531677
1269.33	5.26587
1272.22	6.52508
1275.12	6.79181
1278.01	3.31042
1280.9	6.62006
1283.79	4.25238
1286.69	4.21515
1289.58	3.46612
1292.47	1.29596
1295.36	3.53827
1298.26	3.34479
1301.15	4.08337
