Measurement: Raman, 780 nm, unoriented, Raman Data Processed
Mineral: Sengierite
Rruff sample: R100186
Ideal chemistry: Cu_2_(UO_2_)_2_(VO_4_)_2_(OH)_2_6H_2_O
Locality: Shinkolobwe mine, Katanga, Congo
Source: William W Pinch
Description: Lime green thin plates
Raman shift (cm-1)	intensity
135.924	0.025749
138.817	1.00157
141.71	0.082848
144.602	1.62508
147.495	1.24491
150.388	4.03261
153.281	5.77956
156.173	7.86641
159.066	11.6678
161.959	12.7963
164.851	17.1171
167.744	20.0759
170.637	22.6449
173.53	20.2085
176.422	20.2321
179.315	18.4796
182.208	16.0393
185.1	15.5446
187.993	13.19
190.886	8.98456
193.778	7.77341
196.671	9.01198
199.564	10.9143
202.457	14.6041
205.349	17.7946
208.242	20.7267
211.135	23.6318
214.027	21.7679
216.92	19.8173
219.813	17.3157
222.705	16.6394
225.598	14.7059
228.491	12.4478
231.383	9.95058
234.276	8.96844
237.169	7.40915
240.061	7.60649
242.954	4.43594
245.847	2.54751
248.74	1.6138
251.632	0.621696
254.525	0.226311
257.418	0.174744
260.31	1.96481
263.203	0.545532
266.096	0.215965
268.988	1.0309
271.881	1.25484
274.774	0.150314
277.667	1.62353
280.559	3.62945
283.452	6.7243
286.345	11.3456
289.237	15.5747
292.13	18.8901
295.023	21.638
297.916	23.7923
300.808	22.5839
303.701	22.3394
306.594	18.0596
309.486	12.6143
312.379	10.141
315.272	9.03809
318.164	9.48052
321.057	13.6048
323.95	16.4241
326.842	21.0189
329.735	25.2671
332.628	28.3783
335.521	32.2679
338.413	35.7602
341.306	38.9841
344.199	38.9774
347.091	41.7625
349.984	44.5139
352.877	52.0115
355.769	61.531
358.662	69.1491
361.555	75.2719
364.447	78.0976
367.34	78.3093
370.233	75.7786
373.126	65.2594
376.018	55.9053
378.911	42.433
381.804	30.9196
384.696	22.4583
387.589	21.0695
390.482	18.1305
393.375	23.3829
396.267	26.9425
399.16	30.191
402.053	32.7244
404.945	33.5097
407.838	32.8569
410.731	28.842
413.623	22.8701
416.516	12.8941
419.409	6.73956
422.301	3.04955
425.194	0.449646
428.087	2.13895
430.98	2.91289
433.872	2.7121
436.765	0.10128
439.658	0.801781
442.55	2.58177
445.443	5.96057
448.336	10.9496
451.228	16.0107
454.121	24.9287
457.014	35.0042
459.907	48.4569
462.799	61.4113
465.692	72.2075
468.585	80.4972
471.477	82.4283
474.37	81.2362
477.263	76.8375
480.156	66.5551
483.048	54.8125
485.941	43.0262
488.834	35.8349
491.726	27.7968
494.619	22.5531
497.512	17.5352
500.404	14.9559
503.297	10.7608
506.19	6.9546
509.082	4.09398
511.975	0.533886
514.868	0.066818
517.761	0.863838
520.653	0.064323
523.546	2.63543
526.439	5.77232
529.331	9.19585
532.224	11.9553
535.117	15.8104
538.01	17.097
540.902	17.6725
543.795	17.5331
546.688	18.2489
549.58	20.5426
552.473	26.7452
555.366	35.2454
558.258	44.3558
561.151	54.9304
564.044	67.6751
566.936	77.6005
569.829	84.0242
572.722	82.7462
575.615	81.6367
578.507	71.4721
581.4	59.4205
584.293	45.0647
587.185	33.6666
590.078	24.0376
592.971	16.3175
595.863	11.7936
598.756	6.95766
601.649	4.56622
604.542	3.11514
607.434	0.029465
610.327	0.333523
613.22	0.88879
616.112	0.79636
619.005	0.857689
621.898	0.134407
624.79	0.407536
627.683	3.42635
630.576	5.25248
633.468	9.55293
636.361	15.2333
639.254	18.127
642.146	20.1516
645.039	20.892
647.932	19.2649
650.825	16.0292
653.717	11.4232
656.61	6.44167
659.503	2.69
662.395	1.67727
665.288	0.525429
668.181	0.780369
671.073	0.63966
673.966	0.297443
676.859	0.325459
679.752	0.217731
682.644	2.64168
685.537	4.65469
688.43	6.28369
691.322	8.10823
694.215	12.3278
697.108	18.1155
700	23.9146
702.893	32.1294
705.786	42.1215
708.679	55.2861
711.571	71.7188
714.464	96.5383
717.357	118.352
720.249	144.676
723.142	173.208
726.035	193.676
728.928	205.943
731.82	208.644
734.713	202.123
737.606	184.847
740.498	161.177
743.391	135.983
746.284	108.229
749.176	89.8549
752.069	70.197
754.962	57.1318
757.855	45.5227
760.747	36.3801
763.64	28.7543
766.533	22.1583
769.425	18.2175
772.318	13.2475
775.211	9.74884
778.103	4.73305
780.996	3.74933
783.889	2.00857
786.782	0.750778
789.674	0.305695
792.567	0.010201
795.46	1.7501
798.352	0.803848
801.245	0.677902
804.138	1.15395
807.03	4.18632
809.923	7.60847
812.816	9.16342
815.708	13.7742
818.601	14.182
821.494	13.1702
824.386	13.4216
827.279	10.3322
830.172	7.65781
833.065	4.61014
835.957	3.96909
838.85	2.72502
841.743	1.08006
844.635	1.08574
847.528	2.69316
850.421	1.50833
853.313	0.566635
856.206	1.4711
859.099	1.01008
861.992	0.459763
864.884	2.13808
867.777	0.186672
870.67	0.182957
873.562	0.295425
876.455	1.05152
879.348	0.228996
882.24	0.128784
885.133	1.15514
888.026	0.644058
890.919	0.414825
893.811	1.13971
896.704	0.518639
899.597	1.15338
902.489	0.697762
905.382	0.101589
908.275	0.209583
911.168	2.02548
914.06	2.02287
916.953	2.29108
919.846	1.98737
922.738	1.90478
925.631	3.20118
928.524	2.43223
931.416	2.73081
934.309	3.50175
937.202	4.24485
940.095	3.77634
942.987	4.96482
945.88	6.2013
948.773	9.67621
951.665	13.8712
954.558	19.156
957.451	27.2965
960.343	32.7935
963.236	37.2788
966.129	34.8565
969.021	30.144
971.914	23.0515
974.807	13.3573
977.699	6.65353
980.592	3.60683
983.485	2.40411
986.378	1.37117
989.27	0.634058
992.163	0.399754
995.056	0.403282
997.948	0.910124
1000.84	0.214787
1003.73	0.736383
1006.63	0.120352
1009.52	0.135023
1012.41	0.078785
1015.3	0.797127
1018.2	0.770941
1021.09	0.299437
1023.98	1.17496
1026.88	0.16785
1029.77	0.080339
1032.66	0.022312
1035.55	2.81593
1038.45	1.46813
1041.34	1.70949
1044.23	2.27776
1047.12	1.53912
1050.02	2.04565
1052.91	2.42693
1055.8	1.60969
1058.69	2.00417
1061.59	0.846684
1064.48	1.20379
1067.37	0.759405
1070.27	0.664759
1073.16	1.40066
1076.05	0.903425
1078.94	1.2526
1081.84	1.39959
1084.73	0.911709
1087.62	0.66316
1090.52	0.930077
1093.41	1.19785
1096.3	0.475613
1099.19	0.215834
1102.09	1.3598
1104.98	0.896833
1107.87	1.33631
1110.76	0.611486
1113.66	1.04636
1116.55	0.793829
1119.44	1.1106
1122.33	0.591822
1125.23	0.576487
1128.12	0.011782
1131.01	1.63757
1133.9	0.511215
1136.8	1.08038
1139.69	0.431862
1142.58	0.493637
1145.48	0.93046
1148.37	1.33898
1151.26	1.33694
1154.15	0.719234
1157.05	0.872929
1159.94	0.761766
1162.83	0.764381
1165.72	1.19463
1168.62	0.413956
1171.51	1.18359
1174.4	0.60195
1177.3	1.36799
1180.19	1.83989
1183.08	1.52573
1185.97	0.598289
1188.87	1.38256
1191.76	1.1988
1194.65	1.27826
1197.55	1.28555
1200.44	1.75863
1203.33	1.8319
1206.22	1.37518
1209.12	2.08659
1212.01	0.89673
1214.9	2.4205
1217.79	2.07033
1220.69	1.78208
1223.58	0.459986
1226.47	1.77418
1229.36	1.26414
1232.26	0.710657
1235.15	1.68683
1238.04	1.89649
1240.93	1.63103
1243.83	0.694452
1246.72	0.733908
1249.61	0.505741
1252.51	1.46321
1255.4	2.37679
1258.29	0.995644
1261.18	1.77619
1264.08	0.670971
1266.97	0.441502
1269.86	1.0448
1272.76	0.055506
1275.65	1.97374
1278.54	0.071756
1281.43	0.55855
1284.33	0.136703
