Measurement: Raman, 780 nm, unoriented, Raman Data Processed
Mineral: Serandite
Rruff sample: R050261
Ideal chemistry: NaMn^2+^_2_Si_3_O_8_(OH)
Locality: Mont Saint-Hilaire, Rouville County, Quebec, Canada
Source: Marcus Origlieri
Description: Orange tabular single crystal associated with aegirine and microcline
Measured chemistry: Na_0.96_(Mn_0.92_Ca_0.06_Fe_0.01_)_2_Si_3.03_O_8_(OH)
Raman shift (cm-1)	intensity
146.67	0
149.563	0.302704
152.455	16.0264
155.348	44.3195
158.241	90.2566
161.133	156.087
164.026	145.273
166.919	83.1357
169.811	69.6733
172.704	18.8334
175.597	3.06625
178.49	9.02856
181.382	4.77817
184.275	3.44455
187.168	7.83273
190.06	39.1056
192.953	79.3639
195.846	137.008
198.738	187.169
201.631	216.189
204.524	199.989
207.417	183.995
210.309	176.803
213.202	183.349
216.095	199.302
218.987	234.61
221.88	282.586
224.773	274.167
227.666	198.336
230.558	129.569
233.451	89.7465
236.344	47.2034
239.236	24.6888
242.129	12.4223
245.022	21.9133
247.914	47.6065
250.807	81.4084
253.7	124.36
256.592	171.833
259.485	207.846
262.378	210.625
265.271	225.645
268.163	251.236
271.056	240.744
273.949	180.674
276.841	131.323
279.734	124.668
282.627	125.015
285.519	131.055
288.412	114.422
291.305	86.9271
294.198	55.2043
297.09	43.3329
299.983	23.5295
302.876	7.79202
305.768	0.306671
308.661	3.11899
311.554	6.10272
314.447	3.63565
317.339	5.12436
320.232	19.566
323.125	29.7261
326.017	56.0835
328.91	68.628
331.803	74.862
334.695	79.7741
337.588	72.0823
340.481	63.895
343.373	64.4138
346.266	81.7597
349.159	92.2211
352.052	112.727
354.944	130.072
357.837	163.742
360.73	192.793
363.622	213.278
366.515	201.537
369.408	139.121
372.3	75.1532
375.193	35.8491
378.086	13.4199
380.979	2.15784
383.871	2.34876
386.764	4.90219
389.657	1.20334
392.549	3.63492
395.442	22.393
398.335	37.3993
401.228	58.6635
404.12	88.0212
407.013	131.465
409.906	179.576
412.798	243.925
415.691	281.433
418.584	254.93
421.476	192.235
424.369	137.88
427.262	90.5507
430.154	61.1372
433.047	40.8287
435.94	32.1264
438.833	26.046
441.725	19.5308
444.618	15.6304
447.511	18.365
450.403	22.9879
453.296	23.7042
456.189	40.2103
459.082	59.8014
461.974	60.0197
464.867	32.4768
467.76	13.9234
470.652	3.82999
473.545	6.80389
476.438	7.66742
479.33	7.4859
482.223	9.2365
485.116	10.5132
488.009	18.7061
490.901	33.0179
493.794	55.615
496.687	58.048
499.579	53.2457
502.472	66.3166
505.365	83.7328
508.257	108.133
511.15	113.574
514.043	94.0704
516.936	73.8644
519.828	66.9957
522.721	64.8562
525.614	53.5888
528.506	35.6062
531.399	17.285
534.292	14.1081
537.184	10.1072
540.077	1.26006
542.97	3.61887
545.862	4.83557
548.755	2.28185
551.648	1.17915
554.541	0.07341
557.433	3.48189
560.326	0.264481
563.219	0.571579
566.111	0.746078
569.004	2.05937
571.897	2.84882
574.789	0.714523
577.682	2.46271
580.575	1.34647
583.468	3.35799
586.36	1.70488
589.253	2.90858
592.146	0.691757
595.038	0.21228
597.931	2.31021
600.824	4.26007
603.716	0.098068
606.609	0.088013
609.502	1.647
612.395	3.11353
615.287	1.72615
618.18	4.49548
621.073	10.2978
623.965	15.9755
626.858	19.6187
629.751	35.7167
632.644	52.2603
635.536	77.0339
638.429	101.76
641.322	145.877
644.214	207.577
647.107	308.07
650	461.836
652.892	691.386
655.785	970.782
658.678	1379.53
661.571	2045.18
664.463	3006.57
667.356	3645.91
670.249	2863.06
673.141	1614.91
676.034	886.985
678.927	535.942
681.819	357.934
684.712	261.066
687.605	207.445
690.497	188.518
693.39	194.329
696.283	236.725
699.176	305.427
702.068	371.929
704.961	335.14
707.854	238.457
710.746	163.093
713.639	125.894
716.532	118.553
719.424	129.975
722.317	89.309
725.21	49.1715
728.103	24.7247
730.995	10.0989
733.888	5.98122
736.781	0.822906
739.673	2.47708
742.566	2.23596
745.459	2.00153
748.351	2.50658
751.244	1.58301
754.137	4.00722
757.03	1.2117
759.922	5.70258
762.815	2.40646
765.708	2.86639
768.6	1.66228
771.493	3.34497
774.386	4.10445
777.279	4.78648
780.171	4.8607
783.064	2.84508
785.957	4.65547
788.849	8.19357
791.742	5.41011
794.635	7.61847
797.527	6.60347
800.42	9.34163
803.313	10.6834
806.206	10.411
809.098	12.3813
811.991	12.2509
814.884	14.2782
817.776	12.1578
820.669	11.5811
823.562	9.18608
826.454	12.3705
829.347	13.9148
832.24	10.9683
835.132	17.2969
838.025	14.0593
840.918	11.5128
843.811	11.2707
846.703	16.0606
849.596	14.3184
852.489	11.7494
855.381	9.87176
858.274	10.5269
861.167	5.17587
864.059	6.2551
866.952	1.60721
869.845	0.974487
872.737	3.82346
875.63	5.4292
878.523	2.15677
881.416	10.4938
884.308	24.8003
887.201	42.0335
890.094	70.3287
892.986	128.237
895.879	196.204
898.772	224.411
901.665	186.478
904.557	120.506
907.45	77.8752
910.343	58.141
913.235	55.7476
916.128	39.0859
919.021	29.2016
921.913	15.7053
924.806	9.10379
927.699	4.39526
930.592	0.64682
933.484	7.34659
936.377	2.35852
939.27	4.64099
942.162	4.43957
945.055	6.35522
947.948	9.16382
950.841	29.4157
953.733	52.6172
956.626	88.5955
959.519	123.788
962.411	173.628
965.304	229.361
968.197	276.073
971.089	320.214
973.982	340.283
976.875	331.608
979.768	287.736
982.66	235.964
985.553	197.947
988.446	181.177
991.338	182.102
994.231	206.63
997.124	249.001
1000.02	278.422
1002.91	274.981
1005.8	288.243
1008.69	361.752
1011.59	495.88
1014.48	707.851
1017.37	953.325
1020.26	1044.04
1023.16	843.641
1026.05	556.412
1028.94	344.29
1031.84	215.614
1034.73	141.27
1037.62	94.7744
1040.51	63.7489
1043.41	39.5162
1046.3	27.611
1049.19	17.2068
1052.09	13.2518
1054.98	7.84314
1057.87	7.72131
1060.76	7.50531
1063.66	8.98819
1066.55	4.75339
1069.44	1.28577
1072.33	3.75284
1075.23	5.84668
1078.12	0.043823
1081.01	1.51639
1083.9	4.86182
1086.8	0.280884
1089.69	0.182281
1092.58	1.80914
1095.47	1.40671
1098.37	2.56961
1101.26	2.72794
1104.15	4.82828
1107.05	2.91965
1109.94	1.62552
1112.83	3.8983
1115.72	0.845734
1118.62	0.848648
1121.51	7.16602
1124.4	1.21953
1127.3	5.58884
1130.19	6.32841
1133.08	8.14572
1135.97	9.2858
1138.87	11.327
1141.76	10.6235
1144.65	11.1386
1147.54	8.44469
1150.44	9.17302
1153.33	10.7034
1156.22	12.1213
1159.12	11.711
1162.01	7.18823
1164.9	8.61337
1167.79	11.4523
1170.69	9.47708
1173.58	8.52153
1176.47	5.94049
1179.36	4.99435
1182.26	8.14209
1185.15	7.64858
1188.04	4.75133
1190.93	8.89957
1193.83	4.99197
1196.72	4.52356
1199.61	6.5907
1202.51	7.67483
1205.4	8.64099
1208.29	6.78793
1211.18	6.70728
1214.08	9.95584
1216.97	2.97522
1219.86	2.00186
1222.75	4.5278
1225.65	5.16305
1228.54	4.33621
1231.43	5.51627
1234.33	4.87558
1237.22	4.68668
1240.11	3.76562
1243	1.60873
1245.9	6.15219
1248.79	5.41644
1251.68	3.58051
1254.57	4.5773
1257.47	3.08823
1260.36	2.8248
1263.25	5.98789
1266.14	4.34699
1269.04	3.88196
1271.93	4.38138
1274.82	6.24078
1277.72	6.57126
1280.61	1.42218
1283.5	1.24417
