Measurement: Raman, 785 nm, unoriented, Raman Data Processed
Mineral: Serandite
Rruff sample: R040056
Ideal chemistry: NaMn^2+^_2_Si_3_O_8_(OH)
Locality: Mont Saint-Hilaire, Rouville County, Quebec, Canada
Source: Bob Downs
Description: Pink prismatic crystals
Measured chemistry: Na_1.01_Mn^2+^_1.93_Ca_0.05_Si_3.00_O_8_(OH)
Raman shift (cm-1)	intensity
122.01	0
124.903	8.94093
127.796	89.1411
130.688	316.692
133.581	505.703
136.474	355.547
139.366	203.141
142.259	20.013
145.152	15.4284
148.044	63.9205
150.937	64.0382
153.83	95.7101
156.723	163.768
159.615	321.499
162.508	486.986
165.401	403.588
168.293	406.877
171.186	296.662
174.079	80.7866
176.971	101.957
179.864	63.717
182.757	3.95068
185.65	6.93683
188.542	89.8603
191.435	201.728
194.328	470.067
197.22	760.311
200.113	956.108
203.006	872.506
205.899	649.505
208.791	523.292
211.684	540.206
214.577	534.361
217.469	660.872
220.362	879.97
223.255	960.67
226.147	746.617
229.04	487.185
231.933	354.868
234.826	226.436
237.718	93.2513
240.611	0.658813
243.504	21.3353
246.396	32.2317
249.289	92.8135
252.182	242.904
255.074	502.329
257.967	741.468
260.86	813.356
263.752	851.158
266.645	1039.34
269.538	1169.65
272.431	969.176
275.323	807.774
278.216	813.711
281.109	949.003
284.001	1054.63
286.894	1016.15
289.787	855.237
292.68	679.897
295.572	616.279
298.465	538.998
301.358	396.114
304.25	248.491
307.143	130.394
310.036	27.7775
312.928	9.94458
315.821	19.1805
318.714	17.5818
321.606	48.4896
324.499	131.461
327.392	212.633
330.285	256.49
333.177	236.674
336.07	177.575
338.963	136.411
341.855	168.285
344.748	201.456
347.641	283.253
350.534	414.2
353.426	548.902
356.319	662.174
359.212	838.88
362.104	936.867
364.997	939.676
367.89	678.503
370.782	377.939
373.675	202.798
376.568	111.175
379.461	34.8804
382.353	2.77441
385.246	24.7709
388.139	16.2706
391.031	7.85461
393.924	2.09888
396.817	61.7589
399.709	131.744
402.602	204.247
405.495	398.587
408.387	617.639
411.28	936.643
414.173	1261.69
417.066	1279.41
419.958	1016.65
422.851	710.202
425.744	453.475
428.636	287.455
431.529	172.481
434.422	131.494
437.315	91.1469
440.207	80.2884
443.1	48.1741
445.993	75.379
448.885	84.1588
451.778	150.839
454.671	256.962
457.563	401.284
460.456	524.25
463.349	411.99
466.241	171.964
469.134	63.5088
472.027	21.0167
474.92	0.931213
477.812	3.75232
480.705	24.5036
483.598	30.8719
486.49	75.5061
489.383	152.751
492.276	237.103
495.168	236.67
498.061	210.575
500.954	222.894
503.847	330.378
506.739	433.615
509.632	487.137
512.525	436.52
515.417	318.748
518.31	286.92
521.203	312.733
524.096	294.173
526.988	206.404
529.881	124.827
532.774	60.8354
535.666	41.983
538.559	33.7635
541.452	11.1542
544.344	10.1374
547.237	8.8045
550.13	15.659
553.023	1.56479
555.915	11.7278
558.808	16.5421
561.701	7.24554
564.593	3.0376
567.486	7.85663
570.379	0.851318
573.271	2.36118
576.164	13.2589
579.057	1.51202
581.949	18.8672
584.842	8.6727
587.735	8.82678
590.628	1.31601
593.52	7.90326
596.413	15.1311
599.306	5.33997
602.198	16.642
605.091	4.09317
607.984	3.3056
610.876	8.72037
613.769	6.43613
616.662	18.1968
619.555	15.6067
622.447	32.8922
625.34	72.8411
628.233	98.55
631.125	142.508
634.018	210.117
636.911	258.605
639.803	381.013
642.696	498.878
645.589	720.721
648.482	978.993
651.374	1477.19
654.267	2207.26
657.16	3643.71
660.052	6135.5
662.945	9993.69
665.838	14691.3
668.731	15400.9
671.623	9868.5
674.516	5133.63
677.409	2846.72
680.301	1815.49
683.194	1181.44
686.087	866.859
688.979	677.317
691.872	682.183
694.765	801.243
697.658	1137.83
700.55	1537.42
703.443	1634.79
706.336	1240.72
709.228	820.604
712.121	597.752
715.014	543.398
717.906	627.677
720.799	555.375
723.692	322.015
726.585	136.582
729.477	58.1018
732.37	39.2325
735.263	28.2447
738.155	1.42511
741.048	4.55109
743.941	8.5036
746.833	3.19592
749.726	6.53717
752.619	13.4074
755.511	6.27426
758.404	2.24921
761.297	2.19287
764.19	10.1669
767.082	10.2163
769.975	25.497
772.868	30.6543
775.76	1.78113
778.653	26.226
781.546	21.1885
784.438	36.9038
787.331	44.4783
790.224	25.8358
793.117	39.8218
796.009	37.5001
798.902	24.339
801.795	29.2354
804.687	29.1037
807.58	71.0521
810.473	46.3277
813.365	71.1735
816.258	69.1365
819.151	37.6801
822.044	62.7803
824.936	44.4046
827.829	41.9011
830.722	45.2944
833.614	25.1337
836.507	43.7416
839.4	32.0534
842.293	44.6771
845.185	48.6243
848.078	37.9528
850.971	45.2035
853.863	50.5649
856.756	45.9498
859.649	17.3466
862.541	20.9056
865.434	5.27679
868.327	19.7582
871.22	3.95691
874.112	9.15204
877.005	3.01691
879.898	5.57922
882.79	42.8886
885.683	91.3704
888.576	205.99
891.468	457.833
894.361	801.219
897.254	1091.68
900.146	981.154
903.039	636.128
905.932	401.791
908.825	289.617
911.717	254.654
914.61	201.739
917.503	211.843
920.395	142.82
923.288	102.718
926.181	69.0391
929.073	22.0954
931.966	4.49097
934.859	19.4695
937.751	26.6801
940.644	14.5663
943.537	9.77539
946.43	23.3381
949.322	101.14
952.215	146.194
955.108	263.135
958	434.623
960.893	636.802
963.786	913.625
966.678	1199.52
969.571	1454.52
972.464	1686.46
975.357	1699.89
978.249	1519.63
981.142	1188.81
984.035	900.846
986.927	819.751
989.82	725.372
992.713	785.332
995.606	996.974
998.498	1247.33
1001.39	1206.37
1004.28	1036.99
1007.18	1174.31
1010.07	1646.64
1012.96	2589.52
1015.85	3957.35
1018.75	4973.57
1021.64	4329.74
1024.53	2808.94
1027.42	1703.43
1030.32	1097.01
1033.21	686.218
1036.1	473.213
1039	316.768
1041.89	254.263
1044.78	147.223
1047.67	95.5559
1050.57	77.6426
1053.46	51.2882
1056.35	55.1075
1059.24	25.0666
1062.14	21.1771
1065.03	32.1289
1067.92	13.1155
1070.82	11.3799
1073.71	9.10132
1076.6	13.515
1079.49	14.6355
1082.39	4.22861
1085.28	22.9802
1088.17	1.93518
1091.07	13.007
1093.96	6.99884
1096.85	22.0141
1099.74	14.4846
1102.63	7.61816
1105.53	4.2193
1108.42	2.89957
1111.31	2.53427
1114.21	4.1344
1117.1	21.9672
1119.99	25.3756
1122.88	3.98691
1125.78	23.9767
1128.67	16.7834
1131.56	27.124
1134.45	37.5732
1137.35	42.6874
1140.24	63.6676
1143.13	42.6195
1146.03	37.3266
1148.92	59.9379
1151.81	55.4904
1154.7	74.847
1157.6	49.151
1160.49	36.3578
1163.38	36.1605
1166.28	23.4128
1169.17	35.8972
1172.06	23.076
1174.95	17.7271
1177.85	25.3119
1180.74	17.4376
1183.63	18.3856
1186.52	42.1554
1189.42	20.9627
1192.31	26.7585
1195.2	6.86853
1198.09	15.3041
1200.99	21.3402
1203.88	13.9866
1206.77	9.23828
1209.66	10.1889
1212.56	5.47318
1215.45	2.9809
1218.34	5.74646
1221.24	8.7063
1224.13	2.59494
1227.02	7.68988
