Measurement: Raman, 532 nm, unoriented, Raman Data Processed
Mineral: Serandite
Rruff sample: R040056
Ideal chemistry: NaMn^2+^_2_Si_3_O_8_(OH)
Locality: Mont Saint-Hilaire, Rouville County, Quebec, Canada
Source: Bob Downs
Description: Pink prismatic crystals
Measured chemistry: Na_1.01_Mn^2+^_1.93_Ca_0.05_Si_3.00_O_8_(OH)
Raman shift (cm-1)	intensity
87.2919	0
90.6667	8.7785
94.0415	22.3423
97.4163	40.1534
100.791	19.7379
104.166	2.22151
107.541	0.095367
110.916	20.2858
114.29	152.038
117.665	729.984
121.04	336.665
124.415	200.676
127.79	286.185
131.165	392.151
134.539	540.811
137.914	495.694
141.289	277.695
144.664	92.5884
148.039	63.6576
151.413	79.4536
154.788	143.296
158.163	236.451
161.538	432.005
164.913	588.222
168.287	895.52
171.662	862.743
175.037	361.194
178.412	297.884
181.787	111.805
185.162	26.8476
188.536	42.5044
191.911	1.58557
195.286	51.3022
198.661	129.039
202.036	166.273
205.411	118.573
208.785	145.298
212.16	132.041
215.535	165.486
218.91	236.499
222.285	380.971
225.659	467.928
229.034	561.332
232.409	672.15
235.784	711.792
239.159	522.563
242.534	286.197
245.908	194.885
249.283	248.755
252.658	494.75
256.033	827.835
259.408	1020.97
262.782	827.047
266.157	750.22
269.532	756.511
272.907	619.044
276.282	534.681
279.656	616.623
283.031	768.84
286.406	810.615
289.781	721.913
293.156	557.561
296.531	491.778
299.905	403.762
303.28	225.964
306.655	99.436
310.03	8.12805
313.405	15.5662
316.779	16.2058
320.154	35.9085
323.529	104.368
326.904	180.192
330.279	209.796
333.654	133.573
337.028	59.0369
340.403	18.0264
343.778	25.5468
347.153	37.4775
350.528	92.6538
353.902	152.32
357.277	229.449
360.652	287.116
364.027	319.676
367.402	240.748
370.777	117.966
374.151	44.327
377.526	14.0876
380.901	27.2988
384.276	11.7593
387.651	22.7611
391.026	1.13748
394.4	22.9641
397.775	61.0226
401.15	88.6833
404.525	167.72
407.9	292.59
411.274	410.307
414.649	509.736
418.024	455.753
421.399	278.553
424.774	168.28
428.149	95.3226
431.523	46.1611
434.898	49.6347
438.273	33.0767
441.648	30.0249
445.023	24.9893
448.397	44.5508
451.772	109.754
455.147	196.677
458.522	290.125
461.897	360.099
465.272	252.177
468.646	207.74
472.021	239.618
475.396	299.692
478.771	394.459
482.146	478.766
485.52	645.357
488.895	798.413
492.27	997.352
495.645	1012.48
499.02	838.409
502.395	711.88
505.769	661.232
509.144	584.917
512.519	423.222
515.894	258.285
519.269	199.016
522.644	201.253
526.018	142.892
529.393	36.6479
532.768	11.6249
536.143	0.222168
539.518	25.3472
542.892	61.1246
546.267	72.198
549.642	64.0632
553.017	58.7068
556.392	53.4632
559.766	31.8063
563.141	26.138
566.516	6.28198
569.891	0.679321
573.266	6.95087
576.641	0.796814
580.015	12.3513
583.39	10.087
586.765	5.62042
590.14	9.47424
593.515	12.22
596.889	9.10773
600.264	9.0896
603.639	5.13239
607.014	21.3531
610.389	28.1649
613.764	63.3478
617.138	59.202
620.513	112.332
623.888	125.943
627.263	192.859
630.638	239.523
634.013	336.392
637.387	413.873
640.762	570.825
644.137	752.818
647.512	1180.2
650.887	1881.07
654.261	3014.18
657.636	5002.24
661.011	8067.84
664.386	12793.6
667.761	16517.4
671.135	11447.8
674.51	5553.49
677.885	2966.64
681.26	1824.54
684.635	1294.47
688.01	1150.42
691.384	1310.54
694.759	1736.14
698.134	2568.38
701.509	3430.2
704.884	3185.3
708.259	1962.56
711.633	1165.01
715.008	809.164
718.383	673.885
721.758	456.367
725.133	246.116
728.507	120.943
731.882	69.4966
735.257	26.6689
738.632	19.4833
742.007	12.5859
745.381	8.69275
748.756	9.93469
752.131	47.9443
755.506	19.5547
758.881	3.18658
762.256	2.11108
765.63	12.2761
769.005	0.824036
772.38	4.37842
775.755	5.45624
779.13	37.3528
782.505	19.3846
785.879	40.0753
789.254	28.2123
792.629	57.4673
796.004	50.0836
799.379	60.3037
802.753	78.0591
806.128	68.4806
809.503	72.1295
812.878	101.809
816.253	117.207
819.628	124.812
823.002	161.359
826.377	157.296
829.752	152.88
833.127	136.277
836.502	109.19
839.876	120.684
843.251	103.905
846.626	99.2571
850.001	84.7522
853.376	48.4573
856.75	55.3525
860.125	30.8702
863.5	53.7583
866.875	23.6186
870.25	4.59277
873.625	5.97754
876.999	12.1276
880.374	10.6078
883.749	30.5443
887.124	74.4133
890.499	91.3359
893.874	207.107
897.248	344.863
900.623	280.46
903.998	147.769
907.373	96.0413
910.748	63.2809
914.122	94.821
917.497	127.297
920.872	58.3044
924.247	28.5507
927.622	35.8281
930.996	36.7402
934.371	17.4055
937.746	12.4506
941.121	33.0938
944.496	170.012
947.871	362.895
951.245	637.567
954.62	1022.59
957.995	1579.74
961.37	2308.51
964.745	3109.95
968.12	3838.36
971.494	4281.28
974.869	4256.06
978.244	3815.04
981.619	3350.67
984.994	3158.51
988.368	2830.4
991.743	2650.77
995.118	2657.85
998.493	2784.9
1001.87	2662.12
1005.24	2619.87
1008.62	3071.67
1011.99	4309.56
1015.37	6128.73
1018.74	7334.22
1022.12	5812.65
1025.49	3363.28
1028.87	1865.01
1032.24	1116.96
1035.62	649.383
1038.99	433.971
1042.37	264.912
1045.74	190.39
1049.12	81.1542
1052.49	79.6403
1055.87	33.0918
1059.24	22.2242
1062.61	33.7379
1065.99	30.1837
1069.36	12.5947
1072.74	37.2543
1076.11	28.1827
1079.49	10.1951
1082.86	0.08374
1086.24	19.9421
1089.61	6.23071
1092.99	32.6484
1096.36	23.8411
1099.74	3.62476
1103.11	13.8029
1106.49	21.9169
1109.86	14.7457
1113.24	1.99121
1116.61	15.6323
1119.99	11.9196
1123.36	39.2891
1126.74	20.0757
1130.11	58.8014
1133.49	85.4978
1136.86	60.0654
1140.23	86.5084
1143.61	77.9794
1146.98	75.4319
1150.36	115.509
1153.73	97.1036
1157.11	83.2731
1160.48	90.5437
1163.86	78.681
1167.23	69.4006
1170.61	59.4348
1173.98	77.6128
1177.36	71.3739
1180.73	60.9744
1184.11	36.6428
1187.48	76.9587
1190.86	36.8326
1194.23	54.8783
1197.61	45.8066
1200.98	61.9973
1204.36	42.9532
1207.73	43.2787
1211.11	54.5377
1214.48	59.1823
1217.86	25.274
1221.23	78.8031
1224.61	48.772
1227.98	18.9559
1231.36	45.3193
1234.73	39.3596
1238.11	30.0231
1241.48	27.1732
1244.86	30.9655
1248.23	54.4485
1251.6	26.6148
1254.98	22.6372
1258.35	36.9355
1261.73	8.94556
1265.1	31.2251
1268.48	19.5448
1271.85	0.082764
