Measurement: Raman, 514 nm, unoriented, Raman Data Processed
Mineral: Serandite
Rruff sample: R040056
Ideal chemistry: NaMn^2+^_2_Si_3_O_8_(OH)
Locality: Mont Saint-Hilaire, Rouville County, Quebec, Canada
Source: Bob Downs
Description: Pink prismatic crystals
Measured chemistry: Na_1.01_Mn^2+^_1.93_Ca_0.05_Si_3.00_O_8_(OH)
Raman shift (cm-1)	intensity
122.592	0
126.758	346.272
130.922	1839.78
135.083	2755.69
139.243	2152.32
143.401	628.177
147.557	35.267
151.711	41.826
155.863	504.419
160.013	851.419
164.161	1006.19
168.308	718.528
172.452	375.216
176.594	59.945
180.734	17.071
184.872	13.053
189.008	538.643
193.143	1367.79
197.275	2120.64
201.405	2664.18
205.534	2365.35
209.66	2393.37
213.784	1718.04
217.907	2238.03
222.027	2806.89
226.146	2494.14
230.263	1442.66
234.377	631.345
238.49	75.004
242.601	118.275
246.709	14.487
250.816	260.471
254.921	473.749
259.024	983.557
263.125	1177.43
267.224	1138.94
271.321	938.962
275.416	953.208
279.51	1258.46
283.601	1699.59
287.69	1771.2
291.778	1573.37
295.863	1484.61
299.947	1236.35
304.029	863.453
308.108	521.392
312.186	212.247
316.262	251.39
320.336	428.274
324.408	622.069
328.478	921.737
332.546	956.435
336.612	1213.27
340.677	828.682
344.739	862.183
348.799	1173.37
352.858	1723.87
356.915	2279.23
360.969	3012.27
365.022	3036.28
369.073	2146.05
373.122	1341.02
377.169	854.322
381.215	529.847
385.258	329.755
389.299	404
393.339	342.573
397.376	450.393
401.412	780.748
405.446	1323.65
409.478	2088.59
413.508	3365.6
417.536	3570.34
421.562	2904.73
425.586	1829.46
429.609	1085.36
433.629	726.671
437.648	492.999
441.665	532.639
445.68	444.658
449.693	551.859
453.704	685.843
457.713	1115.99
461.721	1106.38
465.726	682.349
469.73	356.039
473.731	78.553
477.731	62.888
481.729	111.937
485.725	123.631
489.72	330.938
493.712	378.878
497.703	309.459
501.691	245.636
505.678	262.414
509.663	298.804
513.646	393.795
517.627	399.375
521.607	490.538
525.584	392.28
529.56	273.589
533.534	161.421
537.506	62.722
541.476	127.462
545.444	70.081
549.41	54.857
553.375	62.193
557.337	25.536
561.298	81.751
565.257	101.898
569.214	104.912
573.17	69.807
577.123	111.488
581.075	0.68
585.024	180.594
588.972	106.531
592.918	164.778
596.863	260.089
600.805	338.759
604.746	363.068
608.685	449.671
612.621	504.943
616.557	675.275
620.49	769.092
624.421	957.594
628.351	1013.25
632.279	1181.65
636.205	1562.24
640.129	1968.41
644.051	2540.13
647.972	3488.28
651.89	5310.3
655.807	8245
659.722	16060.1
663.636	33475.8
667.547	50730.2
671.457	41027
675.365	20553.3
679.271	10087.3
683.175	5645.76
687.077	3849.45
690.978	3115.4
694.877	2798.4
698.774	4125.75
702.669	5231.87
706.562	4621.58
710.454	2855.95
714.344	2099.26
718.232	1541.12
722.118	1316.29
726.002	754.521
729.885	340.122
733.766	372.137
737.645	210.775
741.522	184.46
745.397	208.487
749.271	70.99
753.143	118.869
757.013	91.374
760.881	50.023
764.748	56.575
768.613	39.348
772.476	51.131
776.337	77.726
780.196	12.828
784.054	140.819
787.91	35.589
791.764	16.352
795.616	73.681
799.467	107.641
803.316	32.726
807.163	21.452
811.008	278.123
814.851	250.538
818.693	243.803
822.533	399.936
826.371	520.949
830.208	706.844
834.042	981.629
837.875	1530.32
841.706	1623.95
845.536	1222.61
849.363	1127.4
853.189	908.301
857.013	923.338
860.836	735.502
864.656	804
868.475	721.914
872.292	711.034
876.108	670.471
879.922	816.265
883.733	774.432
887.544	1177.9
891.352	2011.86
895.159	4083.25
898.964	5601.69
902.767	4362.51
906.568	2847.67
910.368	2189.6
914.166	1827.34
917.962	1529.05
921.757	1309.09
925.55	1249.55
929.341	1365.36
933.13	1340.75
936.918	1392.26
940.703	1302.44
944.488	1533.75
948.27	1687.83
952.051	2081.22
955.83	2499.91
959.607	3138.32
963.383	4429.14
967.156	6190.2
970.928	7834.89
974.699	9055.44
978.468	8668.95
982.234	6791.34
986	4924.61
989.763	4193.99
993.525	4631.68
997.285	6179.72
1001.04	6772.4
1004.8	6054.22
1008.55	6499.68
1012.31	10063.2
1016.06	18235.3
1019.81	25525
1023.56	20233.3
1027.31	11711
1031.05	7256.8
1034.79	4607.14
1038.53	3420
1042.27	2789.41
1046.01	2344.92
1049.75	2043.41
1053.48	1738.96
1057.22	1546.22
1060.95	1485.1
1064.68	1446.15
1068.4	1352.29
1072.13	1347.81
1075.86	1157.45
1079.58	1056.3
1083.3	1086.57
1087.02	942.923
1090.74	725.75
1094.45	664.468
1098.17	537.491
1101.88	549.147
1105.59	475.915
1109.3	491.3
1113.01	270.646
1116.71	493.002
1120.42	262.299
1124.12	112.143
1127.82	280.524
1131.52	247.795
1135.22	219.402
1138.91	141.838
1142.61	65.471
1146.3	56.176
1149.99	40.059
1153.68	48.879
1157.37	87.494
1161.06	77.043
1164.74	50.971
1168.42	60.041
1172.1	3.857
1175.78	37.68
1179.46	212.662
1183.14	69.25
1186.81	22.863
1190.48	42.148
1194.15	245.459
1197.83	21.635
1201.49	239.613
1205.16	86.912
1208.82	131.553
1212.49	58.982
1216.15	59.23
1219.81	254.494
1223.46	104.418
1227.12	445.812
1230.78	309.787
1234.43	46.367
1238.08	59.469
1241.73	288.199
1245.38	341.617
1249.03	254.686
1252.67	176.268
1256.31	185.594
1259.95	218.383
1263.6	178.783
1267.23	112.023
1270.87	189.225
1274.51	218.275
1278.14	156.459
1281.77	186.289
1285.4	157.289
1289.03	104.633
1292.66	308.191
1296.28	261.908
1299.91	164.232
1303.53	62.914
1307.15	181.418
1310.77	88.205
1314.38	85.613
1318	48.385
1321.61	141.273
1325.23	218.166
1328.84	115.014
1332.45	206.248
1336.06	229.172
1339.66	298.221
1343.27	267.557
1346.87	538.787
1350.47	626.256
1354.07	656.506
1357.67	596.6
1361.26	950.064
1364.86	1300.82
1368.45	1551.8
1372.04	1896.16
1375.63	2208.9
1379.22	2462.64
1382.81	2475.86
1386.39	2243.28
1389.98	1950.57
1393.56	1460.01
1397.14	1083.69
1400.72	1014.57
1404.3	618.441
1407.87	636.652
1411.45	510.447
1415.02	223.766
1418.59	369.26
1422.16	224.227
1425.73	123.654
1429.29	193.055
1432.86	77.859
1436.42	535.236
1439.98	127.799
1443.54	262.629
1447.1	368.379
1450.66	289.527
1454.21	295.062
1457.77	146.311
1461.32	239.32
1464.87	978.557
1468.42	729.15
1471.96	1054.61
1475.51	581.518
1479.06	378.988
1482.6	526.152
1486.14	128.33
1489.68	132.521
1493.22	224.588
1496.75	90.252
1500.29	427.967
1503.82	10.947
1507.35	110.771
1510.88	203.127
1514.41	103.902
1517.94	338.008
1521.46	85.713
