Measurement: Raman, 532 nm, unoriented, Raman Data Processed
Mineral: Serandite
Rruff sample: R050261
Ideal chemistry: NaMn^2+^_2_Si_3_O_8_(OH)
Locality: Mont Saint-Hilaire, Rouville County, Quebec, Canada
Source: Marcus Origlieri
Description: Orange tabular single crystal associated with aegirine and microcline
Measured chemistry: Na_0.96_(Mn_0.92_Ca_0.06_Fe_0.01_)_2_Si_3.03_O_8_(OH)
Raman shift (cm-1)	intensity
147.503	0
150.877	1.31433
154.252	42.3699
157.627	99.7687
161.002	196.801
164.377	227.282
167.751	282.474
171.126	302.464
174.501	130.526
177.876	62.163
181.251	38.2678
184.626	11.5824
188	7.96338
191.375	14.7899
194.75	70.0145
198.125	105.777
201.5	121.17
204.875	97.8419
208.249	80.4127
211.624	78.1754
214.999	103.56
218.374	145.472
221.749	202.133
225.123	227.757
228.498	195.565
231.873	183.032
235.248	175.315
238.623	117.027
241.998	62.635
245.372	40.7041
248.747	61.4899
252.122	151.534
255.497	288.317
258.872	424.221
262.246	402.975
265.621	348.877
268.996	346.423
272.371	285.409
275.746	190.237
279.12	168.117
282.495	200.969
285.87	215.821
289.245	200.594
292.62	174.996
295.995	153.62
299.369	132.685
302.744	86.0969
306.119	38.5925
309.494	12.4664
312.869	9.07605
316.243	4.7572
319.618	28.3543
322.993	61.6055
326.368	106.309
329.743	138.369
333.118	111.881
336.492	60.5543
339.867	18.0353
343.242	9.46082
346.617	16.8395
349.991	31.2714
353.366	66.8917
356.741	88.4044
360.116	126.709
363.491	154.964
366.866	153.435
370.24	100.687
373.615	27.238
376.99	3.98498
380.365	0.310181
383.74	5.47498
387.115	8.19617
390.489	3.37952
393.864	0.072388
397.239	11.5848
400.614	46.0271
403.989	85.8143
407.363	135.097
410.738	198.407
414.113	267.237
417.488	259.683
420.863	196.437
424.238	131.876
427.612	83.7236
430.987	52.1951
434.362	41.0643
437.737	29.4026
441.112	18.0627
444.486	18.9484
447.861	25.9932
451.236	36.4277
454.611	47.0388
457.986	81.4274
461.361	112.907
464.735	97.474
468.11	78.6943
471.485	88.425
474.86	116.666
478.235	142.927
481.609	179.852
484.984	226.567
488.359	291.159
491.734	349.735
495.109	394.841
498.483	344.828
501.858	286.392
505.233	256.735
508.608	241.905
511.983	219.864
515.357	174.305
518.732	134.405
522.107	136.108
525.482	127.416
528.857	70.2319
532.232	29.3232
535.606	12.2454
538.981	6.45459
542.356	0.220459
545.731	18.406
549.106	9.69128
552.481	13.0323
555.855	6.13049
559.23	6.21619
562.605	6.8584
565.98	8.16296
569.355	5.13794
572.729	7.03699
576.104	4.57752
579.479	0.379028
582.854	7.13623
586.229	0.833984
589.604	3.98364
592.978	8.29199
596.353	4.30273
599.728	4.95825
603.103	6.05225
606.477	0.072266
609.852	9.68164
613.227	10.1773
616.602	14.4929
619.977	26.9477
623.352	33.6577
626.726	52.8557
630.101	61.3965
633.476	100.502
636.851	146.11
640.226	209.394
643.601	297.816
646.975	450.556
650.35	715.01
653.725	1169.89
657.1	1922.32
660.475	3156.76
663.849	5125.57
667.224	6873.14
670.599	5436.32
673.974	2791.69
677.349	1447.81
680.723	864.956
684.098	606.917
687.473	494.88
690.848	501.271
694.223	621.127
697.598	891.824
700.972	1224.08
704.347	1254.38
707.722	844.316
711.097	507.929
714.472	344.629
717.846	283.657
721.221	222.068
724.596	133.835
727.971	70.7647
731.346	45.4211
734.721	16.2844
738.095	11.2454
741.47	12.2593
744.845	1.16455
748.22	0.85498
751.595	5.98926
754.97	6.05933
758.344	4.67041
761.719	0.557129
765.094	1.82812
768.469	2.48535
771.844	4.49585
775.218	10.8855
778.593	4.90064
781.968	5.67725
785.343	8.62891
788.718	16.2463
792.092	13.4722
795.467	19.4123
798.842	18.8052
802.217	15.3565
805.592	27.9546
808.966	30.6895
812.341	19.7144
815.716	22.7852
819.091	21.9216
822.466	26.7275
825.841	27.9636
829.215	17.1597
832.59	19.3416
835.965	19.2144
839.34	24.1977
842.715	22.2895
846.09	18.1182
849.464	15.6069
852.839	17.9836
856.214	15.1941
859.589	6.89282
862.964	0.678467
866.338	2.99951
869.713	10.5225
873.088	6.18384
876.463	4.01343
879.838	8.07788
883.212	2.38086
886.587	26.6714
889.962	60.4563
893.337	118.372
896.712	174.366
900.087	184.303
903.461	123.096
906.836	61.0117
910.211	50.0027
913.586	30.3342
916.961	29.0615
920.335	16.0012
923.71	0.552734
927.085	7.51978
930.46	9.7439
933.835	14.3638
937.21	8.87012
940.584	10.2654
943.959	38.9033
947.334	98.9695
950.709	191.647
954.084	332.28
957.458	503.813
960.833	750.458
964.208	1007.11
967.583	1305.56
970.958	1513.7
974.332	1598.56
977.707	1480.42
981.082	1286.28
984.457	1113.47
987.832	1017.43
991.207	915.01
994.581	874.719
997.956	899.473
1001.33	861.599
1004.71	796.284
1008.08	844.026
1011.46	1087.86
1014.83	1542.96
1018.21	1997.53
1021.58	1922.22
1024.95	1293.37
1028.33	734.937
1031.7	425.268
1035.08	253.867
1038.45	166.875
1041.83	108.532
1045.2	64.1594
1048.58	39.49
1051.95	26.2068
1055.33	24.438
1058.7	17.7466
1062.08	13.323
1065.45	12.4827
1068.83	8.48877
1072.2	4.42383
1075.58	2.60522
1078.95	1.28345
1082.33	1.71191
1085.7	4.76733
1089.08	4.04224
1092.45	12.3259
1095.83	0.838867
1099.2	4.22632
1102.58	8.95752
1105.95	3.40234
1109.33	13.323
1112.7	2.76978
1116.08	9.70654
1119.45	8.69116
1122.82	12.8899
1126.2	22.3665
1129.57	33.398
1132.95	24.9739
1136.32	36.678
1139.7	33.0693
1143.07	32.3005
1146.45	38.1211
1149.82	32.4954
1153.2	19.5623
1156.57	15.6414
1159.95	24.3843
1163.32	24.448
1166.7	31.8801
1170.07	31.0408
1173.45	24.6638
1176.82	22.8413
1180.2	20.4627
1183.57	20.4116
1186.95	21.2625
1190.32	27.5488
1193.7	25.1638
1197.07	17.5142
1200.44	10.2891
1203.82	29.2976
1207.19	19.4131
1210.57	29.9084
1213.94	12.9575
1217.32	16.2839
1220.69	14.717
1224.07	17.0713
1227.44	22.0288
1230.82	16.1116
1234.19	18.947
1237.57	1.94605
1240.94	1.69775
1244.32	2.37891
1247.69	8.60498
1251.07	13.2158
1254.44	20.1416
1257.82	1.94409
1261.19	4.90723
1264.57	13.811
1267.94	1.78882
1271.32	10.7612
1274.69	1.1604
1278.07	1.29492
1281.44	9.41773
1284.82	10.8818
1288.19	19.1921
1291.57	6.4375
1294.94	10.0195
1298.32	12.9727
1301.69	14.324
1305.06	0
