Measurement: Raman, 514 nm, unoriented, Raman Data Processed
Mineral: Serandite
Rruff sample: R050261
Ideal chemistry: NaMn^2+^_2_Si_3_O_8_(OH)
Locality: Mont Saint-Hilaire, Rouville County, Quebec, Canada
Source: Marcus Origlieri
Description: Orange tabular single crystal associated with aegirine and microcline
Measured chemistry: Na_0.96_(Mn_0.92_Ca_0.06_Fe_0.01_)_2_Si_3.03_O_8_(OH)
Raman shift (cm-1)	intensity
93.375	0
97.554	1.552
101.732	241.703
105.908	850.06
110.082	561.141
114.254	882.799
118.424	1291.31
122.592	542.711
126.758	806.634
130.922	1863.56
135.083	2411.9
139.243	1541.76
143.401	583.42
147.557	283.498
151.711	244.101
155.863	421.655
160.013	962.922
164.161	983.756
168.308	711.829
172.452	429.445
176.594	223.834
180.734	210.603
184.872	150.772
189.008	346.597
193.143	857.182
197.275	1524.56
201.405	1882.02
205.534	1802.03
209.66	1529.84
213.784	1471.22
217.907	1846.28
222.027	2182.96
226.146	1874.24
230.263	1167.09
234.377	578.518
238.49	88.729
242.601	89.348
246.709	68.014
250.816	51.799
254.921	382.588
259.024	597.431
263.125	594.267
267.224	607.644
271.321	492.147
275.416	288.641
279.51	104.492
283.601	123.777
287.69	113.903
291.778	193.748
295.863	186.223
299.947	234.235
304.029	138.497
308.108	4.359
312.186	45.058
316.262	16.202
320.336	61.938
324.408	290.175
328.478	451.749
332.546	553.468
336.612	362.21
340.677	450.151
344.739	564.286
348.799	832.606
352.858	1063.1
356.915	1392.76
360.969	1879.56
365.022	2178.5
369.073	1478.04
373.122	756.039
377.169	393.962
381.215	248.914
385.258	290.543
389.299	5.325
393.339	214.558
397.376	385.199
401.412	589.348
405.446	1025.19
409.478	1793.47
413.508	2551.4
417.536	2574.32
421.562	1937.31
425.586	1230.53
429.609	696.809
433.629	584.697
437.648	440.968
441.665	318.311
445.68	275.273
449.693	395.054
453.704	548.234
457.713	712.35
461.721	816.847
465.726	257.277
469.73	119.493
473.731	24.255
477.731	11.924
481.729	36.55
485.725	119.811
489.72	176.942
493.712	341.84
497.703	179.566
501.691	149.04
505.678	416.246
509.663	403.174
513.646	290.812
517.627	270.157
521.607	320.199
525.584	230.933
529.56	141.339
533.534	51.364
537.506	16.896
541.476	20.977
545.444	66.595
549.41	12.298
553.375	30.021
557.337	6.744
561.298	66.342
565.257	8.903
569.214	151.737
573.17	66.161
577.123	14.22
581.075	121.897
585.024	46.967
588.972	208.54
592.918	142.351
596.863	262.57
600.805	330.541
604.746	355.643
608.685	367.545
612.621	517.28
616.557	594.179
620.49	733.75
624.421	726.552
628.351	903.208
632.279	1148.63
636.205	1247.04
640.129	1672.82
644.051	2193.85
647.972	2985.07
651.89	4157.32
655.807	7105.19
659.722	13606.8
663.636	27015
667.547	39190.7
671.457	26252
675.365	12653
679.271	6850.68
683.175	4262.95
687.077	3089.18
690.978	2486.75
694.877	2669.6
698.774	3556.79
702.669	4608.59
706.562	3659.53
710.454	2366.35
714.344	1617.24
718.232	1513.82
722.118	1204.78
726.002	716.848
729.885	455.055
733.766	268.604
737.645	168.303
741.522	194.183
745.397	123.479
749.271	91.013
753.143	25.893
757.013	128.033
760.881	56.108
764.748	54.647
768.613	62.771
772.476	49.452
776.337	0.584
780.196	18.369
784.054	38.987
787.91	92.458
791.764	19.819
795.616	58.123
799.467	44.611
803.316	31.448
807.163	137.58
811.008	38.539
814.851	24.27
818.693	146.053
822.533	128.827
826.371	128.591
830.208	214.383
834.042	245.211
837.875	343.125
841.706	417.125
845.536	341.322
849.363	234.759
853.189	300.341
857.013	529.138
860.836	527.293
864.656	692.913
868.475	605.057
872.292	670.559
876.108	592.542
879.922	604.969
883.733	647.811
887.544	916.959
891.352	1649.42
895.159	2996.08
898.964	4039.86
902.767	2992.96
906.568	2138.21
910.368	1607.7
914.166	1377.48
917.962	1076.03
921.757	1063.28
925.55	978.686
929.341	940.541
933.13	945.564
936.918	934.731
940.703	973.235
944.488	1028.09
948.27	1279.01
952.051	1517.49
955.83	1977.73
959.607	2345.25
963.383	3284.55
967.156	4431.24
970.928	5320.76
974.699	6038.23
978.468	5879.51
982.234	4908.56
986	4007.57
989.763	3633.04
993.525	3768.88
997.285	4653.46
1001.04	5382.14
1004.8	4755.03
1008.55	5131.21
1012.31	7471.23
1016.06	12176.5
1019.81	16296.3
1023.56	13869.8
1027.31	8954.46
1031.05	5614.15
1034.79	3726.95
1038.53	2890.44
1042.27	2115.78
1046.01	1821.3
1049.75	1633.51
1053.48	1437.74
1057.22	1385.05
1060.95	1072.67
1064.68	1093.09
1068.4	1037.35
1072.13	810.465
1075.86	824.196
1079.58	792.233
1083.3	705.353
1087.02	552.95
1090.74	610.293
1094.45	318.455
1098.17	379.894
1101.88	333.18
1105.59	336.705
1109.3	221.732
1113.01	286.732
1116.71	235
1120.42	85.842
1124.12	196.697
1127.82	101.178
1131.52	199.516
1135.22	17.975
1138.91	329.461
1142.61	104.438
1146.3	128.5
1149.99	97.279
1153.68	138.498
1157.37	89.098
1161.06	4.68
1164.74	8.221
1168.42	109.676
1172.1	105.006
1175.78	68.533
1179.46	26.383
1183.14	168.133
1186.81	30.191
1190.48	37.855
1194.15	101.732
1197.83	220.824
1201.49	104.787
1205.16	250.021
1208.82	51.49
1212.49	183.258
1216.15	282.346
1219.81	238.781
1223.46	32.555
1227.12	337.631
1230.78	190.064
1234.43	243.836
1238.08	190.932
1241.73	313.326
1245.38	207.068
1249.03	116.154
1252.67	152.52
1256.31	160.973
1259.95	189.734
1263.6	203.479
1267.23	183.098
1270.87	34.848
1274.51	38.242
1278.14	21.691
1281.77	219.725
1285.4	74.305
1289.03	98.246
1292.66	126.605
1296.28	53.947
1299.91	195.721
1303.53	153.674
1307.15	36.086
1310.77	198.072
1314.38	88.967
1318	221.574
1321.61	209.496
1325.23	46.268
1328.84	98.844
1332.45	207.682
1336.06	206.346
1339.66	138.666
1343.27	299.57
1346.87	526.82
1350.47	530.482
1354.07	692.533
1357.67	923.295
1361.26	1121.95
1364.86	1328
1368.45	1527.64
1372.04	1602.86
1375.63	1737.5
1379.22	1666.69
1382.81	1784.19
1386.39	1498.83
1389.98	1231.65
1393.56	1124.46
1397.14	1105.52
1400.72	735.314
1404.3	691.643
1407.87	505.844
1411.45	296.184
1415.02	417.729
1418.59	112.885
1422.16	657.154
1425.73	355.566
1429.29	109.516
1432.86	334.039
1436.42	282.004
1439.98	292.074
1443.54	284.531
1447.1	395.529
1450.66	146.084
1454.21	346.051
1457.77	423.586
1461.32	415.572
1464.87	548.621
1468.42	232.443
1471.96	559.816
1475.51	603.344
1479.06	423.195
1482.6	261.898
1486.14	327.896
1489.68	177.373
1493.22	515.686
1496.75	362.336
1500.29	6.67
1503.82	171.848
1507.35	164.09
1510.88	6.779
1514.41	241.521
1517.94	112.645
1521.46	192.945
1524.99	157.236
