Measurement: Raman, 532 nm, unoriented, Raman Data Processed
Mineral: Serendibite
Rruff sample: R120069
Ideal chemistry: Ca_4_(Mg_6_Al_6_)O_4_[Si_6_B_3_Al_3_O_36_]
Locality: Mogok, Burma
Source: William W. Pinch
Description: Deep blue/purple fragment that almost appears black. Twinned by a 2-fold rotation around (010), according to single crystal X-ray diffraction.
Raman shift (cm-1)	intensity
192.053	0
194.945	6.29175
197.838	7.77437
200.731	4.1902
203.623	1.45398
206.516	0.36528
209.409	1.52104
212.301	3.47612
215.194	4.4628
218.087	6.54486
220.98	8.70601
223.872	12.364
226.765	16.154
229.658	18.609
232.55	17.2646
235.443	17.4108
238.336	18.6528
241.228	18.4348
244.121	16.9223
247.014	16.5413
249.906	12.4496
252.799	8.91391
255.692	3.91028
258.585	1.82881
261.477	0.070099
264.37	1.90396
267.263	0.449539
270.155	1.81198
273.048	3.60541
275.941	6.17502
278.834	7.88968
281.726	8.54172
284.619	8.77324
287.512	9.52029
290.404	11.948
293.297	19.1749
296.19	28.2174
299.082	35.3127
301.975	40.545
304.868	42.563
307.76	38.005
310.653	32.7711
313.546	26.1676
316.439	18.7426
319.331	15.2106
322.224	11.9937
325.117	8.62514
328.009	5.32944
330.902	1.79642
333.795	0.480057
336.688	2.0524
339.58	1.43416
342.473	0.813034
345.366	1.64291
348.258	4.10233
351.151	7.32123
354.044	9.1848
356.936	10.1793
359.829	9.94167
362.722	9.32478
365.615	8.41377
368.507	9.29729
371.4	7.14912
374.293	8.4653
377.185	9.54944
380.078	10.3721
382.971	11.2288
385.863	12.5061
388.756	14.6356
391.649	16.3929
394.541	17.9152
397.434	20.9599
400.327	22.402
403.22	24.4092
406.112	24.0768
409.005	22.7331
411.898	20.2831
414.79	19.6606
417.683	18.9039
420.576	15.4388
423.469	17.4662
426.361	16.8636
429.254	16.5882
432.147	15.1316
435.039	13.7211
437.932	11.6608
440.825	13.8512
443.717	11.2618
446.61	10.77
449.503	12.1205
452.396	11.878
455.288	14.525
458.181	16.1149
461.074	19.4629
463.966	21.3401
466.859	20.131
469.752	19.291
472.644	17.5478
475.537	12.258
478.43	8.85234
481.322	4.82715
484.215	1.42082
487.108	1.08475
490.001	2.02396
492.893	2.63263
495.786	2.8045
498.679	0.986206
501.571	1.74301
504.464	4.80096
507.357	9.11255
510.25	15.314
513.142	21.0302
516.035	28.4015
518.928	35.6727
521.82	41.3043
524.713	46.9057
527.606	45.4815
530.498	41.3043
533.391	34.7765
536.284	31.0242
539.177	26.4985
542.069	22.1835
544.962	18.2834
547.855	17.63
550.747	16.1657
553.64	17.9853
556.533	19.6389
559.425	23.9094
562.318	27.9903
565.211	28.9984
568.104	27.7462
570.996	24.78
573.889	22.0519
576.782	17.9962
579.674	15.7219
582.567	13.0354
585.46	12.0055
588.352	10.2563
591.245	9.10977
594.138	5.77165
597.03	3.68404
599.923	1.93073
602.816	2.45566
605.709	0.184387
608.601	1.83273
611.494	4.09553
614.387	7.90451
617.279	15.8953
620.172	24.3522
623.065	30.4956
625.957	35.2948
628.85	35.1297
631.743	31.3152
634.636	26.3726
637.528	18.1972
640.421	13.4692
643.314	9.26933
646.206	7.56345
649.099	6.31401
651.992	6.66072
654.885	8.76946
657.777	10.6989
660.67	11.8985
663.563	14.1912
666.455	16.0603
669.348	14.4122
672.241	12.6381
675.133	10.0685
678.026	8.86456
680.919	7.17751
683.812	4.94852
686.704	2.71011
689.597	1.05142
692.49	0.166946
695.382	1.86543
698.275	2.468
701.168	0.826416
704.06	0.505569
706.953	0.34642
709.846	1.85036
712.739	3.26979
715.631	5.7193
718.524	5.91499
721.417	6.39127
724.309	9.43279
727.202	11.4952
730.095	11.7448
732.987	13.3577
735.88	16.3043
738.773	17.8431
741.665	19.1274
744.558	23.9336
747.451	25.821
750.344	28.1438
753.236	27.7239
756.129	28.0063
759.022	26.0022
761.914	25.2975
764.807	23.7522
767.7	18.6984
770.592	15.8195
773.485	14.898
776.378	10.5412
779.271	8.49504
782.163	7.00964
785.056	5.82106
787.949	4.34717
790.841	5.50664
793.734	5.31157
796.627	6.99721
799.519	7.48398
802.412	9.26869
805.305	8.53599
808.198	9.45718
811.09	7.08446
813.983	5.70076
816.876	3.50505
819.768	1.80597
822.661	1.58141
825.554	1.62602
828.447	1.74152
831.339	1.54479
834.232	1.81654
837.125	0.428177
840.017	0.656586
842.91	0.726532
845.803	1.20909
848.695	1.4881
851.588	1.70975
854.481	2.99233
857.374	3.25629
860.266	4.53221
863.159	6.67218
866.052	9.0289
868.944	13.6817
871.837	17.2427
874.73	22.1016
877.622	25.4786
880.515	29.4919
883.408	33.1441
886.301	33.1942
889.193	35.0207
892.086	34.278
894.979	33.8944
897.871	32.7124
900.764	29.9499
903.657	29.0849
906.549	27.0437
909.442	24.7643
912.335	22.6166
915.227	20.2644
918.12	18.6962
921.013	19.0484
923.906	17.1361
926.798	14.6576
929.691	12.2635
932.584	11.5521
935.476	12.3106
938.369	11.1634
941.262	10.6089
944.154	10.2413
947.047	10.3953
949.94	8.08707
952.833	4.96816
955.725	3.00429
958.618	4.12869
961.511	2.17746
964.403	3.05876
967.296	2.91905
970.189	4.12241
973.082	5.69806
975.974	7.00854
978.867	7.09204
981.76	9.02168
984.652	9.21259
987.545	8.11171
990.438	8.66972
993.33	7.37035
996.223	7.64877
999.116	4.71771
1002.01	4.05591
1004.9	2.59174
1007.79	2.18732
1010.69	1.05356
1013.58	0.104385
1016.47	0.494141
1019.37	0.261307
1022.26	1.51177
1025.15	0.724548
1028.04	0.109283
1030.94	0.160126
1033.83	1.11888
1036.72	1.18722
1039.61	1.18806
1042.51	1.50355
1045.4	2.50624
1048.29	2.66232
1051.18	0.949722
1054.08	1.01204
1056.97	0.523987
1059.86	0.158066
1062.76	1.62929
1065.65	0.077454
1068.54	0.381729
1071.43	0.06192
1074.33	0.152435
1077.22	1.07744
1080.11	0.989349
1083	0.760895
1085.9	0.987991
1088.79	1.77873
1091.68	1.44197
1094.58	2.80092
1097.47	2.925
1100.36	4.50795
1103.25	4.41217
1106.15	4.70305
1109.04	4.89764
1111.93	6.94623
1114.82	6.70149
1117.72	8.91361
1120.61	8.8551
1123.5	9.27483
1126.39	9.46037
1129.29	9.03931
1132.18	8.60558
1135.07	9.50192
1137.96	9.61906
1140.86	9.45811
1143.75	9.66943
1146.64	11.3823
1149.54	10.4345
1152.43	11.0181
1155.32	10.7901
1158.21	10.2048
1161.11	10.3333
1164	9.23117
1166.89	8.80058
1169.79	8.77422
1172.68	8.21594
1175.57	8.18076
1178.46	6.93445
1181.36	6.84027
1184.25	5.86432
1187.14	4.20853
1190.03	3.23619
1192.93	3.30089
1195.82	3.50362
1198.71	3.6207
1201.61	1.88504
1204.5	2.73894
1207.39	1.60602
1210.28	2.37863
1213.18	1.25649
1216.07	1.66797
1218.96	0.774033
1221.85	0.235626
1224.75	0.189865
1227.64	0.196335
1230.53	0.43309
1233.42	0.038071
1236.32	0.533447
1239.21	0.054047
1242.1	0.857834
1244.99	0.686401
1247.89	0.06955
1250.78	1.13516
1253.67	0.119308
1256.57	1.20869
1259.46	0.93689
1262.35	1.89879
1265.24	1.71187
1268.14	0.812119
1271.03	1.51619
1273.92	1.04277
1276.82	0.956467
1279.71	1.80556
1282.6	1.58099
1285.49	0.637085
1288.39	1.26508
1291.28	1.02429
1294.17	1.39708
1297.06	1.43396
1299.96	0.068192
