Measurement: Raman, 532 nm, unoriented, Raman Data Processed
Mineral: Serpierite
Rruff sample: R060475
Ideal chemistry: Ca(Cu,Zn)_4_(SO_4_)_2_(OH)_6_3H_2_O
Locality: Oh mine, Gila County, Arizona, USA
Source: Michael Scott
Description: Divergent sprays of blue bladed crystals associated with ktenasite, R090002
Raman shift (cm-1)	intensity
177.755	0
180.648	7.74854
183.541	35.5713
186.433	31.645
189.326	36.3037
192.219	70.9893
195.112	129.86
198.004	190.992
200.897	247.368
203.79	256.287
206.682	269.729
209.575	282.482
212.468	310.007
215.36	328.123
218.253	336.708
221.146	331.501
224.038	339.592
226.931	322.318
229.824	326.497
232.717	347.466
235.609	373.294
238.502	390.703
241.395	386.814
244.287	379.688
247.18	400.006
250.073	403.25
252.965	396.291
255.858	381.705
258.751	308.581
261.644	247.072
264.536	168.937
267.429	126.547
270.322	91.8193
273.214	95.3433
276.107	71.5708
279	52.9888
281.892	25.4653
284.785	17.8887
287.678	24.2178
290.571	13.2183
293.463	5.55811
296.356	6.79688
299.249	26.5381
302.141	41.5225
305.034	48.709
307.927	66.7563
310.82	96.4219
313.712	155.327
316.605	219.94
319.498	287.762
322.39	339.197
325.283	372.287
328.176	336.033
331.068	326.219
333.961	308.95
336.854	300.379
339.747	277.664
342.639	203.281
345.532	146.857
348.425	116.868
351.317	89.1387
354.21	88.394
357.103	65.0288
359.995	40.0059
362.888	27.8047
365.781	0.446289
368.673	1.91309
371.566	8.64355
374.459	19.2573
377.352	5.14014
380.244	16.0698
383.137	11.7095
386.03	27.2495
388.922	45.48
391.815	57.7622
394.708	68.3984
397.601	129.75
400.493	175.017
403.386	254.423
406.279	345.168
409.171	493.767
412.064	682.872
414.957	873.895
417.849	1103.52
420.742	1258.91
423.635	1365.84
426.527	1289.4
429.42	1124.68
432.313	879.86
435.206	713.225
438.098	619.043
440.991	562.398
443.884	530.871
446.776	495.747
449.669	455.868
452.562	394.941
455.454	343.601
458.347	338.892
461.24	349.117
464.133	344.893
467.025	325.725
469.918	318.169
472.811	331.067
475.703	341.332
478.596	346.451
481.489	369.545
484.382	357.896
487.274	372.234
490.167	359.629
493.06	323.885
495.952	307.31
498.845	255.834
501.738	200.136
504.63	140.547
507.523	100.852
510.416	65.4273
513.308	31.5806
516.201	24.4595
519.094	6.4082
521.987	17.7881
524.879	0.33252
527.772	20.8726
530.665	13.2768
533.557	3.6333
536.45	14.7207
539.343	7.61914
542.236	16.0645
545.128	0.361816
548.021	16.9238
550.914	29.1318
553.806	30.9839
556.699	20.5107
559.592	10.7661
562.484	19.8511
565.377	13.9536
568.27	20.478
571.163	12.2051
574.055	14.7275
576.948	39.7002
579.841	54.5332
582.733	60.9409
585.626	58.0205
588.519	91.4053
591.411	124.636
594.304	157.941
597.197	184.425
600.09	234.345
602.982	254.269
605.875	276.475
608.768	300.763
611.66	281.458
614.553	237.259
617.446	172.341
620.338	135.631
623.231	94.2222
626.124	80.2056
629.016	57.9853
631.909	64.0288
634.802	80.9634
637.695	93.4204
640.587	101.513
643.48	101.77
646.373	89.0601
649.265	71.938
652.158	47.6177
655.051	41.5024
657.943	26.2012
660.836	24.9849
663.729	12.2744
666.622	5.98389
669.514	8.86133
672.407	9.40185
675.3	11.6567
678.192	16.0483
681.085	28.5435
683.978	41.6938
686.87	42.6143
689.763	47.7417
692.656	49.3272
695.549	38.271
698.441	57.5557
701.334	39.1528
704.227	26.3872
707.119	28.8628
710.012	41.3335
712.905	35.2388
715.798	10.6362
718.69	9.23047
721.583	13.6753
724.476	16.7925
727.368	42.1065
730.261	39.9712
733.154	24.2266
736.046	24.7754
738.939	9.6831
741.832	3.93408
744.725	3.64844
747.617	3.71533
750.51	5.13037
753.403	31.7065
756.295	42.5366
759.188	25.2773
762.081	24.1025
764.973	29.3213
767.866	32.292
770.759	27.3428
773.652	22.1787
776.544	24.269
779.437	24.0845
782.33	32.3931
785.222	31.1553
788.115	3.79004
791.008	22.1865
793.9	41.1133
796.793	32.0933
799.686	8.87256
802.578	8.18945
805.471	4.70312
808.364	34.1279
811.257	15.6694
814.149	13.3301
817.042	35.3648
819.935	45.4741
822.827	29.9399
825.72	15.019
828.613	9.85645
831.505	17.2373
834.398	7.40234
837.291	6.11279
840.184	6.875
843.076	13.5679
845.969	12.1289
848.862	6.33691
851.754	6.87451
854.647	10.6655
857.54	22.1724
860.433	26.0278
863.325	24.6143
866.218	11.687
869.111	7.24365
872.003	9.8169
874.896	17.9697
877.789	3.69727
880.681	0.696777
883.574	10.1162
886.467	18.7564
889.36	36.4653
892.252	20.0698
895.145	10.9751
898.038	5.45068
900.93	7.74609
903.823	8.25977
906.716	19.123
909.608	35.0591
912.501	24.8686
915.394	18.5693
918.287	32.1411
921.179	31.5908
924.072	22.6709
926.965	17.4375
929.857	33.9883
932.75	5.93506
935.643	13.3389
938.535	5.65283
941.428	12.7617
944.321	12.8794
947.213	32.6899
950.106	22.4995
952.999	47.6499
955.892	34.5054
958.784	35.4912
961.677	42.4678
964.57	85.5068
967.462	114.689
970.355	176.652
973.248	278.078
976.14	537.991
979.033	1031.73
981.926	1942.35
984.819	3513.64
987.711	4296.3
990.604	2698.29
993.497	1520
996.389	653.139
999.282	286.827
1002.17	159.238
1005.07	96.5181
1007.96	75.6411
1010.85	52.751
1013.75	6.97607
1016.64	3.09619
1019.53	19.6016
1022.42	17.9297
1025.32	8.28955
1028.21	5.93994
1031.1	14.9175
1033.99	0.625
1036.89	12.6929
1039.78	3.44775
1042.67	6.21924
1045.57	23.6733
1048.46	28.9434
1051.35	71.2085
1054.24	92.4204
1057.14	118.437
1060.03	154.03
1062.92	172.353
1065.81	200.231
1068.71	232.573
1071.6	269.174
1074.49	249.653
1077.38	203.868
1080.28	121.087
1083.17	72.1226
1086.06	50.1279
1088.96	43.126
1091.85	44.4116
1094.74	59.2549
1097.63	68.7046
1100.53	98.2637
1103.42	97.4863
1106.31	108.124
1109.2	122.546
1112.1	174.182
1114.99	183.875
1117.88	192.703
1120.78	229.997
1123.67	263.079
1126.56	314.438
1129.45	423.667
1132.35	490.148
1135.24	506.935
1138.13	413.008
1141.02	277.325
1143.92	205.03
1146.81	153.845
1149.7	131.154
1152.6	125.331
1155.49	74.4336
1158.38	39.7231
1161.27	29.8032
1164.17	19.8745
1167.06	14.2847
1169.95	0.685059
1172.84	5.69434
1175.74	6.66357
1178.63	10.167
1181.52	1.25244
1184.41	15.3813
1187.31	10.3335
1190.2	0.388184
1193.09	6.46143
1195.99	3.44824
1198.88	22.5088
1201.77	10.1558
1204.66	19.3657
1207.56	29.6538
1210.45	68.165
1213.34	49.0112
1216.23	33.188
1219.13	14.6958
1222.02	21.7954
1224.91	34.8364
1227.81	25.9028
1230.7	3.32422
1233.59	15.1431
1236.48	18.0405
1239.38	3.6416
1242.27	18.8608
1245.16	14.2676
1248.05	8.85254
1250.95	13.8955
1253.84	16.2471
1256.73	10.4746
1259.62	25.7266
1262.52	35.145
1265.41	29.8716
1268.3	32.0815
1271.2	7.37598
1274.09	11.7476
1276.98	18.0107
1279.87	0.371582
1282.77	0.233398
1285.66	5.15723
1288.55	13.7158
1291.44	7.48144
1294.34	21.3779
1297.23	4.08545
1300.12	17.1851
1303.02	0
