Measurement: Raman, 780 nm, unoriented, Raman Data Processed
Mineral: Serpierite
Rruff sample: R060475
Ideal chemistry: Ca(Cu,Zn)_4_(SO_4_)_2_(OH)_6_3H_2_O
Locality: Oh mine, Gila County, Arizona, USA
Source: Michael Scott
Description: Divergent sprays of blue bladed crystals associated with ktenasite, R090002
Raman shift (cm-1)	intensity
201.526	0
204.419	0.030708
207.311	2.75793
210.204	5.14155
213.097	3.65672
215.99	0.65144
218.882	3.36436
221.775	1.79415
224.668	0.627956
227.56	6.12415
230.453	3.9811
233.346	7.96936
236.238	4.13103
239.131	7.53541
242.024	10.831
244.917	12.5555
247.809	9.90717
250.702	10.9453
253.595	12.6542
256.487	11.2145
259.38	12.7913
262.273	8.80463
265.166	0.924141
268.058	3.30242
270.951	3.45933
273.844	3.73563
276.736	7.2963
279.629	0.583689
282.522	1.73986
285.414	4.07608
288.307	0.991194
291.2	0.840874
294.092	1.9524
296.985	1.53997
299.878	2.07077
302.771	5.79638
305.663	7.69222
308.556	6.9283
311.449	5.93922
314.341	15.3696
317.234	11.1608
320.127	9.97485
323.019	17.3603
325.912	13.5953
328.805	14.6348
331.698	16.0368
334.59	11.8811
337.483	8.71268
340.376	10.0806
343.268	8.11296
346.161	6.20203
349.054	6.30517
351.947	0.009098
354.839	3.35477
357.732	1.31091
360.625	0.47291
363.517	2.0859
366.41	0.075994
369.303	1.08168
372.195	2.88272
375.088	2.34123
377.981	4.96037
380.873	2.30783
383.766	4.83609
386.659	5.31589
389.552	10.6484
392.444	10.4507
395.337	9.49302
398.23	11.5601
401.122	11.0274
404.015	12.9825
406.908	18.0775
409.8	22.8385
412.693	29.9847
415.586	31.5309
418.479	44.0915
421.371	50.0861
424.264	50.5527
427.157	50.6498
430.049	49.3845
432.942	36.728
435.835	27.9133
438.728	24.9878
441.62	27.2723
444.513	27.1143
447.406	31.7981
450.298	28.8108
453.191	29.5576
456.084	32.1364
458.976	33.6003
461.869	33.654
464.762	36.7488
467.654	40.464
470.547	39.3997
473.44	41.0579
476.333	48.5955
479.225	52.5952
482.118	49.877
485.011	50.933
487.903	44.1148
490.796	35.627
493.689	28.0379
496.582	25.8966
499.474	17.7552
502.367	14.3634
505.26	12.1808
508.152	8.01411
511.045	0.500511
513.938	1.71747
516.83	3.39775
519.723	4.27641
522.616	2.11934
525.509	0.058571
528.401	0.675486
531.294	1.33271
534.187	0.4716
537.079	2.87886
539.972	0.320847
542.865	0.844561
545.757	1.31275
548.65	4.14165
551.543	0.944784
554.436	3.75288
557.328	3.43047
560.221	3.12155
563.114	5.68511
566.006	2.40012
568.899	1.04943
571.792	6.68905
574.684	6.44902
577.577	5.40585
580.47	8.07758
583.362	5.85995
586.255	3.29464
589.148	12.3212
592.041	13.6505
594.933	18.902
597.826	27.4352
600.719	33.6764
603.611	35.197
606.504	38.1536
609.397	33.1565
612.29	33.3448
615.182	27.3194
618.075	21.9666
620.968	17.3271
623.86	13.5567
626.753	9.3174
629.646	8.31862
632.538	10.0405
635.431	9.88258
638.324	7.11398
641.217	9.87081
644.109	11.3982
647.002	6.41175
649.895	0.877964
652.787	6.6016
655.68	4.83112
658.573	3.62077
661.466	2.16183
664.358	1.20241
667.251	2.99778
670.144	4.824
673.036	3.77347
675.929	0.039494
678.822	2.05796
681.714	2.78993
684.607	4.5497
687.5	3.76007
690.393	0.475986
693.285	1.77981
696.178	4.72624
699.071	1.72019
701.963	1.23843
704.856	2.00068
707.749	0.328754
710.641	4.17598
713.534	2.13695
716.427	4.55382
719.319	0.405495
722.212	5.4626
725.105	1.7407
727.998	2.40167
730.89	2.26792
733.783	5.71218
736.676	4.53983
739.568	3.91071
742.461	0.131212
745.354	3.31477
748.246	1.99943
751.139	2.43508
754.032	4.73448
756.925	3.51718
759.817	0.984836
762.71	6.60767
765.603	0.532105
768.495	1.97069
771.388	3.25612
774.281	2.50775
777.173	3.4019
780.066	5.47129
782.959	1.89971
785.852	4.83718
788.744	1.77657
791.637	4.56953
794.53	1.08614
797.422	5.93626
800.315	0.092734
803.208	5.61609
806.101	5.23048
808.993	1.03218
811.886	1.36644
814.779	7.5314
817.671	1.53886
820.564	7.85742
823.457	4.69286
826.349	2.12442
829.242	2.9198
832.135	3.94958
835.028	2.02787
837.92	2.37236
840.813	1.58754
843.706	0.897474
846.598	2.59091
849.491	0.12173
852.384	4.78649
855.276	2.99553
858.169	0.410051
861.062	3.73375
863.955	1.3666
866.847	0.629482
869.74	0.025131
872.633	6.23384
875.525	4.60713
878.418	4.00777
881.311	6.35774
884.203	0.525067
887.096	0.785508
889.989	2.84259
892.881	4.48096
895.774	1.312
898.667	3.03914
901.56	2.1461
904.452	1.92274
907.345	1.40272
910.238	0.681174
913.13	1.91997
916.023	1.01008
918.916	0.637403
921.808	3.39347
924.701	3.82427
927.594	0.255085
930.487	2.77946
933.379	2.15226
936.272	1.71283
939.165	6.10489
942.057	1.36703
944.95	3.66816
947.843	1.68154
950.736	7.00942
953.628	5.18601
956.521	7.84213
959.414	5.06108
962.306	8.71646
965.199	7.99997
968.092	15.3819
970.984	18.7359
973.877	29.859
976.77	54.7441
979.663	97.8147
982.555	202.279
985.448	383.586
988.341	425.136
991.233	260.123
994.126	143.426
997.019	60.7038
999.911	26.5552
1002.8	19.7682
1005.7	10.0486
1008.59	7.68531
1011.48	2.53366
1014.38	6.94248
1017.27	2.30303
1020.16	4.14079
1023.05	0.450554
1025.95	0.593055
1028.84	1.43721
1031.73	0.302972
1034.62	1.03437
1037.52	0.570541
1040.41	0.393428
1043.3	2.81337
1046.19	2.41505
1049.09	2.70681
1051.98	3.14
1054.87	3.67282
1057.77	3.27088
1060.66	6.45281
1063.55	8.3439
1066.44	5.14994
1069.34	6.06292
1072.23	11.3783
1075.12	6.42115
1078.01	6.15161
1080.91	6.03792
1083.8	3.43496
1086.69	4.6661
1089.59	1.24716
1092.48	6.48646
1095.37	1.16805
1098.26	9.7445
1101.16	7.49181
1104.05	6.80065
1106.94	8.84038
1109.83	7.80481
1112.73	7.56997
1115.62	11.8973
1118.51	13.9085
1121.4	13.505
1124.3	13.938
1127.19	11.1832
1130.08	15.1019
1132.98	11.9114
1135.87	13.081
1138.76	9.48262
1141.65	9.51177
1144.55	3.209
1147.44	8.21767
1150.33	6.04108
1153.22	3.62805
1156.12	1.84283
1159.01	3.3843
1161.9	2.44781
1164.8	3.31701
1167.69	7.86292
1170.58	4.02409
1173.47	4.35868
1176.37	4.98499
1179.26	0.839353
1182.15	7.07947
1185.04	1.32929
1187.94	0.455777
1190.83	5.0501
1193.72	5.02299
1196.62	2.67185
1199.51	3.24178
1202.4	3.96319
1205.29	5.33289
1208.19	3.4181
1211.08	3.17908
1213.97	4.6452
1216.86	6.20811
1219.76	6.24346
1222.65	5.3074
1225.54	6.02088
1228.43	7.84311
1231.33	8.73302
1234.22	4.31236
1237.11	2.08375
1240.01	5.26745
1242.9	0.885839
1245.79	5.06003
1248.68	2.46697
1251.58	4.37197
1254.47	3.59858
1257.36	1.70023
1260.25	1.21972
1263.15	1.14165
1266.04	3.77883
1268.93	0.887192
1271.83	2.02521
1274.72	0.799006
1277.61	1.87221
1280.5	3.28058
1283.4	0.126169
