Measurement: Raman, 532 nm, unoriented, Raman Data Processed
Mineral: Serrabrancaite
Rruff sample: R080077
Ideal chemistry: MnPO_4_H_2_O
Locality: Serra Branca pegmatite, Pedra Lavrada, Para√≠ba; Northeast, Brazil
Source: Michael Scott
Description: Granular massive dark green to black, associated with vernadite, R080100
Raman shift (cm-1)	intensity
136.708	0
139.601	1.52842
142.494	1.55425
145.386	0.218191
148.279	0.897612
151.172	0.664873
154.065	2.19339
156.957	2.25702
159.85	2.86125
162.743	4.36585
165.635	3.53417
168.528	5.52091
171.421	6.01255
174.313	5.60743
177.206	6.74021
180.099	7.16299
182.992	7.91182
185.884	8.95731
188.777	10.2714
191.67	8.59769
194.562	9.31426
197.455	8.29343
200.348	8.63784
203.24	7.79991
206.133	5.79502
209.026	3.59024
211.918	3.09897
214.811	2.27943
217.704	2.64021
220.596	3.07001
223.489	1.27294
226.382	0.576712
229.275	0.162477
232.167	0.9116
235.06	1.52939
237.953	0.465919
240.845	0.740028
243.738	2.2546
246.631	2.15235
249.524	2.84194
252.416	5.38246
255.309	7.74656
258.202	7.9398
261.094	6.19047
263.987	4.15794
266.88	3.21883
269.772	5.06956
272.665	4.6059
275.558	5.98956
278.451	5.96771
281.343	7.69649
284.236	9.06007
287.129	10.0694
290.021	9.22775
292.914	7.56047
295.807	5.91982
298.7	5.13084
301.592	7.04933
304.485	8.64615
307.378	8.92333
310.27	9.51166
313.163	8.46881
316.056	7.17751
318.948	6.11956
321.841	5.41482
324.734	5.51137
327.627	5.83908
330.519	7.4692
333.412	7.26362
336.305	6.69703
339.197	4.47744
342.09	4.04671
344.983	3.42856
347.875	3.32642
350.768	3.6719
353.661	2.61889
356.553	2.14251
359.446	2.73665
362.339	2.26376
365.231	1.42969
368.124	2.06229
371.017	1.69617
373.91	1.72517
376.802	2.11011
379.695	2.59281
382.588	3.94908
385.48	2.76341
388.373	3.02309
391.266	2.04788
394.159	2.13067
397.051	1.69077
399.944	1.00416
402.837	0.404985
405.729	0.503487
408.622	0.140795
411.515	0.546349
414.407	1.09174
417.3	0.637562
420.193	0.558664
423.086	0.925179
425.978	1.95326
428.871	1.94962
431.764	3.87994
434.656	3.6234
437.549	5.9692
440.442	8.39537
443.334	10.0631
446.227	11.123
449.12	11.4821
452.012	10.7583
454.905	10.9339
457.798	8.97431
460.691	8.88198
463.583	7.60893
466.476	8.274
469.369	8.35136
472.261	9.3752
475.154	8.01434
478.047	10.5985
480.94	10.0972
483.832	11.2225
486.725	9.28427
489.618	9.83871
492.51	7.37295
495.403	5.46141
498.296	5.93005
501.188	4.00521
504.081	3.4895
506.974	3.4777
509.866	2.12259
512.759	0.58503
515.652	0.55302
518.545	0.261595
521.437	0.206535
524.33	0.218233
527.223	0.705235
530.115	0.483126
533.008	0.347582
535.901	0.379448
538.794	0.765074
541.686	1.00076
544.579	2.05705
547.472	2.37858
550.364	2.93112
553.257	3.33509
556.15	4.54341
559.043	4.61416
561.935	5.38454
564.828	6.38521
567.721	7.09091
570.613	6.62115
573.506	6.2654
576.399	6.67649
579.291	7.03022
582.184	5.75437
585.077	4.32996
587.969	3.75152
590.862	2.29863
593.755	1.15754
596.648	1.80682
599.54	1.73507
602.433	2.37303
605.326	2.12844
608.218	1.97433
611.111	1.6556
614.004	1.81388
616.896	1.59012
619.789	1.82039
622.682	2.16896
625.574	1.83756
628.467	1.80189
631.36	2.74533
634.253	2.93072
637.145	3.11412
640.038	3.00132
642.931	3.58209
645.823	3.98998
648.716	4.7465
651.609	3.64061
654.501	4.43198
657.394	3.83773
660.287	3.48978
663.18	3.02597
666.072	2.61907
668.965	2.53106
671.858	2.12226
674.75	1.8257
677.643	1.38689
680.536	1.00304
683.428	0.092443
686.321	0.709015
689.214	0.164463
692.107	0.248018
694.999	0.223076
697.892	0.60737
700.785	0.151228
703.677	0.033758
706.57	0.174414
709.463	0.117392
712.356	0.382185
715.248	0.027107
718.141	0.708069
721.034	0.644409
723.926	0.145975
726.819	0.578398
729.712	0.943027
732.604	0.961519
735.497	0.613195
738.39	1.81968
741.283	1.43873
744.175	1.04997
747.068	0.57069
749.961	0.86937
752.853	1.36136
755.746	1.07252
758.639	0.959053
761.531	0.772968
764.424	0.857035
767.317	1.05939
770.21	0.719877
773.102	0.740942
775.995	1.04502
778.888	0.740572
781.78	0.328733
784.673	0.720734
787.566	0.53249
790.458	0.206718
793.351	0.166365
796.244	0.676371
799.136	0.568033
802.029	0.167246
804.922	0.674059
807.815	0.515554
810.707	1.61992
813.6	0.897943
816.493	1.02438
819.385	1.18042
822.278	1.01613
825.171	1.10753
828.063	1.4792
830.956	1.25742
833.849	1.40389
836.742	1.90474
839.634	1.72975
842.527	1.28262
845.42	1.4543
848.312	1.71276
851.205	1.43678
854.098	2.37528
856.99	1.83007
859.883	1.6134
862.776	2.24689
865.669	2.03813
868.561	2.82857
871.454	2.82463
874.347	2.21695
877.239	2.02386
880.132	2.5307
883.025	1.47283
885.918	2.01345
888.81	2.01569
891.703	0.896761
894.596	1.24356
897.488	0.979471
900.381	0.193708
903.274	0.732765
906.166	0.787941
909.059	0.075214
911.952	0.298183
914.845	0.389978
917.737	0.371979
920.63	1.03157
923.523	0.669861
926.415	0.540924
929.308	0.239145
932.201	0.674498
935.093	0.679575
937.986	1.58893
940.879	2.172
943.771	4.13924
946.664	5.20956
949.557	6.30572
952.45	6.823
955.342	8.42516
958.235	9.89368
961.128	10.3972
964.02	11.6136
966.913	13.01
969.806	17.0613
972.698	23.2619
975.591	30.145
978.484	37.9206
981.377	47.2193
984.269	50.1849
987.162	47.5907
990.055	43.3946
992.947	37.7034
995.84	33.1651
998.733	28.6864
1001.63	28.2099
1004.52	30.2439
1007.41	30.1448
1010.3	28.3949
1013.2	21.1911
1016.09	15.4588
1018.98	10.5228
1021.87	9.27019
1024.77	9.33683
1027.66	12.9442
1030.55	15.2458
1033.44	17.3547
1036.34	17.8742
1039.23	17.1411
1042.12	19.2188
1045.02	21.6116
1047.91	24.3654
1050.8	22.8641
1053.69	17.9959
1056.59	17.0633
1059.48	17.6216
1062.37	19.4936
1065.27	16.3726
1068.16	11.3532
1071.05	6.9077
1073.94	5.29685
1076.84	6.19802
1079.73	7.73111
1082.62	9.75848
1085.51	8.29074
1088.41	5.24122
1091.3	2.78356
1094.19	1.09359
1097.09	0.30489
1099.98	0.544163
1102.87	1.03246
1105.76	1.16471
1108.65	0.358839
1111.55	0.435497
1114.44	0.067617
1117.33	0.077721
1120.23	0.675766
1123.12	0.329662
1126.01	0.495882
1128.9	0.738567
1131.8	1.14985
1134.69	1.1459
1137.58	1.15001
1140.47	1.02569
1143.37	1.83526
1146.26	1.58506
1149.15	1.67794
1152.05	1.32742
1154.94	2.20291
1157.83	1.57414
1160.72	1.32135
1163.62	1.59011
1166.51	1.4974
1169.4	0.988428
1172.3	0.444714
1175.19	0.35713
1178.08	1.10813
1180.97	1.16513
1183.87	1.54567
1186.76	1.33994
1189.65	1.68451
1192.54	1.37107
1195.44	1.45325
1198.33	1.44979
1201.22	0.94663
1204.12	1.31886
1207.01	1.88472
1209.9	1.33038
1212.79	1.31268
1215.68	1.21252
1218.58	1.24362
1221.47	1.32744
1224.36	1.1004
1227.26	0.954645
1230.15	1.32057
1233.04	0.326141
1235.93	0.988768
1238.83	0.657133
1241.72	0.784767
1244.61	0.887802
1247.51	0.368587
1250.4	0.357719
1253.29	1.1403
1256.18	0.66923
1259.08	0.326706
1261.97	0.269495
1264.86	0.872957
1267.75	0.556196
1270.65	0.414541
1273.54	0.313953
1276.43	0.282297
1279.33	0.469336
