Measurement: Raman, 532 nm, unoriented, Raman Data Processed
Mineral: Sewardite
Rruff sample: R060720
Ideal chemistry: CaFe^3+^_2_(As^5+^O_4_)_2_(OH)_2_
Locality: Las Animas mine, La Mur, Sonora, Mexico
Source: Bob Jenkins
Description: Aggregates of bright red granular or prismatic crystals, associated with dark red platy arseniosiderite (R150061).
Measured chemistry: Ca_1.00_(Fe^3+^_1.83_Ca_0.17_)_Σ=2_(As_1.00_O_4_)_2_((OH)_1.83_(H_2_O)_0.17_)_Σ=2_
Raman shift (cm-1)	intensity
89.7832	0
93.158	40.025
96.5328	37.3389
99.9077	19.9186
103.282	2.92059
106.657	2.302
110.032	15.128
113.407	34.561
116.782	61.8268
120.157	66.1553
123.531	70.5966
126.906	90.9025
130.281	127.511
133.656	145.515
137.031	134.177
140.405	99.9717
143.78	86.6476
147.155	108.329
150.53	131.695
153.905	142.268
157.28	156.195
160.654	183.483
164.029	246.51
167.404	274.58
170.779	173.557
174.154	62.3122
177.528	26.662
180.903	20.1246
184.278	28.2305
187.653	32.8599
191.028	44.595
194.403	74.1916
197.777	133.49
201.152	172.9
204.527	166.131
207.902	119.43
211.277	81.1656
214.651	68.1968
218.026	71.9265
221.401	68.0884
224.776	50.117
228.151	33.7611
231.525	29.2517
234.9	34.9327
238.275	52.6148
241.65	76.7888
245.025	105.954
248.4	145.909
251.774	189.361
255.149	239.394
258.524	295.936
261.899	333.658
265.274	346.455
268.649	343.957
272.023	327.437
275.398	298.665
278.773	268.811
282.148	231.977
285.523	189.182
288.897	146.805
292.272	98.7388
295.647	64.0814
299.022	32.2836
302.397	16.667
305.772	0.198669
309.146	4.03467
312.521	6.38782
315.896	9.00513
319.271	10.8621
322.646	10.0624
326.02	5.61212
329.395	1.73053
332.77	6.81873
336.145	14.6342
339.52	32.3387
342.894	48.1026
346.269	81.0364
349.644	108.207
353.019	139.691
356.394	175.982
359.769	196.182
363.143	202.954
366.518	185.658
369.893	159.025
373.268	128.716
376.643	101.473
380.017	78.6458
383.392	68.9387
386.767	62.4405
390.142	63.6799
393.517	56.8886
396.892	57.8882
400.266	53.5359
403.641	40.9291
407.016	26.818
410.391	14.1088
413.766	11.0809
417.14	16.1522
420.515	28.4763
423.89	40.1075
427.265	34.0725
430.64	28.5903
434.014	24.4947
437.389	28.7742
440.764	42.0558
444.139	56.5583
447.514	70.3959
450.889	82.7071
454.263	96.4941
457.638	115.187
461.013	113.174
464.388	121.181
467.763	116.543
471.137	116.416
474.512	109.058
477.887	106.996
481.262	99.1169
484.637	86.7383
488.012	84.7516
491.386	76.1876
494.761	70.8043
498.136	71.6487
501.511	79.8619
504.886	85.9222
508.26	89.3452
511.635	77.9795
515.01	53.8197
518.385	29.109
521.76	7.86798
525.135	3.79144
528.509	9.32654
531.884	10.6025
535.259	8.51135
538.634	0.906433
542.009	15.167
545.384	28.2961
548.758	50.9768
552.133	67.3268
555.508	88.256
558.883	114.336
562.258	140.227
565.632	167.073
569.007	187.274
572.382	202.328
575.757	206.045
579.132	211.682
582.506	205.619
585.881	189.927
589.256	174.658
592.631	155.879
596.006	140.893
599.381	117.353
602.755	103.805
606.13	90.5068
609.505	81.0297
612.88	72.4654
616.255	59.8036
619.63	48.018
623.004	45.6193
626.379	35.897
629.754	32.2164
633.129	27.7515
636.504	23.7274
639.878	21.7051
643.253	18.6769
646.628	21.6306
650.003	19.2045
653.378	15.8375
656.752	15.3807
660.127	14.0143
663.502	13.5436
666.877	10.5766
670.252	5.49237
673.626	5.40057
677.001	6.52557
680.376	3.74951
683.751	4.00476
687.126	0.670898
690.501	1.63324
693.875	1.92914
697.25	2.09863
700.625	0.782532
704	0.785034
707.375	0.901062
710.75	3.02295
714.124	2.11292
717.499	5.48053
720.874	8.19501
724.249	10.0201
727.624	16.2443
730.998	21.269
734.373	26.5264
737.748	35.0549
741.123	44.3728
744.498	50.2224
747.872	58.0329
751.247	58.0925
754.622	46.4088
757.997	31.5569
761.372	13.9622
764.747	0.651306
768.121	8.59045
771.496	6.78857
774.871	1.65601
778.246	7.11963
781.621	32.4233
784.995	61.3661
788.37	91.9904
791.745	136.461
795.12	173.665
798.495	230.461
801.87	270.788
805.244	303.472
808.619	322.139
811.994	297.368
815.369	245.567
818.744	183.358
822.119	123.849
825.493	80.4252
828.868	61.9428
832.243	59.0983
835.618	61.9647
838.993	73.7889
842.367	94.5983
845.742	126.28
849.117	170.852
852.492	251.561
855.867	353.006
859.241	478.094
862.616	618.165
865.991	758.666
869.366	849.802
872.741	814.779
876.115	645.729
879.49	462.551
882.865	331.151
886.24	246.512
889.615	189.517
892.99	143.078
896.364	102.731
899.739	68.0797
903.114	46.09
906.489	24.9282
909.864	14.2595
913.239	2.31989
916.613	0.459045
919.988	7.85998
923.363	2.50507
926.738	0.157104
930.113	0.921143
933.487	6.27832
936.862	1.00659
940.237	3.85168
943.612	5.21277
946.987	0.796082
950.361	1.61047
953.736	3.90881
957.111	5.56274
960.486	7.69086
963.861	14.4741
967.236	18.1204
970.61	18.7999
973.985	22.2777
977.36	21.8402
980.735	23.7034
984.11	25.097
987.485	26.9929
990.859	26.4875
994.234	29.0148
997.609	24.5385
1000.98	24.5742
1004.36	20.2868
1007.73	16.4793
1011.11	16.851
1014.48	15.6696
1017.86	16.6644
1021.23	11.3211
1024.61	11.8395
1027.98	13.5695
1031.36	10.1586
1034.73	11.6519
1038.11	11.9107
1041.48	12.2871
1044.86	9.72266
1048.23	7.41132
1051.61	8.16693
1054.98	9.96088
1058.36	5.28357
1061.73	3.13361
1065.11	4.11432
1068.48	7.1109
1071.86	2.4779
1075.23	2.08563
1078.6	2.75128
1081.98	0.666443
1085.35	5.45776
1088.73	4.16986
1092.1	1.55957
1095.48	5.40064
1098.85	12.516
1102.23	0.335999
1105.6	3.11365
1108.98	2.19501
1112.35	0.140259
1115.73	5.75885
1119.1	6.60333
1122.48	2.72315
1125.85	4.22614
1129.23	4.61322
1132.6	0.671448
1135.98	3.19122
1139.35	3.11932
1142.73	3.58521
1146.1	1.3913
1149.48	2.30188
1152.85	2.28546
1156.22	5.20557
1159.6	5.01215
1162.97	0.18689
1166.35	4.65027
1169.72	3.07159
1173.1	4.2348
1176.47	7.99609
1179.85	4.95917
1183.22	6.57123
1186.6	7.92078
1189.97	5.09558
1193.35	4.64191
1196.72	6.66003
1200.1	6.28918
1203.47	2.91974
1206.85	3.17096
1210.22	1.56513
1213.6	3.28992
1216.97	3.12476
1220.35	2.57599
1223.72	1.84967
1227.1	2.86273
1230.47	3.63354
1233.85	1.66858
1237.22	3.3291
1240.6	1.83459
1243.97	2.45349
1247.35	4.10413
1250.72	5.96179
1254.1	6.86493
1257.47	7.01447
1260.85	2.97168
1264.22	2.03626
1267.59	3.92511
1270.97	3.56103
1274.34	4.74377
1277.72	4.68054
1281.09	3.34088
1284.47	3.96405
1287.84	5.54413
1291.22	6.16357
1294.59	1.13617
1297.97	1.74176
1301.34	1.72937
