Measurement: Raman, 780 nm, unoriented, Raman Data Processed
Mineral: Sewardite
Rruff sample: R141206
Ideal chemistry: CaFe^3+^_2_(As^5+^O_4_)_2_(OH)_2_
Locality: Tsumeb, Namibia
Source: Shields Flynn
Description: Reddish crystalline massive in scorodite
Raman shift (cm-1)	intensity
95.899	0
99.2738	10.2886
102.649	3.35718
106.023	0.005127
109.398	2.17969
112.773	9.22705
116.148	19.1538
119.523	19.3489
122.897	22.2375
126.272	28.9298
129.647	46.0555
133.022	63.335
136.397	73.4857
139.772	62.0568
143.146	83.8152
146.521	179.634
149.896	322.591
153.271	365.214
156.646	302.365
160.02	291.082
163.395	328.354
166.77	379.725
170.145	363.031
173.52	231.909
176.894	116.509
180.269	118.111
183.644	208.807
187.019	311.884
190.394	313.652
193.769	203.565
197.143	105.506
200.518	65.22
203.893	48.0425
207.268	16.3108
210.643	11.8407
214.018	15.3685
217.392	2.45715
220.767	22.2555
224.142	59.12
227.517	103.014
230.892	155.878
234.266	203.915
237.641	241.348
241.016	244.466
244.391	252.775
247.766	263.862
251.14	268.75
254.515	283.158
257.89	317.421
261.265	367.347
264.64	407.865
268.014	414.683
271.389	370.503
274.764	314.332
278.139	274.609
281.514	247.717
284.889	225.279
288.263	206.979
291.638	193.099
295.013	177.93
298.388	181.924
301.763	169.128
305.137	153.268
308.512	119.036
311.887	80.1863
315.262	51.247
318.637	26.7759
322.012	14.8842
325.386	4.07288
328.761	4.26935
332.136	8
335.511	8.58935
338.886	0.602844
342.26	4.13403
345.635	16.0335
349.01	39.2984
352.385	73.7986
355.76	135.811
359.135	218.677
362.509	277.142
365.884	298.874
369.259	298.416
372.634	284.412
376.009	257.538
379.383	229.371
382.758	220.179
386.133	214.089
389.508	214.534
392.883	194.406
396.257	170.779
399.632	148.982
403.007	120.421
406.382	84.894
409.757	48.9369
413.132	19.1381
416.506	8.27039
419.881	6.25055
423.256	11.0584
426.631	24.0609
430.006	30.621
433.38	25.8979
436.755	10.6096
440.13	1.35071
443.505	5.80725
446.88	0.239929
450.255	5.22607
453.629	10.961
457.004	19.8695
460.379	34.9874
463.754	62.3395
467.129	86.6966
470.503	116.275
473.878	136.989
477.253	147.049
480.628	149.297
484.003	151.198
487.377	145.18
490.752	139.668
494.127	140.042
497.502	151.533
500.877	180.221
504.252	240.003
507.626	317.681
511.001	384.423
514.376	383.029
517.751	298.999
521.126	198.756
524.5	121.22
527.875	71.5608
531.25	36.8519
534.625	17.2255
538	5.77911
541.375	5.04538
544.749	5.24722
548.124	4.94751
551.499	1.37808
554.874	2.65134
558.249	10.918
561.623	21.3413
564.998	30.3253
568.373	43.6173
571.748	55.1383
575.123	67.9601
578.497	73.5431
581.872	84.1494
585.247	88.2413
588.622	85.5941
591.997	83.6769
595.371	80.7216
598.746	76.4771
602.121	67.9466
605.496	57.6628
608.871	44.6185
612.246	37.4932
615.62	27.8856
618.995	25.7483
622.37	19.9871
625.745	19.9295
629.12	16.0328
632.494	13.6209
635.869	11.7704
639.244	10.6592
642.619	6.77441
645.994	7.03873
649.369	7.76947
652.743	4.29758
656.118	2.96695
659.493	3.6955
662.868	4.01248
666.243	2.7782
669.617	9.10489
672.992	2.54199
676.367	1.76621
679.742	4.07928
683.117	4.95712
686.491	5.27338
689.866	7.55438
693.241	11.9228
696.616	9.4234
699.991	11.8112
703.366	10.66
706.74	10.5444
710.115	9.63458
713.49	9.72388
716.865	8.57611
720.24	7.17792
723.614	6.87027
726.989	3.32498
730.364	5.2218
733.739	2.02655
737.114	0.787079
740.489	0.802032
743.863	0.236938
747.238	3.4494
750.613	5.49997
753.988	4.89798
757.363	4.862
760.737	1.36035
764.112	0.018951
767.487	1.39081
770.862	2.75012
774.237	0.928833
777.611	1.11002
780.986	9.24826
784.361	11.5814
787.736	23.9642
791.111	46.0942
794.486	68.2107
797.86	95.4142
801.235	125.764
804.61	149.967
807.985	153.438
811.36	133.995
814.734	104.774
818.109	81.9044
821.484	48.507
824.859	20.1425
828.234	6.85504
831.609	9.77524
834.983	33.5282
838.358	75.3996
841.733	135.954
845.108	239.452
848.483	384.38
851.857	576.221
855.232	768.22
858.607	895.986
861.982	908.835
865.357	833.354
868.731	743.644
872.106	678.005
875.481	630.004
878.856	591.526
882.231	563.754
885.606	569.303
888.98	565.812
892.355	572.805
895.73	541.904
899.105	455.989
902.48	341.955
905.854	234.566
909.229	152.543
912.604	95.4212
915.979	57.0952
919.354	31.7984
922.729	14.3256
926.103	6.24249
929.478	2.10693
932.853	0.324036
936.228	4.83676
939.603	1.60373
942.977	3.06537
946.352	5.52875
949.727	5.81778
953.102	2.5665
956.477	1.85709
959.851	1.21643
963.226	3.51576
966.601	3.49699
969.976	7.01833
973.351	7.85167
976.726	9.6275
980.1	14.3507
983.475	15.2822
986.85	15.1938
990.225	17.0213
993.6	17.1159
996.974	17.332
1000.35	19.6821
1003.72	18.38
1007.1	15.194
1010.47	14.7174
1013.85	16.5927
1017.22	14.2233
1020.6	12.1246
1023.97	14.7938
1027.35	12.7575
1030.72	14.0669
1034.1	14.2273
1037.47	13.9308
1040.85	13.4818
1044.22	14.2622
1047.6	12.4805
1050.97	8.17772
1054.35	8.23897
1057.72	7.41904
1061.1	6.45847
1064.47	3.76929
1067.85	4.73898
1071.22	3.8411
1074.6	4.94125
1077.97	0.408859
1081.35	3.45735
1084.72	4.13789
1088.09	5.68594
1091.47	2.75169
1094.84	2.80888
1098.22	6.73292
1101.59	3.53189
1104.97	3.40317
1108.34	4.39351
1111.72	1.84183
1115.09	0.496902
1118.47	0.427734
1121.84	1.34729
1125.22	1.61296
1128.59	0.643524
1131.97	0.70253
1135.34	1.34805
1138.72	2.38205
1142.09	1.57231
1145.47	2.94711
1148.84	0.369385
1152.22	0.735275
1155.59	1.72899
1158.97	1.42854
1162.34	2.48727
1165.71	1.60277
1169.09	3.70929
1172.46	4.00055
1175.84	1.96251
1179.21	1.34799
1182.59	2.52412
1185.96	2.53726
1189.34	2.93906
1192.71	2.66133
1196.09	2.80222
1199.46	3.70808
1202.84	4.56682
1206.21	3.15964
1209.59	4.44673
1212.96	2.84947
1216.34	2.26531
1219.71	3.20944
1223.09	0.806427
1226.46	3.91219
1229.84	1.49789
1233.21	0.593689
1236.59	1.70171
1239.96	0.970947
1243.34	0.744553
1246.71	1.07967
1250.09	0.608902
1253.46	1.75317
1256.84	0.54567
1260.21	1.46872
1263.59	4.74869
1266.96	1.33307
1270.33	0.72937
1273.71	2.71286
1277.08	2.85625
1280.46	0.394409
1283.83	0.32933
