Measurement: Raman, 532 nm, unoriented, Raman Data Processed
Mineral: Sewardite
Rruff sample: R141206
Ideal chemistry: CaFe^3+^_2_(As^5+^O_4_)_2_(OH)_2_
Locality: Tsumeb, Namibia
Source: Shields Flynn
Description: Reddish crystalline massive in scorodite
Raman shift (cm-1)	intensity
113.407	0
116.782	104.505
120.157	230.72
123.531	346.249
126.906	482.113
130.281	676.171
133.656	829.884
137.031	821.313
140.405	706.95
143.78	740.954
147.155	959.341
150.53	1048.54
153.905	954.254
157.28	818.994
160.654	729.509
164.029	620.008
167.404	427.36
170.779	140.042
174.154	55.3462
177.528	87.0147
180.903	44.3994
184.278	23.6492
187.653	37.2742
191.028	47.6323
194.403	117.173
197.777	268.799
201.152	384.757
204.527	357.757
207.902	286.68
211.277	299.753
214.651	411.26
218.026	575.182
221.401	761.207
224.776	941.979
228.151	1099.55
231.525	1200.49
234.9	1250.07
238.275	1292.99
241.65	1360.05
245.025	1425.16
248.4	1506.56
251.774	1639.38
255.149	1809.21
258.524	2007.73
261.899	2096.38
265.274	2034.9
268.649	1823.04
272.023	1556.48
275.398	1331.98
278.773	1126.07
282.148	956.429
285.523	803.988
288.897	665.838
292.272	539.719
295.647	428.064
299.022	330.56
302.397	236.203
305.772	151.063
309.146	85.3979
312.521	33.7978
315.896	0.251953
319.271	14.6052
322.646	23.7299
326.02	19.0929
329.395	11.5304
332.77	5.8894
336.145	31.0748
339.52	75.1956
342.894	131.286
346.269	208.431
349.644	324.323
353.019	465.604
356.394	627.869
359.769	746.905
363.143	820.196
366.518	808.921
369.893	760.479
373.268	704.118
376.643	628.895
380.017	565.855
383.392	486.147
386.767	405.381
390.142	322.859
393.517	242.168
396.892	190.929
400.266	136.647
403.641	91.6262
407.016	40.218
410.391	7.09106
413.766	14.8186
417.14	14.4807
420.515	56.5005
423.89	106.81
427.265	118.815
430.64	111.305
434.014	84.1416
437.389	53.8118
440.764	23.0454
444.139	8.97681
447.514	3.74414
450.889	2.21826
454.263	30.74
457.638	82.5142
461.013	143.956
464.388	218.295
467.763	290.963
471.137	355.609
474.512	406.139
477.887	452.358
481.262	490.322
484.637	514.22
488.012	518.292
491.386	526.103
494.761	558.092
498.136	645.709
501.511	774.761
504.886	880.881
508.26	919.109
511.635	855.894
515.01	685.182
518.385	475.032
521.76	306.663
525.135	178.016
528.509	86.5085
531.884	28.9553
535.259	1.59619
538.634	17.9165
542.009	11.8467
545.384	12.6162
548.758	42.6543
552.133	86.7484
555.508	124.984
558.883	172.858
562.258	226.271
565.632	269.157
569.007	294.045
572.382	314.386
575.757	322.592
579.132	313.675
582.506	289.827
585.881	274.149
589.256	242.067
592.631	205.401
596.006	170.407
599.381	145.321
602.755	101.658
606.13	75.0447
609.505	59.6354
612.88	45.71
616.255	31.8723
619.63	20.6687
623.004	15.7548
626.379	10.6874
629.754	7.80933
633.129	2.71362
636.504	1.67688
639.878	0.332764
643.253	2.1084
646.628	4.69836
650.003	11.1239
653.378	14.0666
656.752	13.8873
660.127	22.985
663.502	31.2355
666.877	58.8179
670.252	45.0531
673.626	52.9989
677.001	59.2092
680.376	58.7014
683.751	63.8733
687.126	56.0101
690.501	56.0118
693.875	49.9489
697.25	39.3514
700.625	34.2758
704	28.1392
707.375	21.6314
710.75	12.1328
714.124	9.09534
717.499	0.240723
720.874	7.59656
724.249	8.02747
727.624	12.3961
730.998	18.7388
734.373	16.6641
737.748	10.0608
741.123	9.29773
744.498	5.92383
747.872	17.9965
751.247	32.796
754.622	35.6437
757.997	37.0543
761.372	38.6692
764.747	39.1166
768.121	39.1045
771.496	40.1398
774.871	61.6446
778.246	84.1636
781.621	131.443
784.995	213.863
788.37	304.295
791.745	428.056
795.12	553.382
798.495	668.522
801.87	736.567
805.244	729.403
808.619	675.254
811.994	559.789
815.369	419.539
818.744	279.69
822.119	158.855
825.493	78.7891
828.868	70.6377
832.243	128.485
835.618	238.378
838.993	425.178
842.367	697.838
845.742	1072.13
849.117	1498.45
852.492	1930.91
855.867	2253.7
859.241	2405.81
862.616	2403.39
865.991	2350.76
869.366	2271.97
872.741	2143.32
876.115	1973.94
879.49	1792.59
882.865	1660.14
886.24	1539.55
889.615	1393.5
892.99	1186.39
896.364	926.841
899.739	646.579
903.114	424.826
906.489	256.384
909.864	142.782
913.239	68.7314
916.613	15.5674
919.988	8.48669
923.363	19.0373
926.738	11.3276
930.113	4.47424
933.487	0.527832
936.862	5.20227
940.237	4.52856
943.612	10.8857
946.987	16.4585
950.361	11.0189
953.736	10.184
957.111	20.453
960.486	34.9574
963.861	49.0026
967.236	64.6804
970.61	82.7239
973.985	84.8176
977.36	90.5991
980.735	95.3142
984.11	105.457
987.485	108.393
990.859	110.298
994.234	109.469
997.609	103.987
1000.98	101.666
1004.36	93.2495
1007.73	83.3106
1011.11	73.9653
1014.48	70.8466
1017.86	66.3973
1021.23	65.9186
1024.61	65.4225
1027.98	64.5356
1031.36	58.9642
1034.73	59.2383
1038.11	57.0719
1041.48	53.718
1044.86	53.8513
1048.23	48.3
1051.61	32.6683
1054.98	27.7969
1058.36	20.1027
1061.73	20.9711
1065.11	17.826
1068.48	14.9683
1071.86	10.2188
1075.23	8.59387
1078.6	12.4248
1081.98	12.301
1085.35	10.4533
1088.73	10.811
1092.1	24.5287
1095.48	8.59985
1098.85	9.48303
1102.23	11.403
1105.6	10.5425
1108.98	5.0448
1112.35	8.4469
1115.73	8.74854
1119.1	8.8269
1122.48	7.45898
1125.85	7.04126
1129.23	0.080322
1132.6	3.5415
1135.98	1.26062
1139.35	0.325806
1142.73	2.45447
1146.1	4.11877
1149.48	3.82324
1152.85	3.453
1156.22	5.75781
1159.6	1.64014
1162.97	1.12769
1166.35	0.350708
1169.72	0.431519
1173.1	6.11108
1176.47	2.91101
1179.85	9.88086
1183.22	12.6239
1186.6	10.1704
1189.97	1.97803
1193.35	7.52185
1196.72	3.37683
1200.1	0.761108
1203.47	0.83252
1206.85	3.20337
1210.22	1.43286
1213.6	4.5083
1216.97	6.99451
1220.35	2.47668
1223.72	2.90417
1227.1	3.22437
1230.47	0.72876
1233.85	1.38452
1237.22	5.94714
1240.6	2.1969
1243.97	11.459
1247.35	11.1912
1250.72	13.8054
1254.1	11.2983
1257.47	13.2971
1260.85	14.5598
1264.22	5.11914
1267.59	1.10242
1270.97	3.70129
1274.34	4.10632
1277.72	3.26001
1281.09	11.2561
1284.47	5.19495
1287.84	5.41138
1291.22	9.71924
1294.59	0
