Measurement: Raman, 785 nm, unoriented, Raman Data Processed
Mineral: Sewardite
Rruff sample: R060720
Ideal chemistry: CaFe^3+^_2_(As^5+^O_4_)_2_(OH)_2_
Locality: Las Animas mine, La Mur, Sonora, Mexico
Source: Bob Jenkins
Description: Aggregates of bright red granular or prismatic crystals, associated with dark red platy arseniosiderite (R150061).
Measured chemistry: Ca_1.00_(Fe^3+^_1.83_Ca_0.17_)_Σ=2_(As_1.00_O_4_)_2_((OH)_1.83_(H_2_O)_0.17_)_Σ=2_
Raman shift (cm-1)	intensity
91.5599	0
94.9347	239.601
98.3096	122.883
101.684	42.1384
105.059	9.396
108.434	0.917969
111.809	4.83838
115.184	59.1013
118.558	129.566
121.933	90.5481
125.308	94.386
128.683	162.781
132.058	295.11
135.433	394.023
138.807	283.469
142.182	154.892
145.557	227.168
148.932	364.786
152.307	490.805
155.681	512.304
159.056	539.483
162.431	599.482
165.806	701.01
169.181	633.964
172.555	238.131
175.93	62.5631
179.305	131.197
182.68	154.174
186.055	71.4534
189.43	18.2643
192.804	59.4851
196.179	10.2228
199.554	143.792
202.929	339.065
206.304	436.365
209.678	389.977
213.053	329.925
216.428	353.514
219.803	412.724
223.178	524.078
226.553	583.098
229.927	515.975
233.302	488.617
236.677	466.806
240.052	436.967
243.427	475.989
246.801	543.235
250.176	612.245
253.551	687.818
256.926	813.077
260.301	939.923
263.675	1002.24
267.05	988.371
270.425	875.203
273.8	744.696
277.175	658.91
280.55	612.999
283.924	613.012
287.299	623.875
290.674	636.863
294.049	569.08
297.424	465.192
300.798	357.855
304.173	249.088
307.548	162.032
310.923	102.06
314.298	60.5709
317.673	20.1901
321.047	10.5393
324.422	21.889
327.797	20.6595
331.172	28.2288
334.547	2.71631
337.921	19.2854
341.296	53.1429
344.671	108.513
348.046	191.333
351.421	293.219
354.796	379.973
358.17	434.355
361.545	493.042
364.92	552.296
368.295	574.287
371.67	525.687
375.044	472.769
378.419	476.633
381.794	510.655
385.169	559.596
388.544	613.617
391.918	614.082
395.293	564.648
398.668	488.727
402.043	427.531
405.418	383.758
408.793	306.284
412.167	211.238
415.542	112.183
418.917	63.3938
422.292	49.4183
425.667	43.5701
429.041	30.765
432.416	8.57312
435.791	2.71631
439.166	7.71021
442.541	17.7268
445.915	50.4492
449.29	101.191
452.665	148.454
456.04	202.892
459.415	279.371
462.789	376.473
466.164	450.4
469.539	457.139
472.914	420.976
476.289	361.03
479.664	292.537
483.038	240.938
486.413	204.741
489.788	179.907
493.163	181.778
496.538	206.501
499.913	248.075
503.287	311.312
506.662	377.589
510.037	423.745
513.412	378.988
516.787	257.636
520.161	129.347
523.536	40.1782
526.911	2.96753
530.286	20.8821
533.661	20.2374
537.035	4.65027
540.41	24.4839
543.785	54.1792
547.16	84.3123
550.535	106.657
553.909	125.507
557.284	133.035
560.659	157.181
564.034	184.838
567.409	212.267
570.784	236.367
574.158	253.625
577.533	264.435
580.908	264.523
584.283	261.352
587.658	231.58
591.033	210.292
594.407	183.719
597.782	170.507
601.157	166.432
604.532	164.654
607.907	151.286
611.281	139.328
614.656	113.338
618.031	82.7164
621.406	59.4412
624.781	37.71
628.155	22.7716
631.53	14.3275
634.905	8.1698
638.28	10.8209
641.655	5.69629
645.029	9.6076
648.404	12.5984
651.779	11.8712
655.154	18.7621
658.529	20.717
661.904	21.4006
665.278	15.5192
668.653	11.4112
672.028	14.3367
675.403	7.79443
678.778	10.9271
682.153	6.76721
685.527	4.21869
688.902	0.107361
692.277	0.210754
695.652	5.64947
699.027	4.64441
702.401	1.51459
705.776	1.89734
709.151	1.42767
712.526	4.31079
715.901	0.89978
719.275	8.80652
722.65	14.4407
726.025	17.0325
729.4	25.0447
732.775	38.1442
736.149	55.5967
739.524	68.933
742.899	78.4067
746.274	90.4296
749.649	93.5374
753.024	93.9616
756.398	85.9282
759.773	81.3497
763.148	56.4879
766.523	30.6182
769.898	8.00433
773.273	17.1133
776.647	22.2739
780.022	8.23554
783.397	11.2366
786.772	46.2524
790.146	103.158
793.521	168.952
796.896	255.171
800.271	365.79
803.646	484.09
807.021	605.967
810.395	702.485
813.77	692.306
817.145	583.333
820.52	429.543
823.895	290.724
827.269	191.186
830.644	147.631
834.019	148.688
837.394	188.553
840.769	233.598
844.144	297.332
847.518	388.951
850.893	551.152
854.268	777.249
857.643	1019.98
861.018	1186.08
864.393	1422.83
867.767	1787.98
871.142	2060.16
874.517	1909.9
877.892	1409.71
881.266	959.108
884.641	690.306
888.016	511.552
891.391	416.356
894.766	353.968
898.141	287.71
901.515	206.583
904.89	136.404
908.265	88.5032
911.64	52.0304
915.015	23.934
918.389	16.8347
921.764	4.03162
925.139	7.92181
928.514	9.52087
931.889	6.94989
935.264	6.87347
938.638	6.1947
942.013	2.22083
945.388	0.369324
948.763	2.32391
952.138	5.97699
955.512	8.94482
958.887	13.7411
962.262	16.3667
965.637	21.412
969.012	23.274
972.386	29.8177
975.761	33.0762
979.136	39.1685
982.511	36.2721
985.886	36.2316
989.261	32.8705
992.635	32.487
996.01	30.6191
999.385	29.2645
1002.76	27.0509
1006.13	23.9266
1009.51	18.4477
1012.88	17.824
1016.26	15.5314
1019.63	17.7324
1023.01	15.0091
1026.38	13.6489
1029.76	15.337
1033.13	11.2312
1036.51	15.073
1039.88	13.3289
1043.26	18.2322
1046.63	10.1122
1050.01	9.39911
1053.38	8.06146
1056.76	10.8338
1060.13	11.0688
1063.51	9.82312
1066.88	9.36585
1070.26	4.24896
1073.63	7.94733
1077.01	9.58124
1080.38	7.0047
1083.76	6.84601
1087.13	8.63055
1090.51	4.19568
1093.88	5.60602
1097.26	0.782471
1100.63	1.40985
1104	1.48865
1107.38	6.97278
1110.75	3.26459
1114.13	1.76971
1117.5	1.2406
1120.88	1.09546
1124.25	0.903687
1127.63	0.725037
1131	0.027222
1134.38	2.44348
1137.75	0.985107
1141.13	1.87543
1144.5	2.80872
1147.88	5.73468
1151.25	1.27673
1154.63	3.04474
1158	3.47668
1161.38	7.39728
1164.75	5.78766
1168.13	2.04578
1171.5	8.26916
1174.88	6.09308
1178.25	8.59638
1181.62	6.70447
1185	6.6062
1188.38	8.14111
1191.75	1.68231
1195.12	5.38611
1198.5	7.37463
1201.87	10.6356
1205.25	5.98993
1208.62	5.27997
1212	4.2099
1215.37	6.35571
1218.75	1.23523
1222.12	1.80884
1225.5	6.83148
1228.87	0.904297
1232.25	3.26422
1235.62	3.76245
1239	1.0351
1242.37	5.23529
1245.75	2.47742
1249.12	6.03876
1252.5	3.9278
1255.87	3.88409
1259.25	5.17279
1262.62	4.16412
1265.99	7.16583
1269.37	2.16821
1272.74	4.17969
1276.12	6.41791
1279.49	0.135681
1282.87	2.3858
