Measurement: Raman, 532 nm, unoriented, Raman Data Processed
Mineral: Shannonite
Rruff sample: R070501
Ideal chemistry: Pb_2_O(CO_3_)
Locality: Tonopah-Belmont mine, Maricopa County, Arizona, USA
Source: Bob Jenkins
Description: White massive
Raman shift (cm-1)	intensity
130.389	0
133.281	915.286
136.174	5643.27
139.067	11819
141.959	18751.8
144.852	27914.8
147.745	40103.7
150.637	50948.8
153.53	42729.4
156.423	20525.7
159.316	8952.31
162.208	4264.47
165.101	1974.41
167.994	944.738
170.886	480.031
173.779	397.971
176.672	430.213
179.565	523.236
182.457	415.673
185.35	269.952
188.243	94.5068
191.135	134.797
194.028	62.5112
196.921	88.7266
199.813	85.792
202.706	45.5171
205.599	20.2163
208.492	116.607
211.384	199.454
214.277	101.851
217.17	73.1284
220.062	15.7217
222.955	69.6001
225.848	202.634
228.74	248.177
231.633	301.637
234.526	434.747
237.418	461.442
240.311	512.554
243.204	528.425
246.097	500.389
248.989	488.632
251.882	412.626
254.775	355.052
257.667	425.222
260.56	469.342
263.453	590.382
266.346	776.623
269.238	863.624
272.131	1024.45
275.024	1128.97
277.916	1049.12
280.809	1006.99
283.702	757.094
286.594	590.568
289.487	373.302
292.38	223.358
295.273	135.949
298.165	142.099
301.058	45.772
303.951	12.7568
306.843	153.836
309.736	89.0772
312.629	141.297
315.522	183.87
318.414	236.318
321.307	379.971
324.2	631.941
327.092	817.346
329.985	982.745
332.878	1030.24
335.77	1060.81
338.663	1161.12
341.556	1264.81
344.449	1507.62
347.341	1933.99
350.234	2396.81
353.127	2980.82
356.019	3295.21
358.912	3221.81
361.805	2855.84
364.697	2298.54
367.59	1702.55
370.483	1109.18
373.375	786.381
376.268	490.409
379.161	256.816
382.054	29.8677
384.946	50.0874
387.839	15.251
390.732	6.57422
393.624	18.4429
396.517	44.5981
399.41	96.9346
402.303	183.52
405.195	181.285
408.088	137.587
410.981	39.3252
413.873	74.2456
416.766	23.8594
419.659	6.44238
422.551	52.5815
425.444	699.936
428.337	448.201
431.229	320.905
434.122	675.341
437.015	927.078
439.908	947.13
442.8	1150.86
445.693	1521.26
448.586	1893.55
451.478	2407.31
454.371	3049.93
457.264	3556.18
460.156	3893.99
463.049	3878.05
465.942	3426.14
468.835	2839.82
471.727	2038.23
474.62	1395.05
477.513	903.3
480.405	605.039
483.298	463.886
486.191	289.552
489.084	187.571
491.976	72.1177
494.869	37.9707
497.762	24.5942
500.654	31.0298
503.547	8.5874
506.44	1.6084
509.332	58.8892
512.225	101.468
515.118	83.5786
518.011	57.25
520.903	6.95606
523.796	11.8872
526.689	9.2998
529.581	12.8389
532.474	40.8389
535.367	41.248
538.26	44.9302
541.152	37.8989
544.045	60.9126
546.938	49.3267
549.83	81.0654
552.723	1.27295
555.616	42.4517
558.508	84.8379
561.401	31.9336
564.294	55.0938
567.187	78.374
570.079	52.7778
572.972	122.495
575.865	126.524
578.757	57.6352
581.65	57.6743
584.543	26.6768
587.435	9.70898
590.328	41.4692
593.221	48.1367
596.114	40.2437
599.006	50.5571
601.899	40.9092
604.792	18.4473
607.684	21.519
610.577	53.5928
613.47	3.66406
616.362	27.1826
619.255	25.75
622.148	19.7646
625.04	5.85986
627.933	57.5947
630.826	18.2578
633.719	50.0488
636.611	40.7168
639.504	50.3594
642.397	123.402
645.289	417.061
648.182	644.293
651.075	883.977
653.967	1237.71
656.86	1272.09
659.753	397.027
662.646	248.733
665.538	391.937
668.431	576.482
671.324	802.346
674.216	1104.47
677.109	1131.04
680.002	385.276
682.894	166.018
685.787	226.584
688.68	300.835
691.573	361.366
694.465	469.159
697.358	596.244
700.251	360.839
703.143	170.512
706.036	174.376
708.929	72.2456
711.822	40.1367
714.714	60.8677
717.607	26.0654
720.5	16.7583
723.392	6.86084
726.285	46.5503
729.178	57.8013
732.07	4.40674
734.963	29.1182
737.856	20.5957
740.749	78.3945
743.641	45.3472
746.534	57.1148
749.427	99.874
752.319	54.3164
755.212	52.3897
758.105	65.9668
760.997	46.0596
763.89	78.7202
766.783	63.3398
769.676	86.8945
772.568	49.3911
775.461	33
778.354	18.3892
781.246	9.72119
784.139	62.1777
787.032	63.0366
789.924	62.0557
792.817	29.2393
795.71	31.2373
798.602	51.4097
801.495	40.6348
804.388	29.9268
807.281	33.0938
810.173	66.1269
813.066	38.7998
815.959	18.4214
818.851	50.4238
821.744	26.1753
824.637	73.1538
827.529	62.9536
830.422	48.7041
833.315	72.2217
836.208	104.162
839.1	114.911
841.993	116.546
844.886	112.141
847.779	127.307
850.671	50.1773
853.564	59.6382
856.457	0.856445
859.349	35.4414
862.242	115.644
865.135	47.6836
868.027	46.9253
870.92	71.1035
873.813	49.1934
876.706	70.7515
879.598	83.9282
882.491	61.333
885.384	48.394
888.276	32.9214
891.169	55.209
894.062	18.5303
896.954	0.892578
899.847	26.2261
902.74	9.96729
905.633	54.4312
908.525	79.041
911.418	78.4849
914.311	78.1055
917.203	85.3052
920.096	54.2178
922.989	127.013
925.881	96.9365
928.774	117.866
931.667	56.2832
934.559	14.8667
937.452	52.5537
940.345	27.4814
943.238	26.231
946.13	31.0835
949.023	53.9546
951.916	31.3086
954.808	65.769
957.701	50.6694
960.594	66.0034
963.486	34.1621
966.379	65.9136
969.272	26.4688
972.165	105.089
975.057	70.5293
977.95	9.9541
980.843	2.82031
983.735	2.89453
986.628	31.6201
989.521	30.7974
992.413	21.7197
995.306	53.4258
998.199	0.388184
1001.09	1.09424
1003.98	15.5508
1006.88	35.2451
1009.77	4.43311
1012.66	58.0869
1015.55	10.9058
1018.45	65.312
1021.34	107.128
1024.23	238.29
1027.13	615.503
1030.02	1089.79
1032.91	1429.74
1035.8	1388.74
1038.7	1017.33
1041.59	1782.54
1044.48	3017.81
1047.38	4579.37
1050.27	4412.14
1053.16	3377.59
1056.05	1425.09
1058.95	357.447
1061.84	183.645
1064.73	99.5659
1067.62	72.8496
1070.52	92.6943
1073.41	61.3897
1076.3	58.4385
1079.19	41.1309
1082.09	54.1743
1084.98	58.8291
1087.87	3.30176
1090.77	2.60693
1093.66	35.9434
1096.55	52.4165
1099.44	37.5977
1102.34	6.87354
1105.23	68.6851
1108.12	23.5034
1111.01	17.0186
1113.91	91.4375
1116.8	34.4888
1119.69	21.1314
1122.59	19.8511
1125.48	23.0303
1128.37	1.79394
1131.26	52.9951
1134.16	40.5225
1137.05	74.9087
1139.94	6.43262
1142.83	17.2476
1145.73	89.1152
1148.62	37.9502
1151.51	15.6714
1154.4	71.644
1157.3	51.2598
1160.19	49.6079
1163.08	82.9121
1165.98	1.8457
1168.87	15.002
1171.76	75.1943
1174.65	52.875
1177.55	57.1406
1180.44	120.451
1183.33	94.3496
1186.22	85.0977
1189.12	67.0019
1192.01	70.4077
1194.9	36.5151
1197.8	49.4849
1200.69	9.98535
1203.58	83.0239
1206.47	68.1685
1209.37	20.1831
1212.26	36.27
1215.15	13.3027
1218.04	65.2622
1220.94	113.29
1223.83	53.8115
1226.72	43.627
1229.62	51.4023
1232.51	43.439
1235.4	28.1255
1238.29	29.3423
1241.19	14.0767
1244.08	6.94385
1246.97	16.5801
1249.86	45.3643
1252.76	24.0088
1255.65	37.4956
1258.54	3.65234
1261.43	45.4844
1264.33	2.59033
1267.22	58.4077
1270.11	89.4683
1273.01	70.4551
1275.9	32.4331
1278.79	6.52344
1281.68	22.6704
