Measurement: Raman, 785 nm, unoriented, Raman Data Processed
Mineral: Shannonite
Rruff sample: R070501
Ideal chemistry: Pb_2_O(CO_3_)
Locality: Tonopah-Belmont mine, Maricopa County, Arizona, USA
Source: Bob Jenkins
Description: White massive
Raman shift (cm-1)	intensity
126.703	0
129.595	17.7329
132.488	1666.1
135.381	5085.12
138.273	9454.5
141.166	14217.3
144.059	20334.2
146.952	28441.7
149.844	39705.4
152.737	43101.6
155.63	24617.4
158.522	11367.8
161.415	6599.52
164.308	4535.72
167.2	3171.55
170.093	2294.86
172.986	1717.55
175.879	1444.23
178.771	1325.6
181.664	1340.07
184.557	1295.28
187.449	970.128
190.342	687.559
193.235	579.362
196.127	573.116
199.02	523.128
201.913	358.431
204.805	294.281
207.698	168.955
210.591	3.68164
213.484	49.1343
216.376	87.3623
219.269	102.404
222.162	61.3145
225.054	117.476
227.947	34.3511
230.84	85.646
233.732	7.97412
236.625	61.2324
239.518	94.8433
242.411	80.0269
245.303	50.9351
248.196	20.8589
251.089	9.58203
253.981	3.76953
256.874	56.0957
259.767	127.608
262.659	211.384
265.552	329.646
268.445	553.018
271.338	730.3
274.23	922.701
277.123	994.357
280.016	1009.48
282.908	813.639
285.801	610.877
288.694	313.903
291.587	199.28
294.479	149.303
297.372	61.8755
300.265	42.6538
303.157	58.6885
306.05	0.389648
308.943	9.62695
311.835	23.648
314.728	28.3955
317.621	137.51
320.514	251.001
323.406	465.514
326.299	662.791
329.192	868.55
332.084	1035.16
334.977	1052.11
337.87	1158.86
340.762	1181.91
343.655	1416.73
346.548	1664.34
349.44	2034.47
352.333	2398.55
355.226	2739.62
358.119	2821.07
361.011	2711.26
363.904	2234.36
366.797	1691.3
369.689	1174.92
372.582	783.521
375.475	510.331
378.368	351.851
381.26	224.606
384.153	80.27
387.046	96.1748
389.938	162.123
392.831	201.149
395.724	224.143
398.616	292.604
401.509	291.397
404.402	339.115
407.295	301.764
410.187	221.559
413.08	134.418
415.973	31.3955
418.865	37.0171
421.758	18.5596
424.651	40.0227
427.543	78.2734
430.436	127.223
433.329	120.584
436.221	271.854
439.114	406.745
442.007	536.603
444.9	751.094
447.792	957.831
450.685	1164.49
453.578	1422.73
456.47	1795.69
459.363	2049.06
462.256	2121.76
465.149	2053.29
468.041	1800.64
470.934	1329.23
473.827	919.886
476.719	592.059
479.612	395.722
482.505	296.164
485.397	148.592
488.29	98.9688
491.183	36.6753
494.075	11.3423
496.968	34.7122
499.861	38.3245
502.754	23.6619
505.646	20.5908
508.539	66.0647
511.432	96.7256
514.324	64.7036
517.217	88.5066
520.11	53.124
523.003	93.4766
525.895	79.5405
528.788	126.537
531.681	103.43
534.573	158.348
537.466	149.779
540.359	133.87
543.251	132.099
546.144	119.479
549.037	129.658
551.93	118.402
554.822	112.203
557.715	64.3745
560.608	68.9233
563.5	46.6077
566.393	34.9578
569.286	47.365
572.178	40.1977
575.071	48.9221
577.964	45.4211
580.857	68.0625
583.749	48.1082
586.642	34.6977
589.535	31.4189
592.427	13.5168
595.32	31.7522
598.213	29.8733
601.105	20.915
603.998	10.2842
606.891	28.9829
609.784	6.09888
612.676	0.817139
615.569	1.17822
618.462	9.65967
621.354	60.4168
624.247	74.9719
627.14	99.0266
630.032	94.7476
632.925	152.64
635.818	131.794
638.711	132.027
641.603	162.285
644.496	207.709
647.389	270.69
650.281	337.264
653.174	561.596
656.067	834.792
658.959	446.995
661.852	119.405
664.745	140.085
667.638	210.431
670.53	276.505
673.423	480.53
676.316	630.053
679.208	357.053
682.101	138.082
684.994	68.7056
687.886	95.0251
690.779	112.639
693.672	135.262
696.564	188.084
699.457	171.497
702.35	70.5918
705.243	67.4622
708.135	20.1792
711.028	28.6202
713.921	18.3135
716.813	2.1294
719.706	9.42688
722.599	34.6321
725.491	2.29504
728.384	29.1062
731.277	5.45728
734.17	13.8525
737.062	1.50159
739.955	22.0878
742.848	26.2227
745.74	29.1338
748.633	2.36206
751.526	22.895
754.418	22.1228
757.311	62.6574
760.204	38.6829
763.097	60.7223
765.989	36.7015
768.882	50.196
771.775	52.136
774.667	38.3191
777.56	37.0831
780.453	45.5641
783.346	2.86389
786.238	31.2644
789.131	59.4241
792.024	27.8101
794.916	43.8684
797.809	23.0057
800.702	50.327
803.594	2.19592
806.487	20.273
809.38	5.89575
812.273	31.3035
815.165	42.5388
818.058	22.6912
820.951	27.0967
823.843	1.39075
826.736	26.5877
829.629	31.692
832.521	14.4027
835.414	30.3788
838.307	42.4371
841.199	60.8099
844.092	62.2473
846.985	45.6803
849.878	17.1663
852.77	25.5035
855.663	36.364
858.556	20.3166
861.448	20.7681
864.341	23.7738
867.234	42.332
870.126	23.6211
873.019	24.3057
875.912	10.4547
878.805	29.2172
881.697	1.28503
884.59	26.9469
887.483	13.2165
890.375	14.8531
893.268	35.9247
896.161	30.0877
899.053	18.002
901.946	27.7696
904.839	7.81811
907.732	43.7065
910.624	23.6111
913.517	26.275
916.41	28.3564
919.302	30.6962
922.195	53.6777
925.088	25.2725
927.981	31.9468
930.873	32.2633
933.766	54.8398
936.659	6.88452
939.551	44.4232
942.444	21.5261
945.337	38.6936
948.229	70.4473
951.122	48.5685
954.015	63.7013
956.908	45.0436
959.8	62.6414
962.693	58.0662
965.586	54.8275
968.478	57.9235
971.371	33.0858
974.264	27.1625
977.156	17.2482
980.049	28.042
982.942	11.7091
985.835	2.61963
988.727	15.6233
991.62	13.8401
994.513	5.54004
997.405	9.77576
1000.3	4.91565
1003.19	19.9409
1006.08	8.88782
1008.98	8.61279
1011.87	3.7323
1014.76	4.53491
1017.65	19.5741
1020.55	35.8149
1023.44	97.3806
1026.33	268.584
1029.22	462.211
1032.12	820.33
1035.01	1184.46
1037.9	803.52
1040.8	905.768
1043.69	1472.15
1046.58	2633.83
1049.47	3466.56
1052.37	3102.94
1055.26	1768.25
1058.15	642.053
1061.05	296.361
1063.94	225.341
1066.83	233.914
1069.72	260.283
1072.62	249.671
1075.51	315.301
1078.4	299.647
1081.29	269.086
1084.19	314.91
1087.08	279.532
1089.97	253.632
1092.86	259.657
1095.76	263.93
1098.65	283.647
1101.54	271.058
1104.43	248.135
1107.33	240.238
1110.22	231.762
1113.11	197.132
1116.01	214.55
1118.9	150.67
1121.79	158.026
1124.68	123.532
1127.58	157.496
1130.47	64.0483
1133.36	27.5276
1136.26	23.9783
1139.15	7.84839
1142.04	18.4819
1144.93	48.3904
1147.83	2.08521
1150.72	1.61304
1153.61	1.15478
1156.5	2.53003
1159.4	67.2766
1162.29	42.5481
1165.18	70.6235
1168.08	70.9907
1170.97	95.3872
1173.86	83.8164
1176.75	98.418
1179.64	87.1133
1182.54	47.7759
1185.43	79.3562
1188.32	8.64209
1191.22	85.1975
1194.11	30.8843
1197	0
