Measurement: Raman, 532 nm, unoriented, Raman Data Processed
Mineral: Shattuckite
Rruff sample: R061073
Ideal chemistry: Cu_5_(SiO_3_)_4_(OH)_2_
Locality: Pinky mine, North of Copiapo, Chile
Source: Bob Jenkins
Description: Radial aggregates of pale blue fibrous crystals
Raman shift (cm-1)	intensity
120.601	0
123.976	535.957
127.35	1093.1
130.725	1127.34
134.1	478.325
137.475	449.774
140.85	575.711
144.225	291.827
147.599	122.037
150.974	250.157
154.349	170.463
157.724	149.848
161.099	514.149
164.474	963.192
167.848	1561.34
171.223	961.903
174.598	828.855
177.973	919.946
181.347	1003.14
184.722	1689.36
188.097	2504.25
191.472	3147.57
194.847	2200.54
198.222	1513.79
201.596	848.781
204.971	316.558
208.346	50.3057
211.721	131.017
215.096	113.403
218.47	6.66064
221.845	31.8403
225.22	29.7319
228.595	143.764
231.97	91.2773
235.345	33.9712
238.719	43.4453
242.094	162.586
245.469	373.877
248.844	654.017
252.219	987.477
255.594	1087
258.968	1057.44
262.343	780.36
265.718	408.093
269.093	288.635
272.468	212.208
275.842	240.102
279.217	128.83
282.592	76.0068
285.967	25.3496
289.342	156.387
292.716	92.4644
296.091	204.922
299.466	267.852
302.841	300.73
306.216	513.884
309.591	680.225
312.965	821.036
316.34	884.803
319.715	1051.3
323.09	1549.89
326.465	2314.51
329.839	2975.38
333.214	3141.76
336.589	2216.55
339.964	1204.13
343.339	590.105
346.714	320.143
350.088	153.178
353.463	4.92529
356.838	76.0786
360.213	63.314
363.588	6.91797
366.962	106.867
370.337	207.56
373.712	200.25
377.087	221.571
380.462	278.341
383.837	491.887
387.211	931.487
390.586	1563.95
393.961	2197.72
397.336	2685.74
400.711	2375.76
404.085	1553.87
407.46	700.869
410.835	227.764
414.21	91.7368
417.585	17.0864
420.959	8.40479
424.334	297.915
427.709	537.134
431.084	866.684
434.459	1232.79
437.834	1814.96
441.208	2552.34
444.583	3065.24
447.958	3170.83
451.333	2468.47
454.708	1676.93
458.082	1243.09
461.457	991.875
464.832	778.85
468.207	642.528
471.582	538.977
474.957	381.562
478.331	172.689
481.706	26.5723
485.081	26.4019
488.456	146.67
491.83	554.88
495.205	1291.67
498.58	2401.76
501.955	3754.53
505.33	5228.41
508.705	6272.08
512.08	5795.09
515.454	4065.89
518.829	2723.39
522.204	1981.11
525.579	1494.49
528.953	1116.12
532.328	612.849
535.703	315.809
539.078	132.13
542.453	93.1167
545.828	112.251
549.202	271.491
552.577	525.665
555.952	760.857
559.327	1114.21
562.702	1424.72
566.077	1225.97
569.451	780.22
572.826	388.312
576.201	126.154
579.576	41.106
582.951	17.3896
586.325	2.1294
589.7	17.3171
593.075	32.5999
596.45	35.1082
599.825	21.0986
603.199	33.279
606.574	18.3574
609.949	22.7195
613.324	16.7334
616.699	34.1956
620.073	91.9304
623.448	136.173
626.823	157.503
630.198	134.781
633.573	155.973
636.948	87.8272
640.322	124.582
643.697	258.826
647.072	394.065
650.447	496.294
653.822	598.927
657.197	669.988
660.571	665.408
663.946	510
667.321	351.981
670.696	231.381
674.071	137.432
677.445	61.2676
680.82	82.5322
684.195	65.5017
687.57	77.2585
690.945	66.5339
694.319	63.574
697.694	45.1533
701.069	64.3479
704.444	44.1262
707.819	65.2178
711.193	3.24609
714.568	58.5371
717.943	71.7114
721.318	29.8655
724.693	30.2349
728.068	71.2019
731.442	41.9065
734.817	60.6677
738.192	85.2908
741.567	131.172
744.942	184.709
748.317	166.305
751.691	243.519
755.066	315.715
758.441	432.547
761.816	603.594
765.191	882.613
768.565	1133.09
771.94	1412.69
775.315	1557.62
778.69	1493.76
782.065	1016.37
785.439	670.179
788.814	444.811
792.189	228.893
795.564	204.404
798.939	71.9111
802.313	58.8735
805.688	32.8428
809.063	14.7776
812.438	29.4558
815.813	6.52393
819.188	17.6438
822.562	127.618
825.937	115.223
829.312	209.093
832.687	257.158
836.062	402.359
839.437	570.89
842.811	712.865
846.186	925.518
849.561	926.147
852.936	755.514
856.311	492.616
859.685	305.546
863.06	177.888
866.435	89.0884
869.81	39.1094
873.185	1.63428
876.559	4.0083
879.934	9.55957
883.309	57.5635
886.684	26.96
890.059	65.3618
893.433	74.2534
896.808	118.296
900.183	100.15
903.558	170.461
906.933	125.769
910.308	109.186
913.682	81.4985
917.057	148.568
920.432	195.619
923.807	303.316
927.182	411.187
930.557	681.763
933.931	904.209
937.306	1037.49
940.681	1197.43
944.056	1334.84
947.431	1632.6
950.805	1713.29
954.18	1515.95
957.555	1171.35
960.93	850.778
964.305	685.739
967.679	611.261
971.054	613.199
974.429	663.821
977.804	735.251
981.179	769.989
984.554	725.987
987.928	795.624
991.303	831.07
994.678	689.81
998.053	617.774
1001.43	511.205
1004.8	404.276
1008.18	333.861
1011.55	257.729
1014.93	125.894
1018.3	69.0176
1021.68	99.2515
1025.05	81.46
1028.43	105.32
1031.8	50.0542
1035.18	9.63721
1038.55	48.0127
1041.92	15.5464
1045.3	24.8227
1048.67	106.218
1052.05	143.687
1055.42	326.309
1058.8	438.631
1062.17	636.371
1065.55	676.508
1068.92	691.788
1072.3	685.148
1075.67	591.186
1079.05	413.219
1082.42	317.188
1085.8	233.002
1089.17	175.085
1092.55	182.5
1095.92	131.706
1099.3	117.663
1102.67	85.7871
1106.05	6.60938
1109.42	49.2148
1112.8	24.9546
1116.17	58.023
1119.55	36.4497
1122.92	59.8921
1126.3	2.69678
1129.67	22.6836
1133.05	46.0894
1136.42	63.228
1139.8	56.6914
1143.17	29.8809
1146.55	5.54688
1149.92	16.2422
1153.29	22.8579
1156.67	33.9009
1160.04	28.1064
1163.42	49.2715
1166.79	81.5981
1170.17	96.0923
1173.54	50.9131
1176.92	75.8936
1180.29	4.99365
1183.67	75.4097
1187.04	28.5205
1190.42	88.6597
1193.79	54.0601
1197.17	81.6333
1200.54	108.071
1203.92	55.6523
1207.29	18.8618
1210.67	65.0356
1214.04	26.1543
1217.42	51.7026
1220.79	20.5293
1224.16	31.9653
1227.54	16.749
1230.91	31.7602
1234.29	52.5796
1237.66	49.5591
1241.04	37.0273
1244.41	80.646
1247.79	53.373
1251.16	35.9009
1254.54	2.66455
1257.91	57.4307
1261.29	25.436
1264.66	64.6851
1268.04	82.269
1271.41	64.2788
1274.79	69.6118
1278.16	92.0918
1281.54	82.23
1284.91	66.0718
1288.29	20.3511
1291.66	62.5674
1295.04	108.848
1298.41	85.7563
