Measurement: Raman, 514 nm, unoriented, Raman Data Processed
Mineral: Shattuckite
Rruff sample: R050133
Ideal chemistry: Cu_5_(SiO_3_)_4_(OH)_2_
Locality: Ajo, Pima County, Arizona, USA
Source: University of Arizona Mineral Museum
Description: Aggregate of blue flattened grains
Measured chemistry: Cu_5.00_(Si_0.99_Al_0.01_O_3_)_4_((OH)_0.97_(H_2_O)_0.03_)_2_
Raman shift (cm-1)	intensity
52.866	0
57.065	7.411
61.262	223.297
65.458	44.572
69.651	999.127
73.842	5288.14
78.031	9250.62
82.218	7583.81
86.404	2501.75
90.587	4314.36
94.768	5873.17
98.947	6844.01
103.124	3785.87
107.3	3415.91
111.473	3925.07
115.644	6471.4
119.813	8578.41
123.981	10517.6
128.146	10150.8
132.309	5598.79
136.47	3687.57
140.63	3976.19
144.787	2866.29
148.942	2326.09
153.096	2627.86
157.247	1240.11
161.396	2482.02
165.544	5055.71
169.689	6921.59
173.833	5058.2
177.974	4920.13
182.114	4043.03
186.251	7176.9
190.387	12221.8
194.52	10794.5
198.652	8202.18
202.782	5437.62
206.909	2762.24
211.035	893.585
215.159	90.998
219.281	222.979
223.4	438.077
227.518	713.779
231.634	668.787
235.748	387.248
239.86	49.667
243.97	243.671
248.079	1163.55
252.185	2958.74
256.289	4527.98
260.391	4963.06
264.492	3355.77
268.59	1583.98
272.687	1247.55
276.781	1331.39
280.874	805.395
284.964	65.447
289.053	184.147
293.14	296.318
297.225	656.084
301.308	645.993
305.389	712.063
309.468	1878.31
313.545	3511.69
317.62	3977.07
321.693	3973.26
325.765	6261.09
329.834	11994.5
333.902	14392.4
337.967	9008.74
342.031	4325.49
346.093	2206.68
350.153	709.272
354.21	103.767
358.267	480.653
362.321	476.823
366.373	137.308
370.423	591.034
374.471	889.542
378.518	981.501
382.563	800.987
386.605	1340.55
390.646	3495.08
394.685	7971.47
398.722	12269.8
402.757	10093.8
406.79	5357.45
410.821	2674.4
414.851	1408.93
418.878	869.435
422.904	1732.32
426.927	2761.48
430.949	4006.84
434.969	4607.3
438.987	7737.77
443.003	13588.6
447.018	19373.7
451.03	17507.6
455.041	12158.8
459.049	9807.39
463.056	8056.76
467.061	6413.3
471.064	5875.11
475.065	5482.91
479.064	4168.82
483.062	3145.71
487.057	2674.86
491.051	3002.45
495.043	4299.45
499.032	7196.82
503.02	13822.5
507.007	25339.6
510.991	34122.9
514.973	26390
518.954	15849.7
522.933	10368.3
526.91	8833.98
530.885	7375.1
534.858	5371.29
538.829	3603.94
542.799	2499.04
546.766	2404.56
550.732	2137.08
554.696	2818.06
558.658	4934.56
562.618	8939.2
566.576	10850
570.533	7078.46
574.488	3688.3
578.44	1857.23
582.391	1172.39
586.341	885.356
590.288	780.665
594.233	339.823
598.177	136.229
602.119	71.1
606.059	1.781
609.997	50.586
613.933	163.652
617.868	31.275
621.801	121.348
625.731	36.026
629.66	84.281
633.588	19.918
637.513	132.913
641.437	228.986
645.358	432.33
649.278	766.961
653.196	1513.87
657.113	2479.04
661.027	2691.46
664.94	1981.13
668.851	1184.03
672.76	801.168
676.667	712.849
680.572	368.37
684.476	211.534
688.378	1.858
692.278	39.064
696.176	100.524
700.072	48.6
703.967	28.227
707.86	5.917
711.751	82.374
715.64	47.734
719.527	20.466
723.413	28.3
727.297	30.366
731.179	3.591
735.059	17.562
738.937	41.36
742.814	99.092
746.689	287.846
750.562	474.775
754.433	712.904
758.303	879.475
762.17	977.176
766.036	1749.13
769.901	3505.24
773.763	6291.59
777.624	8263.31
781.482	5824.26
785.339	2814.21
789.195	1356.13
793.048	656.962
796.9	399.728
800.75	248.393
804.598	159.6
808.445	80.366
812.289	109.707
816.132	138.638
819.973	176.175
823.813	245.337
827.65	368.633
831.486	625.595
835.32	933.714
839.152	1782.99
842.983	2632.1
846.812	4076.08
850.639	5144.24
854.464	3783.01
858.288	2309.09
862.11	1315.26
865.93	973.96
869.748	833.52
873.564	851.817
877.379	747.979
881.192	727.908
885.004	745.295
888.813	888.725
892.621	1151.79
896.427	1469.37
900.232	1812.35
904.034	1821.95
907.835	1542.74
911.634	1511.75
915.432	1425.16
919.227	1659.12
923.021	1916.77
926.813	2489.21
930.604	3407.57
934.393	4746.8
938.18	5650.01
941.965	5524.06
945.749	6231.67
949.53	8223.75
953.311	9237.29
957.089	7514.26
960.866	5238.64
964.641	3864.45
968.414	3546.7
972.185	3943.32
975.955	4812.34
979.723	5598.78
983.49	5309.67
987.254	5056.96
991.017	5529.65
994.779	5942.98
998.538	5030.63
1002.3	4013.97
1006.05	3499.9
1009.81	2659.06
1013.56	1668.69
1017.31	1108.67
1021.06	820.702
1024.81	685.838
1028.55	481.458
1032.3	360.422
1036.04	294.459
1039.78	467.076
1043.52	554.249
1047.26	595.925
1050.99	738.043
1054.73	1154.54
1058.46	2134.95
1062.19	2976.51
1065.92	3665.01
1069.65	3820.84
1073.37	3993.31
1077.1	3178.49
1080.82	2103.17
1084.54	1432.43
1088.26	1087.97
1091.97	808.37
1095.69	744.367
1099.4	661.129
1103.12	759.676
1106.83	455.167
1110.54	541.75
1114.24	342.109
1117.95	593.374
1121.65	521.941
1125.35	347.491
1129.06	87.206
1132.75	89.19
1136.45	124.83
1140.15	27.515
1143.84	25.332
1147.53	58.225
1151.22	20.08
1154.91	42.775
1158.6	55.44
1162.28	10.312
1165.97	1.694
1169.65	31.921
1173.33	1.917
1177.01	114.701
1180.69	45.822
1184.36	126.99
1188.04	84.231
1191.71	47.396
1195.38	92.767
1199.05	47.643
1202.71	46.484
1206.38	20.311
1210.04	48.502
1213.71	63.063
1217.37	27.025
1221.03	58.76
1224.68	93.203
1228.34	66.237
1231.99	91.033
1235.65	16.971
1239.3	34.468
1242.95	1.729
1246.59	21.163
1250.24	45.296
1253.88	0.312
1257.53	16.897
1261.17	2.763
1264.81	85.195
1268.45	89.447
1272.08	78.131
1275.72	31.352
1279.35	116.103
1282.98	151.44
1286.61	120.167
1290.24	212.703
1293.87	528.181
1297.49	178.875
1301.11	232.712
1304.73	225.259
1308.36	168.608
1311.97	187.005
1315.59	158.75
1319.2	213.217
1322.82	141.794
1326.43	285.359
1330.04	196.136
1333.65	132.51
1337.26	157.487
1340.86	229.039
1344.47	194.201
1348.07	305.98
1351.67	228.838
1355.27	264.36
1358.87	247.847
1362.46	190.89
1366.06	247.722
1369.65	175.276
1373.24	143.2
1376.83	117.128
1380.42	107.134
1384	211.12
1387.59	177.872
1391.17	211.417
1394.75	171.036
1398.33	137.447
1401.91	203.416
1405.49	195.489
1409.06	137.048
1412.64	231.003
1416.21	141.688
1419.78	178.724
1423.35	149.533
1426.91	245.766
1430.48	241.481
1434.05	248.273
1437.61	256.791
1441.17	122.459
1444.73	174.459
1448.29	200.174
1451.84	199.674
1455.4	216.567
1458.95	206.748
1462.5	137.832
1466.05	114.754
1469.6	105.653
1473.15	80.536
1476.69	74.816
1480.24	118.878
1483.78	93.092
1487.32	128.294
1490.86	45.787
1494.39	59.023
1497.93	43.388
1501.46	92.009
1505	39.493
1508.53	74.442
1512.06	121.686
1515.59	4.519
1519.11	26.559
1522.64	1.051
