Measurement: Raman, 532 nm, unoriented, Raman Data Processed
Mineral: Shattuckite
Rruff sample: R050133
Ideal chemistry: Cu_5_(SiO_3_)_4_(OH)_2_
Locality: Ajo, Pima County, Arizona, USA
Source: University of Arizona Mineral Museum
Description: Aggregate of blue flattened grains
Measured chemistry: Cu_5.00_(Si_0.99_Al_0.01_O_3_)_4_((OH)_0.97_(H_2_O)_0.03_)_2_
Raman shift (cm-1)	intensity
136.311	0
139.686	10.8357
143.061	22.6825
146.435	9.08536
149.81	2.14603
153.185	8.65903
156.56	0.469971
159.935	0.408173
163.31	6.76865
166.684	19.9005
170.059	34.9246
173.434	32.1897
176.809	49.4439
180.184	51.1315
183.558	46.6989
186.933	62.088
190.308	101.091
193.683	91.6262
197.058	51.5352
200.433	32.0558
203.807	14.9112
207.182	3.80069
210.557	0.230804
213.932	0.632935
217.307	1.45343
220.681	2.57672
224.056	2.99942
227.431	6.22003
230.806	7.69904
234.181	5.69568
237.555	5.80493
240.93	6.42627
244.305	8.43121
247.68	13.4988
251.055	13.8279
254.43	18.6397
257.804	23.6715
261.179	25.5307
264.554	20.4621
267.929	13.8026
271.304	10.0422
274.678	8.90778
278.053	9.26669
281.428	6.85779
284.803	4.80972
288.178	3.4259
291.553	6.34717
294.927	6.20013
298.302	11.3309
301.677	10.7706
305.052	11.1126
308.427	19.3097
311.801	27.4605
315.176	37.8577
318.551	44.0433
321.926	46.8145
325.301	51.4266
328.675	66.8166
332.05	91.2696
335.425	89.4727
338.8	50.8016
342.175	23.8823
345.55	13.8127
348.924	4.46905
352.299	0.662109
355.674	2.98346
359.049	0.481506
362.424	0.070282
365.798	1.72937
369.173	3.27524
372.548	4.18338
375.923	6.73416
379.298	7.96439
382.673	12.6924
386.047	21.905
389.422	33.983
392.797	48.3051
396.172	68.1052
399.547	82.6038
402.921	68.4691
406.296	34.7886
409.671	15.2726
413.046	4.05307
416.421	1.60278
419.796	1.09055
423.17	1.05255
426.545	12.7685
429.92	21.7263
433.295	28.8005
436.67	36.1975
440.044	49.5621
443.419	70.1356
446.794	88.2846
450.169	85.3607
453.544	63.2382
456.918	42.0865
460.293	35.3171
463.668	28.5415
467.043	21.6241
470.418	15.4729
473.793	17.5595
477.167	11.9871
480.542	2.92996
483.917	0.820831
487.292	0.98349
490.667	8.96481
494.041	23.7689
497.416	47.3002
500.791	77.9568
504.166	116.704
507.541	164.689
510.916	199.579
514.29	173.775
517.665	111.941
521.04	67.5506
524.415	44.822
527.79	35.422
531.164	28.4529
534.539	14.792
537.914	5.88013
541.289	0.179688
544.664	0.487549
548.039	0.289307
551.413	4.2933
554.788	10.3003
558.163	19.3294
561.538	26.9943
564.913	37.4063
568.288	33.8433
571.662	18.1717
575.037	7.9443
578.412	4.05335
581.787	0.48761
585.162	0.74469
588.536	0.955658
591.911	0.286255
595.286	0.804688
598.661	0.590363
602.036	1.1564
605.41	0.214813
608.785	0.535614
612.16	2.27054
615.535	0.393707
618.91	3.17517
622.284	3.13693
625.659	5.5975
629.034	4.98544
632.409	5.57602
635.784	6.84961
639.159	6.38959
642.533	6.70664
645.908	8.64828
649.283	9.71442
652.658	12.6976
656.033	15.1984
659.408	13.3442
662.782	12.3677
666.157	7.6532
669.532	8.60037
672.907	6.07587
676.282	3.77142
679.656	4.39673
683.031	4.672
686.406	3.93243
689.781	3.9566
693.156	2.32675
696.53	3.63693
699.905	1.30887
703.28	1.67108
706.655	0.878082
710.03	3.06305
713.404	0.782379
716.779	0.489349
720.154	1.23486
723.529	1.62836
726.904	0.027374
730.279	0.517212
733.653	0.928497
737.028	1.02908
740.403	0.07019
743.778	0.27533
747.153	1.25238
750.528	3.79337
753.902	4.82519
757.277	7.13513
760.652	6.41528
764.027	10.1143
767.402	16.123
770.776	22.9807
774.151	26.8323
777.526	27.5997
780.901	21.2714
784.276	12.9611
787.65	7.71539
791.025	7.18851
794.4	2.16147
797.775	3.74478
801.15	1.45831
804.524	2.36334
807.899	1.90179
811.274	1.84616
814.649	1.12988
818.024	1.28897
821.399	0.116638
824.773	2.00147
828.148	3.34766
831.523	2.24747
834.898	5.66446
838.273	10.1075
841.648	12.8775
845.022	16.089
848.397	20.2956
851.772	19.5456
855.147	15.3392
858.522	8.23023
861.896	4.56439
865.271	3.58655
868.646	0.753326
872.021	1.42477
875.396	1.37476
878.77	0.564667
882.145	0.438049
885.52	1.22742
888.895	0.694244
892.27	0.865753
895.645	0.124023
899.019	1.27753
902.394	2.93094
905.769	3.93112
909.144	1.12592
912.519	1.69998
915.894	1.61005
919.268	1.51892
922.643	5.13129
926.018	6.67688
929.393	11.7025
932.768	15.1426
936.142	22.6589
939.517	24.7483
942.892	27.1317
946.267	33.0656
949.642	39.6025
953.016	45.0659
956.391	36.6968
959.766	26.5613
963.141	14.8326
966.516	10.8748
969.891	10.3357
973.265	9.86111
976.64	12.8775
980.015	13.2343
983.39	15.5832
986.765	15.2409
990.139	16.604
993.514	15.9815
996.889	13.9708
1000.26	12.4714
1003.64	11.4262
1007.01	8.54306
1010.39	4.08032
1013.76	3.79578
1017.14	0.645233
1020.51	0.386353
1023.89	0.039368
1027.26	0.5849
1030.64	0.140015
1034.01	0.136353
1037.39	0.633881
1040.76	0.696533
1044.14	3.89783
1047.51	3.01041
1050.89	3.15195
1054.26	7.5473
1057.64	10.1928
1061.01	13.7398
1064.38	15.2239
1067.76	15.3406
1071.13	13.0558
1074.51	11.1576
1077.88	12.0962
1081.26	9.11233
1084.63	6.88272
1088.01	6.17929
1091.38	4.27795
1094.76	2.32062
1098.13	3.95096
1101.51	4.77338
1104.88	1.78122
1108.26	2.11401
1111.63	2.58121
1115.01	3.1539
1118.38	0.808228
1121.76	1.37476
1125.13	0.206848
1128.51	1.6286
1131.88	0.336853
1135.26	1.07379
1138.63	1.40976
1142.01	3.23746
1145.38	0.834167
1148.76	2.1579
1152.13	2.92691
1155.51	3.46286
1158.88	3.52469
1162.26	5.03412
1165.63	4.65375
1169.01	3.19034
1172.38	3.54388
1175.75	2.76434
1179.13	3.69095
1182.5	4.43198
1185.88	2.07358
1189.25	3.8392
1192.63	2.53464
1196	1.233
1199.38	5.04599
1202.75	3.82617
1206.13	2.98578
1209.5	2.09549
1212.88	0.501038
1216.25	1.03601
1219.63	3.47342
1223	2.92377
1226.38	0.90741
1229.75	3.48849
1233.13	1.55933
1236.5	0.446411
1239.88	2.0448
1243.25	2.28134
1246.62	0.277802
1250	1.60156
1253.38	1.22916
1256.75	2.07684
1260.12	2.85706
1263.5	1.19562
1266.87	1.82776
1270.25	2.77722
1273.62	2.6264
1277	3.31873
1280.37	2.81952
1283.75	1.57672
1287.12	1.44916
1290.5	0.430664
1293.87	0.596924
