Measurement: Raman, 532 nm, unoriented, Raman Data Processed
Mineral: Shcherbakovite
Rruff sample: R080078
Ideal chemistry: K_2_NaTi^4+^_2_(Si_4_O_12_)O(OH)
Locality: Walgidee Hills pegmatite, Kimberley, Western Australia, Australia
Source: Michael Scott
Description: Reddish-brown micro grains in earthy matrix
Raman shift (cm-1)	intensity
151.654	0
154.547	0.29493
157.439	0.892159
160.332	1.2311
163.225	3.97874
166.117	8.82186
169.01	14.629
171.903	24.4119
174.796	33.4763
177.688	43.6613
180.581	53.2949
183.474	68.2021
186.366	82.6706
189.259	88.1864
192.152	83.188
195.044	64.7301
197.937	44.6449
200.83	31.5625
203.722	23.4301
206.615	16.7215
209.508	12.3976
212.401	8.75898
215.293	7.77644
218.186	5.43106
221.079	5.45565
223.971	3.09193
226.864	1.50763
229.757	1.16026
232.649	0.156937
235.542	0.621254
238.435	0.066109
241.328	0.023705
244.22	1.02493
247.113	1.06949
250.006	0.397125
252.898	0.323967
255.791	0.98616
258.684	2.19349
261.577	1.73211
264.469	2.02055
267.362	2.85738
270.255	4.29705
273.147	4.37491
276.04	4.60942
278.933	5.73533
281.825	5.11679
284.718	3.81656
287.611	3.34423
290.503	4.96738
293.396	3.13474
296.289	2.80281
299.182	4.30516
302.074	4.22466
304.967	5.68352
307.86	3.8579
310.752	5.15036
313.645	6.24289
316.538	7.54555
319.43	8.52545
322.323	8.92625
325.216	9.48396
328.109	7.74075
331.001	10.1327
333.894	8.17744
336.787	6.70885
339.679	4.19528
342.572	4.24222
345.465	3.02399
348.358	2.25482
351.25	2.45059
354.143	2.70323
357.036	1.45894
359.928	0.734314
362.821	1.19095
365.714	1.86763
368.606	0.974121
371.499	1.46469
374.392	1.49387
377.284	0.303879
380.177	1.03461
383.07	0.753448
385.963	0.172211
388.855	0.248032
391.748	0.783066
394.641	1.02974
397.533	2.34699
400.426	3.31186
403.319	4.58881
406.212	5.08865
409.104	5.78153
411.997	8.01457
414.89	8.61577
417.782	8.30682
420.675	11.0161
423.568	11.9548
426.46	11.7742
429.353	12.0384
432.246	12.8237
435.139	12.5483
438.031	10.6365
440.924	9.98628
443.817	8.56941
446.709	8.30371
449.602	6.84396
452.495	6.99568
455.387	4.85353
458.28	3.41833
461.173	3.26498
464.065	1.31145
466.958	0.603424
469.851	1.62708
472.744	0.964386
475.636	0.036057
478.529	0.89106
481.422	4.15038
484.314	6.88466
487.207	9.54072
490.1	11.6576
492.993	14.4407
495.885	16.7286
498.778	17.9745
501.671	19.1404
504.563	20.6024
507.456	21.0116
510.349	21.0366
513.241	21.8097
516.134	20.1449
519.027	20.4613
521.919	19.3158
524.812	18.3185
527.705	17.1478
530.598	15.548
533.49	15.6016
536.383	16.5037
539.276	15.3235
542.168	16.2276
545.061	16.6044
547.954	17.0753
550.846	18.7932
553.739	19.2322
556.632	19.8145
559.525	20.7824
562.417	20.5318
565.31	18.9817
568.203	18.2684
571.095	17.0273
573.988	15.4326
576.881	14.6166
579.774	14.2733
582.666	12.3475
585.559	10.0701
588.452	8.68428
591.344	6.73108
594.237	6.28029
597.13	5.66291
600.022	2.94394
602.915	2.63612
605.808	1.95767
608.701	0.869057
611.593	0.186615
614.486	0.551437
617.379	0.995865
620.271	0.295868
623.164	2.01993
626.057	1.54068
628.949	1.91719
631.842	3.50717
634.735	1.81331
637.628	1.08044
640.52	0.060516
643.413	2.40343
646.306	5.33928
649.198	11.2842
652.091	16.4099
654.984	24.7039
657.876	34.0624
660.769	48.263
663.662	63.9655
666.554	85.9393
669.447	106.151
672.34	124.523
675.233	138.127
678.125	138.82
681.018	121.215
683.911	95.9088
686.803	70.4771
689.696	48.9795
692.589	34.3488
695.481	26.176
698.374	20.4157
701.267	18.2906
704.16	20.3886
707.052	22.5275
709.945	29.7724
712.838	37.2968
715.73	45.4461
718.623	59.17
721.516	74.9302
724.409	91.2109
727.301	109.24
730.194	128.176
733.087	146.004
735.979	161.729
738.872	173.037
741.765	177.676
744.657	178.353
747.55	171.885
750.443	159.281
753.336	146.6
756.228	135.202
759.121	122.132
762.014	116.275
764.906	115.016
767.799	117.758
770.692	119.859
773.584	124.685
776.477	129.531
779.37	133.026
782.263	130.481
785.155	127.119
788.048	117.364
790.941	100.86
793.833	83.4986
796.726	64.8833
799.619	45.2518
802.511	29.7895
805.404	17.9079
808.297	9.43324
811.189	4.58057
814.082	0.064514
816.975	1.28534
819.868	2.65527
822.76	3.03311
825.653	3.73231
828.546	3.48012
831.438	2.8279
834.331	1.79787
837.224	1.1984
840.116	0.401703
843.009	1.40541
845.902	2.64004
848.795	3.55017
851.687	5.44073
854.58	6.99245
857.473	9.75037
860.365	10.3444
863.258	12.5533
866.151	12.9245
869.043	14.01
871.936	15.7333
874.829	16.719
877.722	17.5132
880.614	16.5036
883.507	16.197
886.4	16.6611
889.292	15.4539
892.185	16.7226
895.078	13.5117
897.971	13.2988
900.863	13.0381
903.756	13.1547
906.649	14.1184
909.541	12.3799
912.434	13.001
915.327	13.2732
918.219	14.1206
921.112	14.479
924.005	14.8698
926.898	15.3083
929.79	16.932
932.683	16.2816
935.576	17.5775
938.468	17.8788
941.361	18.4272
944.254	20.068
947.146	21.728
950.039	23.6241
952.932	25.4264
955.824	28.093
958.717	30.7086
961.61	32.7095
964.503	34.4397
967.395	28.2773
970.288	23.5156
973.181	19.7349
976.073	17.1099
978.966	12.8068
981.859	9.89725
984.751	6.90475
987.644	6.02876
990.537	3.21232
993.43	2.05051
996.322	1.02518
999.215	0.657021
1002.11	0.269646
1005	0.612869
1007.89	0.851677
1010.79	0.473526
1013.68	0.771317
1016.57	0.689644
1019.46	0.431046
1022.36	0.266731
1025.25	0.943314
1028.14	2.05266
1031.04	2.21291
1033.93	2.72941
1036.82	3.43361
1039.71	3.9868
1042.61	4.13109
1045.5	3.39096
1048.39	4.35674
1051.28	3.78821
1054.18	5.42712
1057.07	5.94018
1059.96	6.71159
1062.85	7.07041
1065.75	7.67832
1068.64	7.09948
1071.53	8.25284
1074.42	8.58089
1077.32	9.52698
1080.21	10.076
1083.1	10.9064
1086	10.3168
1088.89	10.7729
1091.78	10.9975
1094.67	10.2486
1097.57	10.9024
1100.46	8.78441
1103.35	8.68845
1106.24	7.29993
1109.14	5.50373
1112.03	3.23789
1114.92	2.07125
1117.82	2.04414
1120.71	0.452576
1123.6	0.423706
1126.49	0.049576
1129.39	0.511032
1132.28	0.11956
1135.17	1.54771
1138.07	0.49958
1140.96	0.008942
1143.85	0.463104
1146.74	0.167732
1149.63	0.426888
1152.53	0.447479
1155.42	0.912086
1158.31	1.76614
1161.21	1.11018
1164.1	1.54664
1166.99	1.22086
1169.88	1.15179
1172.78	1.58417
1175.67	0.74369
1178.56	1.38303
1181.45	1.14084
1184.35	1.11006
1187.24	0.888268
1190.13	1.40868
1193.03	0.434975
1195.92	1.25724
1198.81	1.16792
1201.7	1.1516
1204.6	0.535728
1207.49	0.295708
1210.38	0.258492
1213.28	0.012657
1216.17	0.579384
1219.06	0.869713
1221.95	0.163033
1224.85	0.009354
1227.74	0.543694
1230.63	0.757813
1233.52	0.84597
1236.42	1.228
1239.31	0.368256
1242.2	0.319977
1245.09	0.681778
1247.99	0.664223
1250.88	0.831696
1253.77	1.11932
1256.66	0.232094
1259.56	0.847748
1262.45	0.662544
1265.34	0.547997
1268.24	1.15695
1271.13	0.654724
1274.02	0.214981
1276.91	2.21311
1279.81	0.219223
1282.7	1.09026
1285.59	2.13959
1288.48	1.22938
1291.38	1.74589
1294.27	1.23478
1297.16	1.58376
1300.06	0.32019
1302.95	0.825729
