Measurement: Raman, 780 nm, unoriented, Raman Data Processed
Mineral: Shibkovite
Rruff sample: R080040
Ideal chemistry: K_2_Ca_2_(Zn_3_Si_12_)O_30_
Locality: Dara-i-Pioz Glacier, Alayskiy (Alai) Range, Tien Shan Mts, Region of Republican Subordination, Tajikistan
Source: Michael Scott
Description: Colorless, vitreous, massive containing some black inclusions. Sample fluoresces neon-orange under SWUV light.
Raman shift (cm-1)	intensity
156.645	0
159.538	5.85388
162.431	31.5855
165.323	58.2574
168.216	81.861
171.109	98.575
174.001	117.009
176.894	127.631
179.787	130.164
182.679	133.34
185.572	141.805
188.465	151.88
191.358	144.631
194.25	126.752
197.143	103.454
200.036	79.877
202.928	54.3986
205.821	34.0637
208.714	15.6492
211.607	2.57562
214.499	6.84824
217.392	7.69928
220.285	3.63788
223.177	2.27914
226.07	10.0427
228.963	19.784
231.855	28.3972
234.748	38.6994
237.641	49.9641
240.533	64.5718
243.426	80.7293
246.319	99.9011
249.212	120.053
252.104	130.261
254.997	143.192
257.89	160.612
260.782	190.812
263.675	243.965
266.568	302.744
269.46	264.528
272.353	160.627
275.246	102.005
278.139	73.318
281.031	59.7751
283.924	52.1202
286.817	47.6806
289.709	48.0438
292.602	51.0328
295.495	54.7931
298.387	53.6885
301.28	51.2059
304.173	47.2367
307.065	46.574
309.958	44.6281
312.851	47.4616
315.744	50.3477
318.636	48.9858
321.529	43.8261
324.422	34.1483
327.314	23.825
330.207	14.261
333.1	7.1365
335.993	2.94048
338.885	0.700378
341.778	0.883209
344.671	3.18549
347.563	2.92151
350.456	3.74876
353.349	3.66295
356.241	1.79472
359.134	0.951721
362.027	4.15924
364.92	7.8723
367.812	13.2236
370.705	21.4103
373.598	27.2757
376.49	26.3044
379.383	21.4696
382.276	19.3284
385.168	18.6317
388.061	19.982
390.954	21.9015
393.846	24.3365
396.739	27.9898
399.632	28.1106
402.525	28.4534
405.417	26.5294
408.31	23.4254
411.203	18.4185
414.095	16.8338
416.988	15.9212
419.881	14.3229
422.774	16.3863
425.666	21.5371
428.559	29.7933
431.452	41.7156
434.344	62.5908
437.237	86.2459
440.13	125.699
443.022	175.974
445.915	242.591
448.808	280.805
451.7	265.313
454.593	207.165
457.486	139.141
460.379	77.9062
463.271	38.9951
466.164	22.0323
469.057	21.0558
471.949	25.9345
474.842	36.5954
477.735	53.2307
480.627	73.0183
483.52	96.819
486.413	118.656
489.305	137.668
492.198	147.296
495.091	138.452
497.984	116.02
500.876	92.0071
503.769	70.8634
506.662	51.8804
509.554	35.1384
512.447	23.5621
515.34	13.8933
518.232	8.36508
521.125	1.1201
524.018	0.36264
526.911	1.84209
529.803	2.77523
532.696	3.55482
535.589	3.02107
538.481	1.22111
541.374	0.633759
544.267	1.93546
547.159	3.26609
550.052	6.94149
552.945	9.72401
555.838	13.3983
558.73	18.0263
561.623	22.8152
564.516	27.735
567.408	30.7697
570.301	21.4553
573.194	10.4194
576.087	6.50559
578.979	5.48439
581.872	4.24364
584.765	3.86845
587.657	2.14797
590.55	1.02635
593.443	1.01356
596.335	1.10376
599.228	0.175041
602.121	1.47191
605.014	3.09561
607.906	3.61616
610.799	5.71142
613.692	8.60643
616.584	12.0456
619.477	16.4879
622.37	15.5612
625.262	13.2209
628.155	10.2659
631.048	6.56043
633.941	6.32503
636.833	5.56548
639.726	5.64416
642.619	4.43151
645.511	4.95788
648.404	4.63227
651.297	4.28493
654.189	4.54969
657.082	4.00046
659.975	4.15464
662.867	4.71519
665.76	5.30381
668.653	5.63546
671.546	5.53927
674.438	5.30954
677.331	5.45009
680.224	4.52031
683.116	3.77517
686.009	3.18481
688.902	2.69575
691.794	3.03566
694.687	2.119
697.58	1.60218
700.473	1.41261
703.365	0.861717
706.258	0.22197
709.151	0.231937
712.043	0.122345
714.936	0.11541
717.829	0.228954
720.721	0.416607
723.614	0.067093
726.507	0.321476
729.399	0.434994
732.292	0.493309
735.185	1.0592
738.078	0.784397
740.97	0.670212
743.863	1.17594
746.756	1.10575
749.648	1.85471
752.541	2.80661
755.434	4.22304
758.327	4.85813
761.219	3.21077
764.112	1.99235
767.005	0.822155
769.897	0.642178
772.79	0.163147
775.683	0.11055
778.575	0.271172
781.468	0.337341
784.361	0.211018
787.254	0.606831
790.146	0.907707
793.039	1.24738
795.932	3.22435
798.824	5.78834
801.717	8.89033
804.61	11.8464
807.502	17.3545
810.395	25.7501
813.288	39.7648
816.181	39.0352
819.073	19.0957
821.966	10.0314
824.859	6.20568
827.751	4.04358
830.644	3.55957
833.537	3.14317
836.429	2.72212
839.322	2.47712
842.215	2.56899
845.107	2.44381
848	2.01552
850.893	1.72341
853.786	1.57346
856.678	1.18533
859.571	1.50433
862.464	1.09036
865.356	1.49888
868.249	1.07736
871.142	1.46962
874.034	1.07157
876.927	1.06503
879.82	1.41924
882.713	1.56122
885.605	1.25795
888.498	1.62961
891.391	1.02728
894.283	0.635838
897.176	1.10141
900.069	1.02446
902.962	0.288464
905.854	0.427021
908.747	0.399872
911.64	0.375202
914.532	0.355476
917.425	0.04204
920.318	0.180763
923.21	0.289881
926.103	0.043037
928.996	0.057024
931.889	0.283606
934.781	0.160051
937.674	0.337708
940.567	0.324526
943.459	0.353409
946.352	0.482307
949.245	0.689444
952.137	0.735292
955.03	0.900345
957.923	0.801607
960.816	0.635843
963.708	0.248753
966.601	0.340445
969.494	0.932003
972.386	0.612495
975.279	1.45217
978.172	1.3186
981.064	1.92949
983.957	1.85584
986.85	2.30318
989.742	1.67458
992.635	1.24879
995.528	1.70844
998.421	2.16196
1001.31	1.99384
1004.21	2.11903
1007.1	2.63772
1009.99	2.44537
1012.88	2.07637
1015.78	1.72448
1018.67	0.934753
1021.56	0.721333
1024.45	0.192497
1027.35	0.128464
1030.24	0.154259
1033.13	0.530457
1036.03	0.592216
1038.92	0.241955
1041.81	0.270477
1044.7	1.13788
1047.6	1.90297
1050.49	2.47588
1053.38	3.64122
1056.28	2.86965
1059.17	3.3772
1062.06	2.26539
1064.95	2.88957
1067.85	1.87583
1070.74	2.42807
1073.63	3.08125
1076.52	3.96501
1079.42	5.4674
1082.31	8.2569
1085.2	11.1657
1088.09	16.9223
1090.99	26.0252
1093.88	39.3007
1096.77	58.6005
1099.66	82.966
1102.56	113.366
1105.45	151.784
1108.34	187.643
1111.24	164.359
1114.13	94.1686
1117.02	48.2178
1119.91	28.7465
1122.81	18.4585
1125.7	13.0436
1128.59	9.2196
1131.48	6.69229
1134.38	5.34108
1137.27	4.60637
1140.16	3.83226
1143.06	4.11258
1145.95	3.53415
1148.84	3.9895
1151.73	3.83124
1154.63	2.93827
1157.52	2.03665
1160.41	1.22934
1163.3	0.378227
1166.2	0.246651
1169.09	0.796726
1171.98	0.382114
1174.88	0.525188
1177.77	0.152946
1180.66	0.126534
1183.55	0.322304
1186.45	0.447567
1189.34	1.43114
1192.23	1.66932
1195.12	3.85784
1198.02	4.55993
1200.91	7.32738
1203.8	8.74945
1206.69	11.165
1209.59	12.0684
1212.48	14.7798
1215.37	16.3911
1218.27	18.3122
1221.16	19.8083
1224.05	20.9403
1226.94	22.1165
1229.84	23.1449
1232.73	24.7634
1235.62	24.6158
1238.52	24.919
1241.41	25.4754
1244.3	24.2403
1247.19	22.5781
1250.09	21.4737
1252.98	19.3672
1255.87	16.1171
1258.76	13.187
1261.66	10.8946
1264.55	8.20287
1267.44	6.38999
1270.33	3.3285
1273.23	3.02238
1276.12	1.25018
1279.01	0.383972
1281.9	0.235092
1284.8	0.712341
1287.69	0
