Measurement: Raman, 532 nm, unoriented, Raman Data Processed
Mineral: Shigaite
Rruff sample: R080090
Ideal chemistry: NaAl_3_Mn^2+^_6_(SO_4_)_2_(OH)_18_12H_2_O
Locality: Ioi Mine, Shiga Prefecture, Kinki Region, Honshu Island, Japan
Source: Michael Scott
Description: Semi-transparent, dull-yellow to pale yellow coating
Raman shift (cm-1)	intensity
157.921	0
160.814	0.233673
163.707	0.572296
166.6	1.67253
169.492	1.15039
172.385	1.70453
175.278	0.025116
178.17	1.05647
181.063	0.471909
183.956	0.919968
186.848	2.84871
189.741	2.37161
192.634	4.62929
195.526	7.22516
198.419	11.7214
201.312	15.3284
204.205	19.6396
207.097	23.2045
209.99	31.2487
212.883	39.0479
215.775	42.4426
218.668	31.2746
221.561	15.2061
224.453	7.39557
227.346	2.2422
230.239	1.00693
233.132	0.149185
236.024	0.070503
238.917	0.666748
241.81	1.48665
244.702	2.21612
247.595	3.19946
250.488	5.05563
253.381	6.79755
256.273	9.74701
259.166	10.0491
262.059	13.0955
264.951	13.7363
267.844	14.0252
270.737	14.862
273.629	11.8422
276.522	11.8014
279.415	10.7374
282.308	9.81535
285.2	7.2837
288.093	6.63668
290.986	5.71729
293.878	3.1859
296.771	2.48848
299.664	1.90791
302.556	2.4411
305.449	1.71122
308.342	0.711174
311.235	0.212914
314.127	0.143204
317.02	0.77433
319.913	1.39487
322.805	0.49263
325.698	2.45839
328.591	2.50539
331.483	1.95438
334.376	2.85223
337.269	2.40664
340.161	2.78709
343.054	3.25784
345.947	3.42162
348.84	3.55019
351.732	4.1779
354.625	4.28694
357.518	3.2074
360.41	3.5536
363.303	3.7877
366.196	2.69247
369.089	2.01102
371.981	1.30423
374.874	0.002594
377.767	0.003204
380.659	0.130112
383.552	0.027008
386.445	0.52681
389.337	0.703934
392.23	0.68399
395.123	0.482239
398.015	0.571243
400.908	0.91394
403.801	0.3134
406.694	0.228622
409.586	0.07016
412.479	0.676956
415.372	2.96208
418.264	4.29788
421.157	6.54776
424.05	9.51349
426.942	12.5978
429.835	18.3389
432.728	22.4053
435.621	28.4881
438.513	31.7171
441.406	35.0716
444.299	38.2107
447.191	40.4504
450.084	42.2615
452.977	42.5669
455.87	38.9941
458.762	34.5153
461.655	30.7304
464.548	25.6731
467.44	18.5726
470.333	14.4927
473.226	11.1088
476.118	6.16232
479.011	4.48387
481.904	3.19305
484.796	3.15022
487.689	0.450729
490.582	0.414307
493.475	2.31743
496.367	4.67882
499.26	10.6833
502.153	20.2332
505.045	26.9802
507.938	37.4637
510.831	45.6228
513.723	56.2475
516.616	66.9109
519.509	79.7766
522.402	92.2461
525.294	105.061
528.187	106.958
531.08	93.3505
533.972	69.9216
536.865	49.2676
539.758	31.0975
542.65	19.1319
545.543	9.94063
548.436	4.33354
551.329	0.290939
554.221	0.334595
557.114	1.77489
560.007	1.0947
562.899	0.479797
565.792	3.79765
568.685	5.4212
571.577	10.7084
574.47	12.8497
577.363	16.4509
580.256	17.019
583.148	18.4206
586.041	19.5152
588.934	20.2844
591.826	22.5443
594.719	26.6991
597.612	30.3702
600.505	35.7077
603.397	40.053
606.29	42.1607
609.183	41.8987
612.075	36.3542
614.968	31.8938
617.861	28.7384
620.753	26.2241
623.646	25.0595
626.539	23.2979
629.432	21.3591
632.324	19.0991
635.217	15.9059
638.11	11.0715
641.002	8.33409
643.895	5.24699
646.788	3.22017
649.68	0.800171
652.573	0.391495
655.466	0.08139
658.359	0.147736
661.251	0.541275
664.144	0.036118
667.037	0.015923
669.929	1.32298
672.822	0.669441
675.715	0.101753
678.607	0.87252
681.5	0.577278
684.393	0.984207
687.285	0.806168
690.178	1.73249
693.071	1.43143
695.964	2.73754
698.856	2.84598
701.749	2.85191
704.642	2.60757
707.534	3.4205
710.427	3.47239
713.32	3.8119
716.212	2.81829
719.105	2.13348
721.998	3.58507
724.891	3.33564
727.783	2.91466
730.676	2.55044
733.569	1.8711
736.461	1.91232
739.354	1.18097
742.247	1.59608
745.139	2.12254
748.032	0.966042
750.925	0.836792
753.818	0.208961
756.71	0.169121
759.603	0.78418
762.496	0.582787
765.388	1.1096
768.281	1.22538
771.174	1.34825
774.067	1.13545
776.959	1.17779
779.852	0.200821
782.745	1.52836
785.637	1.41981
788.53	1.96041
791.423	2.58002
794.315	3.46149
797.208	2.82241
800.101	3.63514
802.994	4.70601
805.886	4.59715
808.779	3.74247
811.672	4.83848
814.564	5.14195
817.457	5.45568
820.35	5.57613
823.242	5.5994
826.135	4.41634
829.028	4.58479
831.92	3.48702
834.813	3.67957
837.706	2.50649
840.599	2.71786
843.491	1.35706
846.384	1.43452
849.277	1.99426
852.169	1.84803
855.062	1.49627
857.955	2.57748
860.847	1.13648
863.74	2.48778
866.633	1.65311
869.526	0.263336
872.418	1.37706
875.311	0.985214
878.204	0.103622
881.096	0.26078
883.989	0.228249
886.882	0.906555
889.774	0.835823
892.667	0.061111
895.56	0.290634
898.453	0.481346
901.345	0.578712
904.238	0.456627
907.131	0.685341
910.023	0.365982
912.916	0.644257
915.809	0.630081
918.702	0.412292
921.594	1.23149
924.487	4.6373
927.38	1.73512
930.272	3.67815
933.165	2.64217
936.058	3.61664
938.95	4.58818
941.843	5.64516
944.736	7.96582
947.629	13.1221
950.521	19.8431
953.414	31.6989
956.307	53.7998
959.199	84.8318
962.092	136.389
964.985	212.474
967.877	278.092
970.77	325.792
973.663	382.725
976.556	395.628
979.448	360.1
982.341	280.205
985.234	175.704
988.126	98.3247
991.019	55.8372
993.912	33.6067
996.804	22.4339
999.697	14.859
1002.59	10.6334
1005.48	7.62709
1008.38	6.29256
1011.27	4.15195
1014.16	3.31068
1017.05	2.56969
1019.95	1.23379
1022.84	0.145874
1025.73	0.057251
1028.62	0.179901
1031.52	1.49664
1034.41	0.157272
1037.3	0.002411
1040.19	0.653
1043.09	0.394684
1045.98	0.39035
1048.87	0.192932
1051.77	0.663116
1054.66	0.048553
1057.55	0.007278
1060.44	0.96199
1063.34	0.335205
1066.23	0.743958
1069.12	1.6797
1072.02	3.13969
1074.91	3.21403
1077.8	5.29524
1080.69	6.89981
1083.59	8.22647
1086.48	9.25058
1089.37	9.76297
1092.26	9.96831
1095.16	9.17277
1098.05	9.23407
1100.94	8.66565
1103.83	8.58212
1106.73	8.93982
1109.62	8.11748
1112.51	8.9458
1115.4	9.39879
1118.3	10.2385
1121.19	10.123
1124.08	10.8677
1126.98	9.30446
1129.87	9.53035
1132.76	9.52081
1135.65	7.53268
1138.55	8.38853
1141.44	6.13211
1144.33	6.69302
1147.22	5.72397
1150.12	4.90266
1153.01	5.14725
1155.9	4.25287
1158.8	3.90839
1161.69	3.40535
1164.58	3.4276
1167.47	3.63255
1170.37	2.96153
1173.26	3.12167
1176.15	2.37965
1179.05	1.97948
1181.94	1.63718
1184.83	1.47803
1187.72	0.898224
1190.62	1.32425
1193.51	0.198158
1196.4	0.262794
1199.29	0.127769
1202.19	0.276558
1205.08	0.439453
1207.97	0.918655
1210.86	0.468864
1213.76	0.444206
1216.65	0.18959
1219.54	0.534973
1222.43	1.14745
1225.33	0.489944
1228.22	1.30718
1231.11	0.076302
1234.01	1.37708
1236.9	0.267525
1239.79	0.815865
1242.68	0.575279
1245.58	0.47847
1248.47	0.572014
1251.36	0.425301
1254.26	1.79822
1257.15	0.651001
1260.04	1.29762
1262.93	0.657738
1265.83	0.98513
1268.72	0.857925
1271.61	0.314377
1274.5	1.04374
1277.4	1.05593
1280.29	1.35615
1283.18	0.327682
1286.07	1.38142
1288.97	0.844276
1291.86	1.58079
1294.75	2.05629
1297.64	0.134422
1300.54	1.48396
1303.43	0.007187
