Measurement: Raman, 780 nm, unoriented, Raman Data Processed
Mineral: Shigaite
Rruff sample: R080090
Ideal chemistry: NaAl_3_Mn^2+^_6_(SO_4_)_2_(OH)_18_12H_2_O
Locality: Ioi Mine, Shiga Prefecture, Kinki Region, Honshu Island, Japan
Source: Michael Scott
Description: Semi-transparent, dull-yellow to pale yellow coating
Raman shift (cm-1)	intensity
157.127	0
160.02	1.40051
162.912	0.923645
165.805	0.972458
168.698	0.123138
171.591	0.08786
174.483	0.027573
177.376	0.554993
180.269	0.008713
183.161	0.044647
186.054	0.563858
188.947	0.870514
191.839	1.71018
194.732	2.29804
197.625	3.46193
200.518	5.61317
203.41	5.75693
206.303	5.93559
209.196	7.39821
212.088	8.38556
214.981	8.66058
217.874	10.0921
220.766	9.52869
223.659	10.1892
226.552	9.24044
229.445	9.28589
232.337	5.54866
235.23	0.447433
238.123	0.021179
241.015	0.443573
243.908	0.969971
246.801	0.033951
249.694	1.82396
252.586	2.50085
255.479	3.43953
258.372	2.12302
261.264	3.33118
264.157	4.82382
267.05	4.62798
269.942	4.36345
272.835	4.51564
275.728	4.14771
278.62	3.95807
281.513	3.52821
284.406	1.47887
287.299	2.12862
290.191	1.53377
293.084	0.611908
295.977	0.393066
298.869	1.05614
301.762	0.085464
304.655	0.688873
307.548	0.022949
310.44	0.234726
313.333	1.11529
316.226	1.58884
319.118	0.184814
322.011	1.95213
324.904	1.93875
327.796	0.672485
330.689	0.900864
333.582	0.991867
336.474	1.78514
339.367	1.08469
342.26	1.50235
345.152	1.33949
348.045	2.05034
350.938	2.21233
353.831	1.59735
356.723	0.662872
359.616	2.77747
362.509	0.611862
365.401	0.638123
368.294	0.529541
371.187	2.9288
374.079	0.408386
376.972	0.251587
379.865	0.040695
382.758	1.12209
385.65	0.038101
388.543	0.160202
391.436	1.93114
394.328	0.670502
397.221	0.46315
400.114	0.830582
403.007	0.378647
405.899	1.4091
408.792	0.486099
411.685	0.144836
414.577	0.957642
417.47	1.59885
420.363	0.910599
423.255	3.82782
426.148	3.67647
429.041	5.40251
431.933	6.17734
434.826	7.5816
437.719	8.08833
440.612	8.31558
443.504	10.4062
446.397	11.5884
449.29	11.3201
452.182	10.5062
455.075	11.7295
457.968	10.1753
460.861	8.57185
463.753	8.28542
466.646	5.01805
469.539	4.64239
472.431	3.20276
475.324	1.95245
478.217	0.869232
481.109	0.883972
484.002	0.468231
486.895	1.07556
489.788	0.148941
492.68	0.678726
495.573	0.051498
498.466	1.16324
501.358	1.47568
504.251	2.83978
507.144	4.63463
510.036	6.75502
512.929	10.4749
515.822	13.2556
518.715	16.2048
521.607	19.9189
524.5	22.8742
527.393	25.2105
530.285	23.416
533.178	18.3567
536.071	14.0786
538.963	9.47267
541.856	6.21841
544.749	4.66632
547.641	3.22696
550.534	1.95897
553.427	2.01749
556.32	1.39914
559.212	0.596939
562.105	1.92331
564.998	1.3208
567.89	2.23413
570.783	0.596893
573.676	1.95284
576.568	1.65466
579.461	1.87709
582.354	1.66931
585.247	1.81366
588.139	2.37047
591.032	3.17453
593.925	4.24594
596.817	4.18251
599.71	7.02036
602.603	7.18585
605.495	6.85268
608.388	7.5986
611.281	7.21252
614.174	6.55203
617.066	5.3971
619.959	6.15564
622.852	5.9099
625.744	5.50696
628.637	5.19838
631.53	4.94295
634.423	4.56126
637.315	3.63249
640.208	2.94742
643.101	1.82155
645.993	2.02094
648.886	0.969879
651.779	0.935196
654.671	0.969193
657.564	0.062912
660.457	0.16777
663.35	1.67752
666.242	0.778366
669.135	1.27768
672.028	0.004852
674.92	0.418594
677.813	0.551041
680.706	0.283798
683.598	2.02306
686.491	0.88002
689.384	0.048218
692.277	0.208923
695.169	0.17981
698.062	0.580185
700.955	1.02124
703.847	0.146484
706.74	1.42494
709.633	0.602081
712.525	1.48373
715.418	1.35669
718.311	0.705338
721.203	1.68039
724.096	1.53741
726.989	0.493423
729.882	0.159241
732.774	0.366302
735.667	0.331253
738.56	0.581039
741.452	0.344193
744.345	0.96286
747.238	1.32806
750.13	1.36804
753.023	0.502914
755.916	1.06445
758.809	0.131844
761.701	0.117874
764.594	0.77494
767.487	0.821518
770.379	0.425171
773.272	0.270355
776.165	0.586586
779.058	0.024826
781.95	0.094536
784.843	0.650551
787.736	0.559029
790.628	0.836464
793.521	1.25455
796.414	1.6899
799.306	0.47422
802.199	1.48624
805.092	0.98954
807.985	1.15714
810.877	1.88818
813.77	1.27071
816.663	1.07686
819.555	1.11016
822.448	0.828781
825.341	1.30257
828.233	1.66943
831.126	1.57494
834.019	2.14956
836.912	2.39209
839.804	3.10094
842.697	2.06968
845.59	0.964493
848.482	1.51186
851.375	2.36627
854.268	1.48279
857.16	2.41495
860.053	2.54079
862.946	1.02712
865.838	2.00763
868.731	1.94041
871.624	1.68626
874.517	2.1725
877.409	0.852165
880.302	0.429092
883.195	0.800331
886.087	1.76665
888.98	0.185837
891.873	0.448616
894.765	0.6828
897.658	0.00264
900.551	0.632385
903.444	0.540176
906.336	0.213356
909.229	0.170059
912.122	0.586281
915.014	0.799538
917.907	0.250519
920.8	0.21389
923.692	0.453171
926.585	0.975555
929.478	0.55925
932.37	0.586922
935.263	0.649727
938.156	0.313057
941.049	1.07431
943.941	1.50716
946.834	0.809067
949.727	3.34751
952.619	5.29803
955.512	8.49482
958.405	13.2965
961.298	21.482
964.19	31.2585
967.083	41.6315
969.976	50.3808
972.868	60.4129
975.761	65.6633
978.654	60.2864
981.546	51.7755
984.439	39.4931
987.332	27.2731
990.225	14.9203
993.117	7.72018
996.01	4.67639
998.903	3.50954
1001.79	2.54932
1004.69	1.13031
1007.58	0.601982
1010.47	0.93895
1013.37	0.189804
1016.26	0.94577
1019.15	0.683098
1022.04	1.58653
1024.94	0.334595
1027.83	1.92969
1030.72	1.08807
1033.62	0.038078
1036.51	0.23127
1039.4	0.818703
1042.29	0.715866
1045.19	0.543839
1048.08	0.860634
1050.97	0.274887
1053.86	0.22464
1056.76	0.002312
1059.65	1.17493
1062.54	1.17295
1065.43	0.363075
1068.33	0.944519
1071.22	0.451225
1074.11	0.140732
1077.01	1.71662
1079.9	0.846107
1082.79	1.2021
1085.68	2.42396
1088.58	1.85867
1091.47	1.58937
1094.36	2.68017
1097.25	2.2579
1100.15	1.15056
1103.04	2.03719
1105.93	2.02632
1108.83	1.85268
1111.72	2.03756
1114.61	1.02605
1117.5	1.13023
1120.4	1.21019
1123.29	1.71809
1126.18	0.059654
1129.07	1.28063
1131.97	1.16206
1134.86	0.343704
1137.75	0.846474
1140.64	0.427986
1143.54	1.79343
1146.43	0.216331
1149.32	1.52483
1152.22	0.526077
1155.11	0.989479
1158	0.878235
1160.89	0.705048
1163.79	1.02774
1166.68	0.077171
1169.57	0.750969
1172.46	0.436089
1175.36	1.54707
1178.25	1.01035
1181.14	1.24493
1184.04	0.441864
1186.93	1.04247
1189.82	1.22873
1192.71	0.161713
1195.61	0.364571
1198.5	0.216286
1201.39	1.09674
1204.28	0.559593
1207.18	0.543091
1210.07	0.39296
1212.96	1.02568
1215.86	0.365242
1218.75	0.840523
1221.64	0.906754
1224.53	0.552795
1227.43	0.25473
1230.32	0.270493
1233.21	0.559181
1236.1	0.251411
1239	1.27982
1241.89	0.429565
1244.78	0.694641
1247.67	0.902176
1250.57	0.771576
1253.46	0.718147
1256.35	0.196693
1259.25	0.751129
1262.14	0.011696
1265.03	0.779701
1267.92	0.433105
1270.82	0.462013
1273.71	0.54052
1276.6	0.717148
1279.49	1.42579
1282.39	0.477852
1285.28	0.133354
