Measurement: Raman, 785 nm, unoriented, Raman Data Processed
Mineral: Shomiokite-(Y)
Rruff sample: R060670
Ideal chemistry: Na_3_Y(CO_3_)_3_3H_2_O
Locality: Alluaiv Mountain, Lovozero massif, Kola Peninsula, Russia
Source: Michael Scott
Description: Colorless prismatic crystal covered with thin white coating of adamsite-(Y)
Measured chemistry: Na_2.80_(Y_0.81_Gd_0.02_Er_0.01_Sm_0.01_Dy_0.01_Yb_0.01_Eu_0.01_)_Σ=0.88_(CO_3_)_3.09_·2.86H_2_O
Raman shift (cm-1)	intensity
146.572	0
149.464	178.13
152.357	166.222
155.25	21.3887
158.142	15.9194
161.035	29.0399
163.928	278.202
166.821	559.915
169.713	868.823
172.606	1018.71
175.499	819.675
178.391	700.457
181.284	743.541
184.177	766.84
187.069	831.428
189.962	738.144
192.855	699.593
195.748	629.144
198.64	558.07
201.533	447.747
204.426	412.618
207.318	396.875
210.211	335.84
213.104	358.772
215.996	415.344
218.889	459.22
221.782	419.395
224.674	450.592
227.567	471.736
230.46	460.78
233.353	474.569
236.245	427.071
239.138	365.429
242.031	377.643
244.923	321.94
247.816	340.785
250.709	350.31
253.601	425.116
256.494	480.685
259.387	578.013
262.28	627.019
265.172	677.692
268.065	622.742
270.958	502.661
273.85	414.829
276.743	380.986
279.636	294.473
282.529	247.48
285.421	174.732
288.314	190.357
291.207	158.2
294.099	107.028
296.992	71.9164
299.885	91.6206
302.777	14.7468
305.67	42.7856
308.563	41.908
311.455	35.4119
314.348	32.2827
317.241	32.6995
320.134	44.6567
323.026	13.6985
325.919	13.8494
328.812	5.43079
331.704	28.8833
334.597	21.6459
337.49	38.5706
340.382	10.1899
343.275	22.4476
346.168	0.253296
349.061	40.2529
351.953	45.6045
354.846	52.6242
357.739	73.4923
360.631	88.3131
363.524	70.6423
366.417	65.2566
369.31	87.0936
372.202	85.9491
375.095	105.259
377.988	75.6677
380.88	92.1666
383.773	69.978
386.666	90.9998
389.558	42.0031
392.451	72.0894
395.344	21.953
398.236	41.9025
401.129	19.2136
404.022	24.9014
406.915	10.7854
409.807	17.5839
412.7	19.4321
415.593	48.7175
418.485	54.2463
421.378	28.5322
424.271	63.483
427.163	33.8378
430.056	38.2603
432.949	49.2806
435.842	48.652
438.734	31.7588
441.627	41.8453
444.52	44.9449
447.412	29.7355
450.305	30.8506
453.198	54.7502
456.091	26.9851
458.983	50.0398
461.876	16.4284
464.769	35.2321
467.661	37.6973
470.554	32.833
473.447	17.2352
476.339	16.4008
479.232	36.0946
482.125	39.6121
485.017	27.8129
487.91	31.2884
490.803	29.4629
493.696	19.1008
496.588	64.1189
499.481	62.1048
502.374	70.7104
505.266	43.6007
508.159	65.6353
511.052	37.5865
513.944	25.2716
516.837	17.5987
519.73	8.94952
522.623	1.73596
525.515	9.79736
528.408	21.3869
531.301	2.77045
534.193	26.4993
537.086	7.15875
539.979	2.87933
542.871	3.93506
545.764	31.02
548.657	12.6095
551.55	8.89014
554.442	10.3314
557.335	6.83697
560.228	6.14252
563.12	35.3202
566.013	1.00934
568.906	6.00671
571.798	14.7167
574.691	24.9088
577.584	6.63556
580.477	5.21314
583.369	13.4329
586.262	35.568
589.155	22.544
592.047	7.23413
594.94	6.96124
597.833	4.34634
600.726	37.7243
603.618	21.3355
606.511	17.7372
609.404	2.76926
612.296	14.7604
615.189	27.3223
618.082	21.5389
620.974	15.7036
623.867	40.0373
626.76	40.0042
629.653	44.3022
632.545	41.8535
635.438	62.7529
638.331	61.7041
641.223	68.9413
644.116	73.9742
647.009	95.2049
649.901	93.2
652.794	108.893
655.687	128.025
658.58	153.285
661.472	161.966
664.365	196.1
667.258	193.611
670.15	183.202
673.043	175.538
675.936	130.182
678.828	109.209
681.721	61.0528
684.614	56.8143
687.506	38.8436
690.399	18.7995
693.292	3.0607
696.185	21.5055
699.077	35.0147
701.97	60.252
704.863	70.187
707.755	84.3851
710.648	111.924
713.541	121.641
716.433	192.398
719.326	227.24
722.219	309.898
725.112	363.697
728.004	402.865
730.897	411.83
733.79	335.276
736.682	194.398
739.575	103.908
742.468	51.1892
745.361	20.5261
748.253	10.2274
751.146	2.34402
754.039	0.767609
756.931	9.78348
759.824	3.65372
762.717	27.97
765.609	39.5606
768.502	30.4503
771.395	22.0237
774.288	3.7478
777.18	25.9742
780.073	25.9928
782.966	35.2652
785.858	29.8215
788.751	49.2272
791.644	26.4881
794.536	38.8878
797.429	45.7578
800.322	47.858
803.215	31.6973
806.107	21.5805
809	27.8528
811.893	24.814
814.785	19.2877
817.678	7.53253
820.571	2.06867
823.463	9.97821
826.356	7.73785
829.249	14.1378
832.141	34.744
835.034	21.9902
837.927	27.8651
840.82	32.3553
843.712	4.25253
846.605	41.0215
849.498	32.9049
852.39	60.0557
855.283	61.0878
858.176	86.6859
861.068	71.4419
863.961	60.643
866.854	60.0028
869.747	41.7578
872.639	40.638
875.532	50.9786
878.425	34.5322
881.317	18.155
884.21	15.7241
887.103	1.25916
889.995	0.539856
892.888	8.32744
895.781	23.7185
898.674	21.3867
901.566	10.7345
904.459	4.92529
907.352	25.7466
910.244	35.5075
913.137	9.83337
916.03	13.925
918.923	13.7246
921.815	13.0568
924.708	7.37949
927.601	10.0824
930.493	1.42505
933.386	1.92
936.279	0.46904
939.171	4.75386
942.064	11.4453
944.957	8.97768
947.85	7.698
950.742	4.34499
953.635	9.03435
956.528	20.5504
959.42	15.7636
962.313	14.0838
965.206	12.7446
968.098	3.20898
970.991	7.86842
973.884	33.9451
976.777	16.1703
979.669	13.6535
982.562	33.4355
985.455	3.90903
988.347	15.6915
991.24	17.7512
994.133	19.7416
997.025	1.18082
999.918	3.55801
1002.81	9.09302
1005.7	4.01623
1008.6	12.941
1011.49	22.2281
1014.38	25.2452
1017.27	13.2701
1020.17	22.3606
1023.06	23.8852
1025.95	17.5247
1028.85	10.9116
1031.74	26.5542
1034.63	33.473
1037.52	60.6357
1040.42	84.8357
1043.31	116.547
1046.2	173.685
1049.09	359.822
1051.99	974.423
1054.88	2057.38
1057.77	3865.49
1060.66	5687.58
1063.56	6128.88
1066.45	3250.55
1069.34	1142.57
1072.24	483.717
1075.13	218.312
1078.02	133.895
1080.91	44.7688
1083.81	8.96536
1086.7	9.31384
1089.59	22.0176
1092.48	3.64105
1095.38	6.30432
1098.27	9.92539
1101.16	5.83569
1104.06	14.0257
1106.95	24.6681
1109.84	45.036
1112.73	70.3669
1115.63	106.448
1118.52	165.232
1121.41	84.2047
1124.3	34.8112
1127.2	19.1603
1130.09	8.36423
1132.98	1.88461
1135.88	11.0613
1138.77	0.473541
1141.66	43.6
1144.55	50.1027
1147.45	35.0524
1150.34	37.3443
1153.23	14.3329
1156.12	34.0144
