Measurement: Raman, 532 nm, unoriented, Raman Data Processed
Mineral: Shomiokite-(Y)
Rruff sample: R060670
Ideal chemistry: Na_3_Y(CO_3_)_3_3H_2_O
Locality: Alluaiv Mountain, Lovozero massif, Kola Peninsula, Russia
Source: Michael Scott
Description: Colorless prismatic crystal covered with thin white coating of adamsite-(Y)
Measured chemistry: Na_2.80_(Y_0.81_Gd_0.02_Er_0.01_Sm_0.01_Dy_0.01_Yb_0.01_Eu_0.01_)_Σ=0.88_(CO_3_)_3.09_·2.86H_2_O
Raman shift (cm-1)	intensity
134.716	0
138.091	128.837
141.466	498.733
144.841	756.5
148.215	867.365
151.59	676.759
154.965	481.584
158.34	422.708
161.715	669.513
165.09	1163.09
168.464	1711.95
171.839	1963.91
175.214	1443.97
178.589	1206.59
181.964	1194.58
185.339	1264.45
188.713	1228.88
192.088	1123.11
195.463	1038.23
198.838	867.026
202.213	832.138
205.587	772.89
208.962	665.165
212.337	611.724
215.712	672.706
219.087	701.212
222.462	565.884
225.836	556.51
229.211	492.441
232.586	472.392
235.961	410.937
239.336	420.292
242.71	354.695
246.085	433.812
249.46	549.005
252.835	739.49
256.21	949.474
259.584	1166.34
262.959	1275.12
266.334	1183.35
269.709	924.841
273.084	598.124
276.459	374.687
279.833	208.899
283.208	60.332
286.583	3.08374
289.958	37.0037
293.333	10.4053
296.707	19.9197
300.082	99.1255
303.457	90.6232
306.832	46.8118
310.207	5.81531
313.582	76.01
316.956	143.648
320.331	200.489
323.706	178.709
327.081	179.318
330.456	185.741
333.83	228.068
337.205	272.269
340.58	309.887
343.955	283.657
347.33	304.304
350.705	300.326
354.079	288.061
357.454	288.56
360.829	225.583
364.204	134.169
367.579	105.646
370.954	104.138
374.328	98.6809
377.703	87.8665
381.078	64.6652
384.453	41.3971
387.828	9.14014
391.202	29.4774
394.577	25.2128
397.952	9.37891
401.327	17.7489
404.702	22.002
408.077	16.4747
411.451	26.8922
414.826	28.589
418.201	60.3711
421.576	81.8845
424.951	86.4647
428.325	83.8197
431.7	99.9152
435.075	128.803
438.45	166.693
441.825	145.441
445.2	180.945
448.574	180.28
451.949	199.97
455.324	197.834
458.699	224.455
462.074	193.855
465.448	193.09
468.823	210.799
472.198	160.045
475.573	173.497
478.948	166.326
482.322	159.162
485.697	123.56
489.072	111.934
492.447	79.1375
495.822	63.3549
499.197	64.8195
502.571	74.9919
505.946	66.0842
509.321	51.5618
512.696	40.3415
516.071	16.8806
519.446	17.2666
522.82	20.3372
526.195	1.26465
529.57	32.1393
532.945	19.2862
536.32	12.4808
539.694	10.1603
543.069	18.5879
546.444	10.3458
549.819	10.1447
553.194	3.4812
556.568	10.3744
559.943	12.4435
563.318	21.2415
566.693	7.98669
570.068	35.2573
573.443	8.5459
576.817	1.30029
580.192	20.0298
583.567	22.4773
586.942	29.5465
590.317	27.6019
593.692	4.59351
597.066	42.6671
600.441	64.1797
603.816	105.377
607.191	123.679
610.566	143.899
613.94	153.214
617.315	181.016
620.69	207.681
624.065	190.244
627.44	283.226
630.814	286.709
634.189	260.647
637.564	285.033
640.939	308.156
644.314	309.639
647.689	380.492
651.063	426.656
654.438	458.799
657.813	543.921
661.188	548.686
664.563	615.189
667.938	609.36
671.312	551.874
674.687	505.882
678.062	368.875
681.437	240.44
684.812	116.793
688.186	87.0137
691.561	110.411
694.936	132.441
698.311	215.169
701.686	251.706
705.061	302.505
708.435	387.626
711.81	515.213
715.185	678.477
718.56	919.764
721.935	1201.41
725.309	1486.24
728.684	1667.59
732.059	1390.38
735.434	864.225
738.809	419.999
742.183	155.036
745.558	60.2647
748.933	17.6461
752.308	52.4657
755.683	29.2493
759.058	20.896
762.432	9.5155
765.807	20.9386
769.182	80.9031
772.557	62.8237
775.932	97.1251
779.307	92.6858
782.681	120.497
786.056	132.696
789.431	138.726
792.806	138.709
796.181	93.1426
799.555	87.2268
802.93	79.6948
806.305	64.5139
809.68	55.5676
813.055	61.7221
816.429	47.9083
819.804	34.4889
823.179	4.44592
826.554	5.79553
829.929	15.4128
833.304	68.8639
836.678	36.87
840.053	120.274
843.428	120.615
846.803	163.522
850.178	191.897
853.553	244.823
856.927	271.17
860.302	213.727
863.677	209.377
867.052	183.231
870.427	174.731
873.801	212.248
877.176	191.739
880.551	143.097
883.926	108.123
887.301	87.1505
890.676	108.046
894.05	85.4299
897.425	70.8875
900.8	74.4771
904.175	37.8237
907.55	10.9214
910.924	39.6399
914.299	0.208252
917.674	15.5747
921.049	6.70483
924.424	11.9822
927.798	6.33545
931.173	1.7102
934.548	3.24609
937.923	14.0386
941.298	9.14502
944.673	5.26001
948.047	5.8772
951.422	2.80444
954.797	8.96948
958.172	60.1365
961.547	54.781
964.922	62.7671
968.296	73.0981
971.671	91.6204
975.046	98.6326
978.421	66.9585
981.796	103.964
985.17	78.051
988.545	122.709
991.92	106.82
995.295	99.6733
998.67	124.531
1002.04	99.5169
1005.42	164.574
1008.79	131.572
1012.17	136.374
1015.54	77.062
1018.92	93.8689
1022.29	127.161
1025.67	101.256
1029.04	112.646
1032.42	185.966
1035.79	232.28
1039.17	381.738
1042.54	546.639
1045.92	835.768
1049.29	1920.36
1052.67	5553.21
1056.04	13032.1
1059.42	21587.5
1062.79	23287.9
1066.17	9841.39
1069.54	2726.66
1072.92	1094.25
1076.29	510.725
1079.66	246.547
1083.04	103.137
1086.41	67.9199
1089.79	2.69849
1093.16	60.4895
1096.54	5.19189
1099.91	27.4294
1103.29	16.4705
1106.66	52.1848
1110.04	85.1565
1113.41	298.114
1116.79	395.601
1120.16	211.477
1123.54	79.7231
1126.91	23.4858
1130.29	10.0447
1133.66	12.8574
1137.04	7.14478
1140.41	19.7331
1143.79	20.8909
1147.16	25.2368
1150.54	15.1892
1153.91	24.6282
1157.29	68.1023
1160.66	17.4856
1164.04	28.4414
1167.41	58.281
1170.79	20.2393
1174.16	53.4885
1177.54	51.3086
1180.91	41.2798
1184.29	73.4463
1187.66	44.4368
1191.03	70.0215
1194.41	39.4111
1197.78	69.4504
1201.16	35.1084
1204.53	15.1819
1207.91	54.7134
1211.28	36.5418
1214.66	33.9414
1218.03	22.1216
1221.41	13.6038
1224.78	52.9434
1228.16	28.0334
1231.53	53.0925
1234.91	24.8201
1238.28	41.4233
1241.66	26.8564
1245.03	42.5608
1248.41	53.9226
1251.78	51.3794
1255.16	43.9158
1258.53	51.6782
1261.91	43.1492
1265.28	50.928
1268.65	54.5449
1272.03	36.3672
1275.4	42.769
1278.78	42.1758
1282.15	0.906982
1285.53	13.2524
1288.9	6.27466
1292.28	0.000244
1295.65	11.5566
