Measurement: Raman, 514 nm, unoriented, Raman Data Processed
Mineral: Shortite
Rruff sample: R040184
Ideal chemistry: Na_2_Ca_2_(CO_3_)_3_
Locality: Green River, Wyoming, USA
Source: University of Arizona Mineral Museum
Description: Colorless single crystal fragments
Measured chemistry: (Na_1.47_Ca_0.27_[box]_0.26_)_Î£=2_Ca_2.00_(CO_3_)_3_
Raman shift (cm-1)	intensity
128.146	0
132.309	229.001
136.47	223.788
140.63	225.378
144.787	1.913
148.942	15.874
153.096	146.066
157.247	90.582
161.396	315.086
165.544	787.057
169.689	1078.27
173.833	752.977
177.974	358.062
182.114	153.514
186.251	63.368
190.387	174.504
194.52	486.478
198.652	861.408
202.782	1116.47
206.909	802.23
211.035	356.569
215.159	162.397
219.281	188.145
223.4	41.478
227.518	155.025
231.634	257.016
235.748	212.414
239.86	202.312
243.97	372.896
248.079	446.623
252.185	516.475
256.289	1019.43
260.391	1275.57
264.492	1261.92
268.59	695.352
272.687	595.503
276.781	235.542
280.874	184.259
284.964	309.529
289.053	180.94
293.14	176.26
297.225	67.354
301.308	16.609
305.389	17.985
309.468	5.973
313.545	103.364
317.62	80.999
321.693	19.142
325.765	158.13
329.834	22.82
333.902	102.428
337.967	161.625
342.031	80.932
346.093	139.187
350.153	29.513
354.21	140.804
358.267	182.196
362.321	11.174
366.373	131.602
370.423	218.042
374.471	98.493
378.518	76.988
382.563	117.528
386.605	74.243
390.646	30.886
394.685	182.14
398.722	314.184
402.757	193.427
406.79	180.46
410.821	49.727
414.851	23.882
418.878	16.646
422.904	279.677
426.927	237.92
430.949	53.085
434.969	250.008
438.987	49.272
443.003	36.449
447.018	177.99
451.03	170.985
455.041	159.779
459.049	38.075
463.056	93.27
467.061	234.553
471.064	100.042
475.065	134.353
479.064	84.321
483.062	248.044
487.057	158.911
491.051	228.22
495.043	87.562
499.032	56.508
503.02	52.478
507.007	114.455
510.991	122.473
514.973	179.162
518.954	307.462
522.933	298.924
526.91	124.333
530.885	97.625
534.858	54.617
538.829	112.739
542.799	36.782
546.766	212.78
550.732	90.095
554.696	12.685
558.658	197.162
562.618	15.546
566.576	154.819
570.533	242.882
574.488	46.962
578.44	104.461
582.391	226.462
586.341	172.631
590.288	250.664
594.233	33.902
598.177	258.92
602.119	139.473
606.059	102.637
609.997	68.721
613.933	243.676
617.868	67.799
621.801	164.539
625.731	143.35
629.66	447.393
633.588	432.656
637.513	83.977
641.437	179.371
645.358	306.137
649.278	195.184
653.196	131.9
657.113	230.729
661.027	144.709
664.94	217.576
668.851	256.326
672.76	77.934
676.667	254.889
680.572	181.121
684.476	275.176
688.378	120.273
692.278	378.758
696.176	657.088
700.072	272.807
703.967	172.74
707.86	849.217
711.751	1318.08
715.64	735.082
719.527	448.832
723.413	301.422
727.297	222.504
731.179	439.053
735.059	158.404
738.937	271.287
742.814	10.406
746.689	263.854
750.562	95.777
754.433	120.525
758.303	101.398
762.17	154.939
766.036	238.936
769.901	86.873
773.763	40.834
777.624	218.893
781.482	129.812
785.339	121.461
789.195	0.459
793.048	184.461
796.9	107.145
800.75	89.213
804.598	66.34
808.445	335.162
812.289	135.664
816.132	98.361
819.973	42.945
823.813	221.02
827.65	148.229
831.486	244.834
835.32	125.037
839.152	195.699
842.983	304.273
846.812	313.141
850.639	101.803
854.464	190.686
858.288	349.26
862.11	91.246
865.93	357.615
869.748	325.801
873.564	300.061
877.379	243.348
881.192	232.396
885.004	273.137
888.813	226.691
892.621	313.014
896.427	214.023
900.232	113.264
904.034	130.582
907.835	245.869
911.634	224.055
915.432	223.646
919.227	5.092
923.021	215.109
926.813	210.688
930.604	29.934
934.393	103.891
938.18	41.445
941.965	184.873
945.749	66.568
949.53	242.91
953.311	278.105
957.089	258.029
960.866	198.963
964.641	53.633
968.414	150.926
972.185	270.359
975.955	71.939
979.723	9.584
983.49	89.332
987.254	191.879
991.017	531.27
994.779	300.305
998.538	235.822
1002.3	535.301
1006.05	103.277
1009.81	262.723
1013.56	399.465
1017.31	268.422
1021.06	218.312
1024.81	182.105
1028.55	274.77
1032.3	407.734
1036.04	538.604
1039.78	437.508
1043.52	632.102
1047.26	530.943
1050.99	858.033
1054.73	656.836
1058.46	681.908
1062.19	539.912
1065.92	665.324
1069.65	2644.7
1073.37	4592.69
1077.1	1122.06
1080.82	1018.27
1084.54	1387.99
1088.26	9043.16
1091.97	38396.3
1095.69	3810.78
1099.4	860.619
1103.12	215.805
1106.83	440.225
1110.54	190.969
1114.24	230.059
1117.95	182.895
1121.65	55.217
1125.35	450.928
1129.06	213.65
1132.75	269.758
1136.45	36.439
1140.15	317.209
1143.84	30.25
1147.53	62.652
1151.22	162.637
1154.91	239.494
1158.6	15.104
1162.28	323.461
1165.97	241.273
1169.65	262.498
1173.33	157.781
1177.01	330.906
1180.69	319.189
1184.36	356.508
1188.04	404.018
1191.71	332.752
1195.38	242.355
1199.05	454.533
1202.71	211.256
1206.38	403.686
1210.04	129.564
1213.71	412.713
1217.37	411.031
1221.03	255.227
1224.68	86.904
1228.34	286.809
1231.99	358.256
1235.65	318.531
1239.3	345.883
1242.95	506.066
1246.59	249.09
1250.24	155.357
1253.88	317.764
1257.53	275.15
1261.17	286.727
1264.81	302.178
1268.45	196.088
1272.08	153.945
1275.72	247.451
1279.35	132.547
1282.98	287.494
1286.61	481.586
1290.24	350.619
1293.87	136.287
1297.49	46.098
1301.11	43.385
1304.73	51.506
1308.36	12.314
1311.97	295.982
1315.59	52.438
1319.2	271.496
1322.82	91.691
1326.43	18.576
1330.04	172.574
1333.65	194.326
1337.26	179.795
1340.86	313.105
1344.47	185.969
1348.07	354.113
1351.67	305.391
1355.27	706.754
1358.87	569.555
1362.46	498.582
1366.06	636.441
1369.65	601.137
1373.24	669.27
1376.83	476.598
1380.42	305.027
1384	352.297
1387.59	449.855
1391.17	297.816
1394.75	268.477
1398.33	252.547
1401.91	217.902
1405.49	324.352
1409.06	124
1412.64	245.887
1416.21	563.625
1419.78	351.125
1423.35	419.828
1426.91	562.305
1430.48	264.566
1434.05	252.676
1437.61	590.586
1441.17	255.988
1444.73	176.586
1448.29	0
