Measurement: Raman, 514 nm, unoriented, Raman Data Processed
Mineral: Shortite
Rruff sample: R050248
Ideal chemistry: Na_2_Ca_2_(CO_3_)_3_
Locality: Stauffer mine, Green River, Wyoming, USA
Source: Marcus Origlieri
Description: Colorless wedge-shaped single crystal
Measured chemistry: Na_2.00_Ca_2.00_(CO_3_)_3_ ; CO2 not measured but estimated by difference and stoichiometry.
Raman shift (cm-1)	intensity
103.124	0
107.3	6.871
111.473	52.399
115.644	229.332
119.813	153.532
123.981	521.298
128.146	1356.96
132.309	1609.22
136.47	2032.57
140.63	1532.01
144.787	617.812
148.942	617.421
153.096	991.266
157.247	791.009
161.396	458.437
165.544	354.362
169.689	375.612
173.833	363.091
177.974	252.633
182.114	461.269
186.251	477.215
190.387	618.297
194.52	793.526
198.652	1046.52
202.782	990.703
206.909	1014.5
211.035	722.002
215.159	328.063
219.281	230.708
223.4	318.602
227.518	286.987
231.634	224.732
235.748	310.801
239.86	266.907
243.97	239.594
248.079	387.712
252.185	784.115
256.289	937.703
260.391	1538.9
264.492	3407.91
268.59	3409.99
272.687	1502.73
276.781	727.28
280.874	459.405
284.964	195.369
289.053	179.172
293.14	28.303
297.225	127.533
301.308	153.294
305.389	107.492
309.468	176.062
313.545	141.185
317.62	86.688
321.693	19.399
325.765	4.354
329.834	0.554
333.902	12.047
337.967	126.277
342.031	169.051
346.093	72.263
350.153	184.32
354.21	63.502
358.267	117.801
362.321	188.219
366.373	172.75
370.423	66.41
374.471	48.159
378.518	193.944
382.563	241.821
386.605	106.035
390.646	108.188
394.685	82.164
398.722	126.182
402.757	7.683
406.79	52.637
410.821	194.774
414.851	197.489
418.878	67.422
422.904	31.887
426.927	41.106
430.949	16.45
434.969	117.049
438.987	190.247
443.003	9.245
447.018	119.075
451.03	34.741
455.041	110.05
459.049	7.446
463.056	139.404
467.061	201.99
471.064	96.349
475.065	57.103
479.064	246.414
483.062	147.828
487.057	93.367
491.051	112.688
495.043	72.174
499.032	197.256
503.02	236.461
507.007	167.555
510.991	148.184
514.973	264.828
518.954	269.695
522.933	175.178
526.91	24.377
530.885	297.211
534.858	212.111
538.829	105.189
542.799	287.1
546.766	238.178
550.732	260.322
554.696	135.48
558.658	264.926
562.618	291.201
566.576	264.121
570.533	270.312
574.488	301.213
578.44	21.287
582.391	16.453
586.341	56.244
590.288	317.555
594.233	173.705
598.177	41.516
602.119	214.236
606.059	285.746
609.997	202.521
613.933	52.502
617.868	189.799
621.801	4.35
625.731	290.842
629.66	33.1
633.588	112.18
637.513	212.703
641.437	369.771
645.358	97.461
649.278	261.666
653.196	353.551
657.113	84.133
661.027	274.104
664.94	334.682
668.851	126.871
672.76	142.479
676.667	80.357
680.572	146.672
684.476	318.293
688.378	93.332
692.278	588.031
696.176	789.32
700.072	454.965
703.967	17.268
707.86	668.484
711.751	192.744
715.64	399.732
719.527	411.141
723.413	392.916
727.297	717.797
731.179	1896.28
735.059	259.021
738.937	278.734
742.814	233.99
746.689	327.02
750.562	40.104
754.433	230.182
758.303	345.4
762.17	17.482
766.036	27.625
769.901	188.896
773.763	269.338
777.624	102.615
781.482	194.086
785.339	56.859
789.195	233.666
793.048	310.826
796.9	222.43
800.75	87.762
804.598	399.881
808.445	224.213
812.289	5.578
816.132	181.826
819.973	164.355
823.813	379.531
827.65	84.779
831.486	221.832
835.32	154.287
839.152	61.398
842.983	122.799
846.812	56.021
850.639	220.314
854.464	289.375
858.288	159.117
862.11	442.129
865.93	185.031
869.748	118.902
873.564	218.07
877.379	147.633
881.192	233.74
885.004	104.986
888.813	598.971
892.621	356.461
896.427	295.91
900.232	153.922
904.034	431.197
907.835	429.947
911.634	111.359
915.432	646.479
919.227	381.98
923.021	308.061
926.813	136.527
930.604	438.494
934.393	275.455
938.18	588.141
941.965	479.943
945.749	191.586
949.53	267.848
953.311	285.33
957.089	226.686
960.866	341.881
964.641	205.814
968.414	112.828
972.185	68.414
975.955	336.035
979.723	368.084
983.49	458.781
987.254	279.133
991.017	443.637
994.779	396.791
998.538	448.658
1002.3	143.855
1006.05	403.348
1009.81	474.781
1013.56	454.264
1017.31	626.047
1021.06	419.982
1024.81	697.285
1028.55	430.629
1032.3	386.705
1036.04	356.396
1039.78	622.084
1043.52	531.582
1047.26	614.072
1050.99	653.354
1054.73	576.094
1058.46	622.416
1062.19	936.34
1065.92	1602.68
1069.65	11684.1
1073.37	8446.65
1077.1	1361.08
1080.82	915.531
1084.54	1394.56
1088.26	7804.54
1091.97	14985.2
1095.69	1375.04
1099.4	527.379
1103.12	471.617
1106.83	13.775
1110.54	362.227
1114.24	278.541
1117.95	305.672
1121.65	244.764
1125.35	202.988
1129.06	37.021
1132.75	148.67
1136.45	574.496
1140.15	172.344
1143.84	26.051
1147.53	293.168
1151.22	78.188
1154.91	162.031
1158.6	146.633
1162.28	239.016
1165.97	366.281
1169.65	312.074
1173.33	248.336
1177.01	338.754
1180.69	50.098
1184.36	672.559
1188.04	395.152
1191.71	448.52
1195.38	241.062
1199.05	262.402
1202.71	756.723
1206.38	575.309
1210.04	247.828
1213.71	442.895
1217.37	480.348
1221.03	566.395
1224.68	248.996
1228.34	237.137
1231.99	375.832
1235.65	331.211
1239.3	197.461
1242.95	588.176
1246.59	504.988
1250.24	563.586
1253.88	360.797
1257.53	74.188
1261.17	188.594
1264.81	203.238
1268.45	367.258
1272.08	308.414
1275.72	292.152
1279.35	375.723
1282.98	302.227
1286.61	229.906
1290.24	191.027
1293.87	313.848
1297.49	90.789
1301.11	278.859
1304.73	122.613
1308.36	300.59
1311.97	152.492
1315.59	632.309
1319.2	60.34
1322.82	41.641
1326.43	697.656
1330.04	223.996
1333.65	178.281
1337.26	355.453
1340.86	424.293
1344.47	263.793
1348.07	592.516
1351.67	509.957
1355.27	673.727
1358.87	635.434
1362.46	288.242
1366.06	421.809
1369.65	358.359
1373.24	0.148
1376.83	123.105
1380.42	429.992
1384	393.305
1387.59	0
