Measurement: Raman, 780 nm, unoriented, Raman Data Processed
Mineral: Shortite
Rruff sample: R050248
Ideal chemistry: Na_2_Ca_2_(CO_3_)_3_
Locality: Stauffer mine, Green River, Wyoming, USA
Source: Marcus Origlieri
Description: Colorless wedge-shaped single crystal
Measured chemistry: Na_2.00_Ca_2.00_(CO_3_)_3_ ; CO2 not measured but estimated by difference and stoichiometry.
Raman shift (cm-1)	intensity
92.3535	0
95.7283	24.2328
99.1031	17.962
102.478	1.10346
105.853	5.04657
109.228	39.1672
112.602	82.204
115.977	114.487
119.352	188.234
122.727	225.805
126.102	314.305
129.476	499.068
132.851	557.591
136.226	472.371
139.601	523.288
142.976	253.331
146.351	222.25
149.725	273.103
153.1	369.419
156.475	338.643
159.85	130.438
163.225	70.6535
166.6	68.422
169.974	93.4396
173.349	71.2288
176.724	47.197
180.099	84.5212
183.474	140.902
186.848	130.894
190.223	149.948
193.598	163.595
196.973	198.674
200.348	215.496
203.722	217.402
207.097	154.744
210.472	98.253
213.847	39.6692
217.222	9.32794
220.596	8.32233
223.971	12.3594
227.346	0.875793
230.721	14.5571
234.096	42.1785
237.471	88.3959
240.845	155.702
244.22	280.459
247.595	479.09
250.97	635.974
254.345	778.884
257.719	938.686
261.094	1133.32
264.469	1388.27
267.844	1351.86
271.219	704.051
274.594	319.991
277.968	175.598
281.343	98.1874
284.718	59.913
288.093	33.5
291.468	17.7856
294.842	10.9915
298.217	4.07843
301.592	0.418396
304.967	0.469116
308.342	2.32275
311.717	11.7034
315.091	24.5851
318.466	40.0542
321.841	51.7695
325.216	58.0372
328.591	62.6434
331.966	59.5606
335.34	53.8896
338.715	52.4233
342.09	41.7966
345.465	27.5618
348.839	19.759
352.214	7.74817
355.589	0.912292
358.964	2.90472
362.339	5.11035
365.714	0.032532
369.088	7.37555
372.463	16.2852
375.838	30.8226
379.213	40.351
382.588	48.3651
385.962	50.0367
389.337	45.9409
392.712	31.8029
396.087	21.4079
399.462	18.2978
402.837	16.0095
406.211	10.0337
409.586	12.9854
412.961	13.0159
416.336	10.3524
419.711	7.41736
423.086	7.61963
426.46	1.6275
429.835	3.17194
433.21	2.13269
436.585	0.506958
439.96	1.69806
443.334	3.74139
446.709	5.59558
450.084	6.19336
453.459	4.24194
456.834	5.3606
460.209	4.0343
463.583	12.3436
466.958	11.9026
470.333	14.2245
473.708	16.506
477.083	15.0685
480.457	15.5984
483.832	14.2019
487.207	11.7962
490.582	12.9048
493.957	8.45343
497.332	3.28943
500.706	5.67328
504.081	4.09003
507.456	4.67456
510.831	0.941833
514.206	0.236328
517.58	1.84656
520.955	0.552185
524.33	0.885864
527.705	0.912292
531.08	0.193359
534.455	2.78674
537.829	0.699036
541.204	0.023376
544.579	0.771759
547.954	0.781586
551.329	3.74908
554.703	2.67758
558.078	4.72742
561.453	3.23199
564.828	3.60483
568.203	4.26035
571.577	4.70511
574.952	8.11319
578.327	8.06961
581.702	9.57217
585.077	6.02307
588.452	7.50836
591.826	12.2303
595.201	11.1167
598.576	12.0317
601.951	10.6179
605.326	12.1891
608.7	12.1488
612.075	11.2447
615.45	11.3408
618.825	11.1678
622.2	8.16467
625.574	9.40881
628.949	5.7728
632.324	4.35593
635.699	3.37515
639.074	4.138
642.448	2.2843
645.823	0.312042
649.198	0.932129
652.573	1.55524
655.948	0.24118
659.323	0.957947
662.697	1.12942
666.072	2.7691
669.447	5.78912
672.822	2.10165
676.197	9.40619
679.572	40.3399
682.946	49.3932
686.321	64.4851
689.696	96.5881
693.071	173.553
696.446	173.39
699.82	42.7968
703.195	42.3441
706.57	64.6869
709.945	102.405
713.32	64.2123
716.694	98.1183
720.069	79.1428
723.444	98.1159
726.819	164.387
730.194	329.13
733.569	62.1612
736.943	7.73093
740.318	1.91992
743.693	0.004883
747.068	1.56641
750.443	2.64853
753.817	0.027863
757.192	1.13058
760.567	1.91046
763.942	1.66696
767.317	0.840515
770.692	0.325623
774.066	1.33673
777.441	1.61893
780.816	1.04739
784.191	3.05795
787.566	1.87189
790.941	3.40677
794.315	2.61124
797.69	2.67496
801.065	1.46167
804.44	2.70508
807.815	2.98563
811.189	2.04294
814.564	0.15683
817.939	0.657562
821.314	1.56735
824.689	0.718567
828.063	1.75018
831.438	0.137177
834.813	0.406769
838.188	1.97781
841.563	3.14691
844.938	4.53946
848.312	5.86118
851.687	5.82715
855.062	6.96024
858.437	10.3101
861.812	13.0868
865.187	16.6729
868.561	9.07696
871.936	10.7047
875.311	4.77743
878.686	8.17087
882.061	9.63507
885.435	10.9738
888.81	13.6291
892.185	11.5959
895.56	15.2636
898.935	17.4324
902.309	17.4969
905.684	12.3482
909.059	17.7333
912.434	16.8634
915.809	19.8102
919.183	20.8677
922.558	19.4518
925.933	22.5638
929.308	22.3768
932.683	20.2062
936.058	16.9008
939.432	13.1476
942.807	14.2064
946.182	7.55624
949.557	8.34866
952.932	10.4364
956.307	6.03857
959.681	4.52609
963.056	1.38522
966.431	2.62289
969.806	2.94232
973.181	2.74213
976.555	0.155365
979.93	1.83404
983.305	1.70371
986.68	2.22284
990.055	0.412109
993.429	2.20526
996.804	9.2e-05
1000.18	1.11597
1003.55	0.236206
1006.93	0.557709
1010.3	0.980591
1013.68	0.089874
1017.05	0.348511
1020.43	0.61615
1023.8	0.686493
1027.18	1.67133
1030.55	0.962891
1033.93	0.020599
1037.3	2.37079
1040.68	5.44125
1044.05	8.56885
1047.43	15.0714
1050.8	30.7341
1054.18	64.1278
1057.55	395.644
1060.93	560.807
1064.3	919.167
1067.67	1512.79
1071.05	2457.79
1074.42	352.373
1077.8	626.4
1081.17	662.583
1084.55	1132.44
1087.92	1878.93
1091.3	1977.56
1094.67	116.616
1098.05	32.7824
1101.42	17.1748
1104.8	10.1175
1108.17	7.44302
1111.55	6.74313
1114.92	4.32178
1118.3	7.65356
1121.67	7.64136
1125.05	12.5605
1128.42	18.5517
1131.8	26.3537
1135.17	29.6524
1138.55	26.7374
1141.92	30.6018
1145.3	29.5844
1148.67	26.4657
1152.05	30.0775
1155.42	27.9074
1158.8	25.5252
1162.17	23.5634
1165.55	21.211
1168.92	18.3133
1172.3	13.0341
1175.67	8.91449
1179.04	4.29834
1182.42	5.12537
1185.79	9.51611
1189.17	6.98572
1192.54	1.7713
1195.92	10.3153
1199.29	23.7066
1202.67	40.4073
1206.04	50.4277
1209.42	57.522
1212.79	67.1299
1216.17	98.0584
1219.54	145.329
1222.92	233.584
1226.29	367.719
1229.67	556.799
1233.04	785.052
1236.42	1032.34
1239.79	1260.73
1243.17	1407.19
1246.54	1409.77
1249.92	1257.38
1253.29	1028.56
1256.66	760.629
1260.04	486.401
1263.41	269.202
1266.79	108.053
1270.16	18.8903
1273.54	0.873657
1276.91	23.2025
1280.29	4.58594
