Measurement: Raman, 785 nm, unoriented, Raman Data Processed
Mineral: Shortite
Rruff sample: R040184
Ideal chemistry: Na_2_Ca_2_(CO_3_)_3_
Locality: Green River, Wyoming, USA
Source: University of Arizona Mineral Museum
Description: Colorless single crystal fragments
Measured chemistry: (Na_1.47_Ca_0.27_[box]_0.26_)_Î£=2_Ca_2.00_(CO_3_)_3_
Raman shift (cm-1)	intensity
167.785	0
170.677	676.787
173.57	512.115
176.463	107.689
179.356	41.6973
182.248	90.2539
185.141	346.217
188.034	556.986
190.926	743.266
193.819	1051.21
196.712	1344.34
199.604	1892.85
202.497	2214.37
205.39	2084.8
208.282	1412.87
211.175	1022.16
214.068	754.148
216.961	697.143
219.853	753.41
222.746	878.922
225.639	833.279
228.531	699.564
231.424	613.863
234.317	692.098
237.209	716.467
240.102	823.59
242.995	885.514
245.888	1099.41
248.78	1137.27
251.673	1402.41
254.566	1601.4
257.458	1804.78
260.351	2171.8
263.244	2271.73
266.137	1974.12
269.029	1346.36
271.922	855.746
274.815	460.084
277.707	371.725
280.6	204.596
283.493	142.207
286.385	249.606
289.278	139.461
292.171	99.1387
295.063	148.805
297.956	16.7871
300.849	81.9609
303.742	254.01
306.634	354.844
309.527	288.027
312.42	259.203
315.312	262.176
318.205	79.7988
321.098	74.2422
323.99	1.18359
326.883	114.551
329.776	48.4805
332.669	93.9238
335.561	48.3828
338.454	9.87695
341.347	97.4258
344.239	114.519
347.132	26.1348
350.025	7.32812
352.918	87.3047
355.81	119.273
358.703	26.9375
361.596	38.1445
364.488	107.594
367.381	19.25
370.274	3.32812
373.166	71.75
376.059	157.894
378.952	137.119
381.844	24.2988
384.737	8.80078
387.63	56.8867
390.523	25.5117
393.415	244.174
396.308	81.25
399.201	240.67
402.093	235.477
404.986	228.801
407.879	171.602
410.772	134.004
413.664	239.668
416.557	277.658
419.45	249.606
422.342	207.684
425.235	240.613
428.128	107.035
431.02	120.971
433.913	159.898
436.806	147.164
439.699	158.115
442.591	139.506
445.484	124.99
448.377	144.502
451.269	93.4023
454.162	72.9785
457.055	63.3594
459.947	12.9473
462.84	110.338
465.733	129.731
468.625	120.691
471.518	102.361
474.411	131.488
477.304	166.092
480.196	60.7051
483.089	122.973
485.982	122.426
488.874	104.853
491.767	149.971
494.66	143.553
497.553	166.467
500.445	180.295
503.338	187.066
506.231	76.2305
509.123	185.736
512.016	110.019
514.909	34.4727
517.802	116
520.694	111.041
523.587	147.451
526.48	92.3477
529.372	116.152
532.265	141.988
535.158	173.897
538.05	126.863
540.943	153.147
543.836	21.207
546.729	7.21484
549.621	16.127
552.514	42.3262
555.407	39.0234
558.299	165.279
561.192	95.3691
564.085	39.5645
566.977	63.4922
569.87	116.523
572.763	86.5176
575.655	77.1406
578.548	26.3398
581.441	212.809
584.333	57.4531
587.226	79.584
590.119	146.643
593.012	81.5156
595.904	133.01
598.797	119.908
601.69	172.336
604.582	132.299
607.475	31.416
610.368	161.701
613.26	38.1758
616.153	30.2559
619.046	63.5625
621.939	35.3242
624.831	96.1816
627.724	103.769
630.617	156.986
633.509	59.6426
636.402	70.4473
639.295	49.5898
642.188	0.0625
645.08	83.0293
647.973	54.248
650.866	105.463
653.758	16.9355
656.651	43.1621
659.544	22.2383
662.436	38.4316
665.329	72.0488
668.222	94.6328
671.115	5.24023
674.007	80.2168
676.9	91.7949
679.793	38.7832
682.685	109.701
685.578	68.2832
688.471	171.751
691.363	150.275
694.256	319.497
697.149	279.021
700.042	239.154
702.934	358.238
705.827	425.329
708.72	736.69
711.612	789.037
714.505	708.752
717.398	799.308
720.29	518.234
723.183	212.344
726.076	130.076
728.968	351.511
731.861	503.596
734.754	127.09
737.647	72.5508
740.539	48.707
743.432	49.2764
746.325	38.6426
749.217	29.3818
752.11	37.8242
755.003	62.1826
757.895	38.5674
760.788	24.9922
763.681	86.458
766.574	87.4853
769.466	17.374
772.359	89.0938
775.252	20.6807
778.144	45.9473
781.037	15.8574
783.93	64.6211
786.822	119.532
789.715	75.0938
792.608	90.9033
795.501	44.6113
798.393	119.74
801.286	54.9648
804.179	67.7949
807.071	26.4395
809.964	112.161
812.857	27.5234
815.75	93.5596
818.642	22.8604
821.535	101.144
824.428	106.014
827.32	58.3203
830.213	3.33008
833.106	127.192
835.998	39.7344
838.891	115.264
841.784	131.943
844.677	188.792
847.569	61.4912
850.462	65.6572
853.355	120.181
856.247	200.434
859.14	124.228
862.033	198.463
864.925	94.5
867.818	151.382
870.711	65.7471
873.604	116.156
876.496	46.8232
879.389	90.9766
882.282	43.6299
885.174	37.3447
888.067	105.141
890.96	53.9307
893.852	67.9268
896.745	8.77344
899.638	72.8086
902.53	70.792
905.423	45.917
908.316	37.6934
911.209	41.0371
914.101	10.8262
916.994	94.9404
919.887	33.916
922.779	38.4951
925.672	22.0234
928.565	23.458
931.457	38.8975
934.35	98.4365
937.243	64.3916
940.136	59.4014
943.028	21.7002
945.921	14.5234
948.814	83.542
951.706	52.8603
954.599	73.8066
957.492	1.10254
960.385	21.4326
963.277	150.389
966.17	42.0352
969.063	65.9717
971.955	2.72754
974.848	35.8037
977.741	1.87695
980.633	75.9883
983.526	133.601
986.419	58.874
989.312	54.9522
992.204	6.99023
995.097	90.9268
997.99	24.3906
1000.88	82.6865
1003.77	28.6162
1006.67	60.2871
1009.56	140.25
1012.45	130.231
1015.35	97.0644
1018.24	23.4775
1021.13	150.309
1024.02	101.785
1026.92	135.576
1029.81	71.0234
1032.7	28.2979
1035.6	87.5459
1038.49	29.5
1041.38	29.624
1044.27	78.7695
1047.17	63.084
1050.06	77.1963
1052.95	122.419
1055.84	76.6191
1058.74	215.314
1061.63	330.775
1064.52	911.835
1067.41	1669.38
1070.31	4205.53
1073.2	2175.63
1076.09	665.723
1078.98	582.005
1081.88	1998.47
1084.77	3572.15
1087.66	8530.84
1090.56	15741.8
1093.45	3625.11
1096.34	560.446
1099.23	138.279
1102.13	99.4248
1105.02	0.336914
1107.91	0.65332
1110.81	38.8584
1113.7	142.475
1116.59	151.428
1119.48	54.7803
1122.38	155.434
1125.27	162.107
1128.16	123.191
1131.05	131.678
1133.95	73.999
1136.84	141.801
1139.73	1.46094
