Measurement: Raman, 532 nm, unoriented, Raman Data Processed
Mineral: Shortite
Rruff sample: R040184
Ideal chemistry: Na_2_Ca_2_(CO_3_)_3_
Locality: Green River, Wyoming, USA
Source: University of Arizona Mineral Museum
Description: Colorless single crystal fragments
Measured chemistry: (Na_1.47_Ca_0.27_[box]_0.26_)_Î£=2_Ca_2.00_(CO_3_)_3_
Raman shift (cm-1)	intensity
157.376	0
160.268	20.1738
163.161	211.453
166.054	648.213
168.946	1466.24
171.839	1498.05
174.732	644.996
177.625	192.386
180.517	36.5225
183.41	49.1299
186.303	128.783
189.195	300.618
192.088	477.565
194.981	821.141
197.874	1375.22
200.766	1870.89
203.659	2285.45
206.552	1562.21
209.444	740.187
212.337	406.073
215.23	171.299
218.122	124.751
221.015	88.0322
223.908	96.2812
226.8	109.191
229.693	259.934
232.586	277.38
235.479	396.732
238.371	405.976
241.264	405.459
244.157	584.044
247.049	787.516
249.942	1107.05
252.835	1480.77
255.727	1930.29
258.62	2443.79
261.513	2994.84
264.406	2861.92
267.298	1993.4
270.191	1211.25
273.084	750.97
275.976	488.796
278.869	335.842
281.762	266.403
284.655	142.631
287.547	79.124
290.44	53.2207
293.333	7.50391
296.225	67.3838
299.118	11.9531
302.011	6.98535
304.904	24.5156
307.796	22.4688
310.689	56.7022
313.582	35.5244
316.474	58.5371
319.367	46.4736
322.26	1.09961
325.152	8.97266
328.045	0.169922
330.938	5.80078
333.83	49.833
336.723	118.748
339.616	28.8359
342.509	104.559
345.401	20.1699
348.294	104.14
351.187	190.37
354.079	72.1182
356.972	119.628
359.865	100.374
362.757	152.325
365.65	214.546
368.543	79.8545
371.436	71.2295
374.328	39.3252
377.221	126.402
380.114	79.0752
383.006	96.7031
385.899	72.5264
388.792	93.0713
391.685	99.6992
394.577	146.327
397.47	72.6494
400.363	76.5801
403.255	44.6221
406.148	19.9922
409.041	117.607
411.933	31.9883
414.826	67.6231
417.719	91.9316
420.611	5.86133
423.504	3.69922
426.397	75.4727
429.29	36.8105
432.182	125.949
435.075	161.451
437.968	110.129
440.86	105.436
443.753	124.625
446.646	137.842
449.538	133.379
452.431	156.494
455.324	96.4199
458.217	110.666
461.109	57.9492
464.002	117.266
466.895	129.158
469.787	59.7305
472.68	109.055
475.573	153.873
478.466	91.9492
481.358	112.002
484.251	56.8574
487.144	56.252
490.036	143.59
492.929	9.72656
495.822	41.0312
498.714	75.082
501.607	97.4512
504.5	2.12305
507.393	8.68555
510.285	16.6602
513.178	77.3652
516.071	140.164
518.963	34.1035
521.856	61.0625
524.749	61.2344
527.641	136.576
530.534	0.140625
533.427	75.8106
536.32	136.643
539.212	21.1777
542.105	62.1836
544.998	40.125
547.89	96.666
550.783	66.0039
553.676	3.79883
556.568	17.7109
559.461	54.6328
562.354	28.377
565.247	36.0566
568.139	88.5059
571.032	18.0508
573.925	8.42969
576.817	7.56055
579.71	27.0312
582.603	11.957
585.495	66.9707
588.388	80.6055
591.281	32.7031
594.174	51.3594
597.066	21.3301
599.959	99.9824
602.852	131.881
605.744	23.8535
608.637	154.69
611.53	98.0742
614.423	55.5898
617.315	63.8047
620.208	192.287
623.101	46.4355
625.993	97.2383
628.886	151.336
631.779	62.959
634.671	58.6738
637.564	122.178
640.457	201.623
643.35	115.016
646.242	116.721
649.135	55.3574
652.028	79.9863
654.92	90.6211
657.813	63.0176
660.706	85.6992
663.598	65.9824
666.491	58.7617
669.384	13.9668
672.277	66.9277
675.169	67.1367
678.062	22.3379
680.955	85.4082
683.847	42.9707
686.74	127.363
689.633	204.488
692.525	443.258
695.418	716.791
698.311	232.746
701.204	205.406
704.096	465.09
706.989	790.617
709.882	1709.66
712.774	1180.06
715.667	1559.98
718.56	1067.63
721.452	371.049
724.345	373.533
727.238	396.701
730.131	1060.86
733.023	446.332
735.916	53.2578
738.809	78.6504
741.701	80.543
744.594	34.8477
747.487	6.65234
750.38	98.7617
753.272	159.988
756.165	128.594
759.058	39.9023
761.95	7.04102
764.843	65.2031
767.736	105.914
770.628	71.2363
773.521	39.5938
776.414	70.1562
779.307	19.1406
782.199	46.582
785.092	121.223
787.985	57.332
790.877	67.2812
793.77	14.2461
796.663	57.3027
799.555	222.31
802.448	130.066
805.341	48.543
808.234	162.781
811.126	112.117
814.019	70.0117
816.912	148.955
819.804	110.695
822.697	103.184
825.59	43.1699
828.482	92.3789
831.375	132.217
834.268	136.971
837.16	100.424
840.053	86.4043
842.946	138.914
845.839	69.3809
848.731	243.504
851.624	19.9297
854.517	81.1094
857.409	105.834
860.302	160.137
863.195	109.512
866.087	161.668
868.98	119.326
871.873	147.644
874.766	116.322
877.658	17.7559
880.551	168.26
883.444	27.2598
886.337	57.0918
889.229	164.291
892.122	77.8496
895.015	103.912
897.907	70.1016
900.8	51.3965
903.693	31.4512
906.585	20.0977
909.478	115.068
912.371	90.5098
915.264	15.3867
918.156	44.7676
921.049	94.8457
923.942	41.0684
926.834	59.043
929.727	55.8516
932.62	42.5215
935.512	52.4023
938.405	14.5352
941.298	74.0039
944.191	102.82
947.083	51.7793
949.976	92.0898
952.869	111.668
955.761	36.8262
958.654	110.867
961.547	187.08
964.439	81.0059
967.332	87.5664
970.225	50.9688
973.117	32.6094
976.01	89.0527
978.903	142.482
981.796	73.6719
984.688	104.322
987.581	127.529
990.474	8.87695
993.366	157.141
996.259	138.836
999.152	69.0449
1002.04	28.1699
1004.94	104.644
1007.83	8.91406
1010.72	144.043
1013.62	82.0117
1016.51	76.7695
1019.4	28.0723
1022.29	124.725
1025.19	229.062
1028.08	125.666
1030.97	58.1621
1033.86	104.607
1036.76	149.621
1039.65	152.484
1042.54	185.152
1045.43	281.732
1048.33	176.721
1051.22	298.934
1054.11	140.961
1057.01	187.01
1059.9	629.231
1062.79	1394.25
1065.68	3110
1068.58	6392.2
1071.47	11523.1
1074.36	2228.66
1077.26	933.158
1080.15	1803.46
1083.04	5313.01
1085.93	11202.9
1088.83	27159.4
1091.72	18924.8
1094.61	2315.7
1097.5	684.289
1100.4	256.342
1103.29	276.908
1106.18	82.6426
1109.07	22.7754
1111.97	91.584
1114.86	98.1289
1117.75	74.3359
1120.64	75.8594
1123.54	105.769
1126.43	149.756
1129.32	46.2383
1132.22	22.0938
1135.11	62.8516
1138	21.4355
1140.89	64.416
1143.79	145.44
1146.68	2.44727
1149.57	62.1367
1152.46	60.4844
1155.36	113.102
1158.25	215.871
1161.14	131.977
1164.04	83.959
1166.93	153.029
1169.82	160.065
1172.71	1.23242
1175.61	80.2246
1178.5	125.352
1181.39	80.1133
1184.29	69.4668
1187.18	87.5332
1190.07	147.172
1192.96	127.877
1195.86	116.723
1198.75	45.375
1201.64	132.965
1204.53	1.07812
1207.43	171.662
1210.32	42.207
1213.21	8.05859
1216.1	69.3184
1219	43.0645
1221.89	61.3535
1224.78	9.58398
1227.67	33.0039
1230.57	124.404
1233.46	65.4551
1236.35	77.959
1239.25	27.4238
1242.14	136.006
1245.03	109.904
1247.92	50.3223
1250.82	118.082
1253.71	160.606
1256.6	169.115
1259.49	117.59
1262.39	150.014
1265.28	55.7695
1268.17	61.7422
1271.07	79.582
1273.96	83.1523
1276.85	118.049
1279.74	145.139
1282.64	196.797
1285.53	267.441
1288.42	97.8359
1291.32	13.3477
1294.21	157.705
1297.1	219.42
1299.99	52.2207
1302.88	80.7578
1305.78	121.697
1308.67	29.707
