Measurement: Raman, 532 nm, unoriented, Raman Data Processed
Mineral: Shortite
Rruff sample: R050248
Ideal chemistry: Na_2_Ca_2_(CO_3_)_3_
Locality: Stauffer mine, Green River, Wyoming, USA
Source: Marcus Origlieri
Description: Colorless wedge-shaped single crystal
Measured chemistry: Na_2.00_Ca_2.00_(CO_3_)_3_ ; CO2 not measured but estimated by difference and stoichiometry.
Raman shift (cm-1)	intensity
93.7461	0
97.1209	11.3714
100.496	7.71417
103.871	4.25617
107.245	1.18432
110.62	25.1571
113.995	101.063
117.37	204.818
120.745	410.901
124.119	557.636
127.494	754.169
130.869	1326.56
134.244	1581.11
137.619	1799.6
140.994	2011.9
144.368	636.177
147.743	376.583
151.118	406.151
154.493	570.958
157.868	514.195
161.242	270.396
164.617	238.679
167.992	328.913
171.367	417.865
174.742	266.309
178.117	237.354
181.491	445.975
184.866	574.409
188.241	459.021
191.616	549.014
194.991	704.659
198.365	1103.86
201.74	991.707
205.115	900.961
208.49	701.893
211.865	424.51
215.239	175.727
218.614	55.2973
221.989	0.681213
225.364	17.2264
228.739	18.5591
232.114	0.356476
235.488	37.1484
238.863	112.366
242.238	208.494
245.613	350.7
248.988	597.607
252.362	921.846
255.737	1206.98
259.112	1360.81
262.487	1673.35
265.862	2438.54
269.236	2514.61
272.611	1204.06
275.986	518.585
279.361	259.839
282.736	145.254
286.111	78.0623
289.485	41.643
292.86	22.5093
296.235	9.92618
299.61	3.00525
302.985	0.312836
306.36	2.94052
309.734	2.14331
313.109	0.354126
316.484	0.364288
319.859	0.55188
323.234	1.27975
326.608	1.92224
329.983	2.18326
333.358	6.13
336.733	5.79758
340.108	13.1544
343.483	19.7684
346.857	18.9394
350.232	17.0502
353.607	15.7614
356.982	18.7105
360.357	36.4305
363.731	21.2948
367.106	16.627
370.481	17.4119
373.856	15.953
377.231	15.0515
380.606	13.32
383.98	12.8988
387.355	12.0069
390.73	10.5871
394.105	8.10858
397.48	8.56204
400.854	7.79385
404.229	8.37988
407.604	8.48776
410.979	8.86371
414.354	8.97873
417.728	8.66959
421.103	4.06644
424.478	9.15594
427.853	1.85306
431.228	4.30731
434.603	6.10556
437.977	1.40976
441.352	4.6738
444.727	2.54828
448.102	0.593292
451.477	2.26471
454.851	0.202393
458.226	1.19818
461.601	0.57251
464.976	1.97162
468.351	4.36829
471.726	4.2489
475.1	2.72211
478.475	3.89545
481.85	0.84613
485.225	0.357697
488.6	1.01929
491.974	0.571716
495.349	1.70801
498.724	2.90619
502.099	0.585388
505.474	0.033325
508.849	1.57196
512.223	1.75089
515.598	0.574066
518.973	0.983154
522.348	1.80456
525.722	1.42847
529.097	1.04752
532.472	0.562286
535.847	0.229584
539.222	0.724915
542.597	1.25363
545.971	2.32971
549.346	2.23294
552.721	2.62412
556.096	0.468597
559.471	0.645966
562.846	0.091644
566.22	2.02502
569.595	2.2128
572.97	2.52243
576.345	0.81781
579.72	0.836273
583.094	5.2739
586.469	3.73462
589.844	4.00555
593.219	3.12054
596.594	3.24463
599.968	1.9364
603.343	6.00119
606.718	2.92386
610.093	4.21011
613.468	2.97147
616.843	1.28845
620.217	2.21204
623.592	4.47452
626.967	2.29904
630.342	0.324707
633.717	1.19724
637.091	2.34372
640.466	0.142792
643.841	1.05942
647.216	2.69965
650.591	0.128113
653.966	3.29767
657.34	0.874786
660.715	2.15915
664.09	0.048004
667.465	3.87302
670.84	3.71045
674.215	3.30743
677.589	9.83286
680.964	28.5226
684.339	48.3871
687.714	65.5129
691.089	148.056
694.463	277.497
697.838	241.801
701.213	58.0468
704.588	70.1266
707.963	136.029
711.337	232.779
714.712	100.666
718.087	187.411
721.462	200.194
724.837	236.777
728.212	544.965
731.586	846.969
734.961	101.889
738.336	19.943
741.711	8.84988
745.086	6.255
748.46	4.9256
751.835	0.999908
755.21	0.823395
758.585	0.262909
761.96	0.162537
765.335	0.296814
768.709	1.21362
772.084	2.36063
775.459	1.72394
778.834	0.148468
782.209	0.240631
785.583	0.842957
788.958	3.9906
792.333	2.32803
795.708	4.43771
799.083	0.270203
802.457	1.68387
805.832	1.43936
809.207	0.775085
812.582	1.85226
815.957	2.33011
819.332	0.985229
822.706	1.64621
826.081	1.88287
829.456	2.97797
832.831	4.09003
836.206	4.14685
839.58	7.01947
842.955	6.87393
846.33	1.2623
849.705	7.85745
853.08	22.5102
856.455	30.9099
859.829	60.0832
863.204	146.054
866.579	147.656
869.954	19.5352
873.329	11.1437
876.703	8.88358
880.078	9.51373
883.453	6.86804
886.828	6.17084
890.203	7.69855
893.577	7.50879
896.952	7.95547
900.327	5.57349
903.702	6.76996
907.077	7.35996
910.452	3.22134
913.826	5.65222
917.201	0.254089
920.576	3.11798
923.951	4.14539
927.326	2.88187
930.701	1.03726
934.075	0.500397
937.45	0.245087
940.825	1.22797
944.2	0.776123
947.575	3.49078
950.949	2.38916
954.324	0.341553
957.699	1.70837
961.074	0.884155
964.449	2.32135
967.823	0.615784
971.198	3.30414
974.573	0.606445
977.948	1.92035
981.323	0.121033
984.697	2.06427
988.072	1.12176
991.447	0.066895
994.822	0.674866
998.197	1.32153
1001.57	3.59522
1004.95	8.69037
1008.32	13.1701
1011.7	15.819
1015.07	19.6198
1018.45	21.496
1021.82	27.4704
1025.19	37.9511
1028.57	42.9065
1031.94	49.7449
1035.32	60.4976
1038.69	70.7841
1042.07	76.7946
1045.44	82.2949
1048.82	99.3769
1052.19	133.767
1055.57	148.427
1058.94	485.173
1062.32	1020.08
1065.69	1585.77
1069.07	4065.54
1072.44	8494
1075.82	921.38
1079.19	1107.51
1082.57	1569.38
1085.94	2427.11
1089.32	7395.69
1092.69	7752.92
1096.07	440.95
1099.44	144.316
1102.82	71.0708
1106.19	45.2659
1109.57	30.78
1112.94	17.3707
1116.32	10.7133
1119.69	6.62933
1123.07	1.93384
1126.44	0.073059
1129.82	0.189758
1133.19	3.58728
1136.56	5.26154
1139.94	1.05438
1143.31	2.96094
1146.69	0.273438
1150.06	4.68341
1153.44	2.12006
1156.81	4.23383
1160.19	6.46631
1163.56	4.98132
1166.94	4.11523
1170.31	7.09985
1173.69	11.3099
1177.06	7.85803
1180.44	5.51904
1183.81	10.6013
1187.19	10.2313
1190.56	11.2092
1193.94	7.90552
1197.31	5.12445
1200.69	4.30145
1204.06	4.9541
1207.43	7.00403
1210.81	5.38617
1214.18	4.63977
1217.56	7.13593
1220.93	8.49737
1224.31	10.1425
1227.68	8.75256
1231.06	7.31946
1234.43	7.77918
1237.81	6.11243
1241.18	2.2691
1244.56	0.69281
1247.93	6.79431
1251.31	4.38257
1254.68	5.36798
1258.06	3.14313
1261.43	3.76813
1264.81	1.66095
1268.18	3.26086
1271.56	2.23206
1274.93	2.42859
1278.31	1.49829
1281.68	0.920532
1285.06	0.149902
1288.43	0.797913
1291.81	2.40478
1295.18	1.87488
1298.56	4.31848
1301.93	3.90784
1305.31	0
