Measurement: Raman, 532 nm, unoriented, Raman Data Processed
Mineral: Shuiskite
Rruff sample: R070109
Ideal chemistry: Ca_2_MgCr_2_(SiO_4_)(Si_2_O_7_)(OH)_2_H_2_O
Locality: Sarnay, Ural, Russia
Source: Bob Jenkins
Description: Aggregates of brownish-gray fibrous prismatic crystals associated with uvarovite
Raman shift (cm-1)	intensity
135.718	0
139.093	8.84717
142.468	34.5761
145.843	192.693
149.218	414.415
152.593	561.162
155.967	555.483
159.342	425.808
162.717	523.602
166.092	806.019
169.466	803.437
172.841	670.421
176.216	476.02
179.591	455.354
182.966	498.743
186.341	391.772
189.715	30.812
193.09	111.328
196.465	9.98938
199.84	203.202
203.215	494.317
206.589	940.146
209.964	1484.85
213.339	1705.01
216.714	1772.35
220.089	1969.67
223.464	2229.02
226.838	2313.98
230.213	2350.33
233.588	2292.34
236.963	2160.69
240.338	1765.71
243.712	1380.1
247.087	1014.8
250.462	700.584
253.837	460.89
257.212	353.751
260.587	317.013
263.961	317.701
267.336	385.03
270.711	437.534
274.086	555.47
277.461	327.878
280.835	155.752
284.21	49.3464
287.585	17.4954
290.96	52.6575
294.335	79.2512
297.709	53.3225
301.084	190.386
304.459	300.989
307.834	426.471
311.209	531.877
314.584	704.694
317.958	810.059
321.333	745.083
324.708	673.766
328.083	523.447
331.458	524.769
334.832	592.976
338.207	787.74
341.582	1154.32
344.957	1677.66
348.332	2169.27
351.706	2599.25
355.081	2537.03
358.456	2361.06
361.831	2262.35
365.206	2518.46
368.58	2631.36
371.955	2404.88
375.33	1964.24
378.705	1473.06
382.08	1081.04
385.455	760.863
388.829	407.889
392.204	128.202
395.579	12.7852
398.954	2.75342
402.329	85.5286
405.703	188.597
409.078	317.937
412.453	538.1
415.828	794.984
419.203	1035.48
422.577	1152.48
425.952	1165.47
429.327	959.721
432.702	682.609
436.077	476.062
439.452	350.921
442.826	187.563
446.201	19.1262
449.576	26.5549
452.951	81.2422
456.326	75.915
459.7	123.626
463.075	59.6118
466.45	31.0764
469.825	207.149
473.2	424.935
476.575	673.105
479.949	1101.26
483.324	1651.26
486.699	2226.97
490.074	2662.83
493.449	2698.48
496.823	2446.53
500.198	2035.58
503.573	1901.21
506.948	2035.56
510.323	2156.08
513.697	2341.29
517.072	2453.04
520.447	2522.33
523.822	2539.47
527.197	2484.47
530.572	2376.15
533.946	2216.82
537.321	1918.77
540.696	1586.29
544.071	1136.56
547.446	731.865
550.82	444.419
554.195	187.66
557.57	87.7
560.945	89.5962
564.32	220.897
567.694	492.731
571.069	661.964
574.444	797.134
577.819	790.977
581.194	763.085
584.568	798.222
587.943	971.232
591.318	1386.06
594.693	1841.77
598.068	2393.92
601.443	2598.99
604.817	2166.83
608.192	1415.41
611.567	657.299
614.942	304.658
618.317	201.789
621.692	254.024
625.066	306.756
628.441	435.627
631.816	418.31
635.191	381.23
638.566	362.191
641.94	275.393
645.315	130.288
648.69	70.3366
652.065	12.1124
655.44	76.3534
658.814	146.354
662.189	116.982
665.564	15.0696
668.939	204.342
672.314	442.495
675.688	761.792
679.063	1246.75
682.438	1899.28
685.813	2699.74
689.188	3482.33
692.563	3903.83
695.937	3683.89
699.312	2849.73
702.687	1871.91
706.062	1086.19
709.437	700.536
712.811	487.079
716.186	325.705
719.561	245.383
722.936	167.889
726.311	119.099
729.686	118.678
733.06	112.788
736.435	125.7
739.81	118.375
743.185	93.5038
746.56	111.433
749.934	79.4927
753.309	112.314
756.684	125.923
760.059	113.927
763.434	154.274
766.808	115.427
770.183	106.151
773.558	81.3761
776.933	50.2068
780.308	14.1123
783.683	6.27844
787.057	2.37695
790.432	19.8276
793.807	40.5737
797.182	102.148
800.557	204.249
803.931	396.26
807.306	576.768
810.681	627.253
814.056	634.135
817.431	431.289
820.805	247.094
824.18	75.824
827.555	29.8157
830.93	25.3136
834.305	30.2898
837.679	14.8379
841.054	165.257
844.429	275.241
847.804	449.111
851.179	678.244
854.554	859.86
857.928	1033.88
861.303	1109.84
864.678	1177.84
868.053	1080.67
871.428	990.833
874.802	843.023
878.177	709.671
881.552	570.902
884.927	423.981
888.302	319.3
891.677	239.849
895.051	132.157
898.426	29.2554
901.801	18.7673
905.176	42.373
908.551	26.0859
911.925	35.1582
915.3	6.69067
918.675	3.72534
922.05	19.9099
925.425	0.790527
928.799	54.7915
932.174	6.37427
935.549	100.629
938.924	26.1104
942.299	5.48291
945.673	33.4856
949.048	8.32422
952.423	13.2847
955.798	57.6499
959.173	97.2007
962.548	144.193
965.922	315.081
969.297	523.485
972.672	841.405
976.047	1213.24
979.422	1483.38
982.796	1581.53
986.171	1413.66
989.546	1116.15
992.921	921.492
996.296	760.316
999.67	745.704
1003.04	873.763
1006.42	966.195
1009.79	1084.71
1013.17	908.982
1016.54	716.56
1019.92	425.356
1023.29	253.601
1026.67	122.237
1030.04	52.3467
1033.42	9.57935
1036.79	1.85364
1040.17	38.1996
1043.54	42.6954
1046.92	96.8965
1050.29	88.8818
1053.67	133.939
1057.04	161.197
1060.42	218.363
1063.79	210.141
1067.17	207.167
1070.54	162.215
1073.92	167.68
1077.29	98.8828
1080.67	31.2086
1084.04	28.9905
1087.42	4.82092
1090.79	16.4891
1094.16	11.4802
1097.54	18.1919
1100.91	29.5007
1104.29	24.6668
1107.66	69.5284
1111.04	83.7855
1114.41	110.365
1117.79	114.851
1121.16	131.31
1124.54	133.014
1127.91	136.784
1131.29	163.462
1134.66	137.8
1138.04	116.82
1141.41	143.104
1144.79	90.0344
1148.16	85.2882
1151.54	67.0875
1154.91	50.566
1158.29	33.6737
1161.66	51.5404
1165.04	51.3451
1168.41	52.3517
1171.79	56.561
1175.16	87.2751
1178.54	71.3593
1181.91	44.7058
1185.29	104.076
1188.66	67.6086
1192.04	74.7023
1195.41	45.1571
1198.78	50.6193
1202.16	68.6301
1205.53	58.6846
1208.91	50.2404
1212.28	44.6492
1215.66	27.9297
1219.03	34.9966
1222.41	37.9926
1225.78	58.7741
1229.16	26.3389
1232.53	12.4265
1235.91	19.6199
1239.28	24.1532
1242.66	2.13245
1246.03	10.6674
1249.41	2.27222
1252.78	42.2894
1256.16	9.77997
1259.53	4.33655
1262.91	11.0776
1266.28	18.1713
1269.66	8.24481
1273.03	4.36883
1276.4	28.418
1279.78	22.0385
1283.15	41.3773
1286.53	20.5322
1289.9	3.69849
1293.28	23.3448
1296.65	26.0238
1300.03	42.3229
1303.4	33.7343
1306.78	4.14002
1310.15	14.368
