Measurement: Raman, 532 nm, unoriented, Raman Data Processed
Mineral: Si3N4-beta
Rruff sample: R120129
Ideal chemistry: Si_3_N_4_
Locality: Synthetic
Source: H.C. Stark
Description: White powder
Raman shift (cm-1)	intensity
192.053	0
194.945	42.0649
197.838	106.531
200.731	317.387
203.623	774.129
206.516	702.325
209.409	38.0514
212.301	3.80933
215.194	34.6266
218.087	52.7819
220.98	110.979
223.872	247.429
226.765	342.956
229.658	31.0991
232.55	3.51135
235.443	6.21887
238.336	8.88855
241.228	1.12793
244.121	0.341187
247.014	1.64587
249.906	4.41479
252.799	4.38928
255.692	10.0236
258.585	25.8475
261.477	18.1287
264.37	10.1615
267.263	11.2592
270.155	13.8486
273.048	11.4608
275.941	11.9006
278.834	12.5524
281.726	22.0481
284.619	15.0476
287.512	17.2223
290.404	18.4569
293.297	13.1044
296.19	8.09827
299.082	5.93604
301.975	5.53662
304.868	4.77124
307.76	1.39331
310.653	5.51648
313.546	11.1989
316.439	6.59387
319.331	3.38928
322.224	2.36084
325.117	6.01294
328.009	12.6506
330.902	8.0835
333.795	8.20447
336.688	10.7312
339.58	12.1926
342.473	14.4309
345.366	12.6605
348.258	9.91052
351.151	14.7516
354.044	14.8796
356.936	7.57349
359.829	12.2909
362.722	13.8409
365.615	8.75684
368.507	11.9531
371.4	11.4934
374.293	10.3204
377.185	6.85779
380.078	4.5647
382.971	2.38806
385.863	1.94678
388.756	6.35425
391.649	8.4043
394.541	10.5421
397.434	5.47925
400.327	3.24463
403.22	4.56921
406.112	6.90344
409.005	7.59631
411.898	10.0645
414.79	8.1145
417.683	2.69812
420.576	0.488037
423.469	4.05664
426.361	3.07788
429.254	9.85022
432.147	7.61231
435.039	10.4236
437.932	20.4409
440.825	35.0631
443.717	55.4386
446.61	85.3762
449.503	82.4287
452.396	21.1406
455.288	9.40967
458.181	6.56653
461.074	5.11658
463.966	1.82349
466.859	1.88647
469.752	3.2804
472.644	1.72278
475.537	6.78906
478.43	6.88599
481.322	9.61121
484.215	0.739258
487.108	3.16406
490.001	4.79675
492.893	1.62036
495.786	2.11731
498.679	3.0719
501.571	4.49988
504.464	5.07385
507.357	5.49341
510.25	10.8624
513.142	17.1038
516.035	18.3149
518.928	17.4767
521.82	6.54834
524.713	12.919
527.606	6.87122
530.498	6.6261
533.391	5.57788
536.284	6.70776
539.177	7.3949
542.069	5.30408
544.962	2.38379
547.855	2.99622
550.747	8.20337
553.64	8.29871
556.533	3.3009
559.425	10.3903
562.318	9.00354
565.211	2.71326
568.104	1.84595
570.996	0.269287
573.889	1.35889
576.782	3.41675
579.674	4.56519
582.567	5.79663
585.46	4.68652
588.352	4.0658
591.245	4.98804
594.138	9.10815
597.03	8.95581
599.923	15.9674
602.816	19.0771
605.709	29.4248
608.601	49.0941
611.494	63.4949
614.387	78.1366
617.279	64.6234
620.172	38.4575
623.065	26.2819
625.957	15.0428
628.85	6.94446
631.743	9.51111
634.636	5.96387
637.528	3.75732
640.421	0.578247
643.314	3.53479
646.206	0.864746
649.099	4.44446
651.992	5.46265
654.885	6.76514
657.777	5.84656
660.67	9.42261
663.563	2.68811
666.455	6.91858
669.348	5.17395
672.241	0.002441
675.133	6.88769
678.026	4.40845
680.919	7.26294
683.812	1.87622
686.704	0.317017
689.597	11.4552
692.49	14.8171
695.382	12.0437
698.275	4.58008
701.168	3.21069
704.06	2.50696
706.953	8.44885
709.846	8.86768
712.739	12.3787
715.631	17.4136
718.524	25.3445
721.417	40.1913
724.309	60.4624
727.202	75.0707
730.095	50.6163
732.987	16.5989
735.88	12.5638
738.773	5.70154
741.665	0.046875
744.558	10.6747
747.451	8.82776
750.344	5.90735
753.236	3.47107
756.129	1.99841
759.022	3.24792
761.914	2.59338
764.807	6.57263
767.7	5.73083
770.592	2.2262
773.485	9.50854
776.378	9.31921
779.271	3.06616
782.163	5.323
785.056	4.5957
787.949	2.93652
790.841	9.23938
793.734	14.5181
796.627	11.3723
799.519	3.58411
802.412	1.79077
805.305	3.99304
808.198	4.53406
811.09	4.70593
813.983	1.56799
816.876	2.03418
819.768	3.42383
822.661	13.4098
825.554	8.76343
828.447	0.814453
831.339	2.92944
834.232	2.49988
837.125	6.87646
840.017	16.8971
842.91	25.0946
845.803	39.1364
848.695	57.9659
851.588	78.0673
854.481	115.588
857.374	154.263
860.266	157.998
863.159	96.838
866.052	56.8441
868.944	31.224
871.837	18.1112
874.73	13.3923
877.622	7.36267
880.515	6.00403
883.408	1.01929
886.301	8.37769
889.193	9.76428
892.086	7.80335
894.979	9.13013
897.871	14.5408
900.764	15.3223
903.657	18.4814
906.549	22.4037
909.442	36.5796
912.335	49.655
915.227	71.3372
918.12	104.405
921.013	139.359
923.906	150.639
926.798	123.142
929.691	117.966
932.584	133.791
935.476	112.453
938.369	69.2258
941.262	37.8561
944.154	22.0714
947.047	18.5332
949.94	12.6869
952.833	1.8772
955.725	1.79797
958.618	1.5979
961.511	1.94006
964.403	6.28552
967.296	0.589355
970.189	8.86389
973.082	10.718
975.974	9.85168
978.867	5.79358
981.76	4.31335
984.652	2.29028
987.545	7.06702
990.438	3.19421
993.33	0.650513
996.223	5.76111
999.116	2.26367
1002.01	3.03821
1004.9	0.673828
1007.79	4.70728
1010.69	5.00476
1013.58	5.22705
1016.47	6.62866
1019.37	7.13257
1022.26	9.9585
1025.15	10.9515
1028.04	31.4116
1030.94	40.4994
1033.83	57.2824
1036.72	99.757
1039.61	149.54
1042.51	148.356
1045.4	70.8644
1048.29	32.4299
1051.18	17.5275
1054.08	13.041
1056.97	8.95288
1059.86	2.1709
1062.76	1.81103
1065.65	0.370483
1068.54	0.254395
1071.43	2.20129
1074.33	2.21826
1077.22	3.17127
1080.11	2.64441
1083	5.65613
1085.9	10.9438
1088.79	10.5748
1091.68	3.12598
1094.58	5.16467
1097.47	5.30652
1100.36	13.1355
1103.25	3.99817
1106.15	4.16736
1109.04	2.51562
1111.93	6.82544
1114.82	7.15283
1117.72	7.34753
1120.61	9.40808
1123.5	5.45789
1126.39	4.30542
1129.29	4.34277
1132.18	8.06299
1135.07	10.2059
1137.96	4.63574
1140.86	2.92639
1143.75	5.00903
1146.64	3.61963
1149.54	5.61841
1152.43	5.01697
1155.32	0.540771
1158.21	1.61829
1161.11	0.96814
1164	0.035645
1166.89	1.77185
1169.79	1.95068
1172.68	5.5802
1175.57	13.1116
1178.46	6.15369
1181.36	8.03979
1184.25	6.57996
1187.14	2.99109
1190.03	3.34363
1192.93	4.35962
1195.82	2.74658
1198.71	8.9596
1201.61	3.32703
1204.5	10.8101
1207.39	12.3229
1210.28	11.654
1213.18	19.2858
1216.07	7.6532
1218.96	3.9585
1221.85	4.09692
1224.75	9.5791
1227.64	10.2236
1230.53	10.9055
1233.42	6.35339
1236.32	0.891724
1239.21	0.961914
1242.1	2.09485
1244.99	2.89417
1247.89	7.84766
1250.78	10.6743
1253.67	0.528809
1256.57	4.35864
1259.46	8.87256
1262.35	13.478
1265.24	10.1652
1268.14	9.1427
1271.03	4.8551
1273.92	5.76856
1276.82	2.86133
1279.71	9.03296
1282.6	5.03247
1285.49	8.1272
1288.39	2.85608
1291.28	3.83191
1294.17	4.19751
1297.06	3.04553
1299.96	0.734253
