Measurement: Raman, 780 nm, unoriented, Raman Data Processed
Mineral: Si3N4-beta
Rruff sample: R120129
Ideal chemistry: Si_3_N_4_
Locality: Synthetic
Source: H.C. Stark
Description: White powder
Raman shift (cm-1)	intensity
161.107	0
163.999	0.048828
166.892	16.1274
169.785	38.7398
172.677	111.01
175.57	226.927
178.463	400.514
181.355	788.701
184.248	673.959
187.141	130.676
190.033	71.8252
192.926	149.345
195.819	325.272
198.712	583.533
201.604	1160.82
204.497	2282.69
207.39	575.543
210.282	131.987
213.175	91.5723
216.068	115.07
218.96	196.268
221.853	319.416
224.746	642.836
227.638	359.19
230.531	60.7417
233.424	20.0938
236.317	13.1074
239.209	16.3096
242.102	0.400879
244.995	9.41065
247.887	11.1143
250.78	9.43994
253.673	10.0967
256.565	17.7017
259.458	39.0996
262.351	1.10449
265.244	2.25293
268.136	7.49902
271.029	10.5801
273.922	4.11768
276.814	15.7861
279.707	9.23242
282.6	19.6157
285.493	0.089844
288.385	2.38232
291.278	0.305176
294.171	4.51465
297.063	7.31689
299.956	0.203125
302.849	1.54688
305.741	1.29932
308.634	2.21924
311.527	4.20068
314.42	3.62891
317.312	4.14209
320.205	4.46826
323.098	2.26953
325.99	0.935547
328.883	1.30859
331.776	0.641113
334.668	3.83887
337.561	16.7231
340.454	5.51611
343.346	2.51514
346.239	9.354
349.132	1.00879
352.024	5.70215
354.917	7.29981
357.81	14.8911
360.703	24.0796
363.595	29.2139
366.488	26.4062
369.381	30.2788
372.273	17.0591
375.166	8.7749
378.059	4.45019
380.952	16.5166
383.844	28.208
386.737	19.4795
389.63	14.3657
392.522	14.8062
395.415	7.15576
398.308	24.3672
401.2	26.0371
404.093	28.8208
406.986	16.2744
409.878	29.8921
412.771	26.1445
415.664	33.0977
418.557	26.624
421.449	45.916
424.342	27.5786
427.235	28.5708
430.127	39.6172
433.02	46.2881
435.913	52.2915
438.805	57.8179
441.698	85.6416
444.591	105.814
447.484	144.353
450.376	84.0674
453.269	48.2017
456.162	46.4839
459.054	45.0366
461.947	34.6587
464.84	18.0015
467.733	25.0337
470.625	20.8257
473.518	17.5557
476.411	1.45312
479.303	2.81885
482.196	9.8623
485.089	1.72314
487.981	3.38965
490.874	2.07471
493.767	5.56396
496.659	0.97168
499.552	7.64453
502.445	4.97119
505.337	10.0527
508.23	4.19336
511.123	7.39404
514.016	10.1318
516.908	13.4194
519.801	14.9307
522.694	5.68311
525.586	13.9443
528.479	6.46826
531.372	4.80566
534.264	10.5195
537.157	9.09375
540.05	24.2036
542.943	33.7197
545.835	35.6348
548.728	40.75
551.621	43.4956
554.513	43.0034
557.406	49.6851
560.299	49.1807
563.192	53.1118
566.084	48.2588
568.977	44.7266
571.87	27.125
574.762	30.4829
577.655	30.0493
580.548	36.8945
583.44	49.7466
586.333	55.3672
589.226	67.2114
592.119	63.8252
595.011	49.0444
597.904	51.9111
600.797	53.8652
603.689	68.6724
606.582	77.9253
609.475	98.4429
612.367	117.425
615.26	97.291
618.153	76.3784
621.045	56.0952
623.938	57.7188
626.831	53.0967
629.723	36.959
632.616	49.2334
635.509	33.8677
638.402	42.4023
641.294	40.0601
644.187	36.2808
647.08	44.7671
649.972	33.8169
652.865	35.978
655.758	32.9023
658.65	34.9121
661.543	25.8726
664.436	18.0405
667.329	31.0112
670.221	26.2881
673.114	23.0571
676.007	23.6299
678.899	16.9951
681.792	1.99805
684.685	3.52246
687.577	5.94482
690.47	4.68457
693.363	1.54297
696.256	3.56152
699.148	8.85791
702.041	8.82959
704.934	0.120117
707.826	4.03027
710.719	22.9409
713.612	27.1152
716.505	29.0972
719.397	45.3237
722.29	70.1045
725.183	92.9937
728.075	82.7144
730.968	59.458
733.861	56.1709
736.753	54.4141
739.646	41.9204
742.539	42.2505
745.432	47.3574
748.324	49.0898
751.217	38.6274
754.11	27.9404
757.002	19.8101
759.895	25.665
762.788	14.6631
765.68	16.3452
768.573	15.605
771.466	12.4053
774.359	6.05127
777.251	9.98926
780.144	17.9722
783.037	18.6089
785.929	28.6738
788.822	18.0659
791.715	16.9658
794.607	22.1675
797.5	18.5102
800.393	6.97705
803.285	2.80225
806.178	10.2568
809.071	12.5308
811.963	10.0249
814.856	11.9512
817.749	4.99854
820.642	15.8931
823.534	23.7627
826.427	29.3169
829.32	18.417
832.212	17.9736
835.105	26.7285
837.998	28.9072
840.89	19.8057
843.783	33.1333
846.676	50.7944
849.569	56.5947
852.461	94.6782
855.354	121.875
858.247	126.771
861.139	75.6987
864.032	34.1821
866.925	28.0347
869.817	17.1343
872.71	20.9268
875.603	3.54443
878.495	1.52978
881.388	1.14014
884.281	7.98731
887.174	1.05811
890.066	3.24414
892.959	14.2378
895.852	0.374023
898.744	10.1631
901.637	24.5737
904.53	24.1992
907.423	26.8208
910.315	35.9629
913.208	55.0244
916.101	82.8472
918.993	105.799
921.886	112.595
924.779	106.84
927.671	125.656
930.564	127.395
933.457	105.376
936.35	67.4922
939.242	47.3086
942.135	31.1484
945.028	23.7231
947.92	14.4053
950.813	17.7261
953.706	16.1484
956.598	9.37158
959.491	18.1245
962.384	12.1753
965.277	9.81543
968.169	12.9287
971.062	5.40186
973.955	6.12061
976.847	3.55615
979.74	12.0894
982.633	12.1431
985.525	1.13379
988.418	9.34277
991.311	0.739746
994.203	9.9458
997.096	0.758301
999.989	12.791
1002.88	13.3174
1005.77	13.1987
1008.67	0.797363
1011.56	3.74316
1014.45	7.9751
1017.35	13.4697
1020.24	6.72705
1023.13	12.6094
1026.02	19.2168
1028.92	29.5869
1031.81	37.3486
1034.7	61.6226
1037.59	101.08
1040.49	93.8223
1043.38	43.6016
1046.27	11.3901
1049.16	8.08008
1052.06	2.36816
1054.95	1.99365
1057.84	3.39356
1060.74	8.66553
1063.63	6.98291
1066.52	1.59814
1069.41	4.58691
1072.31	7.66162
1075.2	14.3457
1078.09	12.23
1080.98	17.3149
1083.88	4.21875
1086.77	6.49414
1089.66	15.6226
1092.56	12.8159
1095.45	7.87354
1098.34	0.795898
1101.23	0.382324
1104.13	9.05518
1107.02	8.10791
1109.91	14.5708
1112.8	8.24268
1115.7	12.956
1118.59	15.2554
1121.48	0.725586
1124.38	9.53027
1127.27	11.7759
1130.16	17.9746
1133.05	21.1499
1135.95	23.1314
1138.84	17.1689
1141.73	27.772
1144.62	23.4189
1147.52	36.5674
1150.41	29.0474
1153.3	40.5015
1156.19	34.2847
1159.09	40.2461
1161.98	44.1265
1164.87	37.085
1167.77	48.5879
1170.66	33.4907
1173.55	52.5371
1176.44	43.4824
1179.34	54.8843
1182.23	44.4551
1185.12	37.1352
1188.01	31.9707
1190.91	48.4898
1193.8	48.2773
1196.69	40.1973
1199.59	42.1426
1202.48	44.7188
1205.37	41.4995
1208.26	28.9497
1211.16	28.9067
1214.05	12.5498
1216.94	27.7837
1219.83	21.3418
1222.73	25.7388
1225.62	27.3096
1228.51	11.062
1231.4	12.7144
1234.3	14.2031
1237.19	4.09375
1240.08	0.819336
1242.97	4.50244
1245.87	5.22461
1248.76	0.009277
1251.65	19.3677
1254.55	20.0371
1257.44	12.5991
1260.33	25.4067
1263.22	20.4336
1266.12	11.7056
1269.01	15.8726
1271.9	21.2646
1274.8	9.93115
1277.69	18.1909
1280.58	16.085
1283.47	4.5083
