Measurement: Raman, 514 nm, unoriented, Raman Data Processed
Mineral: Siderite
Rruff sample: R050262
Ideal chemistry: FeCO_3_
Locality: Panasqueira mine, Barroca Grande, Beira Baixa, Portugal
Source: Marcus Origlieri
Description: Group of yellowish brown flattened twinned crystals
Measured chemistry: (Fe_0.71_Mg_0.24_Mn_0.05_)_Σ=1_CO_3_ ; light :  (Fe_0.60_Mg_0.36_Mn_0.04_)_Σ=1_CO_3_ ; intermediate : (Fe_0.54_Mg_0.42_Mn_0.04_)_Σ=1_CO_3_ ; darker :  (Mg_0.54_Fe_0.42_Mn_0.04_)_Σ=1_CO_3_ darkest = magnesite
Raman shift (cm-1)	intensity
105.908	0
110.082	102.744
114.254	213.268
118.424	549.83
122.592	288.155
126.758	217.389
130.922	225.29
135.083	89.747
139.243	273.355
143.401	198.191
147.557	242.643
151.711	359.133
155.863	367.052
160.013	424.045
164.161	671.889
168.308	834.428
172.452	1116.55
176.594	1585.16
180.734	2311.24
184.872	3114.71
189.008	3302.58
193.143	2623.78
197.275	1770.24
201.405	816.176
205.534	534.7
209.66	259.884
213.784	110.771
217.907	96.972
222.027	69.722
226.146	132.797
230.263	107.606
234.377	93.146
238.49	159.413
242.601	245.395
246.709	258.201
250.816	258.68
254.921	353.202
259.024	470.884
263.125	562.835
267.224	794.686
271.321	1254.18
275.416	1863.72
279.51	3142.59
283.601	5339.56
287.69	7385.78
291.778	8062.19
295.863	6708.4
299.947	5205.51
304.029	3646.42
308.108	2505.09
312.186	1729.52
316.262	1159.06
320.336	858.295
324.408	584.278
328.478	435.381
332.546	382.682
336.612	333.537
340.677	249.913
344.739	330.845
348.799	94.209
352.858	147.068
356.915	73.437
360.969	170.297
365.022	154.565
369.073	196.239
373.122	86.311
377.169	18.778
381.215	10.815
385.258	51.243
389.299	8.982
393.339	85.136
397.376	260.578
401.412	24.665
405.446	89.401
409.478	46.771
413.508	8.565
417.536	40.637
421.562	116.551
425.586	15.004
429.609	133.001
433.629	175.913
437.648	163.216
441.665	93.956
445.68	129.012
449.693	7.409
453.704	117.133
457.713	97.812
461.721	62.896
465.726	152.694
469.73	275.821
473.731	421.657
477.731	414.147
481.729	418.522
485.725	545.495
489.72	564.715
493.712	521.166
497.703	618.655
501.691	742.627
505.678	735.056
509.663	673.252
513.646	739.776
517.627	768.226
521.607	684.118
525.584	644.423
529.56	674.561
533.534	714.712
537.506	600.719
541.476	420.607
545.444	534.042
549.41	448.572
553.375	485.17
557.337	322.783
561.298	312.278
565.257	519.059
569.214	262.879
573.17	175.662
577.123	177.018
581.075	130.064
585.024	114.978
588.972	219.891
592.918	84.807
596.863	81.714
600.805	81.595
604.746	118.433
608.685	93.509
612.621	28.659
616.557	62.663
620.49	142.801
624.421	37.094
628.351	215.671
632.279	115.585
636.205	11.724
640.129	102.669
644.051	217.241
647.972	223.092
651.89	101.792
655.807	143.539
659.722	153.716
663.636	100.404
667.547	172.919
671.457	71.445
675.365	42.625
679.271	59.945
683.175	192.06
687.077	149.026
690.978	89.112
694.877	320.427
698.774	190.495
702.669	223.402
706.562	307.629
710.454	369.938
714.344	252.017
718.232	513.849
722.118	782.883
726.002	1063.01
729.885	1408.75
733.766	1147.74
737.645	1129.03
741.522	1030.24
745.397	1052.17
749.271	845.752
753.143	527.223
757.013	302.218
760.881	332.441
764.748	287.123
768.613	167.129
772.476	120.527
776.337	227.34
780.196	89.499
784.054	132.095
787.91	143.065
791.764	52.221
795.616	178.377
799.467	3.778
803.316	61.778
807.163	35.669
811.008	117.543
814.851	164.602
818.693	85.4
822.533	90.167
826.371	111.974
830.208	256.819
834.042	33.925
837.875	90.554
841.706	257.117
845.536	157.189
849.363	25.778
853.189	50.789
857.013	231.793
860.836	85.564
864.656	201.192
868.475	250.638
872.292	238.938
876.108	187.104
879.922	67.145
883.733	71.093
887.544	131.886
891.352	40.532
895.159	155.036
898.964	131.408
902.767	83.635
906.568	123.728
910.368	81.706
914.166	42.556
917.962	13.716
921.757	62.084
925.55	73.25
929.341	85.026
933.13	6.605
936.918	35.198
940.703	139.494
944.488	46.341
948.27	80.041
952.051	237.639
955.83	243.025
959.607	146.329
963.383	149.174
967.156	136.574
970.928	142.523
974.699	215.972
978.468	450.093
982.234	273.305
986	230.931
989.763	214.331
993.525	177.77
997.285	223.548
1001.04	365.836
1004.8	187.327
1008.55	264.834
1012.31	202.063
1016.06	121.44
1019.81	144.465
1023.56	315.168
1027.31	474.585
1031.05	478.392
1034.79	413.396
1038.53	645.162
1042.27	822.762
1046.01	930.559
1049.75	1250.79
1053.48	1332.92
1057.22	1832.03
1060.95	2081.23
1064.68	2854.52
1068.4	3900.47
1072.13	4961.16
1075.86	7173.3
1079.58	11986.5
1083.3	23766.3
1087.02	42561.7
1090.74	36591.9
1094.45	17688.9
1098.17	7982.32
1101.88	3830.19
1105.59	2266.07
1109.3	1332.73
1113.01	815.605
1116.71	620.946
1120.42	394.609
1124.12	630.302
1127.82	348.268
1131.52	283.281
1135.22	117.086
1138.91	281.719
1142.61	23.215
1146.3	191.744
1149.99	28.761
1153.68	42.837
1157.37	5.2
1161.06	126.445
1164.74	107.002
1168.42	41.799
1172.1	6.271
1175.78	188.147
1179.46	150.389
1183.14	112.138
1186.81	81.579
1190.48	120.105
1194.15	95.663
1197.83	190.701
1201.49	130.11
1205.16	368.945
1208.82	162.737
1212.49	85.165
1216.15	117.096
1219.81	280.178
1223.46	170.229
1227.12	232.271
1230.78	200.43
1234.43	274.777
1238.08	472.615
1241.73	355.979
1245.38	171.34
1249.03	311.396
1252.67	185.914
1256.31	176.023
1259.95	179.74
1263.6	302.322
1267.23	257.811
1270.87	203.848
1274.51	156.615
1278.14	3.055
1281.77	266.295
1285.4	187.23
1289.03	172.688
1292.66	102.531
1296.28	237.262
1299.91	215.49
1303.53	120.309
1307.15	93.408
1310.77	291.227
1314.38	48.701
1318	4.164
1321.61	100.096
1325.23	103.211
1328.84	130.732
1332.45	107.523
1336.06	109.141
1339.66	33.158
1343.27	129.439
1346.87	66.15
1350.47	110.094
1354.07	80.631
1357.67	178.24
1361.26	263.232
1364.86	285.844
1368.45	287.123
1372.04	263.432
1375.63	102.664
1379.22	80.41
1382.81	113.754
1386.39	225.041
1389.98	117.828
1393.56	79.961
1397.14	226.068
1400.72	240.59
1404.3	249.436
1407.87	90.637
1411.45	143.588
1415.02	299.693
1418.59	506.945
1422.16	499.182
1425.73	333.682
1429.29	411.303
1432.86	554.811
1436.42	579.668
1439.98	442.664
1443.54	486.084
1447.1	657.594
1450.66	497.746
1454.21	551.623
1457.77	498.41
1461.32	881.891
1464.87	751.123
1468.42	257.324
1471.96	493.031
1475.51	448
1479.06	405.539
1482.6	267.123
1486.14	419.42
1489.68	348.082
1493.22	374.453
1496.75	267.988
1500.29	196.012
1503.82	45.641
1507.35	116.486
1510.88	188.369
1514.41	243.768
