Measurement: Raman, 532 nm, unoriented, Raman Data Processed
Mineral: Siderite
Rruff sample: R050349
Ideal chemistry: FeCO_3_
Locality: Litchfield County, Connecticut, USA
Source: California Institute of Technology
Description: Grayish brown rhombohedral cleavage fragment
Measured chemistry: (Fe_0.83_Mg_0.09_Mn_0.05_Ca_0.01_)_Î£=0.98_CO_3_
Raman shift (cm-1)	intensity
117.424	0
120.798	0.181004
124.173	3.48246
127.548	6.05006
130.923	11.4262
134.298	15.558
137.673	18.18
141.047	21.0113
144.422	22.2654
147.797	28.155
151.172	33.2073
154.547	40.4831
157.921	50.9362
161.296	65.395
164.671	84.0129
168.046	108.057
171.421	136.994
174.796	161.561
178.17	188.823
181.545	215.005
184.92	224.291
188.295	201.473
191.67	134.594
195.044	73.2193
198.419	37.3286
201.794	17.9763
205.169	7.91498
208.544	2.61831
211.918	0.602448
215.293	0.216438
218.668	1.33898
222.043	1.25588
225.418	0.548176
228.792	0.051266
232.167	0.435246
235.542	1.70737
238.917	2.18389
242.292	4.65662
245.667	7.19776
249.041	10.7182
252.416	15.2539
255.791	19.7812
259.166	29.6353
262.541	44.9173
265.916	65.3973
269.29	95.2844
272.665	132.096
276.04	175.001
279.415	225.97
282.79	277.718
286.164	296.289
289.539	257.492
292.914	189.174
296.289	128.83
299.664	84.7124
303.038	58.7809
306.413	41.9793
309.788	30.2629
313.163	22.1586
316.538	16.4542
319.913	11.6725
323.287	11.0505
326.662	7.49538
330.037	5.93558
333.412	4.86123
336.787	3.4229
340.161	2.69342
343.536	2.4388
346.911	1.1076
350.286	0.299755
353.661	0.74202
357.036	0.199135
360.41	0.47506
363.785	0.160954
367.16	0.072685
370.535	0.417107
373.91	0.216087
377.284	1.26451
380.659	1.72718
384.034	1.50559
387.409	2.29907
390.784	3.61564
394.159	2.34393
397.533	2.40033
400.908	3.79679
404.283	4.33371
407.658	3.91881
411.033	2.25333
414.408	1.37403
417.782	0.236259
421.157	0.64497
424.532	0.669762
427.907	0.70676
431.282	0.512161
434.656	0.307644
438.031	0.386261
441.406	0.045464
444.781	1.6843
448.156	1.41499
451.531	2.3116
454.905	3.23704
458.28	3.80688
461.655	5.6313
465.03	5.8116
468.404	6.54394
471.779	9.40996
475.154	9.63387
478.529	11.0123
481.904	12.0815
485.279	12.4923
488.653	14.5601
492.028	16.3113
495.403	16.4947
498.778	18.1043
502.153	18.9795
505.527	19.7663
508.902	19.033
512.277	21.0236
515.652	19.2613
519.027	18.9529
522.402	18.8933
525.776	17.3231
529.151	17.2218
532.526	15.2164
535.901	13.4505
539.276	12.5247
542.65	10.6183
546.025	9.83112
549.4	8.80229
552.775	7.73101
556.15	5.75298
559.525	4.68759
562.899	3.74152
566.274	2.32471
569.649	3.07592
573.024	1.60123
576.399	0.893318
579.774	1.4799
583.148	0.651775
586.523	0.095833
589.898	0.313999
593.273	0.211159
596.648	0.838242
600.022	0.480877
603.397	0.255924
606.772	0.558132
610.147	0.430626
613.522	0.210869
616.896	0.916122
620.271	0.063465
623.646	0.286518
627.021	0.309692
630.396	0.383839
633.771	0.022518
637.145	1.41016
640.52	1.14965
643.895	1.1579
647.27	1.53369
650.645	3.21009
654.019	2.09999
657.394	1.59727
660.769	1.57359
664.144	2.40595
667.519	1.26105
670.894	1.13038
674.268	0.652096
677.643	0.946617
681.018	0.529671
684.393	0.451157
687.768	0.071667
691.143	0.387199
694.517	1.62573
697.892	2.65236
701.267	3.37301
704.642	5.2999
708.016	8.98307
711.391	12.5991
714.766	20.1075
718.141	29.2054
721.516	39.8109
724.891	51.007
728.265	55.772
731.64	54.1837
735.015	45.8801
738.39	37.6126
741.765	30.3507
745.139	22.6657
748.514	15.5141
751.889	10.5655
755.264	6.42965
758.639	4.10423
762.014	2.39791
765.388	1.03494
768.763	0.125183
772.138	0.401497
775.513	0.293917
778.888	0.259718
782.263	0.102116
785.637	0.680239
789.012	0.264658
792.387	0.730429
795.762	0.611605
799.137	0.145075
802.511	0.325415
805.886	0.817221
809.261	0.358984
812.636	0.974943
816.011	0.568773
819.385	1.83143
822.76	0.362154
826.135	1.12452
829.51	1.5054
832.885	0.965822
836.26	1.5669
839.634	1.7924
843.009	1.75695
846.384	1.32993
849.759	0.829317
853.134	1.32214
856.509	2.13526
859.883	2.57847
863.258	3.4631
866.633	2.60252
870.008	2.6202
873.383	1.23822
876.757	1.2651
880.132	0.65243
883.507	1.38967
886.882	0.539873
890.257	1.41575
893.631	0.206861
897.006	0.25083
900.381	0.411493
903.756	1.41426
907.131	1.23795
910.506	0.953861
913.88	0.53072
917.255	0.551331
920.63	0.669256
924.005	2.29158
927.38	1.77309
930.755	1.38089
934.129	1.85426
937.504	1.37137
940.879	0.921392
944.254	1.15643
947.629	1.11163
951.003	1.63502
954.378	0.737904
957.753	1.68482
961.128	1.03118
964.503	1.02633
967.877	1.05801
971.252	0.044804
974.627	0.210241
978.002	0.22883
981.377	0.479666
984.751	0.550531
988.126	0.420937
991.501	0.631182
994.876	0.721642
998.251	0.059671
1001.63	0.235312
1005	0.285797
1008.38	0.425488
1011.75	0.993675
1015.12	1.48477
1018.5	2.82614
1021.88	3.04603
1025.25	4.54502
1028.62	7.26923
1032	11.3083
1035.37	14.1456
1038.75	19.2831
1042.12	23.261
1045.5	29.6045
1048.87	36.8876
1052.25	48.324
1055.62	63.5282
1059	81.754
1062.37	108.677
1065.75	144.018
1069.12	199.312
1072.5	311.489
1075.87	518.074
1079.25	811.149
1082.62	1232.37
1086	1634.83
1089.37	1356.24
1092.75	737.029
1096.12	351.225
1099.49	176.262
1102.87	97.6477
1106.24	58.2104
1109.62	36.5972
1112.99	24.2914
1116.37	15.8797
1119.74	10.6447
1123.12	6.27948
1126.49	4.14392
1129.87	1.88866
1133.24	1.31516
1136.62	0.326981
1139.99	0.576054
1143.37	0.489721
1146.74	0.108097
1150.12	0.684307
1153.49	0.811167
1156.87	0.389544
1160.24	0.267902
1163.62	0.364082
1166.99	0.398315
1170.37	0.290821
1173.74	0.153643
1177.12	1.34695
1180.49	1.29773
1183.87	2.27814
1187.24	2.02682
1190.62	1.89197
1193.99	1.9842
1197.37	2.23655
1200.74	2.1106
1204.12	2.10065
1207.49	2.20523
1210.86	1.53273
1214.24	1.52067
1217.61	0.995592
1220.99	0.921034
1224.36	1.02277
1227.74	0.745731
1231.11	1.17923
1234.49	1.37011
1237.86	0.750591
1241.24	0.573799
1244.61	0.885509
1247.99	0.500565
1251.36	0.660275
1254.74	0.219513
1258.11	0.506027
1261.49	0.686874
1264.86	0.125957
1268.24	0.624969
1271.61	1.04597
1274.99	0.643883
1278.36	0.775185
1281.73	0.063808
1285.11	1.11217
1288.48	0.622604
1291.86	0.544151
1295.23	0.833412
1298.61	0.065563
1301.98	0.291977
