Measurement: Raman, 514 nm, unoriented, Raman Data Processed
Mineral: Siderite
Rruff sample: R050349
Ideal chemistry: FeCO_3_
Locality: Litchfield County, Connecticut, USA
Source: California Institute of Technology
Description: Grayish brown rhombohedral cleavage fragment
Measured chemistry: (Fe_0.83_Mg_0.09_Mn_0.05_Ca_0.01_)_Î£=0.98_CO_3_
Raman shift (cm-1)	intensity
87.798	0
91.981	112.313
96.161	44.758
100.34	13.765
104.516	180.279
108.691	85.763
112.864	185.478
117.034	369.272
121.203	232.163
125.369	81.85
129.534	251.22
133.696	107.523
137.857	179.649
142.016	103.163
146.172	117.437
150.327	207.483
154.48	396.934
158.63	488.278
162.779	684.572
166.926	980.77
171.07	1302.94
175.213	1941.5
179.354	2734.55
183.493	2993.92
187.63	2474.49
191.765	1399.21
195.898	647.017
200.029	344.889
204.158	176.79
208.285	140.643
212.41	5.543
216.533	55.87
220.654	39.221
224.773	32.951
228.891	1.911
233.006	28.388
237.119	31.523
241.231	94.122
245.34	206.653
249.448	361.945
253.553	476.836
257.657	753.792
261.758	1193.31
265.858	1754.23
269.956	2833.27
274.052	5080.12
278.146	8465.03
282.237	11673.7
286.327	11746.3
290.416	8944.59
294.502	5741.66
298.586	3561.55
302.668	2313.29
306.749	1657.89
310.827	1179.38
314.903	917.731
318.978	749.298
323.051	569.211
327.121	475.972
331.19	363.719
335.257	292.472
339.322	265.229
343.385	194.985
347.446	179.735
351.505	184.476
355.563	148.209
359.618	154.93
363.672	123.639
367.723	111.338
371.773	103.027
375.821	93.512
379.866	25.738
383.91	44.868
387.952	41.443
391.992	0.718
396.031	3.324
400.067	60.626
404.101	18.266
408.134	11.465
412.165	10.327
416.193	29.365
420.22	29.007
424.245	6.547
428.268	31.003
432.289	8.6
436.309	5.753
440.326	14.071
444.342	68.366
448.355	83.642
452.367	85.901
456.377	118.145
460.385	137.378
464.391	150.605
468.395	176.83
472.398	262.059
476.398	331.291
480.397	326.533
484.394	373.809
488.389	455.129
492.382	504.51
496.373	478.969
500.362	538.491
504.349	504.058
508.335	589.666
512.319	543.435
516.3	573.133
520.28	497.88
524.259	527.676
528.235	499.606
532.209	455.539
536.182	415.604
540.152	398.572
544.121	337.868
548.088	313.262
552.053	258.642
556.017	309.915
559.978	255.517
563.938	224.651
567.895	190.646
571.851	187.686
575.805	166.142
579.758	125.416
583.708	126.366
587.657	95.947
591.603	88.362
595.548	96.508
599.491	87.303
603.432	55.174
607.372	69.047
611.309	67.919
615.245	48.822
619.179	52.948
623.111	36.196
627.041	20.361
630.97	37.192
634.896	53.812
638.821	23.369
642.744	58.964
646.665	20.605
650.584	49.159
654.502	67.244
658.418	64.658
662.331	38.959
666.244	40.387
670.154	54.958
674.062	77.921
677.969	63.322
681.874	26.229
685.777	37.461
689.678	43.281
693.577	28.158
697.475	91.712
701.371	72.611
705.265	97.277
709.157	146.61
713.047	271.524
716.936	427.359
720.823	686.119
724.708	987.848
728.591	1182.62
732.472	1162.13
736.352	1049.45
740.23	1045.22
744.106	876.662
747.98	616.823
751.853	458.231
755.723	274.025
759.592	189.245
763.459	145.397
767.325	93.469
771.188	81.32
775.05	39.945
778.91	31.449
782.768	22.08
786.625	10.229
790.479	39.482
794.332	22.788
798.183	2.438
802.033	40.948
805.88	13.298
809.726	29.676
813.57	24.114
817.413	3.738
821.253	11.164
825.092	6.7
828.929	10.641
832.764	10.217
836.598	7.187
840.429	21.04
844.259	22.463
848.088	1.608
851.914	21.348
855.739	23.127
859.562	20.763
863.383	94.265
867.203	84.644
871.02	67.903
874.836	104.042
878.65	59.066
882.463	25.97
886.274	20.736
890.083	9.363
893.89	12.892
897.695	11.936
901.499	0.091
905.301	0.957
909.102	49.644
912.9	29.199
916.697	30.644
920.492	39.974
924.285	35.159
928.077	50.032
931.867	3.436
935.655	30.557
939.442	12.666
943.226	41.776
947.009	30.553
950.791	43.642
954.57	17.767
958.348	37.268
962.124	54.895
965.899	50.758
969.671	57.886
973.442	46.334
977.211	51.51
980.979	50.764
984.745	62.79
988.509	85.3
992.271	64.244
996.032	98.5
999.791	88.911
1003.55	126.166
1007.3	87.76
1011.06	136.732
1014.81	189.181
1018.56	242.875
1022.31	264.376
1026.06	344.861
1029.8	451.82
1033.55	532.953
1037.29	621.38
1041.03	766.827
1044.77	904.836
1048.5	1143.15
1052.24	1426.85
1055.97	1806.09
1059.7	2255.31
1063.43	2897.26
1067.16	3594.43
1070.89	5229.64
1074.61	7472.94
1078.34	13460.8
1082.06	28220
1085.78	45245.5
1089.5	33632.1
1093.21	15315.7
1096.93	6937.06
1100.64	3670.85
1104.35	2157.8
1108.06	1382.87
1111.77	934.026
1115.48	693.262
1119.18	494.566
1122.89	546.958
1126.59	373.418
1130.29	251.96
1133.99	178.585
1137.68	182.527
1141.38	102.131
1145.07	93.015
1148.76	60.966
1152.45	69.003
1156.14	46.119
1159.83	23.3
1163.51	2.543
1167.19	28.842
1170.88	19.198
1174.56	23.386
1178.23	3.075
1181.91	3.6
1185.59	1.799
1189.26	25.875
1192.93	12.646
1196.6	51.545
1200.27	74.584
1203.94	19.666
1207.6	2.84
1211.27	29.716
1214.93	29.491
1218.59	52.698
1222.25	43.337
1225.9	61.331
1229.56	80.099
1233.21	52.34
1236.86	55.539
1240.51	50.172
1244.16	55.613
1247.81	60.589
1251.45	43.59
1255.1	54.655
1258.74	50.784
1262.38	74.978
1266.02	69.236
1269.66	75.558
1273.29	45.943
1276.93	74.392
1280.56	82.905
1284.19	97.483
1287.82	77.124
1291.45	98.829
1295.07	109.597
1298.7	54.39
1302.32	121.18
1305.94	81.985
1309.56	65.78
1313.18	62.412
1316.8	76.246
1320.41	55.92
1324.02	41.479
1327.63	40.462
1331.24	67.473
1334.85	60.546
1338.46	30.603
1342.06	9.758
1345.67	18.531
1349.27	40.79
1352.87	9.889
1356.47	20.366
1360.07	5.936
1363.66	8.438
1367.25	25.351
1370.85	31.716
1374.44	13.724
1378.03	6.607
1381.61	28.349
1385.2	16.871
1388.78	13.176
1392.37	19.128
1395.95	21.869
1399.53	81.683
1403.1	90.568
1406.68	91.521
1410.26	212.542
1413.83	165.63
1417.4	247.793
1420.97	316.042
1424.54	330.394
1428.1	377.837
1431.67	363.372
1435.23	412.927
1438.8	387.697
1442.36	373.545
1445.91	351.38
1449.47	352.255
1453.03	344.872
1456.58	299.671
1460.13	352.736
1463.68	325.795
1467.23	309.827
1470.78	325.806
1474.33	275.694
1477.87	186.436
1481.42	183.028
1484.96	143.1
1488.5	143.025
1492.04	111.568
1495.57	38.418
1499.11	43.735
1502.64	38.857
1506.17	36.103
1509.71	67.632
1513.23	25.104
1516.76	30.205
1520.29	43.712
