Measurement: Raman, 780 nm, unoriented, Raman Data Processed
Mineral: Siderite
Rruff sample: R050349
Ideal chemistry: FeCO_3_
Locality: Litchfield County, Connecticut, USA
Source: California Institute of Technology
Description: Grayish brown rhombohedral cleavage fragment
Measured chemistry: (Fe_0.83_Mg_0.09_Mn_0.05_Ca_0.01_)_Î£=0.98_CO_3_
Raman shift (cm-1)	intensity
106.505	0
109.88	0.529678
113.254	0.20076
116.629	0.223267
120.004	2.59699
123.379	3.65894
126.754	6.05724
130.129	5.70847
133.503	7.75022
136.878	12.477
140.253	16.2255
143.628	20.8309
147.003	28.3249
150.377	33.9346
153.752	46.1388
157.127	59.8972
160.502	79.125
163.877	106.073
167.251	135.534
170.626	162.73
174.001	190.275
177.376	216.146
180.751	235.979
184.126	242.029
187.5	217.469
190.875	152.988
194.25	89.8344
197.625	47.5796
201	24.114
204.375	11.3029
207.749	3.79873
211.124	1.23901
214.499	1.38678
217.874	1.73065
221.249	1.3926
224.623	0.088799
227.998	0.183533
231.373	0.504097
234.748	2.55692
238.123	3.84979
241.498	7.70306
244.872	12.5477
248.247	17.4957
251.622	23.9517
254.997	36.2632
258.372	53.9855
261.746	79.2633
265.121	121.36
268.496	171.754
271.871	220.799
275.246	281.514
278.62	344.704
281.995	410.156
285.37	438.851
288.745	397.261
292.12	305.375
295.495	212.629
298.869	143.236
302.244	98.5133
305.619	70.7913
308.994	50.9509
312.369	37.8257
315.743	28.6972
319.118	22.2639
322.493	17.5794
325.868	12.7362
329.243	10.6083
332.618	7.26233
335.992	5.10627
339.367	3.64236
342.742	1.9633
346.117	1.89597
349.492	0.138199
352.866	0.628265
356.241	0.966415
359.616	0.641693
362.991	0.472488
366.366	0.057877
369.74	0.590538
373.115	1.33462
376.49	2.57807
379.865	1.92725
383.24	3.91967
386.615	3.63478
389.989	4.00966
393.364	4.18071
396.739	4.9326
400.114	4.47753
403.489	3.56514
406.863	5.13689
410.238	2.69556
413.613	1.26952
416.988	0.777168
420.363	0.042618
423.738	0.881531
427.112	0.206741
430.487	0.035614
433.862	1.06333
437.237	1.34342
440.612	0.253471
443.986	1.87956
447.361	2.39568
450.736	3.25863
454.111	4.9688
457.486	6.36453
460.861	6.77402
464.235	8.69697
467.61	9.94193
470.985	13.3728
474.36	14.5237
477.735	16.7658
481.109	17.7848
484.484	18.5165
487.859	20.2593
491.234	21.4356
494.609	23.1336
497.983	24.9586
501.358	26.2125
504.733	27.1077
508.108	25.1453
511.483	27.146
514.858	26.1733
518.232	26.3816
521.607	23.5733
524.982	22.9393
528.357	21.0533
531.732	19.0164
535.106	17.9647
538.481	15.7829
541.856	11.1502
545.231	10.7572
548.606	9.91539
551.981	7.63229
555.355	6.80853
558.73	5.24285
562.105	3.71384
565.48	1.45794
568.855	0.564674
572.23	2.06859
575.604	1.30473
578.979	0.398609
582.354	0.240166
585.729	1.25752
589.104	0.233177
592.478	0.446182
595.853	0.219044
599.228	1.00365
602.603	1.00391
605.978	0.038136
609.352	0.28508
612.727	0.331692
616.102	1.43668
619.477	0.668865
622.852	0.922039
626.226	2.24936
629.601	2.35023
632.976	2.57381
636.351	3.34522
639.726	3.31671
643.101	2.72147
646.475	3.2527
649.85	2.90056
653.225	3.13615
656.6	2.35854
659.975	1.65665
663.35	1.29482
666.724	1.27977
670.099	0.318253
673.474	0.772213
676.849	0.045582
680.224	0.170107
683.598	0.442326
686.973	1.06057
690.348	0.12299
693.723	0.957264
697.098	0.88669
700.472	3.94209
703.847	4.26916
707.222	6.76281
710.597	10.7965
713.972	16.232
717.347	22.9772
720.721	29.4084
724.096	36.3071
727.471	38.0859
730.846	37.3211
734.221	34.5385
737.596	28.7574
740.97	22.6325
744.345	19.2675
747.72	13.7228
751.095	9.23951
754.47	6.33539
757.844	4.3879
761.219	2.48349
764.594	1.24514
767.969	1.03613
771.344	0.291611
774.718	0.816429
778.093	0.360477
781.468	0.105335
784.843	0.178602
788.218	0.445826
791.592	0.300449
794.967	0.460623
798.342	0.483326
801.717	0.031599
805.092	0.283077
808.467	0.960768
811.841	0.531071
815.216	1.06649
818.591	0.446718
821.966	0.92886
825.341	1.19723
828.716	0.553545
832.09	1.26314
835.465	1.37264
838.84	2.28653
842.215	1.6303
845.59	1.26957
848.964	1.8319
852.339	2.24773
855.714	2.86628
859.089	2.61657
862.464	2.52452
865.838	2.68772
869.213	2.8411
872.588	1.4786
875.963	2.30993
879.338	1.35163
882.713	1.06279
886.087	1.43564
889.462	1.09957
892.837	0.231686
896.212	1.2251
899.587	0.696041
902.962	1.11914
906.336	0.281286
909.711	0.909723
913.086	1.09136
916.461	1.1645
919.836	1.3992
923.21	0.609482
926.585	0.710466
929.96	1.47478
933.335	0.308392
936.71	0.919394
940.084	0.747732
943.459	0.528341
946.834	0.310596
950.209	1.40017
953.584	0.883799
956.958	0.207529
960.333	0.540522
963.708	0.299347
967.083	0.121059
970.458	0.06539
973.833	0.211809
977.207	0.005732
980.582	0.468481
983.957	0.418777
987.332	0.396509
990.707	0.045242
994.082	0.20895
997.456	0.479786
1000.83	0.019089
1004.21	0.426756
1007.58	0.252237
1010.96	0.305788
1014.33	1.05877
1017.71	1.91908
1021.08	3.88357
1024.45	4.1353
1027.83	5.20458
1031.2	7.10874
1034.58	9.05689
1037.95	11.7774
1041.33	15.5678
1044.7	20.4401
1048.08	24.8192
1051.45	32.3271
1054.83	41.7944
1058.2	54.4146
1061.58	72.9805
1064.95	98.7096
1068.33	141.635
1071.7	230.794
1075.08	379.833
1078.45	559.996
1081.83	774.111
1085.2	935.245
1088.58	789.272
1091.95	454.118
1095.33	219.894
1098.7	108.887
1102.08	58.5686
1105.45	37.5101
1108.83	21.3325
1112.2	13.5566
1115.58	8.45516
1118.95	5.66834
1122.32	3.50143
1125.7	2.82377
1129.07	1.71053
1132.45	0.212294
1135.82	0.312714
1139.2	0.051422
1142.57	0.516449
1145.95	0.280212
1149.32	0.270172
1152.7	0.456207
1156.07	0.133198
1159.45	0.170376
1162.82	0.50853
1166.2	0.355591
1169.57	0.519009
1172.95	1.34178
1176.32	0.890633
1179.7	0.646164
1183.07	1.79566
1186.45	1.36839
1189.82	1.3903
1193.2	2.00237
1196.57	1.1139
1199.94	1.91827
1203.32	1.77468
1206.69	1.27603
1210.07	1.16315
1213.44	1.26855
1216.82	1.09272
1220.19	1.47457
1223.57	1.36679
1226.94	1.41266
1230.32	1.58699
1233.69	0.613934
1237.07	0.335892
1240.44	0.585648
1243.82	1.25717
1247.19	0.686577
1250.57	1.2333
1253.94	1.8938
1257.32	0.568409
1260.69	0.424557
1264.07	0.73818
1267.44	1.0026
1270.82	0.16884
1274.19	1.57577
1277.57	0.202814
1280.94	0.390888
1284.32	0.607452
