Measurement: Raman, 532 nm, unoriented, Raman Data Processed
Mineral: Siderite
Rruff sample: R050262
Ideal chemistry: FeCO_3_
Locality: Panasqueira mine, Barroca Grande, Beira Baixa, Portugal
Source: Marcus Origlieri
Description: Group of yellowish brown flattened twinned crystals
Measured chemistry: (Fe_0.71_Mg_0.24_Mn_0.05_)_Σ=1_CO_3_ ; light :  (Fe_0.60_Mg_0.36_Mn_0.04_)_Σ=1_CO_3_ ; intermediate : (Fe_0.54_Mg_0.42_Mn_0.04_)_Σ=1_CO_3_ ; darker :  (Mg_0.54_Fe_0.42_Mn_0.04_)_Σ=1_CO_3_ darkest = magnesite
Raman shift (cm-1)	intensity
151.359	0
154.252	0.48407
157.145	11.6777
160.038	29.9977
162.93	59.0465
165.823	99.4239
168.716	153.644
171.608	234.952
174.501	321.808
177.394	424.158
180.286	522.304
183.179	632.65
186.072	749.681
188.965	857.748
191.857	915.51
194.75	812.558
197.643	574.888
200.535	322.466
203.428	163.12
206.321	72.7913
209.214	30.0216
212.106	3.6152
214.999	2.12115
217.892	12.921
220.784	4.62231
223.677	7.86981
226.57	7.18381
229.462	8.0726
232.355	1.16998
235.248	12.6736
238.141	12.756
241.033	26.2114
243.926	39.7581
246.819	46.8156
249.711	58.3593
252.604	73.6308
255.497	97.3444
258.389	117.203
261.282	150.216
264.175	194.844
267.067	261.959
269.96	349.588
272.853	486.753
275.746	688.4
278.638	949.934
281.531	1288.92
284.424	1695.42
287.316	2162.39
290.209	2659.12
293.102	3127.19
295.995	3361.96
298.887	3206.72
301.78	2680.4
304.673	1998.45
307.565	1400.02
310.458	960.255
313.351	662.603
316.243	462.984
319.136	341.21
322.029	254.06
324.921	198.432
327.814	158.216
330.707	123.285
333.6	95.9187
336.492	78.6872
339.385	61.4579
342.278	51.7433
345.17	42.0448
348.063	37.6061
350.956	28.329
353.849	28.3176
356.741	23.4561
359.634	23.6684
362.527	22.1859
365.419	16.6548
368.312	13.4633
371.205	12.4903
374.097	7.44074
376.99	5.20325
379.883	6.18271
382.776	0.609833
385.668	1.66098
388.561	1.25995
391.454	1.60382
394.346	6.41824
397.239	4.32855
400.132	1.65155
403.024	1.27014
405.917	3.3862
408.81	0.522858
411.702	10.0056
414.595	4.44199
417.488	6.85333
420.381	3.64096
423.273	2.30978
426.166	1.86371
429.059	3.31808
431.951	7.86478
434.844	8.86398
437.737	14.9215
440.63	17.5385
443.522	21.85
446.415	23.6272
449.308	31.1311
452.2	38.6979
455.093	39.303
457.986	46.6283
460.878	56.3409
463.771	59.1075
466.664	67.3175
469.557	76.6711
472.449	83.9629
475.342	94.7079
478.235	101.434
481.127	114.249
484.02	132.095
486.913	140.22
489.805	151.102
492.698	153.56
495.591	168.948
498.483	177.513
501.376	179.794
504.269	186.044
507.162	188.39
510.054	182.33
512.947	181.578
515.84	178.463
518.732	176.868
521.625	163.144
524.518	152.851
527.41	145.025
530.303	134.753
533.196	121.999
536.089	116.637
538.981	104.753
541.874	90.2753
544.767	83.9031
547.659	70.1897
550.552	63.1844
553.445	53.9978
556.337	44.8286
559.23	37.7948
562.123	28.8763
565.016	28.7441
567.908	17.9928
570.801	18.8704
573.694	14.9186
576.586	10.4004
579.479	6.4184
582.372	2.66232
585.264	3.6687
588.157	0.77829
591.05	2.65982
593.942	2.79239
596.835	3.22626
599.728	0.166351
602.621	0.124908
605.513	3.08499
608.406	1.43256
611.299	0.600525
614.191	1.19955
617.084	0.430603
619.977	0.52594
622.87	2.95825
625.762	0.979828
628.655	4.1019
631.548	2.23224
634.44	5.24567
637.333	4.46317
640.226	5.75842
643.118	4.95227
646.011	1.53784
648.904	4.39395
651.797	3.65997
654.689	7.0672
657.582	5.34821
660.475	10.1424
663.367	7.80963
666.26	8.05524
669.153	9.91199
672.045	9.09
674.938	12.1799
677.831	7.4216
680.723	8.69019
683.616	10.1416
686.509	11.7486
689.402	12.5712
692.294	17.1209
695.187	20.6045
698.08	26.2398
700.972	37.2726
703.865	48.2815
706.758	56.7267
709.65	77.8795
712.543	100.333
715.436	127.793
718.329	168.004
721.221	215.111
724.114	274.542
727.007	328.436
729.899	365.045
732.792	367.8
735.685	337.361
738.577	301.418
741.47	259.201
744.363	231.929
747.256	197.895
750.148	148.703
753.041	111.241
755.934	72.5216
758.826	50.8119
761.719	38.0117
764.612	23.1006
767.505	22.1867
770.397	16.767
773.29	10.5752
776.183	11.4306
779.075	2.78976
781.968	3.3732
784.861	0.200806
787.753	4.88272
790.646	2.5705
793.539	0.744781
796.432	0.975861
799.324	0.145447
802.217	4.59323
805.11	0.517334
808.002	1.81479
810.895	0.889496
813.788	3.26205
816.68	0.803467
819.573	0.387878
822.466	0.301331
825.359	1.24243
828.251	2.61615
831.144	3.61722
834.037	2.35544
836.929	2.3176
839.822	5.47443
842.715	7.92575
845.607	10.0915
848.5	5.82779
851.393	9.07269
854.285	14.6443
857.178	17.5056
860.071	26.2926
862.964	35.7521
865.856	44.3255
868.749	49.3549
871.642	43.4004
874.534	30.6963
877.427	21.0969
880.32	16.3958
883.212	11.1307
886.105	13.8753
888.998	18.6872
891.891	23.0372
894.783	26.769
897.676	29.1948
900.569	31.1702
903.461	37.7279
906.354	34.2659
909.247	35.6969
912.139	36.1424
915.032	32.6277
917.925	30.7
920.818	30.1157
923.71	22.8821
926.603	19.2191
929.496	18.1362
932.388	14.273
935.281	14.7871
938.174	9.44608
941.067	9.323
943.959	7.99356
946.852	5.30774
949.745	9.20187
952.637	4.31744
955.53	3.14081
958.423	3.77515
961.315	2.52182
964.208	0.683685
967.101	6.47589
969.994	3.52652
972.886	1.72961
975.779	1.87619
978.672	1.06531
981.564	0.006775
984.457	1.56567
987.35	1.83231
990.242	2.83725
993.135	1.095
996.028	0.335632
998.92	0.056244
1001.81	4.08615
1004.71	0.993286
1007.6	2.17508
1010.49	2.83447
1013.38	0.971588
1016.28	0.86264
1019.17	2.52911
1022.06	5.51114
1024.95	17.9273
1027.85	20.369
1030.74	33.6868
1033.63	45.8277
1036.53	64.3164
1039.42	80.3996
1042.31	104.716
1045.2	132.706
1048.1	170.543
1050.99	222.678
1053.88	280.76
1056.77	368.773
1059.67	479.692
1062.56	611.159
1065.45	799.844
1068.35	1045.14
1071.24	1402.88
1074.13	1984.03
1077.02	2998.93
1079.92	4503.38
1082.81	6501.16
1085.7	9109.06
1088.59	10966.8
1091.49	9201.53
1094.38	5350.1
1097.27	2715.34
1100.16	1464.14
1103.06	864.556
1105.95	540.777
1108.84	362.639
1111.74	245.757
1114.63	177.121
1117.52	119.277
1120.41	86.1318
1123.31	63.8315
1126.2	43.2418
1129.09	28.8915
1131.98	19.3708
1134.88	15.043
1137.77	9.07376
1140.66	7.05905
1143.56	2.26508
1146.45	2.20258
1149.34	2.11822
1152.23	4.51926
1155.13	3.05582
1158.02	0.634125
1160.91	0.872589
1163.8	0.00296
1166.7	1.25275
1169.59	1.827
1172.48	0.783508
1175.38	0.22403
1178.27	0.81897
1181.16	4.76984
1184.05	3.81119
1186.95	9.79791
1189.84	8.30045
1192.73	11.3882
1195.62	8.88803
1198.52	12.7083
1201.41	11.5897
1204.3	10.6455
1207.19	12.1401
1210.09	16.6269
1212.98	10.1722
1215.87	11.812
1218.77	12.6093
1221.66	15.0096
1224.55	8.98752
1227.44	8.38202
1230.34	11.2756
1233.23	5.95419
1236.12	5.16025
1239.02	5.16193
1241.91	5.9184
1244.8	4.69467
1247.69	8.36319
1250.59	2.4913
1253.48	5.83188
1256.37	5.51611
1259.26	4.77081
1262.16	2.07352
1265.05	8.20874
1267.94	2.87857
1270.83	4.41812
1273.73	2.67993
1276.62	5.0513
1279.51	3.22079
1282.4	7.41513
1285.3	3.96109
1288.19	0.445038
1291.08	0.715485
1293.98	3.21368
1296.87	6.57098
1299.76	8.50037
1302.65	4.19284
