Measurement: Raman, 780 nm, unoriented, Raman Data Processed
Mineral: Siderite
Rruff sample: R050262
Ideal chemistry: FeCO_3_
Locality: Panasqueira mine, Barroca Grande, Beira Baixa, Portugal
Source: Marcus Origlieri
Description: Group of yellowish brown flattened twinned crystals
Measured chemistry: (Fe_0.71_Mg_0.24_Mn_0.05_)_Σ=1_CO_3_ ; light :  (Fe_0.60_Mg_0.36_Mn_0.04_)_Σ=1_CO_3_ ; intermediate : (Fe_0.54_Mg_0.42_Mn_0.04_)_Σ=1_CO_3_ ; darker :  (Mg_0.54_Fe_0.42_Mn_0.04_)_Σ=1_CO_3_ darkest = magnesite
Raman shift (cm-1)	intensity
151.009	0
153.902	0.327515
156.794	6.1951
159.687	13.1774
162.58	27.4986
165.472	43.9854
168.365	67.4891
171.258	101.744
174.151	131.624
177.043	166.858
179.936	193.334
182.829	227.347
185.721	253.432
188.614	267.677
191.507	254.505
194.399	204.899
197.292	136.77
200.185	76.7065
203.078	33.8465
205.97	16.7148
208.863	5.55267
211.756	2.11886
214.648	0.132195
217.541	6.22179
220.434	2.88346
223.327	1.58707
226.219	1.62265
229.112	2.50209
232.005	0.684372
234.897	8.91397
237.79	7.11287
240.683	11.5688
243.575	22.7046
246.468	22.5816
249.361	26.0228
252.254	36.6327
255.146	45.0452
258.039	56.6358
260.932	77.407
263.824	102.506
266.717	140.692
269.61	194.648
272.502	272.565
275.395	380.987
278.288	512.383
281.18	663.128
284.073	821.752
286.966	986.894
289.859	1112.58
292.751	1177.24
295.644	1143.81
298.537	1015.99
301.429	810.433
304.322	594.106
307.215	419.781
310.108	296.261
313	206.613
315.893	146
318.786	105.916
321.678	81.7957
324.571	61.97
327.464	50.5297
330.356	37.6804
333.249	28.5586
336.142	24.7474
339.034	20.7305
341.927	17.3765
344.82	15.4887
347.713	14.0768
350.605	5.10312
353.498	8.1801
356.391	6.02902
359.283	6.75001
362.176	8.12905
365.069	4.2699
367.962	1.77629
370.854	2.24431
373.747	1.88353
376.64	1.58533
379.532	3.90453
382.425	0.512764
385.318	1.34309
388.21	1.75489
391.103	1.20032
393.996	1.75803
396.889	0.666771
399.781	1.00035
402.674	0.584068
405.567	0.246666
408.459	0.294113
411.352	2.69449
414.245	0.119347
417.137	0.234898
420.03	0.202061
422.923	2.72316
425.815	3.46511
428.708	0.922546
431.601	2.81535
434.494	4.09719
437.386	6.20311
440.279	6.81125
443.172	11.4185
446.064	10.8414
448.957	8.26849
451.85	11.4317
454.743	10.9976
457.635	16.1581
460.528	16.2979
463.421	19.1953
466.313	18.7839
469.206	20.6939
472.099	22.4315
474.991	31.3896
477.884	30.3404
480.777	32.9558
483.669	39.0863
486.562	42.8999
489.455	40.9596
492.348	45.7287
495.24	42.9564
498.133	48.2166
501.026	50.0606
503.918	47.6542
506.811	48.2779
509.704	50.9309
512.596	51.4609
515.489	48.7582
518.382	43.4845
521.274	46.2702
524.167	41.3938
527.06	35.373
529.953	35.3826
532.845	30.5523
535.738	28.0878
538.631	26.9198
541.523	21.6559
544.416	21.4829
547.309	20.0158
550.202	15.8013
553.094	13.8855
555.987	12.4128
558.88	7.75143
561.772	8.07042
564.665	6.40893
567.558	5.6193
570.45	3.85095
573.343	1.5561
576.236	3.11812
579.129	1.03277
582.021	2.83466
584.914	1.14572
587.807	0.055096
590.699	3.04664
593.592	1.34581
596.485	0.389994
599.377	1.74504
602.27	0.744946
605.163	0.383032
608.056	6.46896
610.948	2.86743
613.841	2.21922
616.734	0.492926
619.626	0.749826
622.519	1.16604
625.412	3.83208
628.304	0.346743
631.197	3.66639
634.09	3.01472
636.982	2.75523
639.875	2.74095
642.768	0.656689
645.661	5.41301
648.553	1.85568
651.446	2.38703
654.339	2.21972
657.231	4.44739
660.124	3.56031
663.017	0.515306
665.909	3.69645
668.802	3.95819
671.695	3.48833
674.588	2.0012
677.48	0.076042
680.373	0.271652
683.266	1.25734
686.158	2.73067
689.051	4.7018
691.944	1.43434
694.837	4.99704
697.729	4.86365
700.622	3.76475
703.515	4.95462
706.407	9.99253
709.3	14.0667
712.193	21.5346
715.085	29.0184
717.978	33.887
720.871	47.597
723.764	63.6184
726.656	69.3654
729.549	72.3367
732.442	71.81
735.334	66.1772
738.227	59.9748
741.12	47.6908
744.013	42.9272
746.905	36.8555
749.798	26.2529
752.691	20.4914
755.583	13.783
758.476	6.96971
761.369	6.20053
764.261	5.2599
767.154	4.40535
770.047	5.22444
772.939	2.50694
775.832	2.03606
778.725	1.25597
781.618	5.54334
784.51	1.64526
787.403	3.28376
790.296	1.0504
793.188	1.48873
796.081	3.7731
798.974	1.91427
801.866	2.28979
804.759	2.11563
807.652	4.14661
810.545	3.69244
813.437	1.42916
816.33	3.16823
819.223	2.42577
822.115	4.49214
825.008	6.1588
827.901	2.19625
830.793	3.38859
833.686	3.80106
836.579	1.78339
839.471	5.5755
842.364	5.47956
845.257	4.43557
848.15	4.1828
851.042	5.4431
853.935	9.48848
856.828	6.761
859.72	10.5634
862.613	11.5228
865.506	12.0404
868.399	13.2651
871.291	10.9039
874.184	5.79695
877.077	5.62881
879.969	5.70423
882.862	5.30951
885.755	5.77701
888.647	6.82047
891.54	3.16495
894.433	2.77343
897.326	4.91132
900.218	0.27091
903.111	2.49134
906.004	3.41702
908.896	4.94086
911.789	3.91147
914.682	6.49933
917.574	4.09188
920.467	0.514298
923.36	3.5031
926.253	3.44918
929.145	1.60587
932.038	4.1018
934.931	2.55504
937.823	2.45414
940.716	5.61128
943.609	2.16725
946.501	1.70573
949.394	1.03094
952.287	2.65715
955.179	1.1304
958.072	4.96608
960.965	3.61047
963.858	4.5289
966.75	3.97552
969.643	2.23406
972.536	0.070888
975.428	3.1029
978.321	3.23741
981.214	1.32486
984.106	2.32188
986.999	1.97855
989.892	0.667402
992.785	1.18446
995.677	2.88297
998.57	2.08201
1001.46	0.885217
1004.36	2.64895
1007.25	1.16884
1010.14	1.19929
1013.03	3.29832
1015.93	0.85741
1018.82	5.3479
1021.71	5.39302
1024.6	7.00061
1027.5	4.10034
1030.39	9.84334
1033.28	8.15826
1036.17	10.7845
1039.07	16.6106
1041.96	16.6988
1044.85	24.1917
1047.75	34.5656
1050.64	37.9133
1053.53	48.9706
1056.42	66.8308
1059.32	86.5852
1062.21	107.884
1065.1	143.639
1067.99	186.006
1070.89	262.165
1073.78	388.354
1076.67	588.832
1079.57	847.688
1082.46	1165.49
1085.35	1486.7
1088.24	1538.05
1091.14	1123.9
1094.03	617.764
1096.92	318.723
1099.81	177.732
1102.71	102.051
1105.6	66.776
1108.49	47.8387
1111.38	31.0921
1114.28	17.6668
1117.17	12.4765
1120.06	10.0168
1122.96	7.46626
1125.85	4.12663
1128.74	2.33992
1131.63	3.67855
1134.53	0.851872
1137.42	2.22543
1140.31	1.19543
1143.2	0.084579
1146.1	1.91928
1148.99	0.323187
1151.88	1.08672
1154.78	3.38598
1157.67	0.304956
1160.56	0.698632
1163.45	1.76105
1166.35	1.85041
1169.24	1.23792
1172.13	2.80737
1175.03	2.23984
1177.92	4.21534
1180.81	2.44
1183.7	3.07904
1186.6	3.50327
1189.49	3.45997
1192.38	2.00408
1195.27	6.72352
1198.17	2.79649
1201.06	0.479922
1203.95	7.30037
1206.84	5.62228
1209.74	5.59209
1212.63	7.29704
1215.52	6.37779
1218.41	3.04614
1221.31	2.28548
1224.2	6.26341
1227.09	3.80305
1229.99	5.33338
1232.88	2.59188
1235.77	6.06565
1238.66	2.99171
1241.56	3.18182
1244.45	0.122086
1247.34	7.12286
1250.23	2.09397
1253.13	4.16104
1256.02	0.001655
1258.91	3.70129
1261.81	2.955
1264.7	5.44681
1267.59	3.0976
1270.48	4.68632
1273.38	0.577877
1276.27	3.32081
1279.16	0.919094
1282.06	5.30737
1284.95	2.18872
