Measurement: Raman, 532 nm, unoriented, Raman Data Processed
Mineral: Siderite
Rruff sample: R040034
Ideal chemistry: FeCO_3_
Locality: Pribram, Czech Republic
Source: University of Arizona Mineral Museum
Description: Group of tan colored flattened rhombohedra
Measured chemistry: (Fe_0.72_Mg_0.24_Mn_0.03_Ca_0.01_)_Î£=1_C_1.00_O_3_; CO_2_ estimated by difference
Raman shift (cm-1)	intensity
150.296	0
153.189	0.836502
156.081	7.09818
158.974	18.8317
161.867	41.7293
164.76	66.8196
167.652	100.19
170.545	138.204
173.438	182.959
176.33	226.367
179.223	268.949
182.116	319.767
185.008	362.406
187.901	407.141
190.794	406.839
193.686	333.512
196.579	206.601
199.472	109.983
202.365	61.1822
205.257	29.3647
208.15	8.96898
211.043	1.61354
213.935	3.98306
216.828	0.886383
219.721	7.04927
222.613	5.45169
225.506	2.7848
228.399	0.145096
231.292	4.23447
234.184	5.0983
237.077	11.1762
239.97	13.3674
242.862	15.4953
245.755	25.2227
248.648	32.837
251.541	40.4957
254.433	49.3835
257.326	64.842
260.219	81.3325
263.111	110.942
266.004	153.209
268.897	207.177
271.789	289.872
274.682	403.259
277.575	538.862
280.467	690.484
283.36	865.582
286.253	1064.77
289.146	1283.2
292.038	1443.67
294.931	1450.34
297.824	1251.86
300.716	949.319
303.609	681.158
306.502	478.224
309.394	331.578
312.287	237.704
315.18	176.138
318.073	129.527
320.965	102.695
323.858	79.4373
326.751	64.6852
329.643	53.1461
332.536	45.2488
335.429	34.8582
338.322	28.7451
341.214	24.7226
344.107	18.653
347	16.6196
349.892	17.736
352.785	12.7696
355.678	11.6883
358.57	10.0323
361.463	6.7713
364.356	8.86938
367.248	5.32278
370.141	5.25079
373.034	3.21536
375.926	3.83044
378.819	0.96376
381.712	4.05658
384.605	0.5215
387.497	0.787766
390.39	1.0206
393.283	1.18397
396.175	0.549286
399.068	0.370163
401.961	1.99532
404.853	4.73933
407.746	0.618652
410.639	3.42914
413.532	0.275665
416.424	2.18247
419.317	0.739182
422.21	0.078476
425.102	1.37291
427.995	5.98035
430.888	0.750977
433.781	4.11191
436.673	5.33173
439.566	5.59972
442.459	9.99094
445.351	13.2499
448.244	12.9275
451.137	20.4673
454.029	21.8238
456.922	24.4027
459.815	28.8548
462.707	32.1408
465.6	32.8177
468.493	37.8578
471.386	36.3975
474.278	45.8065
477.171	51.8351
480.064	60.4366
482.956	62.66
485.849	68.0531
488.742	74.2736
491.635	80.9697
494.527	85.0481
497.42	86.9945
500.313	91.5201
503.205	95.798
506.098	94.8174
508.991	89.8066
511.883	95.2109
514.776	88.9369
517.669	83.5279
520.562	85.1937
523.454	79.8182
526.347	71.7337
529.24	68.7221
532.132	63.5881
535.025	58.9629
537.918	51.9745
540.81	48.1415
543.703	43.885
546.596	35.9958
549.489	33.4296
552.381	27.6242
555.274	24.1376
558.167	17.8789
561.059	19.8575
563.952	13.6788
566.845	12.883
569.737	8.60599
572.63	9.28346
575.523	7.0854
578.415	5.23297
581.308	2.54269
584.201	1.96579
587.094	1.10644
589.986	0.23085
592.879	0.17308
595.772	1.85617
598.664	2.17052
601.557	1.79527
604.45	1.59178
607.342	1.27312
610.235	2.63162
613.128	0.993118
616.021	0.952042
618.913	1.36299
621.806	0.039001
624.699	0.625259
627.591	0.497467
630.484	1.04556
633.377	1.69192
636.269	2.23637
639.162	3.17317
642.055	3.03857
644.948	3.26657
647.84	1.47052
650.733	2.68158
653.626	3.26567
656.518	2.62843
659.411	2.17172
662.304	3.25522
665.197	2.55879
668.089	2.28693
670.982	2.99971
673.875	4.01093
676.767	3.78534
679.66	3.65953
682.553	3.52947
685.445	3.95988
688.338	3.58496
691.231	5.85822
694.124	5.02231
697.016	7.37148
699.909	9.1799
702.802	10.4908
705.694	15.0766
708.587	23.6011
711.48	31.512
714.372	48.4485
717.265	63.0236
720.158	81.214
723.051	101.325
725.943	119.633
728.836	132.166
731.729	132.782
734.621	124.285
737.514	111.212
740.407	98.4312
743.299	87.2288
746.192	72.8535
749.085	58.4524
751.977	44.1474
754.87	33.7378
757.763	21.6299
760.656	16.7794
763.548	12.5316
766.441	6.4933
769.334	6.27083
772.226	7.40338
775.119	3.57826
778.012	2.09726
780.904	1.54233
783.797	2.08775
786.69	0.297714
789.582	0.131134
792.475	1.76968
795.368	0.889236
798.261	0.042618
801.153	1.42735
804.046	0.199799
806.939	0.839493
809.831	0.032455
812.724	0.842758
815.617	1.33469
818.51	1.11748
821.402	0.175095
824.295	0.635818
827.188	1.56827
830.08	1.73846
832.973	0.107086
835.866	3.80263
838.758	4.40657
841.651	2.13452
844.544	4.16748
847.437	2.41431
850.329	3.51564
853.222	3.27452
856.115	8.72174
859.007	11.2087
861.9	15.7901
864.793	16.6801
867.685	17.8771
870.578	16.0887
873.471	15.9202
876.364	6.13002
879.256	3.84514
882.149	1.01746
885.042	2.14705
887.934	1.78546
890.827	2.36235
893.72	1.25317
896.612	2.77446
899.505	1.13347
902.398	5.58598
905.29	3.09515
908.183	5.0822
911.076	2.79497
913.969	5.22881
916.861	4.11549
919.754	6.39603
922.647	3.72818
925.539	3.36989
928.432	4.39256
931.325	4.74083
934.217	3.8096
937.11	4.67206
940.003	6.2094
942.896	5.6636
945.788	3.64681
948.681	4.41763
951.574	7.77756
954.466	3.34509
957.359	4.0304
960.252	2.65547
963.144	2.22174
966.037	3.69295
968.93	1.46501
971.823	0.536179
974.715	0.946838
977.608	1.77335
980.501	1.55249
983.393	1.5761
986.286	0.115753
989.179	1.15961
992.072	1.86781
994.964	1.52367
997.857	1.69563
1000.75	0.972641
1003.64	1.85034
1006.53	1.67679
1009.43	0.008713
1012.32	0.552155
1015.21	0.680405
1018.11	3.36586
1021	3.93485
1023.89	10.1895
1026.78	10.2485
1029.68	12.472
1032.57	22.6637
1035.46	29.7181
1038.36	35.1307
1041.25	48.4205
1044.14	66.8976
1047.03	80.9434
1049.93	101.548
1052.82	129.56
1055.71	166.352
1058.6	209.005
1061.5	270.171
1064.39	348.93
1067.28	463.694
1070.17	632.833
1073.07	925.676
1075.96	1421.53
1078.85	2033.38
1081.74	2810.11
1084.64	3847.05
1087.53	4656.59
1090.42	3954.1
1093.32	2330.55
1096.21	1233.7
1099.1	673.501
1101.99	404.162
1104.89	256.805
1107.78	176.939
1110.67	120.772
1113.57	83.2289
1116.46	55.8427
1119.35	37.8147
1122.24	28.0384
1125.14	18.2608
1128.03	11.4264
1130.92	6.86687
1133.81	5.17957
1136.71	2.04929
1139.6	1.65392
1142.49	1.54816
1145.38	0.197784
1148.28	1.97327
1151.17	0.52478
1154.06	0.136734
1156.95	3.37862
1159.85	2.63033
1162.74	2.34094
1165.63	1.48175
1168.53	0.096451
1171.42	0.5746
1174.31	1.00307
1177.2	2.01784
1180.1	1.77831
1182.99	4.07852
1185.88	5.16055
1188.78	3.79337
1191.67	6.89403
1194.56	4.01163
1197.45	5.73119
1200.35	3.58588
1203.24	5.0938
1206.13	8.21822
1209.02	7.4335
1211.92	8.03998
1214.81	7.59778
1217.7	6.87781
1220.6	7.68446
1223.49	5.93867
1226.38	4.4859
1229.27	5.91568
1232.17	4.55371
1235.06	3.42429
1237.95	4.36848
1240.84	3.84834
1243.74	3.34558
1246.63	0.557938
1249.52	4.66127
1252.41	2.27759
1255.31	2.67204
1258.2	1.87769
1261.09	4.50319
1263.98	0.97757
1266.88	2.53874
1269.77	3.13182
1272.66	2.51183
1275.56	2.99762
1278.45	0.371048
1281.34	1.54132
