Measurement: Raman, 514 nm, unoriented, Raman Data Processed
Mineral: Siderite
Rruff sample: R040034
Ideal chemistry: FeCO_3_
Locality: Pribram, Czech Republic
Source: University of Arizona Mineral Museum
Description: Group of tan colored flattened rhombohedra
Measured chemistry: (Fe_0.72_Mg_0.24_Mn_0.03_Ca_0.01_)_Î£=1_C_1.00_O_3_; CO_2_ estimated by difference
Raman shift (cm-1)	intensity
132.309	0
136.47	1.186
140.63	12.436
144.787	18.158
148.942	34.876
153.096	70.349
157.247	86.53
161.396	156.685
165.544	238.666
169.689	300.934
173.833	461.798
177.974	714.527
182.114	1015.89
186.251	1432.89
190.387	1478.44
194.52	1032.93
198.652	538.496
202.782	270.281
206.909	185.205
211.035	65.127
215.159	19.021
219.281	3.016
223.4	8.955
227.518	14.184
231.634	8.375
235.748	13.599
239.86	21.831
243.97	62.043
248.079	59.237
252.185	105.416
256.289	128.58
260.391	176.773
264.492	228.654
268.59	322.645
272.687	518.06
276.781	838.415
280.874	1296.96
284.964	2264.68
289.053	3400.43
293.14	3951.03
297.225	3331.17
301.308	2298.28
305.389	1380.45
309.468	856.592
313.545	543.172
317.62	416.651
321.693	310.534
325.765	221.305
329.834	222.003
333.902	158.629
337.967	158.182
342.031	140.456
346.093	124.476
350.153	102.452
354.21	101.433
358.267	88.422
362.321	58.414
366.373	55.406
370.423	48.395
374.471	55.379
378.518	38.418
382.563	35.958
386.605	28.161
390.646	49.445
394.685	23.731
398.722	12.18
402.757	8.436
406.79	11.269
410.821	2.122
414.851	4.96
418.878	31.783
422.904	47.587
426.927	20.379
430.949	21.137
434.969	34.905
438.987	11.669
443.003	43.518
447.018	49.281
451.03	64.135
455.041	66.951
459.049	66.112
463.056	100.71
467.061	91.891
471.064	126.566
475.065	132.289
479.064	159.102
483.062	186.445
487.057	205.393
491.051	232.26
495.043	248.08
499.032	245.716
503.02	254.444
507.007	281.549
510.991	290.749
514.973	283.9
518.954	286.514
522.933	282.094
526.91	260.491
530.885	247.858
534.858	229.141
538.829	203.454
542.799	189.612
546.766	162.898
550.732	140.232
554.696	151.495
558.658	136.919
562.618	125.403
566.576	120.076
570.533	79.406
574.488	61.222
578.44	47.185
582.391	63.68
586.341	46.727
590.288	33.839
594.233	22.921
598.177	14.946
602.119	23.984
606.059	7.05
609.997	22.101
613.933	16.153
617.868	11.852
621.801	21.082
625.731	26.999
629.66	15.886
633.588	7.814
637.513	4.756
641.437	8.288
645.358	1.18
649.278	4.736
653.196	15.545
657.113	8.459
661.027	1.681
664.94	10.842
668.851	4.673
672.76	10.804
676.667	14.222
680.572	24.834
684.476	17.266
688.378	44.318
692.278	32.264
696.176	48.57
700.072	71.797
703.967	55.363
707.86	71.835
711.751	106.203
715.64	159.057
719.527	287.898
723.413	466.706
727.297	596.744
731.179	714.156
735.059	670.744
738.937	582.379
742.814	529.773
746.689	404.434
750.562	268.38
754.433	207.838
758.303	132.411
762.17	90.349
766.036	84.504
769.901	48.789
773.763	60.765
777.624	42.771
781.482	47.47
785.339	35.984
789.195	26.163
793.048	27.402
796.9	5.944
800.75	8.81
804.598	12.379
808.445	25.837
812.289	4.353
816.132	19.5
819.973	20.638
823.813	19.981
827.65	16.146
831.486	3.383
835.32	1.385
839.152	1.641
842.983	2.192
846.812	4.446
850.639	23.623
854.464	1.207
858.288	32.912
862.11	29.992
865.93	47.037
869.748	85.047
873.564	47.024
877.379	10.967
881.192	6.874
885.004	14.739
888.813	8.471
892.621	11.247
896.427	8.919
900.232	19.554
904.034	15.156
907.835	11.722
911.634	1.26
915.432	21.244
919.227	2.181
923.021	5.551
926.813	12.925
930.604	6.279
934.393	34.59
938.18	6.154
941.965	10.03
945.749	35.066
949.53	22.873
953.311	28.808
957.089	6.791
960.866	10.84
964.641	15.463
968.414	46.49
972.185	25.616
975.955	49.727
979.723	36.771
983.49	37.678
987.254	49.742
991.017	55.222
994.779	40.698
998.538	58.254
1002.3	77.368
1006.05	54.993
1009.81	86.053
1013.56	78.285
1017.31	84.534
1021.06	90.79
1024.81	139.054
1028.55	161.382
1032.3	219.396
1036.04	265.047
1039.78	329.741
1043.52	426.793
1047.26	534.341
1050.99	622.634
1054.73	791.581
1058.46	997.024
1062.19	1270.1
1065.92	1693.47
1069.65	2216.34
1073.37	2964.66
1077.1	4357.23
1080.82	7179.8
1084.54	14191.3
1088.26	25638.1
1091.97	21574.2
1095.69	10106
1099.4	4511.88
1103.12	2366.79
1106.83	1382.74
1110.54	854.716
1114.24	571.698
1117.95	449.734
1121.65	377.884
1125.35	312.885
1129.06	199.001
1132.75	140.145
1136.45	153.125
1140.15	122.536
1143.84	95.791
1147.53	58.082
1151.22	41.403
1154.91	35.754
1158.6	67.138
1162.28	40.547
1165.97	41.98
1169.65	29.436
1173.33	32.913
1177.01	12.407
1180.69	4.921
1184.36	2.458
1188.04	14.1
1191.71	28.911
1195.38	17.548
1199.05	6.212
1202.71	10.941
1206.38	25.691
1210.04	13.423
1213.71	10.008
1217.37	23.91
1221.03	29.776
1224.68	28.334
1228.34	41.092
1231.99	8.945
1235.65	32.628
1239.3	30.854
1242.95	53.631
1246.59	60.475
1250.24	48.467
1253.88	24.355
1257.53	32.264
1261.17	25.244
1264.81	60.194
1268.45	29.137
1272.08	36.09
1275.72	49.054
1279.35	36.029
1282.98	34.013
1286.61	58.006
1290.24	38.007
1293.87	41.012
1297.49	53.024
1301.11	38.032
1304.73	47.022
1308.36	44.957
1311.97	47.895
1315.59	26.471
1319.2	46.978
1322.82	59.082
1326.43	28.79
1330.04	22.21
1333.65	22.598
1337.26	46.943
1340.86	37.242
1344.47	30.486
1348.07	24.587
1351.67	31.559
1355.27	2.36
1358.87	8.676
1362.46	6.33
1366.06	10.612
1369.65	9.56
1373.24	4.704
1376.83	2.116
1380.42	16.536
1384	30.262
1387.59	6.082
1391.17	5.196
1394.75	37.672
1398.33	45.527
1401.91	24.37
1405.49	27.197
1409.06	39.007
1412.64	92.796
1416.21	95.561
1419.78	101.302
1423.35	131.027
1426.91	140.757
1430.48	179.489
1434.05	199.872
1437.61	224.605
1441.17	189.174
1444.73	193.416
1448.29	211.909
1451.84	191.411
1455.4	179.264
1458.95	196.411
1462.5	210.84
1466.05	148.329
1469.6	179.631
1473.15	154.636
1476.69	140.238
1480.24	152.348
1483.78	105.877
1487.32	115.757
1490.86	70.404
1494.39	81.405
1497.93	37.167
1501.46	48.761
1505	40.326
1508.53	17.246
1512.06	32.949
1515.59	21.227
1519.11	1.405
1522.64	22.751
1526.16	0.075
