Measurement: Raman, 780 nm, unoriented, Raman Data Processed
Mineral: Siderite
Rruff sample: R040034
Ideal chemistry: FeCO_3_
Locality: Pribram, Czech Republic
Source: University of Arizona Mineral Museum
Description: Group of tan colored flattened rhombohedra
Measured chemistry: (Fe_0.72_Mg_0.24_Mn_0.03_Ca_0.01_)_Î£=1_C_1.00_O_3_; CO_2_ estimated by difference
Raman shift (cm-1)	intensity
122.955	0
125.848	0.568832
128.74	2.40176
131.633	1.47099
134.526	5.69995
137.418	13.3812
140.311	14.6426
143.204	19.0248
146.096	26.2382
148.989	34.9162
151.882	43.8387
154.775	53.7824
157.667	73.9543
160.56	90.0129
163.453	115.154
166.345	148.197
169.238	188.889
172.131	233.687
175.024	273.642
177.916	309.794
180.809	345.111
183.702	377.402
186.594	399.492
189.487	397.08
192.38	345.479
195.272	238.413
198.165	131.595
201.058	71.6504
203.951	38.4446
206.843	19.6552
209.736	9.38123
212.629	1.21896
215.521	2.49085
218.414	1.17357
221.307	5.14015
224.199	3.24368
227.092	1.15758
229.985	0.349167
232.877	0.019318
235.77	2.25397
238.663	7.13968
241.556	7.72688
244.448	11.9319
247.341	16.6949
250.234	19.3299
253.126	23.8756
256.019	29.344
258.912	42.8364
261.805	56.3396
264.697	74.251
267.59	105.793
270.483	139.289
273.375	186.218
276.268	243.622
279.161	299.384
282.053	364.81
284.946	437.224
287.839	511.342
290.731	561.604
293.624	581.215
296.517	526.187
299.41	426.716
302.302	309.161
305.195	215.113
308.088	149.462
310.98	106.59
313.873	76.4792
316.766	59.2285
319.659	43.5356
322.551	33.9527
325.444	26.1075
328.337	19.9631
331.229	18.2134
334.122	16.3983
337.015	11.0957
339.907	11.0389
342.8	9.25104
345.693	9.00987
348.586	4.52171
351.478	10.0237
354.371	3.5017
357.264	5.685
360.156	7.43419
363.049	6.07229
365.942	3.76913
368.834	1.13774
371.727	2.55885
374.62	2.14906
377.512	2.44838
380.405	2.57732
383.298	0.555885
386.191	0.521553
389.083	0.509048
391.976	0.504913
394.869	0.178658
397.761	1.06758
400.654	1.75943
403.547	0.862236
406.44	3.51008
409.332	0.890594
412.225	1.54686
415.118	0.861305
418.01	0.5037
420.903	0.775482
423.796	0.344879
426.688	0.835121
429.581	1.59454
432.474	2.07122
435.366	2.76553
438.259	3.45576
441.152	3.65659
444.045	5.06081
446.937	5.53355
449.83	8.12926
452.723	8.95492
455.615	9.07359
458.508	10.504
461.401	12.6956
464.293	16.9084
467.186	17.3699
470.079	16.9035
472.972	20.3158
475.864	21.7279
478.757	27.0038
481.65	28.3667
484.542	32.2148
487.435	33.0245
490.328	37.262
493.221	36.8537
496.113	38.8606
499.006	41.0411
501.899	43.7766
504.791	42.3822
507.684	45.2256
510.577	42.9383
513.469	39.8229
516.362	41.8072
519.255	40.8375
522.148	36.6285
525.04	35.9064
527.933	32.4452
530.826	29.4681
533.718	26.9491
536.611	22.6881
539.504	20.8525
542.396	20.4378
545.289	16.9059
548.182	12.8684
551.074	13.0891
553.967	11.7336
556.86	10.5415
559.753	8.28911
562.645	6.31857
565.538	5.49533
568.431	4.43387
571.323	3.18817
574.216	1.85281
577.109	3.94821
580.001	3.17027
582.894	1.26717
585.787	1.48447
588.68	0.426529
591.572	0.103577
594.465	1.7898
597.358	0.271637
600.25	0.776428
603.143	2.05662
606.036	0.665012
608.928	0.540665
611.821	3.51269
614.714	0.030025
617.607	0.011616
620.499	1.36307
623.392	0.745033
626.285	0.614262
629.177	2.64026
632.07	2.07624
634.963	0.479805
637.856	2.70251
640.748	2.45009
643.641	1.89835
646.534	2.25009
649.426	3.71144
652.319	1.51695
655.212	2.04956
658.104	3.00297
660.997	6.23568
663.89	2.81284
666.783	1.51992
669.675	3.65851
672.568	1.43742
675.461	2.95495
678.353	1.68697
681.246	3.64207
684.139	3.64301
687.031	0.913696
689.924	3.07761
692.817	5.49267
695.71	3.76302
698.602	8.09522
701.495	10.8052
704.388	11.9169
707.28	18.8728
710.173	27.2313
713.066	34.6059
715.958	46.6749
718.851	60.2079
721.744	76.6473
724.636	88.5387
727.529	94.0312
730.422	99.8826
733.315	93.5903
736.207	79.3509
739.1	66.1039
741.993	54.8707
744.885	48.209
747.778	33.7475
750.671	25.4372
753.563	16.2932
756.456	9.40647
759.349	7.41232
762.242	5.71845
765.134	2.79077
768.027	4.09167
770.92	1.94333
773.812	3.08251
776.705	1.49085
779.598	2.37351
782.49	1.48016
785.383	0.930321
788.276	0.025471
791.169	1.87871
794.061	1.04501
796.954	0.529259
799.847	0.892475
802.739	0.526146
805.632	0.464905
808.525	0.053551
811.418	2.38431
814.31	0.570152
817.203	1.60112
820.096	0.140213
822.988	0.093941
825.881	1.79859
828.774	0.218956
831.666	2.26852
834.559	3.69148
837.452	2.12157
840.345	2.96904
843.237	2.49043
846.13	2.80306
849.023	2.38508
851.915	5.06388
854.808	5.69569
857.701	4.9454
860.593	8.23303
863.486	9.36121
866.379	9.90514
869.271	8.60808
872.164	7.68425
875.057	6.17783
877.95	1.68457
880.842	0.466087
883.735	1.78634
886.628	1.10729
889.52	1.23687
892.413	2.66237
895.306	0.360641
898.198	2.4739
901.091	1.15692
903.984	3.41808
906.877	0.807163
909.769	1.56579
912.662	2.63577
915.555	1.68872
918.447	1.55326
921.34	2.09597
924.233	1.68878
927.125	2.78683
930.018	1.14656
932.911	1.69998
935.803	3.54436
938.696	2.40902
941.589	0.338524
944.482	1.88081
947.374	2.39841
950.267	1.39346
953.16	6.62399
956.052	2.01387
958.945	1.21444
961.838	2.50589
964.731	0.958427
967.623	0.017509
970.516	0.551399
973.409	1.74707
976.301	1.4979
979.194	1.87223
982.087	0.795372
984.979	0.875237
987.872	0.194351
990.765	0.269299
993.658	0.535492
996.55	0.147232
999.443	1.7065
1002.34	0.763863
1005.23	0.687813
1008.12	0.795063
1011.01	0.402092
1013.91	0.373356
1016.8	1.81629
1019.69	1.21479
1022.59	3.36977
1025.48	6.19848
1028.37	7.51057
1031.26	10.9361
1034.15	14.7061
1037.05	15.8605
1039.94	25.5516
1042.83	29.8061
1045.73	35.8184
1048.62	50.7105
1051.51	59.1181
1054.4	80.4907
1057.3	104.208
1060.19	133.304
1063.08	169.27
1065.97	229.262
1068.87	310.12
1071.76	458.877
1074.65	703.126
1077.55	1002.76
1080.44	1333.34
1083.33	1711.32
1086.22	2015.74
1089.12	1873.38
1092.01	1230.18
1094.9	661.316
1097.8	360.824
1100.69	205.745
1103.58	128.873
1106.47	84.8974
1109.37	59.025
1112.26	36.9501
1115.15	27.7206
1118.04	17.4179
1120.94	10.9445
1123.83	8.65707
1126.72	6.42614
1129.61	3.98582
1132.51	2.39291
1135.4	2.38843
1138.29	0.056145
1141.18	0.214138
1144.08	0.832474
1146.97	0.629848
1149.86	1.77967
1152.76	0.026283
1155.65	0.96682
1158.54	0.047325
1161.43	0.01347
1164.33	0.082306
1167.22	2.32559
1170.11	1.26617
1173.01	1.20408
1175.9	0.855347
1178.79	2.20507
1181.68	2.32526
1184.58	2.94473
1187.47	4.47567
1190.36	2.19743
1193.25	2.31443
1196.15	5.57511
1199.04	1.4741
1201.93	2.87368
1204.83	2.9558
1207.72	3.29153
1210.61	5.85762
1213.5	2.16521
1216.39	3.78323
1219.29	1.54765
1222.18	2.21019
1225.07	1.88948
1227.97	0.400089
1230.86	2.79508
1233.75	1.225
1236.64	2.55904
1239.54	1.85667
1242.43	2.34741
1245.32	1.74464
1248.21	1.98399
1251.11	2.1236
1254	2.28613
1256.89	0.024952
1259.79	0.100716
1262.68	1.05865
1265.57	0.978706
