Measurement: Raman, 532 nm, unoriented, Raman Data Processed
Mineral: Sidwillite
Rruff sample: R080047
Ideal chemistry: MoO_3_2H_2_O
Locality: Freedom No. 2 Mine, Marysvale District (Marysvale Uranium area), Piute Co., Utah, USA
Source: Michael Scott
Description: Forest-green, massive druse
Raman shift (cm-1)	intensity
150.292	0
153.185	0.059418
156.078	3.21516
158.97	7.78928
161.863	12.6957
164.756	15.7569
167.649	17.591
170.541	15.8308
173.434	12.5326
176.327	9.38357
179.219	6.33383
182.112	4.42267
185.005	2.17584
187.898	1.19711
190.79	0.373222
193.683	1.3764
196.576	0.118324
199.468	0.668221
202.361	0.913666
205.254	4.17156
208.146	8.03555
211.039	12.7393
213.932	17.6204
216.825	24.3027
219.717	29.6934
222.61	37.8179
225.503	50.5045
228.395	61.9313
231.288	74.204
234.181	93.1192
237.073	113.191
239.966	128.537
242.859	120.12
245.751	91.62
248.644	70.91
251.537	57.6662
254.43	52.3171
257.322	49.7126
260.215	48.1746
263.108	44.8799
266	38.9712
268.893	32.3491
271.786	25.8384
274.678	22.7498
277.571	18.4831
280.464	15.1076
283.357	13.6887
286.249	10.5919
289.142	7.91699
292.035	5.90404
294.927	3.96239
297.82	1.73088
300.713	0.743256
303.606	0.659966
306.498	0.336525
309.391	0.008942
312.284	0.293526
315.176	0.064278
318.069	0.283455
320.962	0.524704
323.854	1.09517
326.747	1.16029
329.64	1.53735
332.533	3.37566
335.425	3.91086
338.318	5.1296
341.211	5.14826
344.103	5.76598
346.996	4.88471
349.889	4.90647
352.781	4.14613
355.674	4.3736
358.567	4.65862
361.459	5.40102
364.352	3.85513
367.245	4.63226
370.138	4.52285
373.03	4.64201
375.923	4.69449
378.816	5.47263
381.708	5.00749
384.601	5.16059
387.494	4.15642
390.387	3.60519
393.279	3.46518
396.172	2.03135
399.065	1.80336
401.957	1.46124
404.85	1.30543
407.743	1.32851
410.635	0.494499
413.528	0.180222
416.421	0.050201
419.313	0.509331
422.206	0.165154
425.099	0.141533
427.991	0.825714
430.884	0.523926
433.777	0.66584
436.67	0.613289
439.562	1.57838
442.455	1.34169
445.348	1.47703
448.24	1.0095
451.133	2.06146
454.026	2.30236
456.918	2.44314
459.811	3.2606
462.704	3.57286
465.597	3.10331
468.489	2.6376
471.382	2.15383
474.275	2.336
477.167	2.22482
480.06	2.12067
482.953	1.5116
485.846	1.93925
488.738	2.45624
491.631	2.2344
494.524	3.50634
497.416	3.18042
500.309	3.80885
503.202	1.98332
506.094	1.51248
508.987	2.452
511.88	0.718117
514.773	0.334488
517.665	0.029587
520.558	0.134132
523.451	0.505577
526.343	1.43309
529.236	0.81144
532.129	0.22123
535.021	0.108604
537.914	0.773041
540.807	0.981506
543.699	0.561981
546.592	1.09447
549.485	0.159996
552.378	1.80624
555.27	1.90485
558.163	2.14565
561.056	2.31838
563.948	2.96801
566.841	2.4305
569.734	3.39317
572.626	4.70258
575.519	5.07481
578.412	7.41861
581.305	6.68948
584.197	8.31175
587.09	8.87706
589.983	10.0144
592.875	10.8303
595.768	12.0598
598.661	12.8598
601.553	14.0868
604.446	14.4812
607.339	15.0899
610.232	14.7117
613.124	15.5608
616.017	16.0614
618.91	16.6531
621.802	16.1242
624.695	15.6174
627.588	14.474
630.481	15.0619
633.373	13.9983
636.266	13.8955
639.159	12.0774
642.051	12.3044
644.944	11.0462
647.837	10.2667
650.729	9.6936
653.622	7.98787
656.515	8.14198
659.408	7.23377
662.3	6.70521
665.193	5.96504
668.086	5.12663
670.978	4.60909
673.871	4.11858
676.764	4.1423
679.656	3.91153
682.549	3.28056
685.442	3.23924
688.335	2.46456
691.227	2.59962
694.12	2.44368
697.013	1.08005
699.905	1.33273
702.798	1.51151
705.691	0.552734
708.583	0.989594
711.476	0.736053
714.369	0.464882
717.261	0.154388
720.154	0.120422
723.047	0.452675
725.94	0.961929
728.832	0.643173
731.725	0.588753
734.618	0.070648
737.51	0.163246
740.403	0.096161
743.296	0.001823
746.188	0.312546
749.081	0.275208
751.974	0.174393
754.867	0.380653
757.759	0.139153
760.652	0.957436
763.545	0.379631
766.437	1.62681
769.33	1.51942
772.223	1.85424
775.115	1.95866
778.008	1.47021
780.901	1.84739
783.794	1.65073
786.686	0.811226
789.579	1.76636
792.472	0.765739
795.364	2.20659
798.257	2.52809
801.15	2.1163
804.043	3.80287
806.935	4.43702
809.828	4.96995
812.721	6.3343
815.613	5.88557
818.506	5.24249
821.399	3.70918
824.291	2.53595
827.184	1.71236
830.077	1.92177
832.97	1.78082
835.862	1.90686
838.755	3.04492
841.648	3.97941
844.54	4.41507
847.433	6.99414
850.326	7.2288
853.218	8.1029
856.111	10.2319
859.004	11.601
861.896	13.6302
864.789	15.2512
867.682	19.1051
870.575	19.9115
873.467	21.0395
876.36	19.8895
879.253	18.2586
882.145	14.8422
885.038	12.7181
887.931	9.647
890.823	6.95645
893.716	5.12498
896.609	4.36168
899.502	3.66116
902.394	2.81467
905.287	2.2405
908.18	1.12048
911.072	1.57861
913.965	0.523026
916.858	0.119484
919.75	0.246925
922.643	0.003296
925.536	0.029045
928.429	0.571274
931.321	0.171532
934.214	0.412468
937.107	0.172874
939.999	2.58646
942.892	4.79401
945.785	8.19074
948.678	11.97
951.57	19.2875
954.463	26.5961
957.356	30.0203
960.248	36.5213
963.141	45.836
966.034	57.9942
968.926	67.1696
971.819	77.8646
974.712	98.8003
977.604	126.515
980.497	116.806
983.39	91.7751
986.283	76.1177
989.175	63.5362
992.068	43.8659
994.961	34.3938
997.853	27.5453
1000.75	21.4322
1003.64	16.4102
1006.53	12.2889
1009.42	9.27362
1012.32	5.4347
1015.21	4.8186
1018.1	3.17399
1021	2.22085
1023.89	0.657265
1026.78	0.903488
1029.67	0.176308
1032.57	0.776649
1035.46	0.432945
1038.35	0.442249
1041.24	0.719151
1044.14	0.46909
1047.03	0.266556
1049.92	0.542061
1052.82	0.630844
1055.71	1.04916
1058.6	0.474686
1061.49	1.14361
1064.38	0.154476
1067.28	1.16266
1070.17	0.68145
1073.06	0.128864
1075.96	1.63112
1078.85	0.871025
1081.74	0.009708
1084.63	0.403358
1087.53	1.21245
1090.42	0.015976
1093.31	0.754112
1096.2	0.453228
1099.1	0.435963
1101.99	0.345959
1104.88	0.848007
1107.78	0.027576
1110.67	0.676056
1113.56	0.55587
1116.45	0.330898
1119.35	0.769249
1122.24	0.098877
1125.13	0.816128
1128.03	0.452652
1130.92	0.864471
1133.81	0.820648
1136.7	0.781521
1139.6	0.712357
1142.49	0.363335
1145.38	0.8941
1148.27	0.48304
1151.17	0.89027
1154.06	0.315117
1156.95	1.59082
1159.84	1.05079
1162.74	0.625896
1165.63	0.900005
1168.52	0.951817
1171.41	1.00484
1174.31	1.10521
1177.2	1.06977
1180.09	1.54274
1182.99	0.94891
1185.88	0.797791
1188.77	1.09101
1191.66	0.369282
1194.56	0.563942
1197.45	1.47428
1200.34	0.349564
1203.23	1.10478
1206.13	1.09598
1209.02	0.920525
1211.91	0.842312
1214.81	0.838196
1217.7	0.2603
1220.59	0.30838
1223.48	0.756382
1226.38	0.492096
1229.27	0.781292
1232.16	0.221981
1235.06	0.141594
1237.95	0.159019
1240.84	0.220268
1243.73	0.228653
1246.62	0.385437
1249.52	0.607544
1252.41	0.155571
1255.3	0.42054
1258.2	0.534958
1261.09	0.071228
1263.98	0.642113
1266.87	0.542564
1269.77	0.563614
1272.66	0.600922
1275.55	0.351494
1278.44	0.676804
1281.34	0.531471
1284.23	0.825989
1287.12	0.666222
1290.02	0.203758
1292.91	0.302864
1295.8	0.253914
1298.69	0.246025
1301.59	0.127586
1304.48	0.313057
