Measurement: Raman, 780 nm, unoriented, Raman Data Processed
Mineral: Sidwillite
Rruff sample: R080047
Ideal chemistry: MoO_3_2H_2_O
Locality: Freedom No. 2 Mine, Marysvale District (Marysvale Uranium area), Piute Co., Utah, USA
Source: Michael Scott
Description: Forest-green, massive druse
Raman shift (cm-1)	intensity
149.975	0
152.868	0.720024
155.76	1.86967
158.653	1.44323
161.546	2.52497
164.439	2.88386
167.331	1.84377
170.224	0.559723
173.117	0.02668
176.009	0.325592
178.902	0.650986
181.795	0.838898
184.687	0.046288
187.58	1.26181
190.473	3.21513
193.365	4.28091
196.258	6.365
199.151	7.51559
202.044	10.1186
204.936	13.3051
207.829	16.3958
210.722	19.8085
213.614	23.0241
216.507	27.5288
219.4	31.9523
222.292	35.1259
225.185	38.3782
228.078	38.6687
230.971	39.8421
233.863	38.874
236.756	36.1425
239.649	32.5512
242.541	26.6118
245.434	21.7195
248.327	18.4481
251.22	15.8467
254.112	13.4694
257.005	12.2352
259.898	10.2495
262.79	8.70132
265.683	8.15261
268.576	7.19414
271.468	4.60192
274.361	3.09657
277.254	2.38156
280.147	1.84006
283.039	2.08769
285.932	0.606422
288.825	1.29083
291.717	0.948441
294.61	0.252129
297.503	0.302353
300.395	0.222748
303.288	0.1763
306.181	0.243294
309.074	0.23439
311.966	0.244507
314.859	0.660759
317.752	0.959114
320.644	1.12344
323.537	0.327011
326.43	1.62256
329.322	1.61122
332.215	1.23395
335.108	1.23175
338	0.893173
340.893	1.51546
343.786	1.81847
346.679	0.889709
349.571	0.969757
352.464	0.935989
355.357	0.859398
358.249	0.635452
361.142	1.58655
364.035	0.307533
366.928	1.00955
369.82	0.638222
372.713	0.458954
375.606	0.966194
378.498	0.403824
381.391	0.207993
384.284	0.312759
387.176	0.044334
390.069	0.124489
392.962	0.057663
395.854	0.687012
398.747	0.095581
401.64	0.564316
404.533	1.20901
407.425	0.170738
410.318	0.963348
413.211	0.994865
416.103	0.338242
418.996	0.734093
421.889	1.27732
424.781	1.43468
427.674	1.28426
430.567	1.06911
433.46	1.03054
436.352	1.41403
439.245	1.00394
442.138	0.887138
445.03	1.02232
447.923	1.19465
450.816	0.775192
453.709	0.274132
456.601	0.675369
459.494	0.202019
462.387	1.11635
465.279	0.79467
468.172	0.479179
471.065	1.09833
473.957	0.758202
476.85	0.592247
479.743	0.455406
482.635	1.14322
485.528	1.24259
488.421	1.18664
491.314	1.78676
494.206	1.85953
497.099	1.27011
499.992	1.54285
502.884	1.93152
505.777	1.33692
508.67	1.66361
511.562	1.38921
514.455	1.7289
517.348	0.520477
520.241	1.23354
523.133	1.72738
526.026	1.68718
528.919	1.1218
531.811	1.11824
534.704	1.62232
537.597	1.68072
540.49	0.181816
543.382	0.784271
546.275	0.409142
549.168	0.483406
552.06	0.569046
554.953	0.310097
557.846	0.302746
560.738	0.307182
563.631	0.156498
566.524	0.514252
569.417	0.570221
572.309	0.636574
575.202	0.973438
578.095	1.22455
580.987	1.71273
583.88	1.34203
586.773	1.56257
589.665	1.60092
592.558	2.66076
595.451	1.38448
598.343	1.91234
601.236	1.72914
604.129	1.60856
607.022	1.79402
609.914	2.3008
612.807	2.1591
615.7	2.20713
618.592	2.16861
621.485	1.92927
624.378	1.56747
627.27	2.82739
630.163	2.12769
633.056	0.87196
635.949	1.55676
638.841	1.51542
641.734	1.76724
644.627	1.13078
647.519	1.08052
650.412	0.814018
653.305	0.930012
656.197	1.30374
659.09	0.879871
661.983	0.670567
664.876	0.501041
667.768	0.722061
670.661	0.554111
673.554	0.5807
676.446	0.801975
679.339	0.211761
682.232	0.186184
685.125	0.186745
688.017	0.062332
690.91	0.290653
693.803	0.039581
696.695	0.376247
699.588	0.1712
702.481	0.628864
705.373	0.500828
708.266	0.422455
711.159	0.917652
714.052	0.398026
716.944	0.834183
719.837	0.323898
722.73	1.52924
725.622	0.031536
728.515	0.471104
731.408	1.26286
734.3	0.438438
737.193	0.138218
740.086	0.079823
742.979	0.026001
745.871	0.557518
748.764	0.150661
751.657	0.819565
754.549	0.360912
757.442	0.021473
760.335	0.366264
763.227	0.811718
766.12	0.199066
769.013	0.600506
771.905	0.970829
774.798	0.979214
777.691	1.0005
780.584	0.215431
783.476	0.675282
786.369	1.30064
789.262	1.12782
792.154	1.71323
795.047	1.7964
797.94	1.986
800.832	2.23292
803.725	1.8487
806.618	2.17079
809.511	2.1003
812.403	2.60674
815.296	2.16524
818.189	2.03299
821.081	1.09831
823.974	2.17751
826.867	2.59339
829.76	1.94378
832.652	1.64244
835.545	2.57291
838.438	1.79681
841.33	1.94479
844.223	1.77745
847.116	1.87719
850.008	2.29527
852.901	2.86698
855.794	2.53113
858.687	3.4932
861.579	2.00228
864.472	2.80567
867.365	3.0226
870.257	2.66936
873.15	2.13307
876.043	1.95689
878.935	1.87101
881.828	2.00642
884.721	1.48214
887.614	1.16386
890.506	0.728241
893.399	0.711151
896.292	0.299694
899.184	0.711086
902.077	0.176136
904.97	0.502304
907.862	0.387989
910.755	0.449471
913.648	0.461746
916.54	0.182602
919.433	0.359264
922.326	0.736839
925.219	0.18325
928.111	0.366722
931.004	0.67725
933.897	0.776222
936.789	1.95451
939.682	2.03848
942.575	4.01283
945.467	4.73846
948.36	6.25539
951.253	7.89479
954.146	9.89293
957.038	11.3107
959.931	14.2796
962.824	16.7128
965.716	20.5279
968.609	21.8164
971.502	23.7931
974.394	23.623
977.287	20.8136
980.18	16.811
983.073	13.5901
985.965	10.2051
988.858	8.02878
991.751	6.6415
994.643	4.29787
997.536	3.61338
1000.43	2.61602
1003.32	1.65352
1006.21	1.23658
1009.11	1.07062
1012	0.771579
1014.89	0.778618
1017.78	0.149082
1020.68	0.658825
1023.57	0.588413
1026.46	0.421249
1029.36	0.866795
1032.25	0.107632
1035.14	0.092129
1038.03	0.133961
1040.93	0.007828
1043.82	0.969837
1046.71	0.630001
1049.61	0.305771
1052.5	0.884056
1055.39	0.96888
1058.28	0.591885
1061.18	1.02066
1064.07	0.791492
1066.96	0.733315
1069.85	0.828117
1072.75	0.788536
1075.64	0.727432
1078.53	0.567097
1081.42	0.635704
1084.32	0.394989
1087.21	0.704781
1090.1	0.078259
1092.99	0.761227
1095.89	0.864391
1098.78	0.045773
1101.67	0.391499
1104.57	0.058975
1107.46	0.047794
1110.35	0.35833
1113.24	0.040543
1116.14	0.691761
1119.03	0.301189
1121.92	0.537868
1124.82	0.457222
1127.71	0.475349
1130.6	0.428474
1133.49	0.117882
1136.39	0.399467
1139.28	1.02281
1142.17	0.239864
1145.06	0.40799
1147.96	0.419708
1150.85	1.13636
1153.74	0.158054
1156.63	0.515556
1159.53	1.08129
1162.42	1.13934
1165.31	0.905609
1168.2	0.58836
1171.1	0.560616
1173.99	1.05343
1176.88	0.412827
1179.78	1.15119
1182.67	1.23019
1185.56	0.633358
1188.45	0.913765
1191.35	0.23394
1194.24	1.06361
1197.13	0.390507
1200.03	0.268188
1202.92	0.135471
1205.81	0.766552
1208.7	0.456402
1211.6	0.679768
1214.49	0.522465
1217.38	0.496201
1220.27	0.774086
1223.17	0.585445
1226.06	0.782864
1228.95	0.342587
1231.85	0.397568
1234.74	0.020817
1237.63	0.583958
1240.52	0.452385
1243.42	0.223042
1246.31	0.855114
1249.2	0.114662
1252.09	0.945465
1254.99	1.16261
1257.88	1.23754
1260.77	0.775379
1263.66	0.214489
1266.56	1.40107
1269.45	0.389511
1272.34	0.43697
1275.23	0.434677
1278.13	0.516365
1281.02	0.620872
1283.91	0.573326
1286.81	0
