Measurement: Raman, 532 nm, unoriented, Raman Data Processed
Mineral: Sieleckiite
Rruff sample: R080035
Ideal chemistry: Cu_3_Al_4_(PO_4_)_2_(OH)_12_2H_2_O
Locality: Mount Oxide Copper mine, Mt Isa, Mt Isa - Cloncurry area, Queensland, Australia
Source: Michael Scott
Description: Aggregates of royal blue smooth spheres associated with colorless variscite, co-type specimen
Raman shift (cm-1)	intensity
165.068	0
167.961	3.95422
170.853	3.99109
173.746	1.37195
176.639	8.86072
179.532	9.36597
182.424	13.2622
185.317	17.2513
188.21	18.7609
191.102	19.4468
193.995	29.7958
196.888	35.8491
199.78	32.7036
202.673	37.3501
205.566	34.4907
208.459	26.9189
211.351	13.6494
214.244	18.1949
217.137	19.5926
220.029	30.8274
222.922	37.1086
225.815	49.3551
228.708	45.7239
231.6	37.8295
234.493	32.5924
237.386	25.6517
240.278	21.5596
243.171	12.2394
246.064	3.24475
248.956	1.00635
251.849	5.2124
254.742	0.983887
257.635	5.01794
260.527	15.5481
263.42	29.1951
266.313	40.6073
269.205	29.5128
272.098	18.6821
274.991	11.1484
277.883	16.2576
280.776	23.1001
283.669	39.2117
286.562	57.7092
289.454	79.2848
292.347	102.726
295.24	126.027
298.132	131.964
301.025	123.01
303.918	98.2555
306.81	64.0546
309.703	31.1962
312.596	23.2037
315.488	17.7627
318.381	10.9701
321.274	6.85547
324.167	3.17725
327.059	4.78076
329.952	11.2513
332.845	24.1129
335.737	31.1702
338.63	52.8918
341.523	74.4583
344.415	108.791
347.308	142.619
350.201	175.293
353.094	214.994
355.986	255.358
358.879	267.969
361.772	238.136
364.664	182.839
367.557	129.408
370.45	92.4213
373.342	69.6499
376.235	50.9432
379.128	35.8176
382.021	30.9589
384.913	26.5832
387.806	24.7305
390.699	17.1803
393.591	8.6438
396.484	4.23877
399.377	6.19263
402.269	6.42651
405.162	5.31909
408.055	3.77637
410.947	0.918457
413.84	1.60754
416.733	4.21106
419.626	2.86511
422.518	4.96118
425.411	1.19336
428.304	2.54529
431.196	3.06482
434.089	1.42944
436.982	2.41772
439.875	5.19128
442.767	3.82275
445.66	17.0232
448.553	19.7716
451.445	28.3824
454.338	38.7733
457.231	43.6475
460.123	52.4276
463.016	61.7281
465.909	63.3313
468.801	68.6746
471.694	76.2335
474.587	82.7311
477.48	88.181
480.372	89.5383
483.265	80.8373
486.158	70.4939
489.05	54.4568
491.943	41.0627
494.836	34.5857
497.728	27.5786
500.621	29.7902
503.514	36.9061
506.407	40.1198
509.299	43.6655
512.192	55.2861
515.085	68.0736
517.977	83.9264
520.87	92.9988
523.763	119.168
526.655	131.506
529.548	154.904
532.441	166.17
535.334	187.574
538.226	184.429
541.119	176.1
544.012	169.749
546.904	159.759
549.797	153.441
552.69	151.79
555.582	141.95
558.475	141.813
561.368	133.894
564.261	120.732
567.153	102.937
570.046	82.901
572.939	63.4388
575.831	39.5116
578.724	24.5125
581.617	13.4941
584.51	6.63721
587.402	0.902588
590.295	0.871582
593.188	4.88708
596.08	5.11377
598.973	4.99109
601.866	0.228027
604.758	4.81348
607.651	6.34009
610.544	12.8789
613.437	23.1212
616.329	29.3237
619.222	41.2293
622.115	50.9971
625.007	60.3007
627.9	67.3012
630.793	78.5333
633.685	80.3812
636.578	71.7167
639.471	57.1169
642.364	45.142
645.256	38.337
648.149	32.28
651.042	22.3351
653.934	13.3626
656.827	13.7296
659.72	10.3438
662.612	13.2457
665.505	6.19458
668.398	4.71655
671.29	0.367676
674.183	0.890747
677.076	2.00842
679.969	4.23596
682.861	4.44678
685.754	2.1344
688.647	1.77087
691.539	4.17603
694.432	4.47424
697.325	3.11621
700.217	2.69312
703.11	0.306763
706.003	2.66638
708.896	10.8281
711.788	7.76379
714.681	6.78821
717.574	6.11914
720.466	8.28442
723.359	7.68787
726.252	8.05481
729.144	5.00525
732.037	1.80286
734.93	1.59912
737.823	2.48254
740.715	0.410889
743.608	6.22876
746.501	3.34143
749.393	0.839233
752.286	3.578
755.179	6.75757
758.072	2.22546
760.964	5.27026
763.857	4.32898
766.75	4.68933
769.642	4.23401
772.535	1.42517
775.428	7.73206
778.32	6.03113
781.213	4.19568
784.106	6.073
786.998	4.70862
789.891	7.07568
792.784	5.49085
795.677	7.22168
798.569	6.01819
801.462	0.854736
804.355	5.41711
807.247	4.19641
810.14	2.43262
813.033	2.90076
815.925	1.82764
818.818	3.90405
821.711	2.12756
824.604	5.31641
827.496	6.64465
830.389	5.17749
833.282	5.13513
836.174	5.01318
839.067	3.11316
841.96	2.86755
844.852	2.90637
847.745	1.96265
850.638	4.79431
853.53	3.6311
856.423	7.43604
859.316	10.6773
862.209	5.99182
865.101	2.24512
867.994	9.95276
870.887	4.97522
873.779	6.49146
876.672	5.89111
879.565	2.35266
882.457	7.10059
885.35	6.62903
888.243	3.21851
891.136	5.99548
894.028	5.71753
896.921	3.45386
899.814	5.71057
902.706	1.37683
905.599	5.12573
908.492	2.72437
911.385	2.79834
914.277	1.38452
917.17	1.11438
920.063	0.024536
922.955	2.82495
925.848	0.138794
928.741	1.14636
931.633	3.18884
934.526	0.147461
937.419	1.99048
940.312	0.428223
943.204	0.635742
946.097	0.984253
948.99	2.71191
951.882	4.0824
954.775	12.0256
957.668	23.322
960.56	36.9246
963.453	54.8755
966.346	80.0941
969.239	112.934
972.131	167.198
975.024	225.577
977.917	284.309
980.809	337.034
983.702	360.069
986.595	334.099
989.487	277.344
992.38	206.569
995.273	139.028
998.165	92.4369
1001.06	63.6538
1003.95	47.8563
1006.84	31.6135
1009.74	26.6763
1012.63	24.7044
1015.52	29.7677
1018.41	36.1493
1021.31	43.6242
1024.2	47.3757
1027.09	55.3185
1029.98	48.0861
1032.88	40.7293
1035.77	23.4087
1038.66	11.8632
1041.56	1.26318
1044.45	5.03503
1047.34	1.79822
1050.23	2.93909
1053.13	4.31738
1056.02	14.3138
1058.91	29.1332
1061.81	41.5629
1064.7	51.861
1067.59	67.8722
1070.48	71.597
1073.38	60.8543
1076.27	48.3673
1079.16	37.0128
1082.05	23.3535
1084.95	17.6639
1087.84	14.0209
1090.73	16.2982
1093.62	16.283
1096.52	19.4919
1099.41	21.7286
1102.3	18.8673
1105.19	16.4082
1108.09	19.6305
1110.98	20.5511
1113.87	24.316
1116.77	29.1711
1119.66	36.1079
1122.55	45.7781
1125.44	49.0129
1128.34	49.2839
1131.23	52.5847
1134.12	46.4696
1137.02	48.2794
1139.91	42.9586
1142.8	36.7731
1145.69	33.8015
1148.59	27.0117
1151.48	19.365
1154.37	18.5373
1157.26	9.81067
1160.16	5.93158
1163.05	2.08746
1165.94	0.272949
1168.84	0.708679
1171.73	0.107849
1174.62	0.833496
1177.51	1.29309
1180.41	2.62067
1183.3	0.768127
1186.19	1.86499
1189.08	0.570374
1191.98	1.49029
1194.87	2.97925
1197.76	2.69159
1200.65	2.79523
1203.55	3.80963
1206.44	5.95746
1209.33	4.95276
1212.22	6.98718
1215.12	4.9436
1218.01	7.94177
1220.9	11.6641
1223.8	8.60724
1226.69	11.8362
1229.58	8.59564
1232.47	10.0606
1235.37	11.7906
1238.26	9.18799
1241.15	5.12744
1244.05	8.51184
1246.94	5.81702
1249.83	6.24066
1252.72	6.68878
1255.62	8.09833
1258.51	4.69617
1261.4	10.0662
1264.29	6.98468
1267.19	4.62164
1270.08	3.96173
1272.97	8.14667
1275.87	3.25885
1278.76	2.75238
1281.65	4.14575
1284.54	5.13354
1287.43	3.46619
1290.33	0.83728
1293.22	0.462158
1296.11	2.23798
1299.01	0.232666
