Measurement: Raman, 532 nm, unoriented, Raman Data Processed
Mineral: Sigloite
Rruff sample: R050576
Ideal chemistry: Fe^3+^Al_2_(PO_4_)_2_(OH)_3_7H_2_O
Locality: Viloco, Bolivia
Source: University of Arizona Mineral Museum
Description: Tan colored prismatic crystals
Raman shift (cm-1)	intensity
145.815	0
148.707	2.05125
151.6	2.00597
154.493	3.52264
157.386	0.173569
160.278	1.38621
163.171	1.20468
166.064	4.49571
168.956	8.23819
171.849	12.2721
174.742	13.4005
177.634	13.6062
180.527	15.9292
183.42	13.6196
186.312	16.3282
189.205	19.5263
192.098	22.978
194.991	21.3254
197.883	19.9422
200.776	20.6932
203.669	23.4179
206.561	26.7017
209.454	29.3835
212.347	28.2556
215.239	25.6006
218.132	20.2199
221.025	14.0339
223.918	8.07985
226.81	5.28372
229.703	4.79572
232.596	8.29569
235.488	12.9864
238.381	18.3596
241.274	25.6835
244.167	32.0496
247.059	38.1638
249.952	45.5911
252.845	50.6474
255.737	51.6532
258.63	53.0513
261.523	52.9031
264.415	52.6574
267.308	51.2433
270.201	52.813
273.093	53.9043
275.986	54.107
278.879	47.3903
281.772	34.3586
284.664	24.599
287.557	18.6714
290.45	20.5169
293.342	23.7774
296.235	30.1713
299.128	36.2753
302.02	41.3839
304.913	43.1362
307.806	43.906
310.699	38.6182
313.591	31.296
316.484	22.4647
319.377	16.9855
322.269	12.9612
325.162	11.2476
328.055	9.48335
330.947	9.97302
333.84	11.4195
336.733	8.75156
339.625	7.94817
342.518	4.15117
345.411	0.907074
348.304	0.76236
351.196	1.88902
354.089	2.5231
356.982	2.69137
359.874	2.47098
362.767	0.454323
365.66	0.072395
368.553	1.82172
371.445	4.51915
374.338	6.27551
377.231	7.72812
380.123	10.5013
383.016	13.633
385.909	17.4898
388.801	21.8356
391.694	25.0355
394.587	29.9822
397.479	34.2286
400.372	34.8861
403.265	33.8956
406.158	31.5575
409.05	29.3584
411.943	29.0897
414.836	28.8095
417.728	29.2723
420.621	29.1337
423.514	28.1263
426.406	27.15
429.299	28.5219
432.192	29.4253
435.085	29.2255
437.977	28.7235
440.87	29.0752
443.763	26.0706
446.655	24.0358
449.548	20.7224
452.441	16.6653
455.334	13.103
458.226	7.95262
461.119	4.13402
464.012	0.872452
466.904	0.191406
469.797	2.32103
472.69	2.92134
475.582	2.69022
478.475	0.912857
481.368	1.17264
484.26	2.95078
487.153	4.00449
490.046	8.76395
492.939	12.212
495.831	17.1171
498.724	20.3424
501.617	22.5734
504.509	26.1898
507.402	28.3245
510.295	30.4573
513.188	30.0916
516.08	33.799
518.973	35.0208
521.866	37.1077
524.758	37.4843
527.651	35.3615
530.544	35.8454
533.436	34.1399
536.329	33.6369
539.222	33.4841
542.115	35.0323
545.007	37.1235
547.9	39.0472
550.793	41.1998
553.685	42.8864
556.578	44.1392
559.471	46.8406
562.363	50.9732
565.256	55.1918
568.149	59.5605
571.042	61.4093
573.934	62.4698
576.827	61.534
579.72	62.1676
582.612	63.871
585.505	67.6743
588.398	72.3195
591.29	78.5215
594.183	80.2747
597.076	79.4399
599.968	74.6475
602.861	67.8309
605.754	61.4893
608.646	52.1405
611.539	45.2863
614.432	38.8823
617.325	32.2628
620.217	26.7197
623.11	21.378
626.003	16.5566
628.895	11.8751
631.788	7.61885
634.681	4.37227
637.573	1.05038
640.466	1.30672
643.359	1.85089
646.252	1.3683
649.144	1.45181
652.037	0.621841
654.93	0.160797
657.822	1.05122
660.715	0.378014
663.608	0.103455
666.5	0.463287
669.393	0.433998
672.286	0.674446
675.179	0.134666
678.071	0.256226
680.964	0.159805
683.857	0.43824
686.75	0.73423
689.642	0.94709
692.535	2.04121
695.428	2.33583
698.32	2.43687
701.213	2.95412
704.106	3.38557
706.998	3.07112
709.891	3.10249
712.784	3.44534
715.677	3.31417
718.569	3.25454
721.462	3.78957
724.355	3.48628
727.247	3.4618
730.14	3.24272
733.033	2.94091
735.925	2.4482
738.818	2.54067
741.711	1.95299
744.604	1.31412
747.496	1.64327
750.389	1.70112
753.282	1.36562
756.174	1.5996
759.067	1.23289
761.96	1.42206
764.852	1.26663
767.745	1.78169
770.638	0.624428
773.53	1.41468
776.423	1.23861
779.316	1.1375
782.209	1.03673
785.101	1.00217
787.994	1.9101
790.887	0.792244
793.779	2.66846
796.672	2.18588
799.565	2.20095
802.457	2.33263
805.35	2.59317
808.243	2.04756
811.135	3.09649
814.028	2.96054
816.921	3.03377
819.814	3.15021
822.706	2.0574
825.599	2.74971
828.492	1.26311
831.384	1.86287
834.277	1.52043
837.17	0.817749
840.062	1.7447
842.955	1.50909
845.848	0.552002
848.741	0.810997
851.633	1.8453
854.526	0.92704
857.419	1.91746
860.311	1.69019
863.204	1.55325
866.097	1.54734
868.99	2.00814
871.882	3.2035
874.775	3.0365
877.668	4.1971
880.56	4.83029
883.453	5.24869
886.346	5.5427
889.238	5.62564
892.131	6.68262
895.024	6.46031
897.917	5.87552
900.809	5.83471
903.702	5.09923
906.595	4.47971
909.487	3.34818
912.38	3.52663
915.273	2.54097
918.165	2.03635
921.058	1.70747
923.951	1.35657
926.843	1.24715
929.736	0.097534
932.629	0.207863
935.522	0.046906
938.414	0.698036
941.307	0.764771
944.2	0.413963
947.092	0.323021
949.985	1.03203
952.878	1.2671
955.77	0.338875
958.663	0.540199
961.556	0.395805
964.449	1.748
967.341	3.72978
970.234	5.77794
973.127	7.71326
976.019	11.7148
978.912	16.9085
981.805	23.8949
984.697	31.455
987.59	39.0004
990.483	48.2676
993.375	58.7973
996.268	68.6016
999.161	76.4925
1002.05	83.0162
1004.95	90.2275
1007.84	90.7638
1010.73	82.0516
1013.62	65.759
1016.52	48.5703
1019.41	35.8604
1022.3	26.4579
1025.19	20.3852
1028.09	16.9669
1030.98	15.6621
1033.87	14.1033
1036.77	13.6782
1039.66	13.0978
1042.55	11.3618
1045.44	11.4405
1048.34	9.76868
1051.23	8.69406
1054.12	8.3808
1057.02	8.1829
1059.91	8.62927
1062.8	8.92211
1065.69	11.7073
1068.59	17.2157
1071.48	23.4096
1074.37	31.6529
1077.26	42.5787
1080.16	49.3881
1083.05	57.8101
1085.94	59.8852
1088.84	56.6369
1091.73	50.3887
1094.62	43.2036
1097.51	35.1033
1100.4	29.7611
1103.3	27.0648
1106.19	23.7725
1109.08	20.1139
1111.98	15.2538
1114.87	11.0201
1117.76	7.98107
1120.65	4.59867
1123.55	2.663
1126.44	0.647293
1129.33	0.967361
1132.22	0.342331
1135.12	1.57996
1138.01	1.61047
1140.9	1.00641
1143.8	0.145294
1146.69	1.04146
1149.58	1.98156
1152.47	3.63566
1155.37	4.94751
1158.26	6.74875
1161.15	9.17738
1164.05	10.1963
1166.94	12.2072
1169.83	11.068
1172.72	9.61542
1175.62	7.06001
1178.51	5.74837
1181.4	4.76924
1184.29	3.69455
1187.19	2.78995
1190.08	2.21429
1192.97	1.83722
1195.87	1.64619
1198.76	0.842953
1201.65	0.337463
1204.54	0.401173
1207.43	0.54451
1210.33	0.724037
1213.22	0.538471
1216.11	1.18278
1219.01	1.63456
1221.9	2.09088
1224.79	1.87775
1227.68	1.22173
1230.58	1.89009
1233.47	2.27341
1236.36	2.41939
1239.26	1.71988
1242.15	1.91453
1245.04	2.0143
1247.93	2.4292
1250.83	1.5021
1253.72	1.56097
1256.61	1.648
1259.5	1.16155
1262.4	1.10933
1265.29	0.353195
1268.18	1.06893
1271.08	0.927723
1273.97	0.632339
1276.86	0.039307
1279.75	0.305847
1282.65	0
