Measurement: Raman, 780 nm, unoriented, Raman Data Processed
Mineral: Sigloite
Rruff sample: R050576
Ideal chemistry: Fe^3+^Al_2_(PO_4_)_2_(OH)_3_7H_2_O
Locality: Viloco, Bolivia
Source: University of Arizona Mineral Museum
Description: Tan colored prismatic crystals
Raman shift (cm-1)	intensity
145.869	0
148.761	0.53009
151.654	0.025223
154.547	1.01341
157.439	0.285011
160.332	0.902534
163.225	1.47153
166.117	2.47666
169.01	3.18106
171.903	3.68881
174.796	4.91133
177.688	4.35302
180.581	4.31483
183.474	4.86433
186.366	4.48772
189.259	5.14448
192.152	4.27236
195.044	3.97352
197.937	3.99713
200.83	5.25671
203.722	4.94265
206.615	5.33862
209.508	4.89297
212.401	3.00368
215.293	2.88349
218.186	3.24337
221.079	2.70021
223.971	3.51162
226.864	4.56192
229.757	6.84879
232.649	10.0258
235.542	13.4925
238.435	15.2198
241.327	18.4983
244.22	21.2943
247.113	25.0451
250.006	25.2183
252.898	26.3542
255.791	25.3886
258.684	24.6672
261.576	24.0427
264.469	22.5104
267.362	21.4907
270.255	20.1601
273.147	20.9675
276.04	21.0278
278.933	20.1396
281.825	16.8307
284.718	12.1964
287.611	11.29
290.503	10.4787
293.396	9.88067
296.289	9.43385
299.182	9.06269
302.074	7.45861
304.967	5.99378
307.86	4.39654
310.752	3.29915
313.645	2.79198
316.538	1.45284
319.43	1.25215
322.323	1.4124
325.216	1.08334
328.109	1.31286
331.001	0.85508
333.894	0.618599
336.787	0.105614
339.679	0.008022
342.572	0.442162
345.465	0.19619
348.357	1.12413
351.25	0.454636
354.143	0.458015
357.036	0.04211
359.928	0.326756
362.821	0.199181
365.714	0.117916
368.606	0.064411
371.499	0.429596
374.392	1.23413
377.284	2.31629
380.177	2.81654
383.07	4.11045
385.962	4.96982
388.855	6.7231
391.748	8.19344
394.641	10.095
397.533	11.0317
400.426	11.6126
403.319	11.9492
406.211	12.1284
409.104	13.6008
411.997	15.6822
414.889	18.1368
417.782	22.248
420.675	25.2538
423.568	30.1478
426.46	34.2549
429.353	38.703
432.246	41.4252
435.138	42.7681
438.031	42.9355
440.924	40.3077
443.817	34.8473
446.709	29.1202
449.602	21.4612
452.495	15.6822
455.387	11.1105
458.28	7.36966
461.173	5.21287
464.065	3.30389
466.958	1.53447
469.851	0.9967
472.743	0.079018
475.636	0.218735
478.529	0.335594
481.422	0.329231
484.314	0.58284
487.207	0.471935
490.1	0.167194
492.992	1.18512
495.885	1.1943
498.778	0.906033
501.671	1.23439
504.563	0.49622
507.456	1.12336
510.349	0.858475
513.241	0.564804
516.134	0.694572
519.027	0.403797
521.919	0.223637
524.812	0.232094
527.705	0.308853
530.597	0.919949
533.49	0.255516
536.383	0.472099
539.276	0.163933
542.168	0.613564
545.061	0.938976
547.954	3.26414
550.846	3.54143
553.739	3.7807
556.632	4.07834
559.524	3.13263
562.417	3.31385
565.31	4.56093
568.203	4.85699
571.095	5.75555
573.988	6.54319
576.881	7.8519
579.773	8.80952
582.666	11.3173
585.559	12.3038
588.452	14.1723
591.344	14.9087
594.237	15.1145
597.13	15.032
600.022	13.6302
602.915	13.0375
605.808	12.2237
608.7	11.1915
611.593	9.93918
614.486	10.4135
617.379	9.34554
620.271	8.2318
623.164	8.06123
626.057	7.76063
628.949	6.62467
631.842	6.0274
634.735	4.77511
637.627	3.79443
640.52	3.75929
643.413	2.49993
646.306	1.66409
649.198	1.11122
652.091	0.557861
654.984	0.459587
657.876	0.167244
660.769	0.031775
663.662	0.288391
666.554	0.002075
669.447	0.304996
672.34	0.127298
675.232	0.15506
678.125	0.380394
681.018	0.207003
683.911	0.051706
686.803	0.323534
689.696	0.16325
692.589	0.829777
695.481	0.717609
698.374	0.736151
701.267	0.687529
704.159	0.886757
707.052	0.681488
709.945	1.06446
712.838	1.31774
715.73	0.967209
718.623	0.688946
721.516	1.1423
724.408	0.624317
727.301	0.825203
730.194	0.479761
733.087	0.739117
735.979	0.833916
738.872	0.539217
741.765	0.329874
744.657	0.388823
747.55	0.025284
750.443	0.223049
753.335	0.261654
756.228	0.501083
759.121	0.15896
762.014	0.195923
764.906	0.286196
767.799	0.089571
770.692	0.076391
773.584	0.645346
776.477	0.164989
779.37	0.269999
782.262	0.018999
785.155	0.329412
788.048	0.126736
790.941	0.267351
793.833	0.625002
796.726	0.217089
799.619	0.265965
802.511	0.393068
805.404	0.762501
808.297	0.420853
811.189	0.654604
814.082	0.576765
816.975	0.622763
819.867	0.919802
822.76	1.09322
825.653	0.705404
828.546	0.636742
831.438	0.81148
834.331	0.864265
837.224	0.556202
840.116	1.0116
843.009	0.767845
845.902	0.748016
848.794	0.965218
851.687	0.805321
854.58	0.932798
857.473	0.445051
860.365	0.839716
863.258	0.82748
866.151	1.65152
869.043	1.03647
871.936	1.53186
874.829	1.37786
877.721	1.18114
880.614	1.45951
883.507	1.47325
886.4	1.78577
889.292	1.78687
892.185	1.83059
895.078	1.54211
897.97	1.36432
900.863	1.27172
903.756	1.28854
906.649	1.53107
909.541	0.850898
912.434	0.552366
915.327	0.876959
918.219	0.300071
921.112	0.265795
924.005	0.355216
926.897	0.14953
929.79	0.211472
932.683	0.243707
935.575	0.014286
938.468	0.143035
941.361	0.036989
944.254	0.205321
947.146	0.099754
950.039	0.235142
952.932	0.620588
955.824	0.404188
958.717	0.850883
961.61	1.24662
964.502	1.60549
967.395	2.61819
970.288	3.10612
973.181	4.85002
976.073	6.7144
978.966	8.28075
981.859	11.4023
984.751	14.0795
987.644	17.2847
990.537	21.6128
993.429	25.6968
996.322	28.9208
999.215	31.2524
1002.11	32.5246
1005	31.61
1007.89	29.7831
1010.79	25.0798
1013.68	18.3416
1016.57	12.7682
1019.46	8.71706
1022.36	6.27462
1025.25	4.9135
1028.14	4.09647
1031.04	3.37238
1033.93	2.69351
1036.82	2.09146
1039.71	1.55131
1042.61	0.974079
1045.5	0.477997
1048.39	0.256353
1051.28	0.491215
1054.18	0.676264
1057.07	0.518465
1059.96	0.608109
1062.85	1.24121
1065.75	1.42242
1068.64	2.65969
1071.53	3.43026
1074.42	4.87866
1077.32	6.14239
1080.21	6.99274
1083.1	8.09036
1086	7.61771
1088.89	7.55282
1091.78	7.77086
1094.67	6.89349
1097.57	6.52421
1100.46	6.34905
1103.35	6.53457
1106.24	5.89817
1109.14	4.70536
1112.03	2.98928
1114.92	2.3593
1117.82	1.38023
1120.71	1.0222
1123.6	0.227604
1126.49	0.323869
1129.39	0.09592
1132.28	0.032552
1135.17	0.182449
1138.06	0.253249
1140.96	0.028397
1143.85	0.275129
1146.74	0.806664
1149.63	1.37296
1152.53	1.66895
1155.42	1.86886
1158.31	2.38255
1161.21	2.81625
1164.1	3.47513
1166.99	3.39561
1169.88	2.82237
1172.78	2.6741
1175.67	1.94378
1178.56	1.34114
1181.45	1.56222
1184.35	0.58676
1187.24	0.698689
1190.13	0.741446
1193.03	0.774648
1195.92	0.647542
1198.81	0.426425
1201.7	0.167541
1204.6	0.212502
1207.49	0.335964
1210.38	0.42222
1213.28	0.088319
1216.17	0.121688
1219.06	0.033323
1221.95	0.365492
1224.85	0.432493
1227.74	0.277648
1230.63	0.545477
1233.52	0.353974
1236.42	0.619028
1239.31	0.311884
1242.2	0.237234
1245.09	0.240315
1247.99	0.263764
1250.88	0.135928
1253.77	0.04762
1256.66	0.571849
1259.56	0.386388
1262.45	0.361053
1265.34	0.252682
1268.24	0.24472
1271.13	0.464068
1274.02	0.07066
1276.91	0.01109
1279.81	0.099073
1282.7	0.182134
1285.59	0.001882
