Measurement: Raman, 532 nm, unoriented, Raman Data Processed
Mineral: Silicon
Rruff sample: R050145
Ideal chemistry: Si
Locality: synthetic from Dupont
Source: Gerry Gibbs
Description: Dark gray synthetic fragment
Measured chemistry: Si
Raman shift (cm-1)	intensity
160.278	0
163.171	0.748957
166.064	0.164399
168.956	0.633808
171.849	1.1565
174.742	1.13029
177.634	0.545906
180.527	0.407319
183.42	0.911399
186.312	1.55579
189.205	0.595625
192.098	0.390294
194.991	0.358845
197.883	0.666007
200.776	1.17021
203.669	0.299096
206.561	0.379747
209.454	0.365187
212.347	0.005374
215.239	0.575833
218.132	1.00426
221.025	1.4296
223.918	1.31119
226.81	2.40467
229.703	2.86876
232.596	2.51504
235.488	2.91005
238.381	2.9698
241.274	2.81739
244.167	2.74072
247.059	2.11121
249.952	3.37144
252.845	3.06372
255.737	2.29963
258.63	2.80451
261.523	3.24327
264.415	3.2549
267.308	3.15867
270.201	3.16105
273.093	3.66057
275.986	3.51067
278.879	4.24968
281.772	4.73164
284.664	5.34271
287.557	5.56099
290.45	6.71146
293.342	7.68331
296.235	8.71532
299.128	9.51022
302.02	10.1324
304.913	9.50714
307.806	7.74807
310.699	5.05868
313.591	5.04519
316.484	3.49043
319.377	2.57344
322.269	2.63077
325.162	1.67661
328.055	2.23685
330.947	2.24123
333.84	1.42145
336.733	1.25425
339.625	0.828381
342.518	0.648273
345.411	0.067723
348.304	0.878383
351.196	0.014983
354.089	0.330623
356.982	0.169784
359.874	0.190026
362.767	0.237154
365.66	0.118497
368.553	0.462536
371.445	0.150887
374.338	0.320211
377.231	0.196638
380.123	0.385555
383.016	0.287478
385.909	0.042457
388.801	0.244313
391.694	0.235609
394.587	0.115585
397.479	0.022946
400.372	1.22589
403.265	1.43759
406.158	1.68949
409.05	2.11113
411.943	1.93913
414.836	1.80865
417.728	2.01934
420.621	2.21968
423.514	2.9467
426.406	2.95803
429.299	3.24891
432.192	3.09901
435.085	2.87552
437.977	2.58241
440.87	2.06877
443.763	0.869421
446.655	0.939837
449.548	0.198175
452.441	0.448471
455.334	0.7761
458.226	0.457711
461.119	0.28146
464.012	0.229143
466.904	0.569028
469.797	1.08902
472.69	1.33726
475.582	2.11328
478.475	2.65517
481.368	3.94424
484.26	5.83117
487.153	6.83766
490.046	8.9448
492.939	11.7285
495.831	16.8359
498.724	27.2525
501.617	53.4172
504.509	127.447
507.402	214.485
510.295	282.337
513.188	403.742
516.08	655.79
518.973	946.326
521.866	961.805
524.758	390.935
527.651	156.779
530.544	86.2773
533.436	54.9476
536.329	40.4875
539.222	29.5806
542.115	23.2396
545.007	18.1197
547.9	13.9854
550.793	11.6228
553.685	8.89148
556.578	6.77205
559.471	5.09122
562.363	4.95089
565.256	3.21145
568.149	2.60562
571.042	1.27215
573.934	0.815325
576.827	0.691577
579.72	0.144547
582.612	0.110006
585.505	0.354461
588.398	0.175432
591.29	0.052379
594.183	0.415918
597.076	0.100739
599.968	0.062488
602.861	0.38196
605.754	0.69878
608.646	0.967646
611.539	1.59615
614.432	2.36823
617.325	2.77289
620.217	2.63423
623.11	1.69007
626.003	1.24291
628.895	1.1088
631.788	1.07018
634.681	0.802039
637.573	0.567858
640.466	0.905091
643.359	0.85188
646.252	1.00319
649.144	1.02221
652.037	1.01729
654.93	0.714669
657.822	1.06037
660.715	1.52309
663.608	1.92928
666.5	1.47137
669.393	2.06006
672.286	1.6388
675.179	1.81359
678.071	1.2763
680.964	1.50111
683.857	0.879401
686.75	1.07196
689.642	0.851098
692.535	0.553206
695.428	0.572524
698.32	0.520592
701.213	0.150718
704.106	0.516616
706.998	0.421281
709.891	0.086316
712.784	0.222712
715.677	0.434895
718.569	0.146783
721.462	0.269213
724.355	0.27139
727.247	0.262837
730.14	0.136574
733.033	0.083796
735.925	0.231539
738.818	0.417306
741.711	0.650198
744.604	0.279418
747.496	0.576924
750.389	0.007263
753.282	0.353266
756.174	0.276729
759.067	0.715056
761.96	0.403889
764.852	0.553645
767.745	0.426394
770.638	0.574107
773.53	0.529296
776.423	1.01966
779.316	0.381218
782.209	0.773421
785.101	0.468941
787.994	0.406915
790.887	0.470128
793.779	0.9689
796.672	1.08989
799.565	0.848625
802.457	1.31235
805.35	0.936374
808.243	1.60374
811.135	0.878326
814.028	1.37713
816.921	1.66561
819.814	1.65426
822.706	1.5347
825.599	1.37436
828.492	1.03181
831.384	0.85515
834.277	0.820045
837.17	0.782648
840.062	0.460151
842.955	0.195403
845.848	0.560443
848.741	0.43294
851.633	0.828406
854.526	0.668887
857.419	0.449239
860.311	0.732341
863.204	0.365312
866.097	0.085274
868.99	0.136398
871.882	0.421167
874.775	0.132096
877.668	0.605233
880.56	0.052284
883.453	0.225852
886.346	0.410479
889.238	0.029573
892.131	0.384566
895.024	0.266989
897.917	0.277113
900.809	0.145692
903.702	0.031336
906.595	0.099439
909.487	0.102032
912.38	0.438974
915.273	0.759369
918.165	0.803081
921.058	1.7313
923.951	3.70097
926.843	5.5643
929.736	10.2578
932.629	15.0543
935.522	19.6583
938.414	25.1558
941.307	28.0148
944.2	28.6249
947.092	27.2577
949.985	27.1447
952.878	27.1703
955.77	27.5621
958.663	27.2002
961.556	27.5519
964.449	28.0388
967.341	28.005
970.234	28.6116
973.127	28.139
976.019	28.6795
978.912	28.1693
981.805	27.8944
984.697	25.6415
987.59	22.295
990.483	17.7947
993.375	13.2531
996.268	10.6492
999.161	8.37415
1002.05	7.16765
1004.95	6.21582
1007.84	4.76348
1010.73	5.11976
1013.62	4.13499
1016.52	3.66361
1019.41	3.12851
1022.3	2.51257
1025.19	1.98349
1028.09	1.90475
1030.98	1.41557
1033.87	1.1007
1036.77	0.305928
1039.66	0.20232
1042.55	0.014525
1045.44	0.007882
1048.34	0.190666
1051.23	0.157862
1054.12	0.079597
1057.02	0.079957
1059.91	0.081141
1062.8	0.156571
1065.69	0.059217
1068.59	0.195259
1071.48	0.556393
1074.37	0.53187
1077.26	0.465102
1080.16	0.159054
1083.05	0.660445
1085.94	0.713021
1088.84	0.49778
1091.73	0.751236
1094.62	0.322887
1097.51	0.61396
1100.4	0.567276
1103.3	0.659781
1106.19	0.974665
1109.08	0.734663
1111.98	0.540772
1114.87	0.713519
1117.76	0.22098
1120.65	0.728655
1123.55	0.586622
1126.44	0.527256
1129.33	0.787351
1132.22	2.57304
1135.12	0.643257
1138.01	0.349307
1140.9	0.518198
1143.8	0.382243
1146.69	0.368776
1149.58	0.531202
1152.47	0.119282
1155.37	0.242363
1158.26	0.160346
1161.15	0.176715
1164.05	0.401117
1166.94	0.202637
1169.83	0.748072
1172.72	0.183323
1175.62	0.108105
1178.51	0.096396
1181.4	0.330465
1184.29	0.076274
1187.19	0.199065
1190.08	0.009099
1192.97	0.219886
1195.87	0.500633
1198.76	0.019408
1201.65	0.411719
1204.54	0.103508
1207.43	0.115043
1210.33	0.008548
1213.22	0.342077
1216.11	0.531866
1219.01	0.167243
1221.9	0.296511
1224.79	0.543681
1227.68	0.376048
1230.58	0.237416
1233.47	0.257361
1236.36	0.330496
1239.26	0.206805
1242.15	0.022418
1245.04	0.124026
1247.93	0.059269
1250.83	0.249842
1253.72	0.451281
1256.61	0.171915
1259.5	0.448036
1262.4	0.336461
1265.29	0.235954
1268.18	0.073351
1271.08	0.259164
1273.97	0.007892
1276.86	0.378126
1279.75	0.098259
1282.65	0.385474
1285.54	0.21025
1288.43	0.615019
1291.32	0.106041
1294.22	0.165151
1297.11	0.4061
