Measurement: Raman, 780 nm, unoriented, Raman Data Processed
Mineral: Silicon
Rruff sample: R050145
Ideal chemistry: Si
Locality: synthetic from Dupont
Source: Gerry Gibbs
Description: Dark gray synthetic fragment
Measured chemistry: Si
Raman shift (cm-1)	intensity
160.481	0
163.374	0.531258
166.266	1.40512
169.159	2.37556
172.052	2.47217
174.945	1.46193
177.837	1.32356
180.73	1.56365
183.623	1.67286
186.515	0.962105
189.408	0.886841
192.301	0.783455
195.193	0.347374
198.086	1.30559
200.979	0.39901
203.871	0.008392
206.764	0.900246
209.657	0.250473
212.55	0.562515
215.442	1.39725
218.335	2.36307
221.228	2.77586
224.12	3.90155
227.013	3.21379
229.906	3.95715
232.798	3.9708
235.691	4.45306
238.584	3.58784
241.477	3.48033
244.369	3.24022
247.262	3.69979
250.155	3.81599
253.047	4.01436
255.94	3.99826
258.833	4.05924
261.726	5.8878
264.618	5.98873
267.511	7.88118
270.404	8.54412
273.296	10.7479
276.189	11.2858
279.082	15.0283
281.974	21.4829
284.867	27.3294
287.76	30.0742
290.652	34.2176
293.545	35.4467
296.438	36.572
299.331	36.5549
302.223	32.5191
305.116	24.667
308.009	18.4844
310.901	15.0123
313.794	12.8564
316.687	8.37354
319.579	8.33563
322.472	6.35954
325.365	5.20644
328.258	3.64025
331.15	2.87122
334.043	1.89087
336.936	1.65621
339.828	1.74591
342.721	0.628437
345.614	0.295952
348.507	0.274841
351.399	0.449017
354.292	0.567554
357.185	0.084385
360.077	0.197826
362.97	0.777691
365.863	0.250164
368.755	0.293179
371.648	0.198792
374.541	0.023476
377.433	0.559864
380.326	0.696575
383.219	0.113419
386.112	1.18071
389.004	1.26289
391.897	0.617943
394.79	1.33659
397.682	2.22954
400.575	3.13012
403.468	3.174
406.361	4.78303
409.253	4.71539
412.146	5.84282
415.039	5.54839
417.931	6.2504
420.824	6.06904
423.717	7.55712
426.609	6.02271
429.502	6.05094
432.395	6.19139
435.288	5.23867
438.18	4.23471
441.073	2.36451
443.966	1.95707
446.858	1.69799
449.751	0.741894
452.644	0.546127
455.536	0.315777
458.429	0.137325
461.322	0.16787
464.214	0.914612
467.107	0.55159
470	0.285324
472.893	0.089031
475.785	0.109756
478.678	0.273521
481.571	1.15275
484.463	3.00754
487.356	5.5997
490.249	10.3859
493.142	21.9462
496.034	42.1979
498.927	82.1185
501.82	198.832
504.712	352.669
507.605	391.131
510.498	469.142
513.39	550.847
516.283	607.787
519.176	547.283
522.068	295.834
524.961	136.49
527.854	81.5287
530.747	56.0045
533.639	42.4537
536.532	32.9749
539.425	27.1563
542.317	23.1475
545.21	19.0751
548.103	17.7957
550.995	13.466
553.888	11.1064
556.781	8.91697
559.674	7.49058
562.566	4.79079
565.459	4.34554
568.352	2.67435
571.244	3.11993
574.137	1.97932
577.03	0.560417
579.923	0.515591
582.815	0.278637
585.708	0.138046
588.601	0.20631
591.493	0.148331
594.386	0.033787
597.279	0.244225
600.171	0.360783
603.064	0.711182
605.957	0.630627
608.849	1.32569
611.742	1.49113
614.635	0.776382
617.528	1.14777
620.42	0.402649
623.313	0.390308
626.206	0.0298
629.098	0.833862
631.991	0.671917
634.884	0.085007
637.776	0.980675
640.669	0.299923
643.562	0.840546
646.455	1.17642
649.347	0.724419
652.24	1.46455
655.133	1.75547
658.025	2.02075
660.918	2.39796
663.811	2.0909
666.703	2.35196
669.596	1.42594
672.489	1.78431
675.381	2.1185
678.274	2.36846
681.167	0.635628
684.06	0.886919
686.952	1.57231
689.845	0.129827
692.738	0.246328
695.63	0.430075
698.523	0.074728
701.416	0.338125
704.308	0.088297
707.201	0.903852
710.094	0.130461
712.987	0.043005
715.879	0.548315
718.772	1.29363
721.665	0.641283
724.557	1.49651
727.45	2.00329
730.343	0.440321
733.236	0.869766
736.128	0.291651
739.021	0.613075
741.914	0.232124
744.806	1.10721
747.699	1.23255
750.592	0.939674
753.484	0.970324
756.377	1.0595
759.27	0.92939
762.163	0.626299
765.055	0.226942
767.948	0.335728
770.841	1.07486
773.733	0.071318
776.626	0.685059
779.519	0.597191
782.411	0.775192
785.304	0.225082
788.197	0.21682
791.09	1.14471
793.982	0.564835
796.875	0.778015
799.768	0.2314
802.66	0.766943
805.553	0.504084
808.446	1.4173
811.338	0.673269
814.231	1.30737
817.124	1.74635
820.016	1.30269
822.909	1.88358
825.802	1.07328
828.695	1.2769
831.587	0.483673
834.48	0.469795
837.373	1.00217
840.265	1.03707
843.158	1.71235
846.051	1.00018
848.943	1.35213
851.836	0.015139
854.729	0.777006
857.622	1.06796
860.514	1.97438
863.407	0.456394
866.3	1.54499
869.192	0.15686
872.085	0.214882
874.978	0.705067
877.87	0.686611
880.763	0.664509
883.656	0.376644
886.549	0.31369
889.441	0.112621
892.334	0.034206
895.227	0.400436
898.119	0.830568
901.012	0.84902
903.905	0.461103
906.798	0.641453
909.69	1.31824
912.583	1.90225
915.476	3.95909
918.368	7.0999
921.261	11.4339
924.154	16.5233
927.046	22.2326
929.939	28.0381
932.832	28.7357
935.725	29.0783
938.617	28.0173
941.51	26.2718
944.403	25.4591
947.295	24.1491
950.188	22.6208
953.081	22.4667
955.973	22.2619
958.866	19.4624
961.759	19.6136
964.652	18.7443
967.544	18.873
970.437	17.7836
973.33	16.6226
976.222	15.6921
979.115	14.7752
982.008	12.6249
984.9	10.2872
987.793	8.11808
990.686	5.58454
993.578	4.53252
996.471	2.84213
999.364	2.56239
1002.26	2.26809
1005.15	1.54854
1008.04	1.93127
1010.93	1.03749
1013.83	1.38776
1016.72	1.10822
1019.61	0.678139
1022.5	0.708162
1025.4	0.84227
1028.29	0.001778
1031.18	0.133202
1034.08	0.54113
1036.97	0.373766
1039.86	0.175564
1042.75	0.015533
1045.65	0.021677
1048.54	0.162416
1051.43	0.063353
1054.33	0.539991
1057.22	0.25098
1060.11	0.838615
1063	0.701887
1065.9	0.636488
1068.79	0.235794
1071.68	0.725163
1074.57	0.069553
1077.47	0.841833
1080.36	0.780724
1083.25	1.11099
1086.14	1.35579
1089.04	1.30129
1091.93	1.16862
1094.82	0.606377
1097.72	0.511719
1100.61	1.40229
1103.5	1.00053
1106.39	0.752378
1109.29	0.675682
1112.18	0.125294
1115.07	0.95262
1117.96	0.918928
1120.86	1.30349
1123.75	1.10105
1126.64	0.60038
1129.54	1.02086
1132.43	0.662502
1135.32	1.0375
1138.21	0.375559
1141.11	1.13435
1144	1.2041
1146.89	0.612354
1149.78	1.21804
1152.68	0.205681
1155.57	0.946192
1158.46	0.110628
1161.36	0.105692
1164.25	1.41212
1167.14	0.998186
1170.03	0.402941
1172.93	1.28762
1175.82	0.308546
1178.71	0.705147
1181.6	0.503763
1184.5	0.589632
1187.39	1.19315
1190.28	0.483046
1193.17	0.387232
1196.07	0.224228
1198.96	0.935276
1201.85	0.367472
1204.75	1.29524
1207.64	0.502913
1210.53	0.772631
1213.42	1.23538
1216.32	0.371941
1219.21	0.160042
1222.1	1.28653
1224.99	0.029648
1227.89	0.445976
1230.78	0.594473
1233.67	0.577185
1236.57	0.714752
1239.46	0.1353
1242.35	1.32305
1245.24	0.554562
1248.14	0.904182
1251.03	0.626551
1253.92	0.988998
1256.81	0.685602
1259.71	1.45693
1262.6	0.778847
1265.49	0.101809
1268.38	0.003412
1271.28	1.22365
1274.17	0.034845
