Measurement: Raman, 514 nm, unoriented, Raman Data Processed
Mineral: Silicon
Rruff sample: R050145
Ideal chemistry: Si
Locality: synthetic from Dupont
Source: Gerry Gibbs
Description: Dark gray synthetic fragment
Measured chemistry: Si
Raman shift (cm-1)	intensity
128.146	0
132.309	1.695
136.47	181.039
140.63	175.918
144.787	162.551
148.942	248.984
153.096	266.982
157.247	171.471
161.396	165.514
165.544	108.485
169.689	78.574
173.833	174.129
177.974	263.241
182.114	207.106
186.251	247.509
190.387	290.869
194.52	374.068
198.652	516.429
202.782	501.623
206.909	444.146
211.035	210.005
215.159	81.377
219.281	48.919
223.4	44.297
227.518	53.82
231.634	13.263
235.748	84.036
239.86	30.471
243.97	4.363
248.079	23.57
252.185	93.542
256.289	40.78
260.391	8.799
264.492	41.062
268.59	69.186
272.687	65.464
276.781	86.19
280.874	45.92
284.964	48.016
289.053	103.667
293.14	123.878
297.225	342.897
301.308	415.332
305.389	296.755
309.468	220.694
313.545	275.457
317.62	251.088
321.693	221.856
325.765	263.682
329.834	196.851
333.902	266.76
337.967	223.479
342.031	251.325
346.093	154.348
350.153	171.886
354.21	239.894
358.267	218.167
362.321	226.593
366.373	327.71
370.423	256.013
374.471	230.055
378.518	205.049
382.563	228.756
386.605	245.297
390.646	283.014
394.685	178.293
398.722	168.287
402.757	208.836
406.79	243.541
410.821	155.938
414.851	166.7
418.878	168.527
422.904	188.521
426.927	222.878
430.949	177.214
434.969	206.299
438.987	216.197
443.003	158.889
447.018	167.742
451.03	141.831
455.041	87.702
459.049	202.209
463.056	188.203
467.061	261.342
471.064	183.241
475.065	349.203
479.064	313.487
483.062	296.554
487.057	433.859
491.051	455.77
495.043	566.982
499.032	648.882
503.02	929.988
507.007	1739.78
510.991	3359.45
514.973	12666.8
518.954	47018
522.933	16556.3
526.91	4153.21
530.885	1984.58
534.858	1298.44
538.829	860.084
542.799	721.493
546.766	665.796
550.732	527.365
554.696	455.441
558.658	523.436
562.618	395.905
566.576	402.872
570.533	322.957
574.488	383.681
578.44	336.873
582.391	380.762
586.341	374.285
590.288	87.903
594.233	78.505
598.177	99.373
602.119	70.385
606.059	108.952
609.997	226.161
613.933	177.408
617.868	185.996
621.801	211.907
625.731	156.004
629.66	79.883
633.588	153.5
637.513	124.642
641.437	82.634
645.358	86.309
649.278	123.757
653.196	102.878
657.113	146.042
661.027	204.251
664.94	104.503
668.851	61.803
672.76	135.146
676.667	68.528
680.572	41.951
684.476	40.607
688.378	81.087
692.278	85.598
696.176	1.89
700.072	16.37
703.967	83.153
707.86	25.688
711.751	8.792
715.64	13.697
719.527	5.786
723.413	58.556
727.297	11.274
731.179	94.858
735.059	89.955
738.937	8.08
742.814	66.17
746.689	23.567
750.562	65.744
754.433	18.177
758.303	36.342
762.17	43.83
766.036	40.724
769.901	60.642
773.763	8.96
777.624	3.255
781.482	28.543
785.339	28.167
789.195	47.076
793.048	95.319
796.9	64.565
800.75	101.816
804.598	90.07
808.445	110.325
812.289	100.586
816.132	107.85
819.973	213.118
823.813	124.391
827.65	64.669
831.486	94.955
835.32	60.261
839.152	156.422
842.983	106.751
846.812	55.12
850.639	71.601
854.464	67.207
858.288	35.62
862.11	111.768
865.93	82.917
869.748	105.39
873.564	114.336
877.379	126.139
881.192	81.106
885.004	89.395
888.813	162.939
892.621	174.177
896.427	72.432
900.232	119.05
904.034	150.123
907.835	160.45
911.634	120.303
915.432	210.439
919.227	169.424
923.021	249.459
926.813	318.795
930.604	613.72
934.393	747.927
938.18	1012.33
941.965	1203.6
945.749	1114.97
949.53	1117.39
953.311	1067.86
957.089	1101.38
960.866	1233.97
964.641	1088.63
968.414	1187.34
972.185	1243.1
975.955	1317.96
979.723	1295.98
983.49	1301.1
987.254	1186.9
991.017	878.298
994.779	680.779
998.538	504.518
1002.3	501.635
1006.05	465.197
1009.81	433.812
1013.56	381.47
1017.31	337.472
1021.06	179.382
1024.81	277.875
1028.55	221.658
1032.3	175.826
1036.04	198.985
1039.78	178.217
1043.52	144.66
1047.26	60.146
1050.99	129.697
1054.73	112.237
1058.46	102.263
1062.19	62.097
1065.92	145.812
1069.65	170.661
1073.37	170.001
1077.1	110.903
1080.82	111.818
1084.54	85.137
1088.26	90.533
1091.97	48.544
1095.69	76.495
1099.4	124.574
1103.12	155.643
1106.83	31.171
1110.54	57.24
1114.24	66.407
1117.95	100.398
1121.65	203.761
1125.35	151.515
1129.06	55.641
1132.75	30.94
1136.45	85
1140.15	54.449
1143.84	86.335
1147.53	12.078
1151.22	87.632
1154.91	27.146
1158.6	34.738
1162.28	72.182
1165.97	60.776
1169.65	3.245
1173.33	3.364
1177.01	66.703
1180.69	39.581
1184.36	109.411
1188.04	18.118
1191.71	28.784
1195.38	66.346
1199.05	77.836
1202.71	16.925
1206.38	79.255
1210.04	50.476
1213.71	31.565
1217.37	14.427
1221.03	42.449
1224.68	117.937
1228.34	57.902
1231.99	21.498
1235.65	119.996
1239.3	84.404
1242.95	52.72
1246.59	47.943
1250.24	108.061
1253.88	0.111
1257.53	24.825
1261.17	125.904
1264.81	46.646
1268.45	16.149
1272.08	39.875
1275.72	8.709
1279.35	4.963
1282.98	53.262
1286.61	33.305
1290.24	70.419
1293.87	51.617
1297.49	81.609
1301.11	30.5
1304.73	76.287
1308.36	88.97
1311.97	25.276
1315.59	56.487
1319.2	30.136
1322.82	124.747
1326.43	53.832
1330.04	103.887
1333.65	65.744
1337.26	103.56
1340.86	184.82
1344.47	182.055
1348.07	206.593
1351.67	130.969
1355.27	107.393
1358.87	151.83
1362.46	163.711
1366.06	112.117
1369.65	141.049
1373.24	122.343
1376.83	138.991
1380.42	156.783
1384	179.807
1387.59	114.062
1391.17	97.511
1394.75	178.297
1398.33	117.303
1401.91	171.58
1405.49	102.146
1409.06	118.528
1412.64	212.771
1416.21	162.83
1419.78	166.347
1423.35	132.232
1426.91	175.852
1430.48	208.83
1434.05	109.702
1437.61	134.417
1441.17	238.063
1444.73	171.617
1448.29	116.049
1451.84	163.297
1455.4	196.344
1458.95	197.158
1462.5	165.128
1466.05	55.163
1469.6	127.361
1473.15	129.659
1476.69	105.217
1480.24	146.917
1483.78	189.771
1487.32	92.864
1490.86	64.344
1494.39	2.592
1497.93	114.756
1501.46	141.208
1505	13.753
1508.53	3.57
1512.06	98.5
1515.59	28.586
1519.11	34.798
1522.64	0
