Measurement: Raman, 532 nm, unoriented, Raman Data Processed
Mineral: Sillimanite
Rruff sample: R050601
Ideal chemistry: Al_2_OSiO_4_
Locality: Mogok, Burma
Source: Bill Larson
Description: Tan colored cleavage fragment from a water worn pebble
Measured chemistry: (Al_1.99_Fe^3+^_0.01_)_Î£=2_Si_1.00_O_5_
Raman shift (cm-1)	intensity
149.934	0
152.826	68.4326
155.719	77.9043
158.612	24.2788
161.504	29.98
164.397	29.2285
167.29	18.1904
170.183	24.1567
173.075	64.4565
175.968	84.938
178.861	81.2935
181.753	57.7642
184.646	69.0513
187.539	22.6519
190.431	20.1841
193.324	40.7739
196.217	50.6973
199.109	48.1016
202.002	50.0269
204.895	67.583
207.788	107.373
210.68	234.664
213.573	78.2969
216.466	43.5151
219.358	208.057
222.251	518.476
225.144	652.992
228.036	960.979
230.929	1627.01
233.822	3399.61
236.715	6259.79
239.607	1247.58
242.5	225.686
245.393	96.4233
248.286	49.2085
251.178	45.4165
254.071	19.5557
256.964	61.0967
259.856	45.5762
262.749	4.26758
265.642	26.626
268.534	5.50342
271.427	0.770508
274.32	2.60644
277.212	8.80225
280.105	27.2617
282.998	28.7041
285.891	71.2046
288.783	113.756
291.676	214.953
294.569	451.542
297.461	808.354
300.354	1197.94
303.247	1874.1
306.14	3084.48
309.032	4833.3
311.925	5698.65
314.818	2513.91
317.71	1145.8
320.603	716.263
323.496	517.178
326.389	373.438
329.281	287.041
332.174	250.735
335.067	194.812
337.959	158.918
340.852	119.653
343.745	117.656
346.637	131.241
349.53	167.755
352.423	180.111
355.315	99.8648
358.208	85.9805
361.101	103.024
363.994	173.274
366.886	47.4707
369.779	4.31299
372.672	11.5117
375.565	11.4243
378.457	2.72803
381.35	10.5654
384.243	36.1836
387.135	24.2915
390.028	43.2817
392.921	37.3916
395.813	36.1494
398.706	65.4409
401.599	97.3413
404.491	199.599
407.384	379.817
410.277	466.053
413.17	148.219
416.062	52.1421
418.955	63.8267
421.848	41.9072
424.74	38.2769
427.633	23.5908
430.526	48.7861
433.418	51.8398
436.311	105.279
439.204	122.994
442.097	89.0107
444.989	98.3652
447.882	146.283
450.775	275.32
453.667	537.466
456.56	884.351
459.453	622.882
462.346	177.581
465.238	75.2876
468.131	79.1846
471.024	121.688
473.916	161.599
476.809	218.124
479.702	330.467
482.594	512.372
485.487	486.292
488.38	138.184
491.273	44.0786
494.165	15.478
497.058	20.0996
499.951	26.9477
502.843	46.7109
505.736	42.5024
508.629	24.7564
511.522	1.08789
514.414	5.12988
517.307	7.90332
520.2	1.12402
523.092	21.3174
525.985	24.876
528.878	24.1694
531.77	2
534.663	23.1133
537.556	12.5625
540.448	22.999
543.341	52.5142
546.234	40.1777
549.127	39.793
552.019	6.19775
554.912	12.2949
557.805	3.68945
560.697	9.45166
563.59	3.56055
566.483	0.881836
569.376	27.4756
572.268	57.127
575.161	76.6182
578.054	108.193
580.946	205.859
583.839	349.375
586.732	565.592
589.625	882.251
592.517	1261.07
595.41	1433.9
598.303	1042.5
601.195	597.633
604.088	396.854
606.981	265.558
609.874	187.3
612.766	148.326
615.659	108.407
618.552	92.71
621.444	62.5098
624.337	57.0723
627.23	52.375
630.122	44.291
633.015	2.00293
635.908	11.2324
638.801	39.7891
641.693	50.7773
644.586	25.5186
647.479	12.874
650.371	12.8789
653.264	7.37793
656.157	17.5449
659.049	5.85938
661.942	0.204102
664.835	15.8613
667.727	16.3125
670.62	38.9287
673.513	16.0186
676.406	31.1514
679.298	35.1631
682.191	56.6455
685.084	66.5898
687.976	64.2539
690.869	93.7324
693.762	105.074
696.654	164.556
699.547	251.19
702.44	418.194
705.333	642.416
708.225	899.376
711.118	965.752
714.011	517.973
716.904	253.907
719.796	147.785
722.689	92.6221
725.582	61
728.474	69.9443
731.367	82.9531
734.26	60.4297
737.152	43.0469
740.045	48.2617
742.938	39.5781
745.831	40.3105
748.723	16.7305
751.616	17.498
754.509	34.5645
757.401	12.2695
760.294	13.9346
763.187	11.334
766.08	19.3408
768.972	27.1943
771.865	18.8965
774.758	46.044
777.65	18.7295
780.543	24.4551
783.436	68.0342
786.328	86.9463
789.221	88.668
792.114	55.8691
795.006	19.8428
797.899	20.1875
800.792	20.0527
803.685	15.1553
806.577	50.6973
809.47	27.8408
812.363	32.4893
815.255	25.3721
818.148	17.1074
821.041	28.7705
823.933	22.5293
826.826	28.0107
829.719	33.335
832.612	20.8232
835.504	6.7207
838.397	21.8818
841.29	17.1416
844.182	9.8291
847.075	25.9424
849.968	17.666
852.861	43.71
855.753	82.5859
858.646	185.977
861.539	402.906
864.431	734.098
867.324	1190.13
870.217	1836.16
873.11	2043.72
876.002	1172.27
878.895	487.685
881.788	233.959
884.68	108.967
887.573	38.0508
890.466	44.1113
893.358	34.5801
896.251	47.4277
899.144	67.1103
902.037	25.3281
904.929	19.9268
907.822	11.3047
910.715	12.2842
913.607	11.3271
916.5	30.9424
919.393	11.0664
922.285	13.3096
925.178	30.7422
928.071	79.8936
930.964	120.443
933.856	142.784
936.749	172.66
939.642	217.103
942.534	314.553
945.427	502.112
948.32	706.571
951.212	1026.24
954.105	1527.42
956.998	2103.47
959.891	2668.02
962.783	2913.68
965.676	2592.44
968.569	1962.94
971.461	1336.63
974.354	917.502
977.247	629.714
980.139	419.655
983.032	294.699
985.925	239.069
988.818	174.715
991.71	157.077
994.603	108.031
997.496	77.4385
1000.39	81.3203
1003.28	54.6445
1006.17	34.6279
1009.07	15.0283
1011.96	31.0635
1014.85	57.7451
1017.75	14.4443
1020.64	5.37988
1023.53	11.1338
1026.42	14.7969
1029.32	10.9922
1032.21	2.9375
1035.1	33.8115
1037.99	23.1699
1040.89	12.2891
1043.78	15.956
1046.67	37.3301
1049.56	23.8809
1052.46	29.917
1055.35	3.2666
1058.24	10.7754
1061.13	14.0996
1064.03	18.79
1066.92	9.2832
1069.81	16.3223
1072.71	24.5693
1075.6	53.7393
1078.49	44.0723
1081.38	57.834
1084.28	35.8545
1087.17	23.3643
1090.06	5.86133
1092.95	23.9385
1095.85	26.0107
1098.74	47.1631
1101.63	59.542
1104.53	53.5703
1107.42	65.7695
1110.31	89.874
1113.2	131.156
1116.1	148.949
1118.99	189.46
1121.88	252.127
1124.78	407.144
1127.67	640.105
1130.56	477.006
1133.45	259.688
1136.35	148.834
1139.24	87.1973
1142.13	75.9922
1145.02	46.5596
1147.92	42.5312
1150.81	13.8848
1153.7	42.7783
1156.59	46.376
1159.49	29.8193
1162.38	20.5371
1165.27	9.66406
1168.16	17.7314
1171.06	35.792
1173.95	22.5527
1176.84	36.9766
1179.74	23.8721
1182.63	46.6924
1185.52	64.6924
1188.41	48.4355
1191.31	19.6094
1194.2	2.55469
1197.09	14.5771
1199.98	48.6182
1202.88	44.3086
1205.77	25.1562
1208.66	16.5762
1211.56	11.2666
1214.45	25.6113
1217.34	48.9307
1220.23	48.3603
1223.13	50.457
1226.02	73.6846
1228.91	61.3887
1231.81	71.3535
1234.7	67.2705
1237.59	29.1436
1240.48	35.4805
1243.38	39.8935
1246.27	17.2949
1249.16	49.1895
1252.05	60.1855
1254.95	47.9658
1257.84	35.4678
1260.73	2.32227
1263.62	7.05859
1266.52	5.00586
1269.41	46.002
1272.3	24.6592
1275.19	16.4541
1278.09	43.0488
1280.98	15.0322
1283.87	16.9531
1286.77	21.5
1289.66	17.5293
1292.55	11.6465
1295.44	4.39258
1298.34	19.2744
1301.23	0.128906
