Measurement: Raman, 785 nm, unoriented, Raman Data Processed
Mineral: Sillimanite
Rruff sample: R060787
Ideal chemistry: Al_2_OSiO_4_
Locality: Moragahakanda, Sri Lanka
Source: Michael Scott
Description: Mass of colorless parallel prismatic crystals
Measured chemistry: Al_2.01_Si_0.99_O_5_
Raman shift (cm-1)	intensity
179.382	0
182.274	20.4414
185.167	210.113
188.06	331.043
190.952	568.988
193.845	366.465
196.738	680.574
199.631	915.609
202.523	1128.45
205.416	1029.28
208.309	880.035
211.201	598.863
214.094	521.547
216.987	756.836
219.88	769.555
222.772	868.277
225.665	1264.19
228.558	1874.39
231.45	3401.03
234.343	6883.29
237.236	6641.66
240.128	1606.52
243.021	923.055
245.914	627.856
248.806	283.016
251.699	574.965
254.592	742.109
257.485	925.625
260.377	714.316
263.27	545.012
266.163	341.867
269.055	328.379
271.948	71.3516
274.841	47.9961
277.734	161.633
280.626	352.777
283.519	541.957
286.412	626.434
289.304	244.789
292.197	114.688
295.09	49.0117
297.983	218.555
300.875	802.926
303.768	2223.29
306.661	3727.7
309.553	5420.94
312.446	3901.32
315.339	1429.3
318.231	650.508
321.124	246.387
324.017	259.238
326.909	659.293
329.802	891.402
332.695	813.629
335.588	524.746
338.48	187.918
341.373	39.7461
344.266	327.719
347.158	444.633
350.051	670.41
352.944	821.586
355.837	583.066
358.729	331.043
361.622	240.133
364.515	44.2383
367.407	111.047
370.3	192.93
373.193	487.356
376.085	606.156
378.978	538.523
381.871	281.504
384.764	15.9062
387.656	201.195
390.549	109.258
393.442	322.09
396.334	536.375
399.227	619.336
402.12	282.672
405.012	586.68
407.905	409.625
410.798	275.629
413.69	199.715
416.583	453.852
419.476	592.664
422.369	536.422
425.261	370.961
428.154	365.68
431.047	357.977
433.939	307.324
436.832	276.394
439.725	379.172
442.618	281.898
445.51	334.727
448.403	636.727
451.296	1115.56
454.188	1913.47
457.081	2638.84
459.974	1115.25
462.866	415.137
465.759	369.387
468.652	435.402
471.545	447.133
474.437	219.531
477.33	253.93
480.223	589.445
483.115	1038.4
486.008	665.949
488.901	566.746
491.793	371.141
494.686	246.078
497.579	229.023
500.471	143.008
503.364	48.3594
506.257	81.2695
509.15	78.6836
512.042	257.594
514.935	323.871
517.828	314.469
520.72	369.691
523.613	375.961
526.506	335.211
529.399	199.961
532.291	191.664
535.184	149.887
538.077	181.383
540.969	371.621
543.862	254.633
546.755	275.769
549.647	135.547
552.54	294.297
555.433	305.59
558.326	351.039
561.218	356.238
564.111	456.309
567.004	164.305
569.896	114.656
572.789	110.867
575.682	75.418
578.574	28.1055
581.467	457.086
584.36	509.223
587.253	909.621
590.145	1423.69
593.038	1949
595.931	1808.5
598.823	1256.05
601.716	731.992
604.609	581.41
607.501	600.758
610.394	220.227
613.287	257.492
616.179	240.984
619.072	214.516
621.965	212.043
624.858	317.059
627.75	293.965
630.643	51.168
633.536	343.629
636.428	214.363
639.321	307.356
642.214	25.9609
645.106	281.57
647.999	18.1875
650.892	133.391
653.785	6.66406
656.677	81.3086
659.57	138.598
662.463	120.731
665.355	29.25
668.248	18.0156
671.141	103.566
674.034	227.164
676.926	208.699
679.819	355.586
682.712	236.566
685.604	176.844
688.497	205.754
691.39	357.496
694.282	509.234
697.175	737.754
700.068	863.129
702.961	1169.95
705.853	1651.71
708.746	2468.95
711.639	2043.08
714.531	1050.83
717.424	588.512
720.317	487.941
723.209	484.973
726.102	257.445
728.995	168.684
731.888	92.5547
734.78	177.566
737.673	194.223
740.566	352.09
743.458	270.426
746.351	139.969
749.244	206.738
752.136	341.672
755.029	308.305
757.922	133.184
760.814	211.867
763.707	134.777
766.6	169.394
769.493	84.4688
772.385	169.133
775.278	191.356
778.171	148.996
781.063	82.2539
783.956	299.887
786.849	641.805
789.741	447.363
792.634	477.984
795.527	252.551
798.42	173.336
801.312	15.7656
804.205	167.363
807.098	71.9688
809.99	204.371
812.883	197.269
815.776	223.816
818.668	125.641
821.561	70.3789
824.454	139.129
827.347	48.7383
830.239	284.336
833.132	327.125
836.025	181.133
838.918	352.098
841.81	228.785
844.703	254.086
847.596	294.332
850.488	316.715
853.381	331.941
856.274	344.5
859.166	524.426
862.059	1121.87
864.952	1818.12
867.845	3511.02
870.737	5026.84
873.63	4509.05
876.523	2216.07
879.415	1167.35
882.308	718.43
885.201	257.613
888.093	121.688
890.986	256.422
893.879	251.539
896.771	268.871
899.664	215.106
902.557	252.922
905.45	198.781
908.342	277.094
911.235	191.688
914.128	185.051
917.02	146.809
919.913	76.2461
922.806	115.512
925.698	234.879
928.591	83.0352
931.484	221.055
934.377	194.039
937.269	321.129
940.162	341.91
943.055	308.469
945.947	298.469
948.84	389.227
951.733	722.621
954.625	1123.66
957.518	1660.44
960.411	2042.02
963.304	2141.85
966.196	1944.24
969.089	1371.49
971.982	895.768
974.874	630.113
977.767	596.332
980.66	392.766
983.553	362.394
986.445	107.877
989.338	222.922
992.231	68.4668
995.123	47.7891
998.016	282.494
1000.91	194.31
1003.8	260.949
1006.69	342.56
1009.59	222.168
1012.48	98.1309
1015.37	318.223
1018.26	156.844
1021.16	126.658
1024.05	31.9785
1026.94	13.6504
1029.84	47.8496
1032.73	337.06
1035.62	311.283
1038.51	132.451
1041.41	140.361
1044.3	153.258
1047.19	198.25
1050.09	39.9434
1052.98	135.435
1055.87	177.227
1058.76	142.478
1061.65	120.549
1064.55	1.88477
1067.44	43.5586
1070.33	80.8984
1073.23	162.264
1076.12	208.672
1079.01	52.2188
1081.9	81.3164
1084.8	8.61328
1087.69	0.71875
1090.58	43.9785
1093.47	83.8769
1096.37	263.508
1099.26	124.35
1102.15	235.223
1105.05	93.3379
1107.94	70.8496
1110.83	121.603
1113.72	154.875
1116.62	201.164
1119.51	40.2773
1122.4	204.137
1125.3	518.254
1128.19	661.307
1131.08	376.887
1133.97	108.074
1136.87	5.83789
1139.76	114.188
1142.65	11.6973
1145.54	100.471
1148.44	119.309
1151.33	117.053
1154.22	43.3145
1157.12	163.603
1160.01	155.092
1162.9	143.547
1165.79	143.795
1168.68	118.371
1171.58	166.275
1174.47	111.482
1177.36	227.728
1180.26	205.514
1183.15	210.217
1186.04	136.412
1188.93	311.709
1191.83	246.525
1194.72	129.736
1197.61	201.059
1200.51	243.682
1203.4	61.123
1206.29	101.035
1209.18	19.8945
1212.08	118.627
1214.97	304.291
1217.86	357.891
1220.75	199.801
1223.65	316.818
1226.54	152.478
1229.43	281.018
1232.33	408.715
1235.22	303.475
1238.11	224.506
1241	125.289
1243.9	135.852
1246.79	221.121
1249.68	129.928
1252.57	83.6191
1255.47	99.7109
1258.36	217.797
1261.25	133.635
1264.14	61.043
1267.04	243.963
1269.93	37.1426
1272.82	0
