Measurement: Raman, 780 nm, unoriented, Raman Data Processed
Mineral: Sillimanite
Rruff sample: R100126
Ideal chemistry: Al_2_OSiO_4_
Locality: Orissa, India
Source: William W. Pinch
Description: Pale purple cut gemstone
Raman shift (cm-1)	intensity
115.675	0
119.05	1.77588
122.425	19.7053
125.8	1.56714
129.175	8.30908
132.55	8.08594
135.924	31.0557
139.299	106.557
142.674	337.652
146.049	82.7022
149.424	25.4648
152.798	20.884
156.173	14.9177
159.548	6.75635
162.923	9.1626
166.298	1.02197
169.673	3.90772
173.047	2.56348
176.422	2.09106
179.797	5.43335
183.172	17.937
186.547	20.363
189.921	7.89575
193.296	19.1025
196.671	14.5676
200.046	8.31714
203.421	17.4009
206.796	37.7664
210.17	43.6484
213.545	21.1868
216.92	24.6445
220.295	19.592
223.67	21.2529
227.044	40.8867
230.419	122.627
233.794	538.517
237.169	441.279
240.544	50.4565
243.918	18.0215
247.293	12.1968
250.668	7.5271
254.043	0.525391
257.418	19.3877
260.793	3.97778
264.167	2.38867
267.542	2.39478
270.917	1.54224
274.292	1.604
277.667	8.32935
281.041	3.15332
284.416	6.09106
287.791	4.13379
291.166	16.342
294.541	12.0232
297.916	37.7886
301.29	54.6057
304.665	119.353
308.04	265.494
311.415	320.133
314.79	117.303
318.164	53.8474
321.539	60.5415
324.914	40.6294
328.289	30.0261
331.664	25.0032
335.038	17.167
338.413	17.479
341.788	18.8023
345.163	22.1128
348.538	37.084
351.913	35.6352
355.287	17.5295
358.662	14.4785
362.037	25.273
365.412	6.21191
368.787	14.5808
372.161	1.29468
375.536	4.03369
378.911	2.72803
382.286	3.92798
385.661	1.73071
389.036	5.77808
392.41	0.953613
395.785	0.424805
399.16	5.43579
402.535	1.80859
405.909	15.2131
409.284	27.2534
412.659	3.80542
416.034	5.47925
419.409	15.115
422.784	14.894
426.158	17.0007
429.533	1.08057
432.908	15.4929
436.283	23.3289
439.658	16.5452
443.033	8.73364
446.407	12.5056
449.782	31.999
453.157	126.267
456.532	248.528
459.907	91.9805
463.281	30.0642
466.656	20.7358
470.031	18.6057
473.406	25.8904
476.781	18.9629
480.156	69.231
483.53	117.534
486.905	44.7051
490.28	13.1885
493.655	18.4043
497.029	10.927
500.404	2.27881
503.779	12.7376
507.154	3.36597
510.529	14.314
513.904	3.89819
517.278	3.65698
520.653	4.11621
524.028	5.97729
527.403	2.16821
530.778	2.48584
534.153	5.97998
537.527	3.40259
540.902	2.76318
544.277	1.77246
547.652	2.76465
551.027	1.22974
554.401	8.32153
557.776	6.5376
561.151	6.84106
564.526	6.80542
567.901	12.5486
571.275	8.45508
574.65	24.366
578.025	19.8811
581.4	34.2131
584.775	35.1123
588.149	65.4155
591.524	120.501
594.899	160.75
598.274	107.802
601.649	59.9858
605.024	42.614
608.398	30.1834
611.773	28.6533
615.148	22.437
618.523	14.6274
621.898	15.8948
625.273	19.1562
628.647	13.8818
632.022	16.675
635.397	12.2256
638.772	6.22461
642.146	15.6975
645.521	7.71143
648.896	15.5166
652.271	14.9304
655.646	3.33545
659.021	14.0496
662.395	4.85132
665.77	5.18774
669.145	0.737549
672.52	0.510986
675.895	1.59936
679.269	14.8777
682.644	6.50391
686.019	5.95093
689.394	8.66748
692.769	15.6104
696.144	22.7498
699.518	28.1196
702.893	52.0054
706.268	114.496
709.643	170.586
713.018	84.5169
716.393	32.708
719.767	24.9831
723.142	10.8648
726.517	7.52759
729.892	8.33252
733.266	12.6965
736.641	5.59375
740.016	1.75244
743.391	0.201904
746.766	5.42017
750.141	8.50366
753.515	1.28369
756.89	6.51904
760.265	2.18579
763.64	3.67334
767.015	7.63232
770.389	7.0708
773.764	2.11682
777.139	10.029
780.514	2.63086
783.889	10.2476
787.264	20.3223
790.638	23.9778
794.013	24.4839
797.388	3.82202
800.763	11.6958
804.138	11.1067
807.513	10.9822
810.887	6.23828
814.262	6.05957
817.637	15.6855
821.012	15.0252
824.386	7.86719
827.761	7.61914
831.136	3.16772
834.511	1.75732
837.886	1.15576
841.261	4.34155
844.635	7.50708
848.01	8.4458
851.385	16.288
854.76	12.7399
858.135	33.0944
861.51	51.0383
864.884	100.688
868.259	222.981
871.634	366.308
875.009	215.485
878.384	80.6903
881.758	38.4628
885.133	33.045
888.508	20.4998
891.883	12.3366
895.258	13.0996
898.632	24.3556
902.007	10.7227
905.382	23.6797
908.757	16.8854
912.132	2.94128
915.506	5.21008
918.881	3.96582
922.256	2.80005
925.631	1.75647
929.006	6.86646
932.381	21.5656
935.755	14.6646
939.13	19.415
942.505	25.7776
945.88	34.0332
949.255	48.2349
952.63	70.1173
956.004	104.4
959.379	154.103
962.754	168.269
966.129	141.194
969.504	88.4569
972.878	55.1721
976.253	38.1855
979.628	23.6427
983.003	16.0652
986.378	13.5708
989.752	13.3806
993.127	2.79602
996.502	6.33069
999.877	3.7179
1003.25	1.52368
1006.63	0.586548
1010	3.53796
1013.38	4.88464
1016.75	6.03259
1020.13	6.20019
1023.5	3.0376
1026.88	2.11633
1030.25	11.7417
1033.62	8.02722
1037	15.7873
1040.38	12.5237
1043.75	8.03613
1047.12	9.91687
1050.5	4.40271
1053.87	0.545654
1057.25	3.44373
1060.62	9.55371
1064	13.5613
1067.37	7.65149
1070.75	0.438599
1074.12	6.24292
1077.5	1.59167
1080.87	3.5686
1084.25	9.42835
1087.62	12.1106
1091	5.02551
1094.37	3.61877
1097.75	3.84326
1101.12	2.0249
1104.5	2.76538
1107.87	7.99097
1111.25	2.68701
1114.62	0.624023
1117.99	3.54785
1121.37	4.32873
1124.74	21.4447
1128.12	44.7579
1131.49	24.1902
1134.87	16.4823
1138.24	14.7556
1141.62	5.63098
1144.99	7.57739
1148.37	0.136719
1151.74	12.2496
1155.12	10.6328
1158.49	9.72168
1161.87	8.94861
1165.24	8.79346
1168.62	9.98352
1171.99	9.56213
1175.37	3.82471
1178.74	7.00354
1182.12	7.42639
1185.49	7.16956
1188.87	13.2756
1192.24	11.6804
1195.62	15.4988
1198.99	11.265
1202.37	10.3348
1205.74	8.10388
1209.12	14.963
1212.49	7.04822
1215.87	4.87183
1219.24	15.3147
1222.62	12.9178
1225.99	10.0924
1229.36	4.43408
1232.74	7.69897
1236.11	7.48108
1239.49	4.92346
1242.86	6.27234
1246.24	3.98938
1249.61	0.706299
1252.99	2.17578
1256.36	0.121948
1259.74	8.98962
1263.11	5.65771
1266.49	9.77502
1269.86	6.97766
1273.24	5.95398
1276.61	0.133667
1279.99	0.220215
1283.36	5.01123
