Measurement: Raman, 532 nm, unoriented, Raman Data Processed
Mineral: Sillimanite
Rruff sample: R060080
Ideal chemistry: Al_2_OSiO_4_
Locality: Pein Pyit, Mogok, Burma
Source: Marcus Origlieri
Description: Light tan colored water-worn pebble
Measured chemistry: (Al_1.99_Fe^3+^_0.01_)_Î£=2_Si_1.00_O_5_
Raman shift (cm-1)	intensity
125.566	0
128.941	2.86451
132.315	11.6785
135.69	19.8277
139.065	40.7274
142.44	127.228
145.815	71.5836
149.19	9.78567
152.564	3.52412
155.939	1.53446
159.314	0.360603
162.689	0.656681
166.064	0.476852
169.438	0.770531
172.813	0.389278
176.188	0.358566
179.563	0.164963
182.938	0.984364
186.312	1.54767
189.687	2.19485
193.062	2.92222
196.437	2.81878
199.812	4.40687
203.187	6.11573
206.561	10.2368
209.936	26.7856
213.311	10.8177
216.686	17.0168
220.061	34.3625
223.435	44.6903
226.81	63.8447
230.185	104.047
233.56	291.494
236.935	532.792
240.31	60.4841
243.684	16.2019
247.059	7.84788
250.434	5.38176
253.809	6.29924
257.184	12.3744
260.558	4.34967
263.933	0.677582
267.308	0.16753
270.683	0.42963
274.058	1.06048
277.433	0.159344
280.807	0.136627
284.182	1.71614
287.557	4.5383
290.932	12.7004
294.307	31.0959
297.681	48.429
301.056	78.1512
304.431	136.158
307.806	263.089
311.181	404.85
314.555	169.456
317.93	68.9468
321.305	43.693
324.68	29.6618
328.055	20.2797
331.43	14.3432
334.804	9.64978
338.179	8.04473
341.554	7.3944
344.929	7.34811
348.304	12.4604
351.678	16.2904
355.053	6.83199
358.428	4.12718
361.803	9.42405
365.178	12.6114
368.553	0.991879
371.927	0.076397
375.302	0.032558
378.677	0.552601
382.052	0.942783
385.427	0.425774
388.801	0.655396
392.176	1.36846
395.551	1.40654
398.926	1.81255
402.301	4.72477
405.675	16.6874
409.05	35.9317
412.425	15.2063
415.8	4.90719
419.175	4.40039
422.55	5.24883
425.924	4.26577
429.299	5.69157
432.674	8.16508
436.049	15.581
439.424	17.5467
442.798	15.9596
446.173	20.3294
449.548	34.6452
452.923	76.8636
456.298	149.897
459.673	94.2275
463.047	26.5366
466.422	15.1803
469.797	15.0119
473.172	16.4962
476.547	22.9114
479.921	39.9974
483.296	65.3293
486.671	35.6575
490.046	10.7221
493.421	6.16092
496.796	4.56027
500.17	3.57683
503.545	3.45411
506.92	3.07192
510.295	2.29312
513.67	1.46798
517.044	0.551971
520.419	0.065342
523.794	0.28669
527.169	0.207661
530.544	0.491894
533.918	0.187592
537.293	0.457451
540.668	0.591324
544.043	0.488033
547.418	1.02173
550.793	0.337147
554.167	0.431236
557.542	0.182743
560.917	1.09973
564.292	0.375252
567.667	1.12236
571.042	2.31271
574.416	5.65258
577.791	11.2398
581.166	20.9483
584.541	35.7611
587.916	60.5496
591.29	101.669
594.665	136.114
598.04	104.847
601.415	56.9161
604.79	33.4636
608.164	23.6923
611.539	17.3817
614.914	12.8146
618.289	9.45118
621.664	6.42126
625.039	5.04791
628.413	3.7799
631.788	2.33818
635.163	1.46303
638.538	0.622757
641.913	0.260712
645.288	0.043629
648.662	0.089321
652.037	0.408543
655.412	0.048981
658.787	1.22402
662.162	1.35397
665.536	1.02581
668.911	1.136
672.286	1.65651
675.661	1.65267
679.036	2.3396
682.41	3.00663
685.785	5.4403
689.16	8.07169
692.535	14.1657
695.91	23.4011
699.284	35.5685
702.659	57.4658
706.034	100.834
709.409	145.812
712.784	105.827
716.159	42.3428
719.533	19.0277
722.908	10.1926
726.283	6.26222
729.658	5.10422
733.033	4.16154
736.408	3.68789
739.782	3.77561
743.157	2.66317
746.532	2.1874
749.907	1.18508
753.282	0.584812
756.656	0.523857
760.031	0.294785
763.406	0.231583
766.781	0.156963
770.156	0.788826
773.53	1.20209
776.905	3.40634
780.28	6.63126
783.655	11.7242
787.03	16.4073
790.404	13.6622
793.779	7.1966
797.154	4.29179
800.529	3.10266
803.904	2.26044
807.279	2.93338
810.653	2.3475
814.028	1.66274
817.403	1.6134
820.778	0.983356
824.153	0.320957
827.528	0.198212
830.902	0.097397
834.277	0.441044
837.652	0.078121
841.027	0.377964
844.402	1.65254
847.776	3.66943
851.151	7.65557
854.526	16.5835
857.901	34.6223
861.276	65.7967
864.65	116.536
868.025	208.919
871.4	322.145
874.775	266.518
878.15	107.044
881.525	44.6025
884.899	22.2085
888.274	11.9011
891.649	7.58466
895.024	7.49772
898.399	9.40291
901.774	5.8014
905.148	2.62752
908.523	1.78778
911.898	0.052879
915.273	0.114822
918.648	0.167698
922.022	1.43398
925.397	2.74867
928.772	4.62258
932.147	7.58438
935.522	11.4958
938.896	15.5571
942.271	24.2838
945.646	36.0467
949.021	56.0534
952.396	84.4533
955.771	125.034
959.145	173.678
962.52	206.542
965.895	185.013
969.27	130.62
972.645	83.8054
976.019	51.0946
979.394	33.1917
982.769	22.9755
986.144	15.6783
989.519	11.7087
992.894	8.55054
996.268	6.09703
999.643	5.13181
1003.02	3.37164
1006.39	3.07738
1009.77	1.82682
1013.14	1.72578
1016.52	1.24707
1019.89	0.321594
1023.27	0.319637
1026.64	0.016895
1030.02	0.181725
1033.39	0.458778
1036.77	0.021599
1040.14	0.072872
1043.52	0.209557
1046.89	0.382401
1050.27	0.037678
1053.64	0.098778
1057.02	0.227436
1060.39	0.648865
1063.77	0.995106
1067.14	1.77588
1070.51	1.01109
1073.89	0.933556
1077.26	0.809555
1080.64	1.36293
1084.01	1.58193
1087.39	1.47759
1090.76	1.89336
1094.14	2.32396
1097.51	1.99067
1100.89	2.30708
1104.26	2.0561
1107.64	2.08524
1111.01	2.20296
1114.39	4.13803
1117.76	7.67994
1121.14	13.6611
1124.51	27.0918
1127.89	50.2613
1131.26	35.0916
1134.64	14.3439
1138.01	7.95267
1141.38	4.63385
1144.76	2.99593
1148.13	2.52904
1151.51	1.76319
1154.88	1.33831
1158.26	1.64831
1161.63	1.29699
1165.01	0.780369
1168.38	0.628052
1171.76	0.861969
1175.13	0.99295
1178.51	0.294006
1181.88	0.80835
1185.26	0.651466
1188.63	0.437405
1192.01	0.606819
1195.38	0.77116
1198.76	0.233501
1202.13	0.154293
1205.51	0.70026
1208.88	0.260519
1212.26	0.217892
1215.63	0.158939
1219.01	0.055552
1222.38	0.235828
1225.76	0.050829
1229.13	0.271143
1232.51	0.336079
1235.88	0.686035
1239.26	0.573069
1242.63	0.493961
1246.01	0.690628
1249.38	0.954311
1252.75	0.842773
1256.13	0.67211
1259.5	0.6838
1262.88	0.45244
1266.25	0.273054
1269.63	0.571859
1273	0.851295
1276.38	0.479263
1279.75	0.516758
1283.13	1.13469
1286.5	0.824005
1289.88	0.781176
1293.25	0.522295
1296.63	0.454454
1300	0.097551
