Measurement: Raman, 532 nm, unoriented, Raman Data Processed
Mineral: Sillimanite
Rruff sample: R100126
Ideal chemistry: Al_2_OSiO_4_
Locality: Orissa, India
Source: William W. Pinch
Description: Pale purple cut gemstone
Raman shift (cm-1)	intensity
125.266	0
128.64	0.846866
132.015	0.557003
135.39	0.417633
138.765	3.92653
142.14	9.80201
145.514	9.63099
148.889	0.373696
152.264	1.01743
155.639	3.99782
159.014	2.76344
162.388	3.57531
165.763	1.84699
169.138	2.87303
172.513	2.15987
175.888	3.31145
179.263	1.18247
182.637	0.689682
186.012	1.00984
189.387	0.92594
192.762	2.03073
196.137	1.90789
199.512	2.26072
202.886	2.73821
206.261	6.92662
209.636	17.6993
213.011	9.39964
216.386	14.2461
219.761	43.5038
223.135	56.7054
226.51	88.0482
229.885	149.548
233.26	340.952
236.635	605.706
240.009	72.7242
243.384	15.6466
246.759	6.31031
250.134	4.08283
253.509	3.87626
256.884	9.5613
260.258	3.43249
263.633	0.60207
267.008	0.406075
270.383	0.506451
273.758	0.61017
277.132	0.14221
280.507	1.24702
283.882	4.37469
287.257	11.2852
290.632	29.6426
294.007	71.7988
297.381	117.531
300.756	190.027
304.131	323.17
307.506	558.309
310.881	797.967
314.255	353.786
317.63	136.615
321.005	82.6668
324.38	55.9257
327.755	37.9549
331.13	25.3277
334.504	17.3767
337.879	13.0777
341.254	10.207
344.629	8.54836
348.004	10.8395
351.378	12.7898
354.753	5.8812
358.128	0.903234
361.503	4.41227
364.878	5.37815
368.253	0.40004
371.627	1.60223
375.002	0.051083
378.377	0.346046
381.752	1.64034
385.127	4.7966
388.502	11.0828
391.876	17.1061
395.251	7.071
398.626	5.59187
402.001	12.3944
405.376	31.6984
408.75	62.5338
412.125	32.1742
415.5	18.6207
418.875	26.3343
422.25	34.0511
425.625	17.4586
428.999	7.92908
432.374	6.25781
435.749	9.69649
439.124	8.55993
442.499	3.04531
445.873	1.65355
449.248	3.74147
452.623	11.3662
455.998	27.8295
459.373	17.7826
462.748	4.40527
466.122	2.82753
469.497	5.72315
472.872	10.0688
476.247	15.6907
479.622	29.8745
482.996	53.6148
486.371	30.9905
489.746	8.19286
493.121	4.27062
496.496	2.79361
499.87	2.17589
503.245	1.36787
506.62	1.40342
509.995	0.02585
513.37	0.589394
516.745	0.735065
520.119	0.611567
523.494	0.42123
526.869	0.316769
530.244	0.903182
533.619	1.48756
536.994	1.26041
540.368	0.420774
543.743	0.843066
547.118	0.887053
550.493	0.668058
553.868	0.165429
557.242	0.109623
560.617	0.806185
563.992	0.397184
567.367	1.76842
570.742	2.52554
574.117	5.07579
577.491	9.8978
580.866	20.5831
584.241	34.7223
587.616	57.4614
590.991	97.7485
594.365	129.635
597.74	94.3584
601.115	50.3553
604.49	28.457
607.865	17.7391
611.24	12.4189
614.614	9.42264
617.989	7.72188
621.364	5.10084
624.739	3.97114
628.114	3.59093
631.489	0.263777
634.863	1.97296
638.238	1.29399
641.613	0.348228
644.988	0.787558
648.363	0.492407
651.737	0.119947
655.112	0.080584
658.487	0.420803
661.862	0.066011
665.237	0.191402
668.612	0.229301
671.986	0.179222
675.361	0.006971
678.736	0.323748
682.111	1.44949
685.486	1.2621
688.861	3.26866
692.235	5.01936
695.61	7.42983
698.985	10.6782
702.36	16.2614
705.735	24.1539
709.109	33.8114
712.484	25.4269
715.859	10.8219
719.234	3.8946
722.609	1.94616
725.984	0.74687
729.358	0.78026
732.733	0.397146
736.108	1.14046
739.483	1.16525
742.858	0.37598
746.232	0.653034
749.607	0.712345
752.982	0.507215
756.357	0.310356
759.732	0.290249
763.107	0.516362
766.481	0.868665
769.856	1.44118
773.231	1.11003
776.606	2.34508
779.981	3.58237
783.356	4.44124
786.73	6.63429
790.105	4.64372
793.48	3.85765
796.855	3.57377
800.23	3.02632
803.604	2.80656
806.979	1.49543
810.354	1.42316
813.729	1.53086
817.104	1.03385
820.479	1.18213
823.853	1.39989
827.228	0.955629
830.603	0.584677
833.978	0.330324
837.353	0.12904
840.727	0.328136
844.102	0.643076
847.477	0.024673
850.852	0.044376
854.227	1.25583
857.601	3.83764
860.976	9.00061
864.351	18.5695
867.726	35.5785
871.101	56.0112
874.476	45.0737
877.851	16.1548
881.225	6.54221
884.6	2.4993
887.975	1.53026
891.35	0.935326
894.725	4.76708
898.099	7.09419
901.474	7.27032
904.849	8.29553
908.224	8.15454
911.599	2.5242
914.973	0.282949
918.348	1.15419
921.723	3.03932
925.098	3.98097
928.473	7.84059
931.847	13.0927
935.222	18.6302
938.597	25.6568
941.972	40.1457
945.347	60.0532
948.722	94.5568
952.096	143.314
955.471	210.268
958.846	287.348
962.221	323.114
965.596	280.052
968.971	195.141
972.345	122.202
975.72	75.0832
979.095	46.3069
982.47	31.3574
985.845	19.436
989.22	13.7714
992.594	8.85042
995.969	5.9883
999.344	5.13793
1002.72	1.66244
1006.09	1.39495
1009.47	0.615362
1012.84	0.863129
1016.22	0.249134
1019.59	0.024155
1022.97	0.645859
1026.34	0.406919
1029.72	1.3486
1033.09	1.64854
1036.47	2.0057
1039.84	1.06641
1043.22	0.274994
1046.59	0.083468
1049.97	0.325786
1053.34	0.181131
1056.72	0.282031
1060.09	0.37277
1063.47	1.00749
1066.84	0.00178
1070.21	1.59363
1073.59	0.543933
1076.96	1.68896
1080.34	0.469376
1083.71	1.02035
1087.09	1.33498
1090.46	1.9034
1093.84	1.17722
1097.21	3.04244
1100.59	3.08302
1103.96	3.71434
1107.34	3.50175
1110.71	4.52334
1114.09	7.66162
1117.46	13.5726
1120.84	25.0432
1124.21	46.4289
1127.59	75.4634
1130.96	49.6378
1134.34	24.9808
1137.71	13.1335
1141.09	7.85887
1144.46	5.3135
1147.84	3.14547
1151.21	2.74829
1154.59	2.02432
1157.96	0.613783
1161.34	2.01541
1164.71	1.61648
1168.09	0.854635
1171.46	1.72829
1174.84	0.705458
1178.21	0.60967
1181.58	0.279841
1184.96	0.824072
1188.33	0.492677
1191.71	0.981679
1195.08	0.194192
1198.46	0.617926
1201.83	0.294613
1205.21	0.537071
1208.58	0.878713
1211.96	0.576466
1215.33	0.457462
1218.71	0.001315
1222.08	1.1112
1225.46	0.168924
1228.83	0.229924
1232.21	0.290322
1235.58	0.659923
1238.96	1.00178
1242.33	0.29502
1245.71	0.841682
1249.08	0.500117
1252.45	0.956115
1255.83	1.22112
1259.2	0.903171
1262.58	0.234921
1265.95	0.423079
1269.33	0.411476
1272.7	0.334661
1276.08	1.07332
1279.45	0.117637
1282.83	0.617073
1286.2	1.25721
1289.58	1.39891
1292.95	1.08015
1296.33	0.31614
1299.7	0.124205
