Measurement: Raman, 780 nm, unoriented, Raman Data Processed
Mineral: Sillimanite
Rruff sample: R060080
Ideal chemistry: Al_2_OSiO_4_
Locality: Pein Pyit, Mogok, Burma
Source: Marcus Origlieri
Description: Light tan colored water-worn pebble
Measured chemistry: (Al_1.99_Fe^3+^_0.01_)_Î£=2_Si_1.00_O_5_
Raman shift (cm-1)	intensity
125.287	0
128.661	0.06665
132.036	4.21375
135.411	6.46338
138.786	19.2087
142.161	70.8962
145.535	21.9447
148.91	2.76465
152.285	2.24146
155.66	1.07666
159.035	3.47168
162.41	0.60376
165.784	0.22644
169.159	1.27466
172.534	0.29895
175.909	1.8197
179.284	8.97729
182.658	10.0975
186.033	5.9082
189.408	7.90942
192.783	5.5647
196.158	7.26196
199.532	9.3905
202.907	5.23181
206.282	9.85071
209.657	24.3541
213.032	15.4813
216.406	15.9425
219.781	15.4127
223.156	25.3136
226.531	32.1843
229.906	50.4994
233.281	131.917
236.655	159.37
240.03	19.5627
243.405	8.61108
246.78	5.7594
250.155	1.33716
253.53	3.52234
256.904	8.87341
260.279	11.9156
263.654	6.56567
267.029	2.0907
270.404	4.38049
273.778	5.40808
277.153	4.49786
280.528	1.98596
283.903	0.834229
287.278	0.361145
290.652	9.22577
294.027	15.1649
297.402	15.878
300.777	21.1329
304.152	35.4244
307.527	63.7825
310.901	83.5099
314.276	33.4059
317.651	11.1253
321.026	12.4379
324.401	13.5163
327.776	7.15381
331.15	3.90625
334.525	2.099
337.9	10.1485
341.275	10.1722
344.649	9.49268
348.024	13.3513
351.399	16.818
354.774	6.34589
358.149	8.47473
361.524	9.91669
364.898	4.38544
368.273	0.883484
371.648	4.48633
375.023	4.80127
378.398	0.869141
381.772	0.093628
385.147	0.970703
388.522	3.95038
391.897	0.757446
395.272	4.05963
398.647	0.137817
402.021	1.41711
405.396	7.12585
408.771	10.5425
412.146	1.81171
415.521	2.68817
418.896	9.10584
422.27	9.17535
425.645	5.10156
429.02	6.67407
432.395	6.96497
435.77	16.176
439.144	21.4892
442.519	10.9119
445.894	12.9287
449.269	22.6945
452.644	52.9473
456.019	92.1904
459.393	40.834
462.768	12.6133
466.143	14.4749
469.518	20.8322
472.893	17.3152
476.267	16.9075
479.642	26.4576
483.017	46.5182
486.392	24.223
489.767	10.4677
493.142	1.47424
496.516	4.91852
499.891	14.3138
503.266	6.82867
506.641	8.20087
510.015	2.76801
513.39	2.72833
516.765	8.66309
520.14	7.55707
523.515	0.993469
526.89	2.32953
530.264	6.88635
533.639	6.79981
537.014	2.33966
540.389	0.697083
543.764	4.3717
547.139	2.45783
550.513	4.63928
553.888	3.86267
557.263	2.599
560.638	4.78107
564.013	9.27344
567.388	6.99109
570.762	3.44171
574.137	5.15912
577.512	15.0241
580.887	15.64
584.261	19.7261
587.636	28.0228
591.011	45.5513
594.386	54.7239
597.761	39.9526
601.136	29.5621
604.51	12.3369
607.885	13.7515
611.26	14.435
614.635	13.1956
618.01	5.61426
621.385	2.57812
624.759	5.11822
628.134	5.34357
631.509	7.04901
634.884	2.14606
638.259	0.59613
641.633	2.23999
645.008	5.16071
648.383	4.58514
651.758	0.126953
655.133	2.95123
658.507	2.24811
661.882	8.93219
665.257	1.39307
668.632	5.12878
672.007	2.02685
675.381	1.9942
678.756	8.23474
682.131	2.23279
685.506	2.99213
688.881	5.1554
692.256	16.3564
695.63	18.805
699.005	20.253
702.38	30.8132
705.755	54.6942
709.13	84.1096
712.505	48.3112
715.879	20.7167
719.254	5.63135
722.629	10.1919
726.004	12.5745
729.379	4.63422
732.753	4.93695
736.128	1.78424
739.503	7.53137
742.878	5.89252
746.253	5.44635
749.628	1.79718
753.002	1.78998
756.377	7.01898
759.752	4.22583
763.127	1.60809
766.502	7.56378
769.876	6.53601
773.251	3.58783
776.626	3.64374
780.001	4.08704
783.376	6.64844
786.75	10.3974
790.125	9.7785
793.5	10.1957
796.875	1.61725
800.25	4.3512
803.625	7.28253
806.999	8.41071
810.374	4.84625
813.749	1.51172
817.124	5.11676
820.499	7.56598
823.874	7.422
827.248	3.12415
830.623	0.90033
833.998	0.610901
837.373	8.00861
840.748	8.55017
844.122	3.69482
847.497	6.54779
850.872	10.6633
854.247	20.9542
857.622	32.9529
860.996	45.4673
864.371	71.7993
867.746	123.383
871.121	184.361
874.496	121.976
877.87	44.8798
881.245	21.1176
884.62	16.578
887.995	14.2993
891.37	5.8107
894.745	5.93008
898.119	5.38266
901.494	6.19721
904.869	5.52722
908.244	3.23862
911.619	1.28226
914.994	3.29263
918.368	7.74991
921.743	0.604828
925.118	1.0257
928.493	0.646606
931.868	3.15094
935.242	6.97525
938.617	3.31732
941.992	3.2374
945.367	8.63013
948.742	16.2764
952.116	23.6465
955.491	29.2029
958.866	33.6076
962.241	44.0527
965.616	39.1105
968.99	25.4139
972.365	13.94
975.74	6.69934
979.115	7.4711
982.49	7.5014
985.865	4.67175
989.239	0.372467
992.614	0.788849
995.989	6.36221
999.364	4.14905
1002.74	1.33298
1006.11	0.640228
1009.49	0.095215
1012.86	4.14316
1016.24	4.90924
1019.61	3.77136
1022.99	1.48044
1026.36	0.498749
1029.74	4.54959
1033.11	7.15747
1036.49	1.21454
1039.86	1.92813
1043.24	6.30206
1046.61	5.31851
1049.99	4.91229
1053.36	1.49591
1056.74	4.43475
1060.11	3.18848
1063.48	6.51392
1066.86	3.31705
1070.23	0.62027
1073.61	1.69443
1076.98	3.98337
1080.36	7.47864
1083.73	0.489014
1087.11	1.33939
1090.48	1.89246
1093.86	4.97864
1097.23	4.71933
1100.61	0.754852
1103.98	0.515015
1107.36	1.80389
1110.73	5.879
1114.11	4.08069
1117.48	0.697021
1120.86	4.92554
1124.23	10.7161
1127.61	14.1549
1130.98	9.44269
1134.36	3.72498
1137.73	2.42502
1141.11	5.15424
1144.48	5.14004
1147.86	3.9791
1151.23	1.06949
1154.61	3.04419
1157.98	8.08981
1161.36	5.29919
1164.73	2.04825
1168.11	2.29431
1171.48	4.40503
1174.85	5.33887
1178.23	2.30688
1181.6	4.1145
1184.98	1.72449
1188.35	5.73086
1191.73	7.72702
1195.1	5.15323
1198.48	3.59348
1201.85	1.99435
1205.23	5.51907
1208.6	4.17377
1211.98	2.38266
1215.35	0.275757
1218.73	3.51813
1222.1	3.98703
1225.48	2.36115
1228.85	1.88718
1232.23	0.041718
1235.6	3.61926
1238.98	4.13266
1242.35	2.07718
1245.72	0.503784
1249.1	2.9949
1252.47	2.90216
1255.85	3.70178
1259.22	2.63895
1262.6	0.196259
1265.97	2.52631
1269.35	4.36075
1272.72	5.36346
1276.1	1.81042
1279.47	0.983337
1282.85	0.434143
