Measurement: Raman, 532 nm, unoriented, Raman Data Processed
Mineral: Sillimanite
Rruff sample: R100127
Ideal chemistry: Al_2_OSiO_4_
Locality: Andana Tea Plantation, near Khawatha, Rathapura District, Sri Lanka
Source: William W. Pinch
Description: Transparent bluish-gray crystal fragment
Raman shift (cm-1)	intensity
91.0352	0
94.41	2.00252
97.7848	4.28362
101.16	1.15663
104.534	5.82219
107.909	12.66
111.284	14.4101
114.659	7.08852
118.034	10.7916
121.409	2.76529
124.783	0.279999
128.158	3.28877
131.533	1.10536
134.908	1.30461
138.283	10.0316
141.657	32.7742
145.032	49.6734
148.407	13.9984
151.782	29.6988
155.157	44.1151
158.532	56.388
161.906	57.0801
165.281	56.6437
168.656	63.7101
172.031	69.6775
175.406	67.8667
178.78	54.6605
182.155	48.9331
185.53	42.2112
188.905	38.647
192.28	40.504
195.655	34.6367
199.029	37.0202
202.404	39.8602
205.779	47.4445
209.154	68.3804
212.529	63.8691
215.904	73.6668
219.278	146.88
222.653	162.013
226.028	227.654
229.403	326.722
232.778	561.338
236.152	909.62
239.527	189.988
242.902	39.6887
246.277	18.4587
249.652	11.1114
253.026	11.9002
256.401	20.3083
259.776	10.2044
263.151	0.910385
266.526	0.679932
269.901	3.60826
273.276	4.41673
276.65	1.49257
280.025	2.68057
283.4	10.6503
286.775	27.2885
290.15	66.7395
293.524	158.044
296.899	265.087
300.274	396.41
303.649	583.117
307.024	849.287
310.399	1130.03
313.773	666.891
317.148	267.756
320.523	146.878
323.898	93.2087
327.273	62.0978
330.647	40.4737
334.022	27.4578
337.397	20.2362
340.772	16.6709
344.147	14.8834
347.522	23.7139
350.896	30.6934
354.271	11.9325
357.646	0.617722
361.021	8.4285
364.396	10.7476
367.77	5.87486
371.145	4.60858
374.52	4.30002
377.895	9.76759
381.27	24.3711
384.644	48.3837
388.019	79.0444
391.394	100.189
394.769	38.8043
398.144	16.0346
401.519	20.281
404.894	47.1988
408.268	87.4478
411.643	89.1717
415.018	104.071
418.393	153.224
421.767	208.319
425.142	120.68
428.517	44.3133
431.892	31.2196
435.267	32.9481
438.642	39.9802
442.017	48.2773
445.391	69.0141
448.766	105.041
452.141	173.68
455.516	287.028
458.891	230.874
462.265	70.9893
465.64	38.0375
469.015	37.958
472.39	49.4604
475.765	65.9338
479.139	96.8434
482.514	140.875
485.889	98.8774
489.264	26.4274
492.639	12.9328
496.014	5.76311
499.388	5.14856
502.763	3.74838
506.138	1.10085
509.513	1.7477
512.888	3.11977
516.263	1.48271
519.637	0.626923
523.012	0.529007
526.387	4.03407
529.762	12.868
533.137	14.223
536.511	6.74161
539.886	2.63933
543.261	1.59225
546.636	2.01608
550.011	0.5
553.386	0.742325
556.76	0.307495
560.135	1.84134
563.51	4.42558
566.885	4.74544
570.26	9.33321
573.635	16.0465
577.009	27.8242
580.384	57.3096
583.759	96.4893
587.134	151.345
590.509	223.512
593.883	281.012
597.258	245.205
600.633	148.096
604.008	88.8986
607.383	53.2079
610.758	38.9592
614.132	29.0867
617.507	21.1561
620.882	15.4074
624.257	12.3014
627.632	8.55452
631.006	2.34549
634.381	2.38637
637.756	0.091415
641.131	0.716461
644.506	0.303146
647.881	0.629105
651.255	1.89366
654.63	0.822617
658.005	2.87328
661.38	4.75958
664.755	0.557678
668.13	2.82986
671.504	1.32509
674.879	2.02634
678.254	4.81239
681.629	10.5678
685.004	15.9502
688.378	28.6088
691.753	49.4012
695.128	81.2556
698.503	125.682
701.878	183.381
705.253	235.321
708.627	232.723
712.002	173.692
715.377	73.059
718.752	36.5969
722.127	22.2737
725.501	14.2054
728.876	12.4767
732.251	9.10754
735.626	11.7987
739.001	8.46133
742.375	7.84199
745.75	3.35823
749.125	2.72765
752.5	2.40077
755.875	2.13101
759.25	1.53226
762.625	2.0791
765.999	1.81605
769.374	2.49356
772.749	3.34815
776.124	9.20213
779.499	18.7624
782.873	21.4303
786.248	30.1249
789.623	24.2548
792.998	16.0432
796.373	10.7856
799.747	10.5604
803.122	11.0826
806.497	10.2061
809.872	13.058
813.247	15.1009
816.621	8.24316
819.996	6.65715
823.371	3.28923
826.746	2.20177
830.121	0.930313
833.496	1.42857
836.87	0.659927
840.245	0.120941
843.62	1.16547
846.995	8.40552
850.37	11.1213
853.745	30.4854
857.119	66.9529
860.494	135.181
863.869	227.182
867.244	360.986
870.619	487.397
873.994	413.263
877.368	185.872
880.743	86.445
884.118	46.1016
887.493	31.4281
890.868	29.4309
894.242	55.4377
897.617	87.6472
900.992	120.757
904.367	170.274
907.742	189.556
911.116	82.6647
914.491	21.6038
917.866	4.88771
921.241	0.831085
924.616	0.352814
927.991	1.46492
931.365	8.77007
934.74	13.7322
938.115	24.6709
941.49	41.5201
944.865	69.475
948.24	111.712
951.614	175.238
954.989	261.936
958.364	348.703
961.739	391.923
965.114	349.325
968.489	251.667
971.863	159.787
975.238	99.0864
978.613	59.837
981.988	36.6075
985.362	23.8414
988.737	16.0728
992.112	9.30574
995.487	7.2271
998.862	5.36259
1002.24	0.472565
1005.61	0.343292
1008.99	1.54727
1012.36	0.395203
1015.74	1.32719
1019.11	2.10048
1022.49	3.80022
1025.86	6.10217
1029.23	14.9572
1032.61	20.0644
1035.98	21.7155
1039.36	15.4795
1042.73	6.08575
1046.11	4.66005
1049.48	1.96968
1052.86	2.39929
1056.23	1.12033
1059.61	1.30849
1062.98	3.77098
1066.36	0.260513
1069.73	4.4818
1073.11	0.936752
1076.48	4.60596
1079.86	1.1674
1083.23	1.59889
1086.61	3.85988
1089.98	4.22765
1093.36	6.24158
1096.73	10.2329
1100.11	10.8164
1103.48	11.2108
1106.86	10.4633
1110.23	16.1248
1113.61	23.7346
1116.98	40.5727
1120.36	72.1881
1123.73	116.277
1127.11	169.086
1130.48	138.237
1133.86	83.9634
1137.23	47.0635
1140.6	25.6675
1143.98	17.7225
1147.35	10.9887
1150.73	8.75792
1154.1	9.24324
1157.48	3.10828
1160.85	6.26749
1164.23	6.51045
1167.6	2.62833
1170.98	3.48502
1174.35	1.94655
1177.73	2.50621
1181.1	1.72877
1184.48	2.96654
1187.85	2.93332
1191.23	2.01799
1194.6	0.915298
1197.98	1.63356
1201.35	0.112747
1204.73	0.688614
1208.1	0.604645
1211.48	1.07922
1214.85	0.392776
1218.22	1.04721
1221.6	2.14978
1224.97	1.09384
1228.35	0.40094
1231.72	4.00282
1235.1	2.52446
1238.47	2.92543
1241.85	2.73346
1245.22	5.68851
1248.6	3.9297
1251.97	8.20599
1255.35	4.04045
1258.72	4.88351
1262.1	5.56041
1265.47	5.10529
1268.85	2.4872
1272.22	4.27255
1275.6	2.70901
1278.97	1.48637
1282.35	3.49113
1285.72	3.66864
1289.1	5.21922
1292.47	2.17758
1295.85	1.15617
1299.22	0.864258
1302.6	0
