Measurement: Raman, 532 nm, unoriented, Raman Data Processed
Mineral: Simmonsite
Rruff sample: R080069
Ideal chemistry: Na_2_LiAlF_6_
Locality: Zapot mine, Zapot amazonite-topaz-zinnwaldite pegmatite, Gillis Range, Mineral Co., Nevada, USA
Source: Michael Scott
Description: Colorless plates embedded in epoxy
Raman shift (cm-1)	intensity
140.654	0
143.546	0.918774
146.439	2.0155
149.332	0.300213
152.225	0.405716
155.117	1.59212
158.01	1.41467
160.903	2.36627
163.795	2.88578
166.688	1.88291
169.581	1.99147
172.473	1.00756
175.366	0.820534
178.259	0.006649
181.151	0.248573
184.044	0.019371
186.937	0.50317
189.83	0.236656
192.722	0.131187
195.615	0.354752
198.508	0.775555
201.4	0.945499
204.293	1.40626
207.186	1.06494
210.078	1.11592
212.971	1.20841
215.864	1.54602
218.757	1.16621
221.649	1.35946
224.542	1.96223
227.435	1.49947
230.327	1.65078
233.22	1.41487
236.113	1.37734
239.006	0.874485
241.898	0.857918
244.791	1.04283
247.684	0.773365
250.576	0.261494
253.469	0.495621
256.362	0.24902
259.254	0.144562
262.147	0.499794
265.04	0.135571
267.933	0.299629
270.825	0.256214
273.718	0.221817
276.611	0.695534
279.503	0.34478
282.396	0.032867
285.289	0.239182
288.181	0.501125
291.074	0.173073
293.967	0.442776
296.859	0.426285
299.752	0.646187
302.645	0.418392
305.538	1.90753
308.43	1.86137
311.323	2.19561
314.216	2.63155
317.108	3.80304
320.001	3.94517
322.894	5.54779
325.786	6.26933
328.679	9.1112
331.572	12.4402
334.464	14.9124
337.357	19.2954
340.25	24.3041
343.143	27.2587
346.035	26.8716
348.928	28.2804
351.821	26.6405
354.713	23.1089
357.606	17.0713
360.499	13.465
363.392	10.3845
366.284	8.11246
369.177	6.14067
372.07	7.34523
374.962	9.28328
377.855	11.2287
380.748	12.1147
383.64	15.4255
386.533	18.9338
389.426	20.4956
392.318	19.9069
395.211	15.9851
398.104	11.9644
400.997	9.00735
403.889	6.18394
406.782	4.76945
409.675	4.39017
412.567	4.61688
415.46	2.31823
418.353	1.81784
421.245	0.279026
424.138	0.601162
427.031	0.525417
429.924	0.249947
432.816	0.109875
435.709	0.099945
438.602	0.383305
441.494	0.550678
444.387	0.14753
447.28	0.25304
450.173	0.006638
453.065	0.180149
455.958	0.547493
458.851	0.292957
461.743	1.02337
464.636	0.209293
467.529	0.040817
470.421	0.160191
473.314	0.001633
476.207	0.089195
479.099	0.54789
481.992	1.03326
484.885	1.42469
487.778	0.462624
490.67	1.43135
493.563	1.39238
496.456	1.49501
499.348	1.59929
502.241	1.81831
505.134	1.90739
508.026	2.57546
510.919	1.50171
513.812	2.73906
516.705	3.69758
519.597	4.67429
522.49	5.57285
525.383	7.21497
528.275	8.89644
531.168	11.3014
534.061	15.6754
536.953	22.2523
539.846	29.7189
542.739	41.035
545.632	55.5117
548.524	76.4044
551.417	98.0298
554.31	108.2
557.202	107.568
560.095	112.664
562.988	120.038
565.88	115.734
568.773	87.537
571.666	55.2262
574.559	34.6623
577.451	21.9061
580.344	14.5477
583.237	9.53148
586.129	7.06614
589.022	5.79971
591.915	3.59004
594.808	2.8867
597.7	1.67456
600.593	0.908009
603.486	0.985302
606.378	0.195885
609.271	0.523197
612.164	0.192043
615.056	0.085621
617.949	0.7994
620.842	0.258831
623.735	0.348385
626.627	0.590511
629.52	0.145229
632.413	2.14355
635.305	1.7506
638.198	3.02404
641.091	2.92183
643.983	1.82587
646.876	1.21476
649.769	1.39402
652.662	1.16657
655.554	1.39949
658.447	0.243275
661.34	1.65238
664.232	1.1647
667.125	0.672791
670.018	0.966625
672.91	1.31634
675.803	0.706615
678.696	0.167088
681.588	0.5979
684.481	0.258034
687.374	0.022648
690.267	0.371651
693.159	0.75668
696.052	0.099289
698.945	0.251888
701.837	0.167568
704.73	0.600826
707.623	0.016342
710.515	0.436737
713.408	0.401947
716.301	0.4044
719.193	0.935097
722.086	0.743584
724.979	0.744514
727.872	1.03541
730.764	1.39066
733.657	1.54395
736.55	0.946552
739.442	0.500763
742.335	0.893036
745.228	0.334328
748.12	0.70155
751.013	0.147755
753.906	0.957626
756.799	0.150227
759.691	0.082741
762.584	0.418022
765.477	0.09285
768.369	0.7006
771.262	0.228619
774.155	0.230602
777.048	0.320789
779.94	0.01733
782.833	0.124153
785.726	0.839218
788.618	0.101196
791.511	0.296112
794.404	0.237705
797.296	1.68124
800.189	1.51684
803.082	2.29478
805.975	2.61488
808.867	3.20949
811.76	3.58428
814.653	3.40884
817.545	3.86585
820.438	4.04922
823.331	4.59659
826.223	4.17451
829.116	4.1883
832.009	2.86143
834.902	3.03906
837.794	2.63951
840.687	2.61886
843.58	2.8553
846.472	1.70677
849.365	2.23636
852.258	1.46359
855.15	1.34312
858.043	1.0003
860.936	1.90107
863.829	1.44457
866.721	2.03683
869.614	1.80965
872.507	1.64502
875.399	1.33646
878.292	0.714306
881.185	1.02674
884.077	0.919189
886.97	1.20893
889.863	0.339458
892.756	0.416702
895.648	0.738697
898.541	0.533516
901.434	0.509174
904.326	0.553215
907.219	0.657578
910.112	0.823051
913.005	0.970062
915.897	0.385181
918.79	0.79855
921.683	0.879375
924.575	0.827568
927.468	0.055111
930.361	0.642155
933.253	0.899529
936.146	1.39721
939.039	0.504253
941.932	0.573917
944.824	0.309635
947.717	0.484707
950.61	1.07655
953.502	1.77601
956.395	1.2023
959.288	0.510609
962.18	1.14347
965.073	0.519848
967.966	0.0714
970.858	0.662552
973.751	1.26937
976.644	0.294441
979.537	0.114479
982.429	0.220024
985.322	0.344421
988.215	0.604805
991.107	0.279289
994	0.107525
996.893	0.673538
999.785	0.957108
1002.68	1.5218
1005.57	1.51951
1008.46	0.062897
1011.36	1.31647
1014.25	1.31585
1017.14	1.28223
1020.03	0.399738
1022.93	0.697899
1025.82	0.241959
1028.71	1.32489
1031.61	0.995285
1034.5	1.27341
1037.39	1.21345
1040.28	1.32586
1043.18	1.49151
1046.07	1.4212
1048.96	0.89756
1051.85	0.621529
1054.75	0.119186
1057.64	0.732735
1060.53	0.416153
1063.42	0.088165
1066.32	0.582581
1069.21	0.567574
1072.1	0.415421
1075	0.464188
1077.89	1.02625
1080.78	0.253777
1083.67	1.33211
1086.57	1.43642
1089.46	1.52324
1092.35	1.0105
1095.24	1.03155
1098.14	0.995949
1101.03	2.00103
1103.92	2.13481
1106.82	3.61005
1109.71	4.033
1112.6	4.79155
1115.49	3.79572
1118.39	3.88216
1121.28	1.36549
1124.17	2.0501
1127.06	0.919838
1129.96	1.05962
1132.85	1.15449
1135.74	0.296577
1138.63	0.061539
1141.53	0.404465
1144.42	0.666565
1147.31	0.476746
1150.21	1.1806
1153.1	0.763374
1155.99	0.686256
1158.88	0.667816
1161.78	0.474861
1164.67	0.176247
1167.56	0.968246
1170.45	1.13727
1173.35	1.87464
1176.24	1.6459
1179.13	2.65448
1182.03	2.95995
1184.92	3.01716
1187.81	1.82891
1190.7	1.76651
1193.6	1.17355
1196.49	1.46572
1199.38	0.639946
1202.27	0.513977
1205.17	0.885468
1208.06	1.02697
1210.95	0.268547
1213.85	1.22398
1216.74	0.777153
1219.63	1.80344
1222.52	2.35294
1225.42	1.69067
1228.31	1.78731
1231.2	2.16646
1234.09	2.10428
1236.99	1.28634
1239.88	0.767326
1242.77	0.993874
1245.66	1.4458
1248.56	1.93654
1251.45	1.19133
1254.34	0.93573
1257.24	0.631584
1260.13	0.218201
1263.02	0.073837
1265.91	0.901245
1268.81	0.418755
1271.7	0.937737
1274.59	0.599434
1277.48	1.0704
1280.38	0.761063
1283.27	0.811813
1286.16	0.993881
1289.06	0.74437
1291.95	0.022507
1294.84	0
