Measurement: Raman, 780 nm, unoriented, Raman Data Processed
Mineral: Simmonsite
Rruff sample: R080069
Ideal chemistry: Na_2_LiAlF_6_
Locality: Zapot mine, Zapot amazonite-topaz-zinnwaldite pegmatite, Gillis Range, Mineral Co., Nevada, USA
Source: Michael Scott
Description: Colorless plates embedded in epoxy
Raman shift (cm-1)	intensity
118.134	0
121.026	0.676818
123.919	-0.315798
126.812	0.714368
129.705	0.816369
132.597	0.899523
135.49	0.352628
138.383	0.686835
141.275	0.107867
144.168	0.844057
147.061	1.27316
149.953	0.797085
152.846	0.930076
155.739	1.40333
158.632	1.50172
161.524	1.26222
164.417	2.21191
167.31	1.29987
170.202	0.72274
173.095	0.000694
175.988	0.096649
178.881	0.471924
181.773	0.055191
184.666	0.522591
187.559	0.537408
190.451	0.697189
193.344	0.912884
196.237	1.15142
199.129	1.28748
202.022	1.21819
204.915	1.26367
207.808	1.10049
210.7	1.58707
213.593	1.5796
216.486	1.36372
219.378	1.80257
222.271	1.23406
225.164	1.60871
228.056	2.00403
230.949	1.66871
233.842	1.23863
236.734	1.58029
239.627	0.994835
242.52	0.648155
245.413	0.891693
248.305	1.18082
251.198	0.215721
254.091	0.462692
256.983	0.49218
259.876	1.28565
262.769	0.494301
265.661	0.723419
268.554	0.440926
271.447	0.969971
274.34	0.144638
277.232	0.064102
280.125	0.232727
283.018	0.284355
285.91	0.558701
288.803	0.17009
291.696	0.206306
294.589	0.572884
297.481	0.145775
300.374	0.691376
303.267	1.29436
306.159	1.96222
309.052	1.90263
311.945	1.82156
314.837	2.53163
317.73	3.6826
320.623	3.96854
323.515	5.21317
326.408	6.98576
329.301	8.7814
332.194	11.8675
335.086	12.9028
337.979	17.4863
340.872	20.1049
343.764	21.0791
346.657	23.245
349.55	24.6022
352.442	22.3324
355.335	18.4408
358.228	13.5324
361.121	8.86394
364.013	5.36467
366.906	4.52136
369.799	3.42989
372.691	4.81961
375.584	5.03163
378.477	5.41759
381.37	7.11516
384.262	9.86441
387.155	11.7297
390.048	13.2014
392.94	13.0722
395.833	11.7247
398.726	9.56567
401.618	7.30479
404.511	4.21553
407.404	3.07576
410.296	2.57198
413.189	2.06004
416.082	1.77928
418.975	1.00948
421.867	0.44812
424.76	0.997177
427.653	0.699188
430.545	0.080551
433.438	1.0015
436.331	0.087585
439.224	0.594437
442.116	0.80957
445.009	0.536926
447.902	0.94249
450.794	0.300064
453.687	0.341141
456.58	0.541168
459.472	0.795685
462.365	0.43689
465.258	0.219376
468.151	0.37619
471.043	0.892746
473.936	0.845032
476.829	0.410538
479.721	0.317688
482.614	1.91988
485.507	0.35434
488.399	0.915543
491.292	1.10193
494.185	1.67024
497.077	1.96291
499.97	2.355
502.863	1.80574
505.756	1.12758
508.648	1.69846
511.541	1.94351
514.434	3.27969
517.326	3.63768
520.219	4.15659
523.112	5.15657
526.005	6.88364
528.897	9.56583
531.79	14.1941
534.683	19.1496
537.575	26.1493
540.468	36.0192
543.361	47.4678
546.253	65.0706
549.146	87.2847
552.039	106.592
554.932	106.986
557.824	94.1713
560.717	93.4574
563.61	96.1915
566.502	85.812
569.395	60.1583
572.288	37.1887
575.18	22.0716
578.073	13.756
580.966	9.57542
583.859	5.56938
586.751	3.96767
589.644	2.15921
592.537	1.86848
595.429	1.24968
598.322	1.15982
601.215	0.843079
604.107	1.0531
607	0.472534
609.893	0.011963
612.785	0.451035
615.678	0.532745
618.571	0.490601
621.464	0.898438
624.356	1.03862
627.249	1.22716
630.142	1.41576
633.034	1.94954
635.927	1.65686
638.82	3.13631
641.712	3.94435
644.605	2.49811
647.498	1.17473
650.391	2.74092
653.283	1.4919
656.176	1.6058
659.069	1.85191
661.961	1.52622
664.854	2.03987
667.747	2.2578
670.639	1.17631
673.532	2.50649
676.425	1.82806
679.318	1.53774
682.21	0.387527
685.103	1.38826
687.996	1.86856
690.888	1.43843
693.781	0.503143
696.674	0.932358
699.567	1.457
702.459	0.740463
705.352	0.416046
708.245	0.860901
711.137	0.937622
714.03	0.856384
716.923	0.373093
719.815	2.16002
722.708	1.077
725.601	1.35414
728.494	0.676788
731.386	2.31317
734.279	1.8244
737.172	1.72607
740.064	1.01567
742.957	1.12851
745.85	1.32669
748.742	0.602112
751.635	0.407837
754.528	0.377731
757.42	1.3446
760.313	0.462799
763.206	0.523788
766.099	0.729691
768.991	0.585648
771.884	0.007553
774.777	0.92601
777.669	1.24278
780.562	0.315842
783.455	0.44696
786.347	1.91107
789.24	0.272629
792.133	3.09529
795.026	2.187
797.918	1.40996
800.811	2.17512
803.704	1.845
806.596	2.48828
809.489	3.28125
812.382	1.64485
815.274	3.15144
818.167	3.89009
821.06	4.6682
823.953	4.64825
826.845	3.09526
829.738	3.07849
832.631	5.00964
835.523	3.6757
838.416	4.0761
841.309	3.6515
844.201	3.52313
847.094	1.504
849.987	4.18706
852.88	3.5973
855.772	2.69493
858.665	1.81827
861.558	1.43715
864.45	1.57643
867.343	1.62538
870.236	1.67192
873.128	1.37294
876.021	2.23769
878.914	1.61922
881.807	1.25256
884.699	1.49434
887.592	1.30077
890.485	0.224701
893.377	0.056061
896.27	0.414047
899.163	0.604675
902.055	1.55211
904.948	0.267166
907.841	0.957901
910.734	0.595078
913.626	0.72612
916.519	0.171722
919.412	1.56367
922.304	1.15389
925.197	1.5538
928.09	1.82754
930.982	0.140091
933.875	1.61081
936.768	0.799484
939.66	1.44492
942.553	0.547714
945.446	1.12695
948.339	1.0387
951.231	0.774841
954.124	1.5557
957.017	0.817032
959.909	0.510132
962.802	1.7355
965.695	1.29341
968.587	0.509613
971.48	1.10689
974.373	0.738098
977.266	1.4017
980.158	0.477539
983.051	0.962891
985.944	1.66426
988.836	0.134933
991.729	0.675385
994.622	0.56488
997.514	1.47986
1000.41	0.359146
1003.3	0.517487
1006.19	1.14793
1009.09	1.28242
1011.98	1.88266
1014.87	1.36598
1017.76	0.582138
1020.66	0.864822
1023.55	2.07529
1026.44	1.39506
1029.33	2.51517
1032.23	1.24144
1035.12	2.10562
1038.01	0.913022
1040.9	1.38088
1043.8	1.96133
1046.69	1.17527
1049.58	0.359428
1052.48	1.0473
1055.37	0.23401
1058.26	-0.37316
1061.15	0.123868
1064.05	0.666436
1066.94	0.723326
1069.83	1.01552
1072.72	1.40878
1075.62	1.82041
1078.51	1.93719
1081.4	1.50185
1084.3	1.31475
1087.19	0.567304
1090.08	1.40551
1092.97	0.969915
1095.87	-0.0253697
1098.76	1.61844
1101.65	1.09407
1104.54	1.22627
1107.44	1.98221
1110.33	2.90331
1113.22	3.26704
1116.12	2.01964
1119.01	0.084641
1121.9	0.094009
1124.79	2.66595
1127.69	0.333771
1130.58	0.790894
1133.47	0.935684
1136.36	0.059052
1139.26	0.042664
1142.15	1.53445
1145.04	0.105576
1147.93	1.22102
1150.83	0.777115
1153.72	1.84048
1156.61	0.129593
1159.51	0.974075
1162.4	0.861404
1165.29	0.59137
1168.18	2.09944
1171.08	1.06477
1173.97	0.537628
1176.86	2.2597
1179.76	2.43751
1182.65	3.32567
1185.54	2.05585
1188.43	4.1151
1191.33	3.42189
1194.22	2.78992
1197.11	0.749939
1200	1.32945
1202.9	1.21831
1205.79	1.12041
1208.68	1.93773
1211.57	2.08551
1214.47	2.66986
1217.36	1.7852
1220.25	2.07333
1223.14	2.7634
1226.04	2.07129
1228.93	1.88254
1231.82	1.6432
1234.72	2.358
1237.61	2.13527
1240.5	1.62935
1243.39	1.10077
1246.29	1.67862
1249.18	1.54735
1252.07	1.21722
1254.96	0.180588
1257.86	0.814484
1260.75	1.67122
1263.64	0.859192
