Measurement: Raman, 780 nm, unoriented, Raman Data Processed
Mineral: Simonellite
Rruff sample: R130116
Ideal chemistry: C_19_H_24_
Locality: Fognano, Montepulliano, Tuscany, Italy
Source: Rock Currier
Description: Aggregates of colorless irregular crystals. Note: quickly dissolves in acetone
Raman shift (cm-1)	intensity
100.842	0
104.217	22.6163
107.591	25.5892
110.966	0.867432
114.341	19.5184
117.716	68.4759
121.091	122.536
124.466	129.592
127.84	83.603
131.215	31.6023
134.59	12.4589
137.965	19.536
141.34	14.2462
144.714	0.954102
148.089	3.55957
151.464	0.36853
154.839	8.88062
158.214	23.2151
161.589	59.897
164.963	61.4264
168.338	36.1439
171.713	6.52234
175.088	4.00635
178.463	0.718018
181.838	8.13086
185.212	12.0282
188.587	18.0496
191.962	21.0386
195.337	22.8199
198.712	30.9954
202.086	37.6372
205.461	49.7872
208.836	61.5369
212.211	78.3301
215.586	102.925
218.96	130.905
222.335	176.021
225.71	217.075
229.085	227.659
232.46	186.788
235.834	141.741
239.209	107.919
242.584	81.3391
245.959	62.3301
249.334	53.0282
252.709	44.5895
256.083	42.2528
259.458	41.7573
262.833	41.958
266.208	46.1138
269.583	45.2943
272.957	36.4941
276.332	25.5824
279.707	20.2307
283.082	13.9146
286.457	7.93982
289.832	3.18323
293.206	0.329346
296.581	3.53979
299.956	2.22119
303.331	3.11194
306.706	7.84814
310.08	12.5441
313.455	16.6921
316.83	10.8691
320.205	2.75659
323.58	0.390015
326.954	0.020386
330.329	3.06445
333.704	13.24
337.079	23.9106
340.454	25.5001
343.829	28.7344
347.203	34.719
350.578	34.4225
353.953	30.8364
357.328	17.9878
360.703	12.9281
364.077	10.7741
367.452	18.5049
370.827	21.3274
374.202	18.892
377.577	6.04163
380.952	0.427307
384.326	1.0647
387.701	0.496826
391.076	1.61853
394.451	5.18353
397.826	8.21161
401.2	16.8142
404.575	22.4272
407.95	35.595
411.325	55.7822
414.7	70.7427
418.075	63.5452
421.449	24.2892
424.824	9.6051
428.199	3.60181
431.574	6.9444
434.949	7.91894
438.323	8.90759
441.698	9.62805
445.073	14.7372
448.448	15.0897
451.823	3.96741
455.197	4.38275
458.572	8.34125
461.947	10.1229
465.322	6.74347
468.697	16.1805
472.072	26.5353
475.446	44.1246
478.821	45.1174
482.196	15.3744
485.571	7.59912
488.946	12.0236
492.32	15.6968
495.695	5.0003
499.07	0.229675
502.445	0.559631
505.82	2.0943
509.195	5.91425
512.569	11.3359
515.944	24.2293
519.319	39.6319
522.694	63.7285
526.068	76.5021
529.443	92.0546
532.818	106.438
536.193	117.588
539.568	166.699
542.943	260.706
546.317	130.971
549.692	27.1821
553.067	9.87415
556.442	1.41113
559.817	0.738525
563.192	1.48389
566.566	0.340759
569.941	1.37219
573.316	3.43469
576.691	7.82294
580.066	10.1536
583.44	17.6039
586.815	28.4008
590.19	43.7133
593.565	33.6362
596.94	38.7848
600.314	67.7678
603.689	94.3054
607.064	49.8611
610.439	43.5645
613.814	53.9941
617.188	75.4144
620.563	118.76
623.938	187.12
627.313	143.866
630.688	34.5033
634.063	13.8947
637.437	7.09399
640.812	6.75586
644.187	3.22998
647.562	2.70032
650.937	2.12622
654.312	0.271973
657.686	1.83026
661.061	0.344849
664.436	2.10266
667.811	1.2287
671.186	2.92377
674.56	0.933594
677.935	3.72943
681.31	4.72119
684.685	5.85889
688.06	12.9672
691.434	24.7914
694.809	54.235
698.184	110.298
701.559	155.63
704.934	243.209
708.308	405.543
711.683	440.462
715.058	102.558
718.433	31.5726
721.808	15.5119
725.183	11.8113
728.557	8.30719
731.932	8.75647
735.307	12.4708
738.682	16.1166
742.057	9.20673
745.432	2.39954
748.806	4.14923
752.181	2.67542
755.556	1.38782
758.931	0.63208
762.306	1.53827
765.68	0.530884
769.055	0.683838
772.43	2.61737
775.805	2.57629
779.18	4.12079
782.554	0.750061
785.929	0.321777
789.304	1.67993
792.679	2.38483
796.054	5.95056
799.428	6.15894
802.803	8.86121
806.178	9.30566
809.553	7.08527
812.928	9.13568
816.303	6.42346
819.677	2.78455
823.052	0.324646
826.427	0.086609
829.802	3.14844
833.177	0.648682
836.552	1.80566
839.926	2.69013
843.301	6.95581
846.676	12.9282
850.051	24.9868
853.426	41.5149
856.8	65.5007
860.175	48.7581
863.55	37.2072
866.925	49.8436
870.3	50.7643
873.674	20.6693
877.049	5.24786
880.424	2.27637
883.799	9.83472
887.174	4.75836
890.548	4.09357
893.923	7.00269
897.298	13.5227
900.673	15.0563
904.048	1.69556
907.423	0.5224
910.797	2.55115
914.172	0.661804
917.547	5.34912
920.922	14.6022
924.297	21.2741
927.671	38.3749
931.046	62.4824
934.421	63.9106
937.796	16.8004
941.171	9.00781
944.545	14.8478
947.92	27.1797
951.295	52.334
954.67	55.3066
958.045	43.801
961.42	55.9406
964.794	63.2805
968.169	87.7925
971.544	150.308
974.919	172.579
978.294	61.9839
981.668	22.6772
985.043	7.9671
988.418	3.46277
991.793	4.37244
995.168	11.628
998.543	11.2036
1001.92	2.66406
1005.29	0.052551
1008.67	0.065247
1012.04	0.84314
1015.42	2.98419
1018.79	6.50226
1022.17	10.6387
1025.54	28.0015
1028.92	45.7605
1032.29	33.2941
1035.67	48.4045
1039.04	56.1216
1042.41	32.1137
1045.79	19.1697
1049.16	6.94708
1052.54	3.16894
1055.91	0.880066
1059.29	0.423157
1062.66	0.776428
1066.04	2.54681
1069.41	7.97833
1072.79	16.2941
1076.16	18.8238
1079.54	8.26703
1082.91	0.485901
1086.29	0.463745
1089.66	0.478271
1093.04	7.53931
1096.41	15.6401
1099.79	33.8375
1103.16	55.7792
1106.54	28.9757
1109.91	15.1613
1113.29	14.2983
1116.66	28.542
1120.04	6.02692
1123.41	4.64276
1126.79	12.5698
1130.16	11.7476
1133.54	1.56122
1136.91	2.21549
1140.29	0.924866
1143.66	7.25769
1147.03	7.04633
1150.41	0.64798
1153.78	2.42862
1157.16	13.264
1160.53	24.6778
1163.91	34.2671
1167.28	42.0302
1170.66	65.5468
1174.03	81.6999
1177.41	150.432
1180.78	147.304
1184.16	44.5387
1187.53	20.5433
1190.91	21.6136
1194.28	25.6411
1197.66	49.7502
1201.03	86.3279
1204.41	66.4405
1207.78	51.0007
1211.16	26.364
1214.53	4.73926
1217.91	2.62692
1221.28	7.31055
1224.65	18.4363
1228.03	38.2291
1231.4	63.1949
1234.78	81.2613
1238.15	60.8232
1241.53	20.4524
1244.9	8.91626
1248.28	9.65891
1251.65	2.72385
1255.03	0.536896
1258.4	1.27966
1261.78	4.63171
1265.15	15.3584
1268.53	25.7298
1271.9	15.1593
1275.28	2.73428
1278.65	0.27655
1282.03	0.801025
