Measurement: Raman, 532 nm, unoriented, Raman Data Processed
Mineral: Simonkolleite
Rruff sample: R130616
Ideal chemistry: Zn_5_(OH)_8_Cl_2_H_2_O
Locality: Rowley mine, Maricopa County, Arizona, USA
Source: Bob Jenkins
Description: Colorless tabular crystals, associated with the blue platy crystals with the chemistry CuZnCl(OH)3.
Raman shift (cm-1)	intensity
89.7832	0
93.158	8.52866
96.5328	15.0212
99.9077	13.484
103.282	10.7706
106.657	46.2847
110.032	82.0305
113.407	110.297
116.782	122.739
120.157	112.844
123.531	98.1354
126.906	72.6655
130.281	50.7661
133.656	26.1144
137.031	14.2834
140.405	9.43344
143.78	1.34909
147.155	2.07104
150.53	3.59891
153.905	4.37143
157.28	5.9274
160.654	4.18619
164.029	2.25015
167.404	1.82501
170.779	8.77441
174.154	18.2612
177.528	27.0799
180.903	38.9301
184.278	56.0832
187.653	78.5935
191.028	112.989
194.403	155.008
197.777	214.442
201.152	285.394
204.527	377.388
207.902	476.022
211.277	520.242
214.651	449.58
218.026	311.844
221.401	193.717
224.776	122.964
228.151	85.1844
231.525	71.2739
234.9	80.6812
238.275	114.233
241.65	172.341
245.025	257.803
248.4	385.483
251.774	572.927
255.149	738.771
258.524	718.775
261.899	587.549
265.274	526.809
268.649	477.886
272.023	372.586
275.398	251.256
278.773	163.268
282.148	103.537
285.523	69.7082
288.897	45.915
292.272	33.2844
295.647	23.4339
299.022	19.1102
302.397	19.514
305.772	18.0726
309.146	19.8816
312.521	14.5462
315.896	3.62488
319.271	3.80031
322.646	5.58943
326.02	5.74883
329.395	4.15675
332.77	2.16713
336.145	0.236771
339.52	2.27535
342.894	5.94722
346.269	7.42847
349.644	10.8731
353.019	19.8612
356.394	21.6017
359.769	30.116
363.143	44.8959
366.518	67.1634
369.893	103.913
373.268	160.037
376.643	251.306
380.017	378.568
383.392	562.556
386.767	822.907
390.142	1158.61
393.517	1409.67
396.892	1335.63
400.266	996.091
403.641	663.932
407.016	442.104
410.391	305.098
413.766	219.531
417.14	162.715
420.515	121.291
423.89	92.0222
427.265	67.6931
430.64	46.3074
434.014	29.775
437.389	19.0716
440.764	9.34857
444.139	5.10579
447.514	0.421478
450.889	2.2402
454.263	0.709518
457.638	1.90306
461.013	6.88281
464.388	14.7613
467.763	23.4192
471.137	34.7774
474.512	45.8222
477.887	59.1958
481.262	70.9564
484.637	75.3707
488.012	69.077
491.386	52.5384
494.761	34.4832
498.136	22.6949
501.511	11.5107
504.886	4.4633
508.26	0.803024
511.635	1.00722
515.01	2.04576
518.385	1.12595
521.76	0.843567
525.135	7.40657
528.509	14.4946
531.884	26.4124
535.259	43.2483
538.634	61.6939
542.009	79.525
545.384	86.032
548.758	73.18
552.133	51.5003
555.508	35.0951
558.883	23.9958
562.258	17.83
565.632	12.3613
569.007	9.38992
572.382	6.05493
575.757	4.90877
579.132	5.65988
582.506	4.40462
585.881	3.83467
589.256	4.6048
592.631	3.43883
596.006	3.80075
599.381	2.62448
602.755	3.22096
606.13	0.649445
609.505	1.4306
612.88	0.019791
616.255	0.469681
619.63	0.329071
623.004	6.30778
626.379	0.221664
629.754	0.299484
633.129	1.88385
636.504	0.219147
639.878	0.501404
643.253	2.02483
646.628	1.37033
650.003	1.0197
653.378	2.79575
656.752	1.89386
660.127	2.80624
663.502	3.16927
666.877	3.43478
670.252	2.09448
673.626	2.04649
677.001	2.86586
680.376	1.91945
683.751	3.83679
687.126	4.74008
690.501	6.71258
693.875	6.78332
697.25	11.0396
700.625	13.296
704	13.5881
707.375	17.3215
710.75	21.4793
714.124	23.9072
717.499	24.6478
720.874	27.2113
724.249	30.9689
727.624	35.4243
730.998	32.3872
734.373	32.1899
737.748	29.8372
741.123	27.0928
744.498	24.1472
747.872	20.7848
751.247	17.7271
754.622	15.5444
757.997	11.3722
761.372	11.0026
764.747	8.87959
768.121	7.01076
771.496	6.63014
774.871	5.11401
778.246	4.62939
781.621	2.99577
784.995	3.34349
788.37	1.42372
791.745	0.333908
795.12	1.28882
798.495	0.466507
801.87	0.078964
805.244	0.45369
808.619	0.521179
811.994	0.939163
815.369	0.931122
818.744	0.380157
822.119	0.266769
825.493	0.966507
828.868	0.76442
832.243	0.679428
835.618	1.29668
838.993	1.53619
842.367	2.29863
845.742	4.26761
849.117	5.34984
852.492	7.451
855.867	9.65263
859.241	12.5905
862.616	13.5993
865.991	16.6097
869.366	19.6668
872.741	22.473
876.115	25.1596
879.49	32.5088
882.865	41.8426
886.24	55.5945
889.615	76.0236
892.99	100.842
896.364	129.001
899.739	160.31
903.114	191.081
906.489	214.553
909.864	221.328
913.239	216.359
916.613	194.723
919.988	170.986
923.363	142.186
926.738	116.994
930.113	94.9895
933.487	78.7688
936.862	66.9546
940.237	49.3208
943.612	38.8296
946.987	32.7332
950.361	27.2415
953.736	21.4533
957.111	17.9014
960.486	14.8251
963.861	10.9185
967.236	7.91852
970.61	6.73639
973.985	5.26975
977.36	3.44353
980.735	1.79997
984.11	0.224106
987.485	0.443359
990.859	1.32532
994.234	0.439713
997.609	1.80112
1000.98	0.83075
1004.36	1.31722
1007.73	0.045181
1011.11	0.025909
1014.48	1.14645
1017.86	3.09586
1021.23	5.75897
1024.61	8.13841
1027.98	15.5343
1031.36	20.8292
1034.73	27.0193
1038.11	28.1971
1041.48	27.9971
1044.86	23.8258
1048.23	18.5034
1051.61	13.898
1054.98	11.3754
1058.36	7.49385
1061.73	6.83077
1065.11	5.19391
1068.48	3.37622
1071.86	1.59055
1075.23	2.56561
1078.6	1.03673
1081.98	1.33459
1085.35	1.55455
1088.73	1.92943
1092.1	1.72562
1095.48	2.16736
1098.85	1.64986
1102.23	0.194504
1105.6	2.5979
1108.98	1.0184
1112.35	0.565689
1115.73	0.7397
1119.1	2.53438
1122.48	1.15352
1125.85	2.70343
1129.23	0.624313
1132.6	0.387589
1135.98	0.146729
1139.35	0.84021
1142.73	1.11713
1146.1	0.797745
1149.48	1.10927
1152.85	1.28128
1156.22	1.82071
1159.6	1.09459
1162.97	0.978043
1166.35	0.783997
1169.72	0.960281
1173.1	0.756378
1176.47	0.745041
1179.85	1.45958
1183.22	0.158585
1186.6	1.20592
1189.97	0.711868
1193.35	0.33963
1196.72	2.45564
1200.1	0.866943
1203.47	1.4975
1206.85	0.237061
1210.22	1.71005
1213.6	0.555008
1216.97	0.636856
1220.35	1.9498
1223.72	0.701157
1227.1	1.01338
1230.47	0.125961
1233.85	1.44669
1237.22	1.89973
1240.6	0.876907
1243.97	1.26504
1247.35	0.490402
1250.72	1.18925
1254.1	0.299988
1257.47	0.996582
1260.85	0.571869
1264.22	0.911316
1267.59	1.05571
1270.97	1.57178
1274.34	0.687744
1277.72	0.476471
1281.09	0.97435
1284.47	0.930008
1287.84	0.422089
1291.22	0.53418
1294.59	0.743378
1297.97	1.66681
1301.34	0.623978
