Measurement: Raman, 532 nm, unoriented, Raman Data Processed
Mineral: Simonellite
Rruff sample: R130116
Ideal chemistry: C_19_H_24_
Locality: Fognano, Montepulliano, Tuscany, Italy
Source: Rock Currier
Description: Aggregates of colorless irregular crystals. Note: quickly dissolves in acetone
Raman shift (cm-1)	intensity
220.98	0
223.872	43.8667
226.765	119.264
229.658	174.407
232.55	167.507
235.443	127.075
238.336	88.4767
241.228	60.1047
244.121	38.5339
247.014	14.7909
249.906	0.514404
252.799	2.92224
255.692	2.89697
258.585	8.07507
261.477	14.8166
264.37	27.1937
267.263	40.7146
270.155	58.6176
273.048	59.7913
275.941	55.3105
278.834	51.273
281.726	48.213
284.619	45.4753
287.512	34.8854
290.404	16.5712
293.297	3.64673
296.19	8.80298
299.082	4.37317
301.975	3.80994
304.868	4.33435
307.76	17.2389
310.653	44.2639
313.546	69.5895
316.439	65.2385
319.331	30.7172
322.224	9.64111
325.117	5.62512
328.009	6.78528
330.902	14.0641
333.795	29.2517
336.688	53.4246
339.58	82.0411
342.473	98.8195
345.366	109.252
348.258	124.448
351.151	147.15
354.044	140.272
356.936	76.7893
359.829	49.2602
362.722	29.3283
365.615	28.767
368.507	42.6606
371.4	60.462
374.293	71.7203
377.185	46.9985
380.078	19.7913
382.971	3.3949
385.863	3.47461
388.756	0.999268
391.649	0.015747
394.541	3.16675
397.434	0.89978
400.327	16.3088
403.22	26.3351
406.112	46.0374
409.005	80.2705
411.898	141.598
414.79	213.013
417.683	204.691
420.576	140.527
423.469	45.1732
426.361	11.0238
429.254	7.60132
432.147	1.87488
435.039	3.49182
437.932	6.578
440.825	10.9089
443.717	26.3125
446.61	39.5797
449.503	41.4869
452.396	17.5469
455.288	9.99011
458.181	9.06848
461.074	2.91943
463.966	7.38061
466.859	3.1283
469.752	4.83655
472.644	24.9425
475.537	64.8561
478.43	105.183
481.322	69.8359
484.215	19.0275
487.108	11.0298
490.001	26.5493
492.893	32.2191
495.786	17.4535
498.679	2.32703
501.571	0.53894
504.464	3.10608
507.357	1.18347
510.25	13.7965
513.142	28.8204
516.035	42.5656
518.928	85.8317
521.82	144.661
524.713	203.275
527.606	173.67
530.498	169.319
533.391	196.36
536.284	237.537
539.177	354.548
542.069	564.252
544.962	756.761
547.855	381.6
550.747	92.8247
553.64	29.8666
556.533	14.2762
559.425	6.9519
562.318	0.953003
565.211	3.96106
568.104	4.09399
570.996	9.69275
573.889	3.3479
576.782	9.00244
579.674	17.2272
582.567	26.1428
585.46	50.33
588.352	69.9283
591.245	108.377
594.138	109.909
597.03	124.169
599.923	212.027
602.816	314.328
605.709	367.253
608.601	161.81
611.494	79.6604
614.387	97.2726
617.279	131.232
620.172	219.994
623.065	340.174
625.957	453.097
628.85	345.025
631.743	97.0422
634.636	37.8875
637.528	12.945
640.421	4.55212
643.314	0.718018
646.206	4.4563
649.099	1.00989
651.992	2.85547
654.885	5.9137
657.777	2.32495
660.67	0.552734
663.563	0.600098
666.455	2.83191
669.348	3.18066
672.241	2.1073
675.133	2.68408
678.026	6.86975
680.919	9.28772
683.812	11.4946
686.704	21.2695
689.597	39.6471
692.49	60.4773
695.382	73.5419
698.275	159.761
701.168	269.057
704.06	411.025
706.953	725.74
709.846	1141.76
712.739	1425.86
715.631	465.893
718.524	131.845
721.417	67.4512
724.309	39.5392
727.202	31.0021
730.095	24.3815
732.987	28.4175
735.88	37.7074
738.773	56.4586
741.665	46.1965
744.558	24.5974
747.451	19.0834
750.344	11.2257
753.236	5.00207
756.129	0.912476
759.022	1.53821
761.914	1.33301
764.807	2.40527
767.7	6.67883
770.592	2.40405
773.485	9.66382
776.378	15.9136
779.271	14.6923
782.163	7.41406
785.056	0.519897
787.949	6.4458
790.841	2.49707
793.734	14.9026
796.627	6.85449
799.519	15.1399
802.412	20.9502
805.305	19.0586
808.198	25.7285
811.09	29.873
813.983	33.4273
816.876	28.677
819.768	30.2105
822.661	17.0332
825.554	9.50354
828.447	0.890015
831.339	1.81641
834.232	2.25928
837.125	2.41699
840.017	9.19336
842.91	9.54395
845.803	15.2822
848.695	27.2837
851.588	51.4412
854.481	111.91
857.374	180.132
860.266	191.85
863.159	126.204
866.052	132.566
868.944	172.132
871.837	163.188
874.73	72.124
877.622	25.6392
880.515	8.13208
883.408	15.8381
886.301	42.4085
889.193	14.8181
892.086	3.76978
894.979	19.9873
897.871	42.6189
900.764	64.5044
903.657	22.9497
906.549	1.09766
909.442	0.588623
912.335	2.75269
915.227	2.10522
918.12	2.71851
921.013	17.1128
923.906	42.2764
926.798	55.1294
929.691	98.5872
932.584	177.836
935.476	209.908
938.369	86.2083
941.262	32.0181
944.154	32.3596
947.047	51.3384
949.94	88.2656
952.833	159.653
955.725	168.444
958.618	116.039
961.511	127.973
964.403	152.245
967.296	134.398
970.189	215.334
973.082	418.336
975.974	540.712
978.867	263.514
981.76	91.0312
984.652	45.4441
987.545	23.3325
990.438	12.2546
993.33	9.35645
996.223	23.406
999.116	30.1977
1002.01	11.4011
1004.9	0.385986
1007.79	2.37817
1010.69	4.06396
1013.58	12.4299
1016.47	15.4946
1019.37	17.5618
1022.26	21.8301
1025.15	39.2559
1028.04	79.7654
1030.94	97.5613
1033.83	77.6231
1036.72	114.792
1039.61	161.434
1042.51	89.158
1045.4	68.49
1048.29	44.5488
1051.18	17.352
1054.08	4.86987
1056.97	1.58179
1059.86	7.77588
1062.76	2.81201
1065.65	0.939453
1068.54	9.01001
1071.43	27.1743
1074.33	43.6836
1077.22	69.105
1080.11	42.9392
1083	21.0881
1085.9	18.3059
1088.79	7.25049
1091.68	13.1291
1094.58	25.8977
1097.47	57.209
1100.36	106.933
1103.25	185.01
1106.15	189.347
1109.04	67.4729
1111.93	42.4094
1114.82	52.1423
1117.72	95.2104
1120.61	47.2952
1123.5	20.3809
1126.39	39.6616
1129.29	73.3101
1132.18	47.3752
1135.07	13.7251
1137.96	2.4895
1140.86	4.14624
1143.75	23.7248
1146.64	48.5247
1149.54	21.677
1152.43	0.626953
1155.32	1.802
1158.21	12.0906
1161.11	42.7651
1164	90.2278
1166.89	100.513
1169.79	147.736
1172.68	216.639
1175.57	221.792
1178.46	461.185
1181.36	647.369
1184.25	254.165
1187.14	90.8872
1190.03	48.6423
1192.93	57.7336
1195.82	96.7849
1198.71	178.163
1201.61	347.263
1204.5	341.945
1207.39	217.578
1210.28	185.235
1213.18	84.074
1216.07	19.7551
1218.96	3.63989
1221.85	13.761
1224.75	31.3943
1227.64	58.3916
1230.53	120.69
1233.42	218.832
1236.32	273.959
1239.21	230.788
1242.1	95.6985
1244.99	32.8396
1247.89	29.6541
1250.78	18.2024
1253.67	1.11499
1256.57	8.89453
1259.46	2.38672
1262.35	15.8274
1265.24	25.2656
1268.14	59.196
1271.03	78.293
1273.92	55.5078
1276.82	42.8679
1279.71	27.0605
1282.6	43.1868
1285.49	84.0234
1288.39	64.9973
1291.28	18.3889
1294.17	0.473145
1297.06	8.32959
1299.96	1.74951
