Measurement: Raman, 780 nm, unoriented, Raman Data Processed
Mineral: Simonkolleite
Rruff sample: R130616
Ideal chemistry: Zn_5_(OH)_8_Cl_2_H_2_O
Locality: Rowley mine, Maricopa County, Arizona, USA
Source: Bob Jenkins
Description: Colorless tabular crystals, associated with the blue platy crystals with the chemistry CuZnCl(OH)3.
Raman shift (cm-1)	intensity
102.649	0
106.023	3.58293
109.398	13.1979
112.773	19.1181
116.148	23.8024
119.523	27.4294
122.897	27.0009
126.272	19.3401
129.647	12.9641
133.022	8.11177
136.397	3.53685
139.772	1.31658
143.146	0.525482
146.521	0.021059
149.896	1.19796
153.271	0.673813
156.646	2.28286
160.02	1.53723
163.395	0.709873
166.77	3.40464
170.145	6.06177
173.52	8.1265
176.894	12.0955
180.269	15.2836
183.644	20.9325
187.019	27.218
190.394	36.2683
193.769	48.9895
197.143	66.4988
200.518	90.9764
203.893	124.872
207.268	160.285
210.643	176.435
214.018	150.957
217.392	103.5
220.767	61.3475
224.142	33.9336
227.517	17.677
230.892	10.3385
234.266	8.96063
237.641	13.9531
241.016	23.3665
244.391	43.9395
247.766	75.393
251.14	120.823
254.515	159.958
257.89	164.015
261.265	145.727
264.64	141.428
268.014	137.245
271.389	108.202
274.764	72.6852
278.139	43.993
281.514	26.1312
284.889	14.3222
288.263	8.14688
291.638	3.61955
295.013	1.47329
298.388	0.222553
301.763	0.164058
305.137	0.423444
308.512	0.501593
311.887	0.202801
315.262	1.85517
318.637	0.225286
322.012	0.307598
325.386	0.350837
328.761	0.008224
332.136	0.245923
335.511	0.004038
338.886	0.223224
342.26	1.00211
345.635	1.55746
349.01	2.45504
352.385	2.91128
355.76	5.02313
359.135	6.95314
362.509	9.42815
365.884	13.1731
369.259	20.1157
372.634	29.7565
376.009	44.0083
379.383	67.139
382.758	103.501
386.133	161.631
389.508	237.688
392.883	303.905
396.257	296.651
399.632	224.142
403.007	149.919
406.382	98.9623
409.757	67.9013
413.132	48.569
416.506	35.4976
419.881	26.3639
423.256	19.7682
426.631	14.5591
430.006	9.97362
433.38	6.97341
436.755	3.89827
440.13	2.30413
443.505	1.5138
446.88	0.33464
450.255	0.00617
453.629	0.39928
457.004	0.241448
460.379	0.672893
463.754	2.01982
467.129	2.92107
470.503	5.01991
473.878	6.90295
477.253	9.96514
480.628	12.2097
484.003	12.9036
487.377	11.4956
490.752	8.63454
494.127	6.36517
497.502	4.06378
500.877	1.71927
504.252	0.341819
507.626	0.318876
511.001	0.043822
514.376	0.176231
517.751	0.046679
521.126	0.036435
524.5	0.362791
527.875	1.61127
531.25	3.80954
534.625	6.37958
538	9.7895
541.375	14.1475
544.749	15.0562
548.124	12.7055
551.499	9.65223
554.874	6.66502
558.249	4.18436
561.623	3.30454
564.998	1.62179
568.373	2.24418
571.748	1.54415
575.123	0.66859
578.497	0.50993
581.872	0.367554
585.247	0.291117
588.622	0.621037
591.997	0.830952
595.371	1.04405
598.746	0.743785
602.121	0.268217
605.496	0.016549
608.871	0.41266
612.246	0.281672
615.62	0.090962
618.995	0.021492
622.37	0.642286
625.745	0.007214
629.12	0.09976
632.494	0.289224
635.869	0.030794
639.244	0.447568
642.619	1.36447
645.994	0.126011
649.369	0.655602
652.743	0.193047
656.118	0.349034
659.493	0.594923
662.868	0.767616
666.243	0.371704
669.617	0.367983
672.992	0.710549
676.367	0.036923
679.742	0.149174
683.117	0.124042
686.491	0.02788
689.866	0.241239
693.241	0.564734
696.616	0.390853
699.991	0.724099
703.366	1.10224
706.74	2.05053
710.115	1.97961
713.49	2.55932
716.865	2.40336
720.24	3.02498
723.614	3.15609
726.989	2.56363
730.364	2.79724
733.739	2.80733
737.114	2.82709
740.489	2.19974
743.863	2.089
747.238	1.68918
750.613	1.11083
753.988	1.27204
757.363	1.03363
760.737	0.616266
764.112	0.566565
767.487	0.451954
770.862	0.267333
774.237	0.077699
777.611	0.13762
780.986	0.031305
784.361	0.104899
787.736	0.392394
791.111	0.176077
794.486	0.146132
797.86	0.017521
801.235	0.41029
804.61	0.174189
807.985	0.005311
811.36	0.518376
814.734	0.08782
818.109	0.11109
821.484	0.10859
824.859	0.076641
828.234	0.039177
831.609	0.174932
834.983	0.052131
838.358	0.587198
841.733	0.11618
845.108	0.241872
848.483	0.327866
851.857	0.767885
855.232	1.08302
858.607	0.657221
861.982	1.23397
865.357	0.788277
868.731	1.40492
872.106	1.89383
875.481	2.31803
878.856	2.97112
882.231	3.48162
885.606	5.14478
888.98	7.07235
892.355	9.27079
895.73	12.1678
899.105	15.6316
902.48	18.3628
905.854	22.1318
909.229	22.8939
912.604	23.1806
915.979	20.8763
919.354	17.5932
922.729	14.7013
926.103	12.2111
929.478	9.92162
932.853	7.55851
936.228	6.2589
939.603	5.40846
942.977	3.84351
946.352	2.86804
949.727	2.70588
953.102	2.33794
956.477	1.63173
959.851	1.31899
963.226	1.1697
966.601	0.840888
969.976	0.341735
973.351	0.260105
976.726	0.37995
980.1	0.204463
983.475	0.147275
986.85	0.064885
990.225	0.117957
993.6	0.085895
996.974	0.02639
1000.35	0.099806
1003.72	0.042464
1007.1	0.036327
1010.47	0.166268
1013.85	0.000771
1017.22	0.796504
1020.6	0.482094
1023.97	0.885086
1027.35	1.44714
1030.72	2.48778
1034.1	3.36303
1037.47	3.33871
1040.85	3.47145
1044.22	3.19444
1047.6	2.49423
1050.97	2.06999
1054.35	1.7997
1057.72	1.60668
1061.1	1.09965
1064.47	0.883898
1067.85	0.967341
1071.22	0.18204
1074.6	0.875595
1077.97	0.542245
1081.35	1.69345
1084.72	0.726053
1088.09	0.3691
1091.47	0.152455
1094.84	0.264496
1098.22	0.50409
1101.59	0.427001
1104.97	0.823175
1108.34	0.370424
1111.72	0.017679
1115.09	0.43734
1118.47	0.002765
1121.84	0.01915
1125.22	0.055175
1128.59	0.031734
1131.97	0.123509
1135.34	0.334045
1138.72	0.134249
1142.09	0.201797
1145.47	0.573838
1148.84	0.132973
1152.22	0.072372
1155.59	0.555957
1158.97	0.034075
1162.34	0.201471
1165.71	0.003809
1169.09	0.398434
1172.46	0.425363
1175.84	0.369301
1179.21	0.261299
1182.59	0.258009
1185.96	0.376613
1189.34	0.348531
1192.71	0.300355
1196.09	0.204904
1199.46	0.209034
1202.84	0.188048
1206.21	0.356699
1209.59	0.292648
1212.96	0.254307
1216.34	0.531152
1219.71	0.09607
1223.09	0.011873
1226.46	0.101241
1229.84	0.628708
1233.21	0.174548
1236.59	0.668205
1239.96	0.292658
1243.34	0.132992
1246.71	0.012613
1250.09	0.073138
1253.46	0.612951
1256.84	0.244705
1260.21	0.570442
1263.59	0.448879
1266.96	0.486249
1270.33	0.505684
1273.71	0.36205
1277.08	0.072251
1280.46	0.151852
1283.83	0.140119
