Measurement: Raman, 780 nm, unoriented, Raman Data Processed
Mineral: Simonkolleite
Rruff sample: R130117
Ideal chemistry: Zn_5_(OH)_8_Cl_2_H_2_O
Locality: Richelsdorf, Richelsdorf Mountains, Hesse, Germany
Source: Rock Currier
Raman shift (cm-1)	intensity
90.2353	0
93.6102	13.8224
96.985	7.47098
100.36	1.10779
103.735	6.15463
107.109	13.9725
110.484	20.9581
113.859	33.1151
117.234	37.0647
120.609	40.5285
123.984	43.3749
127.358	49.6795
130.733	22.7953
134.108	8.20071
137.483	6.9333
140.858	7.39597
144.232	5.74922
147.607	3.15501
150.982	3.46678
154.357	1.07245
157.732	3.98863
161.107	2.85019
164.481	1.25133
167.856	1.92848
171.231	5.56697
174.606	9.10245
177.981	13.4563
181.355	18.5341
184.73	25.9023
188.105	34.8205
191.48	47.5684
194.855	58.7826
198.229	72.2241
201.604	91.328
204.979	111.718
208.354	126.293
211.729	120.362
215.103	94.7727
218.478	65.211
221.853	47.6577
225.228	40.5613
228.603	40.9891
231.978	50.1859
235.352	68.9798
238.727	99.6439
242.102	133.621
245.477	182.549
248.852	245.631
252.226	312.621
255.601	333.314
258.976	279.533
262.351	224.501
265.726	197.815
269.101	164.237
272.475	119.471
275.85	78.4444
279.225	50.8216
282.6	32.5436
285.975	22.078
289.349	14.5507
292.724	10.5601
296.099	7.14301
299.474	6.6112
302.849	5.06404
306.224	5.91753
309.598	5.21641
312.973	2.29848
316.348	0.145966
319.723	2.1434
323.098	2.384
326.472	2.63709
329.847	0.732506
333.222	1.10986
336.597	0.173264
339.972	0.59005
343.346	2.54276
346.721	1.97374
350.096	3.43154
353.471	4.38969
356.846	6.59578
360.221	9.13934
363.595	14.2855
366.97	21.2417
370.345	34.9734
373.72	54.4217
377.095	81.7821
380.469	115.994
383.844	160.993
387.219	218.681
390.594	274.791
393.969	292.485
397.344	240.609
400.718	165.944
404.093	111.317
407.468	74.8164
410.843	54.7965
414.217	39.3097
417.592	30.1251
420.967	23.8505
424.342	18.7219
427.717	13.9267
431.092	11.2939
434.466	7.96407
437.841	5.47278
441.216	4.95123
444.591	1.60152
447.966	1.97919
451.341	2.21703
454.715	0.98954
458.09	2.21762
461.465	2.52729
464.84	3.45542
468.215	4.16876
471.589	5.27422
474.964	5.38369
478.339	6.66573
481.714	8.04616
485.089	7.70679
488.463	5.41756
491.838	4.4874
495.213	2.28004
498.588	1.11755
501.963	0.613899
505.337	1.39789
508.712	0.436913
512.087	0.430008
515.462	1.0278
518.837	0.297104
522.212	0.794579
525.586	1.20506
528.961	4.10507
532.336	5.04486
535.711	7.56522
539.086	10.7828
542.46	12.7874
545.835	11.9165
549.21	8.49795
552.585	6.32752
555.96	3.37276
559.335	3.20425
562.709	2.19686
566.084	0.924416
569.459	0.17598
572.834	0.350502
576.209	0.871552
579.583	0.877174
582.958	0.404755
586.333	0.355698
589.708	0.138779
593.083	0.205986
596.457	0.749775
599.832	0.434902
603.207	0.323326
606.582	0.059048
609.957	1.13572
613.332	0.273998
616.706	0.530064
620.081	0.659027
623.456	0.315418
626.831	0.436127
630.206	0.183075
633.58	0.614849
636.955	1.15844
640.33	0.796551
643.705	1.00318
647.08	0.222038
650.455	1.60674
653.829	0.899929
657.204	0.878124
660.579	1.06027
663.954	0.978722
667.329	1.26662
670.703	0.660599
674.078	0.598
677.453	1.07447
680.828	1.38383
684.203	2.23498
687.577	4.21879
690.952	4.6934
694.327	6.26419
697.702	8.47319
701.077	11.9118
704.452	13.1588
707.826	14.5086
711.201	17.0022
714.576	18.0945
717.951	20.738
721.326	21.4888
724.7	22.1477
728.075	23.5272
731.45	24.1268
734.825	22.7838
738.2	20.3125
741.574	16.6592
744.949	13.6969
748.324	10.0989
751.699	8.02594
755.074	5.92936
758.449	4.57683
761.823	3.61481
765.198	2.25498
768.573	2.01058
771.948	1.08552
775.323	0.107147
778.697	0.272427
782.072	0.825905
785.447	0.050922
788.822	0.017128
792.197	0.079903
795.572	0.304775
798.946	0.262074
802.321	0.109825
805.696	0.266178
809.071	0.342258
812.446	0.248596
815.82	1.56432
819.195	0.767529
822.57	0.477112
825.945	1.45455
829.32	1.53798
832.694	1.56968
836.069	2.66497
839.444	1.95473
842.819	2.65577
846.194	2.36453
849.569	2.92235
852.943	3.34286
856.318	3.99221
859.693	3.28874
863.068	3.89228
866.443	3.08948
869.817	2.89296
873.192	3.72983
876.567	3.86623
879.942	4.63875
883.317	5.81865
886.692	7.83748
890.066	11.3523
893.441	15.1127
896.816	18.6297
900.191	22.8816
903.566	25.5554
906.94	26.3954
910.315	27.0146
913.69	22.8454
917.065	20.5852
920.44	16.093
923.814	12.8458
927.189	9.70482
930.564	8.13205
933.939	5.96462
937.314	3.54728
940.689	3.10901
944.063	2.75249
947.438	1.64239
950.813	0.957664
954.188	1.47192
957.563	0.693287
960.937	0.765083
964.312	0.278732
967.687	0.533031
971.062	0.458042
974.437	0.265102
977.812	0.416164
981.186	0.156662
984.561	0.208054
987.936	0.21294
991.311	0.111012
994.686	0.14024
998.06	0.929539
1001.43	0.79575
1004.81	1.04242
1008.18	1.87723
1011.56	1.77006
1014.93	1.4048
1018.31	3.01377
1021.68	3.61546
1025.06	5.06492
1028.43	6.7948
1031.81	8.37802
1035.18	8.20357
1038.56	9.73367
1041.93	8.59254
1045.31	7.96694
1048.68	5.81218
1052.06	6.22065
1055.43	6.19024
1058.81	3.84334
1062.18	2.16479
1065.56	1.62737
1068.93	0.993832
1072.31	1.01308
1075.68	1.22304
1079.06	0.942673
1082.43	0.65831
1085.81	0.962494
1089.18	0.855961
1092.56	1.48741
1095.93	2.35548
1099.31	1.56704
1102.68	1.41172
1106.05	1.34811
1109.43	1.85087
1112.8	1.09065
1116.18	1.00325
1119.55	1.07406
1122.93	1.09165
1126.3	0.214001
1129.68	0.531845
1133.05	0.619991
1136.43	0.451405
1139.8	0.110546
1143.18	0.342655
1146.55	0.002235
1149.93	0.359123
1153.3	0.153687
1156.68	0.214989
1160.05	0.141968
1163.43	0.202538
1166.8	0.731438
1170.18	0.079636
1173.55	0.640045
1176.93	1.46385
1180.3	0.884644
1183.67	1.09926
1187.05	1.07442
1190.42	0.63633
1193.8	1.3828
1197.17	1.15962
1200.55	0.800613
1203.92	2.96436
1207.3	0.139397
1210.67	1.55739
1214.05	2.06247
1217.42	2.43743
1220.8	3.02423
1224.17	1.57847
1227.55	2.54493
1230.92	1.7981
1234.3	3.23504
1237.67	3.24443
1241.05	2.10417
1244.42	3.1655
1247.8	3.06647
1251.17	2.21616
1254.55	1.97758
1257.92	2.4579
1261.3	1.60617
1264.67	0.804733
1268.05	2.13611
1271.42	1.57706
1274.8	0.751953
1278.17	0.777786
1281.55	0.009689
