Measurement: Raman, 532 nm, unoriented, Raman Data Processed
Mineral: Simonkolleite
Rruff sample: R130117
Ideal chemistry: Zn_5_(OH)_8_Cl_2_H_2_O
Locality: Richelsdorf, Richelsdorf Mountains, Hesse, Germany
Source: Rock Currier
Raman shift (cm-1)	intensity
89.8438	0
93.2186	19.6613
96.5934	11.8896
99.9682	5.42572
103.343	13.6655
106.718	23.2982
110.093	26.4946
113.468	15.036
116.842	14.358
120.217	32.3912
123.592	49.6009
126.967	43.1312
130.342	42.3752
133.716	34.3486
137.091	29.1432
140.466	11.7151
143.841	2.27878
147.216	10.2742
150.59	5.73445
153.965	7.11592
157.34	3.58543
160.715	3.31209
164.09	4.07579
167.464	4.61658
170.839	3.69368
174.214	15.7477
177.589	24.2807
180.964	48.4229
184.339	79.3898
187.713	104.023
191.088	110.177
194.463	142.845
197.838	170.762
201.213	190.965
204.588	200.87
207.962	208.581
211.337	219.34
214.712	204.904
218.087	181.178
221.462	160.426
224.836	143.484
228.211	145.216
231.586	159.163
234.961	190.73
238.336	251.616
241.71	345.878
245.085	455.655
248.46	607.206
251.835	797.614
255.21	940.182
258.585	867.565
261.959	661.981
265.334	528.856
268.709	448.307
272.084	344.491
275.459	240.136
278.834	160.73
282.208	115.065
285.583	76.33
288.958	55.1699
292.333	42.4168
295.708	28.6377
299.082	22.4737
302.457	20.0319
305.832	16.8774
309.207	17.2182
312.582	13.1547
315.957	5.58447
319.331	0.3573
322.706	3.97858
326.081	5.10541
329.456	5.37396
332.831	5.92502
336.205	3.16022
339.58	0.875366
342.955	0.165314
346.33	2.12332
349.705	2.54141
353.079	2.98819
356.454	6.28036
359.829	12.006
363.204	15.0933
366.579	24.9174
369.954	37.7618
373.328	64.4677
376.703	102.845
380.078	160.804
383.453	234.661
386.828	333.481
390.202	451.83
393.577	537.38
396.952	504.239
400.327	376.878
403.702	252.396
407.077	169.424
410.451	115.434
413.826	81.3535
417.201	60.9175
420.576	44.3297
423.951	33.9057
427.325	24.3201
430.7	19.0739
434.075	12.9397
437.45	9.60718
440.825	5.67969
444.2	4.89401
447.574	4.8779
450.949	1.44174
454.324	1.63257
457.699	1.10608
461.074	0.214661
464.448	1.88858
467.823	2.00952
471.198	6.31976
474.573	10.8496
477.948	12.8072
481.322	12.6095
484.697	12.296
488.072	11.5663
491.447	9.10684
494.822	5.47232
498.197	3.62192
501.571	1.81543
504.946	1.30972
508.321	0.110687
511.696	0.406677
515.071	0.230835
518.446	0.291565
521.82	0.635162
525.195	2.96237
528.57	7.6463
531.945	8.5372
535.32	12.7325
538.694	20.2265
542.069	22.121
545.444	20.5114
548.819	19.4498
552.194	14.6501
555.568	12.0102
558.943	9.38898
562.318	7.11728
565.693	5.51529
569.068	5.85284
572.443	3.2341
575.817	4.39825
579.192	2.13452
582.567	3.20102
585.942	2.80682
589.317	2.50455
592.692	3.09409
596.066	3.05774
599.441	1.68417
602.816	2.00885
606.191	0.996277
609.566	1.05176
612.94	0.60022
616.315	0.665588
619.69	0.463531
623.065	0.989563
626.44	0.9841
629.814	0.552887
633.189	0.561218
636.564	0.552216
639.939	0.255737
643.314	0.361359
646.688	1.19858
650.063	2.16602
653.438	0.461639
656.813	0.630676
660.188	2.44803
663.563	2.58893
666.937	1.55975
670.312	2.55829
673.687	4.8305
677.062	4.92523
680.437	9.65808
683.812	10.2906
687.186	16.1253
690.561	23.1338
693.936	27.6511
697.311	36.0615
700.686	43.1962
704.06	54.045
707.435	62.9974
710.81	69.4973
714.185	77.7436
717.56	85.2837
720.934	91.3113
724.309	99.9159
727.684	103.417
731.059	103.103
734.434	100.668
737.809	90.7046
741.183	79.7121
744.558	68.1301
747.933	56.8731
751.308	44.8669
754.683	32.4884
758.058	25.0816
761.432	17.5652
764.807	14.484
768.182	10.4522
771.557	7.91052
774.932	5.845
778.306	4.02255
781.681	8.46176
785.056	3.51047
788.431	0.577576
791.806	0.420441
795.181	0.728088
798.555	1.54947
801.93	1.0622
805.305	0.968048
808.68	1.69232
812.055	1.14688
815.429	0.147095
818.804	2.02182
822.179	5.80835
825.554	3.70938
828.929	3.86505
832.303	4.30447
835.678	5.01413
839.053	7.77567
842.428	9.40274
845.803	12.4389
849.178	10.9331
852.552	10.8419
855.927	10.4621
859.302	15.0598
862.677	10.4741
866.052	10.2707
869.427	8.02643
872.801	7.2641
876.176	7.78207
879.551	11.3384
882.926	11.9133
886.301	16.4956
889.675	22.5113
893.05	31.349
896.425	39.816
899.8	51.0389
903.175	58.9301
906.549	64.2124
909.924	65.0951
913.299	63.316
916.674	53.5928
920.049	48.1048
923.423	38.3917
926.798	30.2606
930.173	22.6402
933.548	17.7728
936.923	15.6363
940.298	11.3222
943.672	8.42685
947.047	7.60825
950.422	3.66971
953.797	1.41519
957.172	0.923035
960.547	0.310211
963.921	0.391449
967.296	0.24646
970.671	0.755463
974.046	0.259094
977.421	0.297028
980.795	0.22464
984.17	0.263977
987.545	2.24875
990.92	0.786957
994.295	0.462036
997.669	1.2941
1001.04	3.57962
1004.42	3.65079
1007.79	4.43246
1011.17	6.60367
1014.54	7.76535
1017.92	9.5498
1021.29	13.5726
1024.67	17.7599
1028.04	24.678
1031.42	30.1207
1034.79	36.0279
1038.17	36.1059
1041.54	31.6685
1044.92	27.516
1048.29	21.1766
1051.67	17.1869
1055.04	14.2485
1058.42	9.60263
1061.79	4.87216
1065.17	5.44788
1068.54	4.25617
1071.92	2.44803
1075.29	2.08704
1078.66	2.0853
1082.04	1.60849
1085.41	3.56903
1088.79	1.99127
1092.16	0.520172
1095.54	0.810455
1098.91	1.14609
1102.29	0.756134
1105.66	2.5661
1109.04	1.11365
1112.41	3.10327
1115.79	3.38388
1119.16	2.13037
1122.54	4.82474
1125.91	1.3674
1129.29	2.02389
1132.66	1.89786
1136.04	2.92444
1139.41	1.11993
1142.79	0.419159
1146.16	0.378235
1149.54	2.0509
1152.91	0.747192
1156.29	0.311371
1159.66	0.946259
1163.04	1.3624
1166.41	0.080414
1169.79	0.420959
1173.16	2.353
1176.54	1.11243
1179.91	0.705994
1183.28	2.78308
1186.66	3.98001
1190.03	0.481262
1193.41	2.28006
1196.78	1.81021
1200.16	3.66525
1203.53	2.77942
1206.91	2.61056
1210.28	1.41409
1213.66	3.15784
1217.03	1.10837
1220.41	0.116302
1223.78	4.50693
1227.16	3.18411
1230.53	1.76764
1233.91	2.68655
1237.28	2.07861
1240.66	2.3782
1244.03	1.83612
1247.41	1.85458
1250.78	3.24973
1254.16	3.15216
1257.53	1.92481
1260.9	3.29883
1264.28	2.93958
1267.65	3.55817
1271.03	1.64298
1274.4	2.12955
1277.78	1.42026
1281.15	2.19919
1284.53	1.04681
1287.9	1.67426
1291.28	4.16565
1294.65	1.51044
1298.03	2.01117
1301.4	0.298767
