Measurement: Raman, 532 nm, unoriented, Raman Data Processed
Mineral: Simplotite
Rruff sample: R060712
Ideal chemistry: CaV^4+^_4_O_9_5H_2_O
Locality: Uravan Mineral Belt, Colorado, USA
Source: Bob Jenkins
Description: Radial aggregate of dark green micaceous crystals
Raman shift (cm-1)	intensity
152.378	0
155.271	1191
158.164	2400.81
161.056	2922.55
163.949	2546.94
166.842	1753.69
169.734	769.384
172.627	268.065
175.52	110.004
178.413	119.76
181.305	70.2617
184.198	9.9043
187.091	119.775
189.983	110.127
192.876	121.111
195.769	135.623
198.661	92.792
201.554	53.6357
204.447	216.071
207.339	286.848
210.232	388.386
213.125	628.201
216.018	981.294
218.91	1224.6
221.803	1578.36
224.696	1938.19
227.588	2412.8
230.481	3091.07
233.374	3949.89
236.266	4687.1
239.159	5651.22
242.052	6433.94
244.945	6790.99
247.837	7005.85
250.73	6821.79
253.623	6526.69
256.515	5780.72
259.408	5411.32
262.301	5250.63
265.193	4972.08
268.086	4659.87
270.979	4358.6
273.871	3830.84
276.764	3515.18
279.657	3114.69
282.55	2698.16
285.442	2377.78
288.335	2023.28
291.228	1748.86
294.12	1578.06
297.013	1466.22
299.906	1325.84
302.798	1399.27
305.691	1422.03
308.584	1369.54
311.477	1255.48
314.369	1122.15
317.262	975.128
320.155	880.249
323.047	741.917
325.94	750.046
328.833	665.63
331.725	473.568
334.618	306.757
337.511	218.877
340.404	108.428
343.296	19.4893
346.189	65.2373
349.082	44.5752
351.974	62.2666
354.867	3.1416
357.76	37.7373
360.652	37.8975
363.545	42.6416
366.438	25.6064
369.331	30.3867
372.223	81.4834
375.116	10.7188
378.009	41.8594
380.901	77.4434
383.794	26.8535
386.687	35.3369
389.579	220.914
392.472	144.989
395.365	99.96
398.258	37.8916
401.15	180.728
404.043	280.874
406.936	364.103
409.828	548.263
412.721	690.911
415.614	962.111
418.506	1177.46
421.399	1357.63
424.292	1595.19
427.185	1624.93
430.077	1383.75
432.97	1073.99
435.863	812.72
438.755	637.593
441.648	454.102
444.541	283.407
447.433	207.02
450.326	109.84
453.219	206.5
456.112	100.802
459.004	63.54
461.897	8.15723
464.79	40.5107
467.682	121.787
470.575	181.576
473.468	205.88
476.36	253.103
479.253	397.528
482.146	437.864
485.039	512.455
487.931	680.411
490.824	677.44
493.717	628.332
496.609	690.917
499.502	747.199
502.395	751.155
505.287	839.163
508.18	838.862
511.073	840.87
513.966	720.299
516.858	765.764
519.751	875.23
522.644	804.726
525.536	694.769
528.429	745.46
531.322	691.466
534.214	610.629
537.107	609.371
540	591.905
542.892	672.034
545.785	672.295
548.678	582.27
551.57	524.444
554.463	418.277
557.356	311.31
560.249	315.441
563.141	404.932
566.034	162.612
568.927	223.65
571.819	182.914
574.712	52.2568
577.605	38.875
580.497	22.5293
583.39	3.75684
586.283	14.1943
589.176	70.2881
592.068	9.93359
594.961	17.3701
597.854	49.8496
600.746	71.874
603.639	22.7266
606.532	5.51074
609.424	14.5254
612.317	40.541
615.21	9.3252
618.103	51.1728
620.995	118.457
623.888	170.811
626.781	108.328
629.673	227.209
632.566	166.199
635.459	170.392
638.351	221.061
641.244	168.148
644.137	230.296
647.029	319.567
649.922	402.098
652.815	574.052
655.708	636.672
658.6	636.465
661.493	694.689
664.386	789.013
667.278	955.131
670.171	1089.64
673.064	1150.11
675.956	1204.85
678.849	1258.16
681.742	1394.57
684.635	1508.52
687.527	1420.23
690.42	1426.81
693.313	1338.66
696.205	1213.99
699.098	1129.49
701.991	1011.38
704.883	850.471
707.776	787.954
710.669	646.85
713.562	620.568
716.454	476.034
719.347	482.78
722.24	458.312
725.132	334.559
728.025	341.307
730.918	297.978
733.81	246.865
736.703	201.003
739.596	206.016
742.489	196.69
745.381	225.796
748.274	200.511
751.167	92.1455
754.059	41.1055
756.952	115.201
759.845	47.2334
762.737	34.3643
765.63	69.4951
768.523	79.2578
771.416	78.7647
774.308	135.239
777.201	65.1641
780.094	93.1172
782.986	5.43848
785.879	100.872
788.772	15.3613
791.664	73.3525
794.557	57.0664
797.45	41.6484
800.343	24.7568
803.235	30.0059
806.128	1.74512
809.021	118.789
811.913	19.7061
814.806	36.6289
817.699	60.248
820.591	46.248
823.484	25.4189
826.377	51.2324
829.269	62.7285
832.162	23.25
835.055	146.92
837.948	136.762
840.84	125.93
843.733	133.971
846.626	229.194
849.518	182.635
852.411	190.879
855.304	186.222
858.196	279.754
861.089	426.394
863.982	411.215
866.875	648.854
869.767	667.363
872.66	823.377
875.553	806.361
878.445	846.687
881.338	660.45
884.231	487.684
887.123	292.276
890.016	210.368
892.909	237.768
895.802	187.439
898.694	129.544
901.587	30.2129
904.48	133.285
907.372	25.3467
910.265	48.6377
913.158	14.7373
916.05	23.4512
918.943	9.97949
921.836	42.3301
924.729	146.119
927.621	257.325
930.514	231.477
933.407	341.289
936.299	423.192
939.192	639.586
942.085	970.785
944.977	1344.19
947.87	1790.09
950.763	2004.63
953.656	1888.77
956.548	1268.44
959.441	903.009
962.334	530.223
965.226	440.841
968.119	294.488
971.012	235.782
973.904	260.687
976.797	303.893
979.69	203.679
982.583	220.697
985.475	241.595
988.368	327.454
991.261	330.201
994.153	316.731
997.046	288.958
999.939	313.384
1002.83	377.086
1005.72	488.066
1008.62	480.47
1011.51	278.054
1014.4	110.211
1017.29	36.1826
1020.19	39.1201
1023.08	6.12305
1025.97	88.2461
1028.87	31.2031
1031.76	121.923
1034.65	67.2109
1037.54	21.1338
1040.44	11.2119
1043.33	20.249
1046.22	15.8066
1049.12	2.40527
1052.01	7.3418
1054.9	49.1992
1057.79	39.793
1060.68	9.91992
1063.58	26.8281
1066.47	201.557
1069.36	19.1758
1072.26	28.8384
1075.15	23.373
1078.04	50.5015
1080.93	31.4956
1083.83	14.6812
1086.72	134.517
1089.61	79.71
1092.51	65.8071
1095.4	130.231
1098.29	160.072
1101.18	118.957
1104.08	91.6069
1106.97	149.589
1109.86	56.748
1112.75	85.1665
1115.65	94.5107
1118.54	68.4853
1121.43	72.3076
1124.33	85.3657
1127.22	108.731
1130.11	116.053
1133	118.712
1135.9	137.095
1138.79	55.8862
1141.68	32.459
1144.57	104.93
1147.47	37.6797
1150.36	28.1948
1153.25	45.1841
1156.14	32.603
1159.04	124.339
1161.93	19.042
1164.82	25.248
1167.71	69.3652
1170.61	49.3462
1173.5	8.22119
1176.39	42.6475
1179.29	100.4
1182.18	102.832
1185.07	107.905
1187.96	58.4199
1190.86	57.1216
1193.75	38.5352
1196.64	61.1709
1199.54	99.8882
1202.43	133.126
1205.32	110.529
1208.21	57.4072
1211.11	143.843
1214	50.001
1216.89	56.8105
1219.78	84.7539
1222.68	106.626
1225.57	37.8438
1228.46	16.8457
1231.36	112.526
1234.25	57.085
1237.14	122.76
1240.03	54.7036
1242.92	108.472
1245.82	161.818
1248.71	106.236
1251.6	17.9067
1254.5	102.094
1257.39	143.674
1260.28	53.8501
1263.17	105.805
1266.07	0.15918
1268.96	124.996
1271.85	145.658
1274.74	129.69
1277.64	58.543
1280.53	4.40332
1283.42	68.7119
1286.32	29.6826
1289.21	7.00781
1292.1	0
