Measurement: Raman, 532 nm, unoriented, Raman Data Processed
Mineral: Simpsonite
Rruff sample: R050629
Ideal chemistry: Al_4_Ta_3_O_13_(OH)
Locality: Equador, Rio Grande do Norte, Brazil
Source: Gemological Center
Description: Yellow fragment
Measured chemistry: Al_4.00_(Ta_2.93_Nb_0.07_)_Î£=3_O_13_(OH)
Raman shift (cm-1)	intensity
149.934	0
152.826	1.98779
155.719	94.3297
158.612	278.093
161.504	573.193
164.397	1462.37
167.29	3002.27
170.183	1153.69
173.075	381.562
175.968	231.935
178.861	118.792
181.753	85.6102
184.646	62.2108
187.539	45.4482
190.431	11.0078
193.324	36.4761
196.217	23.1483
199.109	5.76361
202.002	19.3397
204.895	67.99
207.788	127.989
210.68	237.037
213.573	338.147
216.466	351.836
219.358	547.067
222.251	761.249
225.144	514.245
228.036	399.404
230.929	454.141
233.822	591.466
236.715	911.602
239.607	1555.87
242.5	1611.01
245.393	1248.81
248.286	1293.66
251.178	1771.72
254.071	2999.78
256.964	4186.35
259.856	1627.42
262.749	680.54
265.642	206.862
268.534	189.11
271.427	207.403
274.32	273.269
277.212	417.216
280.105	746.03
282.998	1260.99
285.891	1200.4
288.783	358.049
291.676	276.128
294.569	376.46
297.461	224.041
300.354	12.943
303.247	3.86426
306.14	3.47815
309.032	23.3466
311.925	105.967
314.818	265.969
317.71	409.484
320.603	253.353
323.496	139.149
326.389	239.99
329.281	485.878
332.174	687.314
335.067	640.681
337.959	766.008
340.852	1264.8
343.745	1678.89
346.637	850.44
349.53	165.949
352.423	38.6384
355.315	95.7516
358.208	106.819
361.101	43.7814
363.994	103.897
366.886	324.007
369.779	692.386
372.672	1175.82
375.565	1840.49
378.457	2740.63
381.35	3478.53
384.243	4675.24
387.135	5331.68
390.028	4115.22
392.921	3449.79
395.813	3626.67
398.706	4044.78
401.599	4581.24
404.491	5091.15
407.384	4003.78
410.277	2571.95
413.17	2413.95
416.062	3176.38
418.955	4598.52
421.848	6145.47
424.74	6480.06
427.633	6409.29
430.526	5273.53
433.418	3853.19
436.311	2136.26
439.204	737.083
442.097	254.325
444.989	193.658
447.882	337.197
450.775	695.654
453.667	1354.74
456.56	2251.95
459.453	2556.58
462.346	1819.26
465.238	1059.44
468.131	334.444
471.024	66.6299
473.916	83.4502
476.809	107.334
479.702	37.2832
482.594	267.82
485.487	547.504
488.38	757.713
491.273	729.538
494.165	964.326
497.058	1599.48
499.951	2433.93
502.843	2824.14
505.736	2111.56
508.629	1614.3
511.522	1306.27
514.414	1104.74
517.307	1123.27
520.2	1258.69
523.092	1198.48
525.985	758.623
528.878	255.962
531.77	8.93176
534.663	88.4913
537.556	17.5266
540.448	130.128
543.341	233.004
546.234	380.246
549.127	636.418
552.019	947.694
554.912	1114.31
557.805	832.977
560.697	444.319
563.59	340.29
566.483	458.686
569.376	737.355
572.268	1114.39
575.161	1501.31
578.054	1674.47
580.946	1437.4
583.839	886.704
586.732	441.463
589.625	238.174
592.517	107.335
595.41	0.55481
598.303	31.2427
601.195	6.77954
604.088	78.2463
606.981	228.284
609.874	445.808
612.766	720.428
615.659	1021.87
618.552	1362.06
621.444	1780.51
624.337	2219.33
627.23	2505.98
630.122	2494.14
633.015	2258.35
635.908	1993.35
638.801	1694.19
641.693	1392.29
644.586	1070.61
647.479	715.839
650.371	415.205
653.264	227.828
656.157	111.627
659.049	41.6356
661.942	6.9491
664.835	5.95996
667.727	0.88562
670.62	21.3873
673.513	35.1731
676.406	58.2512
679.298	59.667
682.191	52.6659
685.084	32.9888
687.976	15.3415
690.869	9.12311
693.762	0.521301
696.654	1.1297
699.547	2.38001
702.44	1.71551
705.333	5.48431
708.225	9.42071
711.118	4.31287
714.011	9.17273
716.904	4.11902
719.796	12.6207
722.689	0.817505
725.582	2.91266
728.474	3.79669
731.367	3.11285
734.26	12.8813
737.152	16.262
740.045	24.879
742.938	35.3576
745.831	49.212
748.723	46.0241
751.616	53.7299
754.509	54.7139
757.401	43.1237
760.294	31.5289
763.187	40.9974
766.08	66.5169
768.972	116.48
771.865	175.934
774.758	235.384
777.65	239.256
780.543	178.953
783.436	90.6404
786.328	25.3851
789.221	17.4399
792.114	34.0241
795.006	24.5682
797.899	18.3303
800.792	3.62671
803.685	6.78406
806.577	14.8534
809.47	13.6031
812.363	11.1422
815.255	11.0116
818.148	15.3793
821.041	55.113
823.933	118.483
826.826	217.855
829.719	338.392
832.612	459.291
835.504	579.495
838.397	697.673
841.29	875.581
844.182	1139.23
847.075	1508.7
849.968	2028.91
852.861	2733.12
855.753	3611.12
858.646	4638.94
861.539	5732.48
864.431	6622.96
867.324	7004.15
870.217	6764.29
873.11	6049.16
876.002	5125.61
878.895	4187.18
881.788	3342.86
884.68	2643.49
887.573	2101.39
890.466	1737.29
893.358	1499.94
896.251	1396.7
899.144	1397.36
902.037	1406.87
904.929	1202.57
907.822	839.858
910.715	551.415
913.607	390.931
916.5	283.93
919.393	203.633
922.285	161.086
925.178	119.767
928.071	101.136
930.964	95.5446
933.856	111.014
936.749	131.182
939.642	156.755
942.534	177.73
945.427	134.393
948.32	83.8303
951.212	22.5199
954.105	6.88611
956.998	0.303223
959.891	18.964
962.783	23.0227
965.676	20.1973
968.569	11.6182
971.461	10.2328
974.354	8.18848
977.247	7.36377
980.139	12.0421
983.032	9.83704
985.925	11.0312
988.818	16.6669
991.71	23.1495
994.603	31.4186
997.496	29.6415
1000.39	36.6459
1003.28	43.4249
1006.17	50.3489
1009.07	52.6324
1011.96	58.9737
1014.85	64.5208
1017.75	67.1368
1020.64	61.1349
1023.53	58.038
1026.42	52.4835
1029.32	57.1608
1032.21	53.59
1035.1	56.304
1037.99	56.6858
1040.89	50.0601
1043.78	53.2532
1046.67	51.0428
1049.56	50.511
1052.46	43.5281
1055.35	42.7694
1058.24	39.2181
1061.13	36.0699
1064.03	35.678
1066.92	29.9638
1069.81	31.9629
1072.71	29.5578
1075.6	27.9072
1078.49	27.9381
1081.38	28.7791
1084.28	21.9787
1087.17	23.1432
1090.06	15.5195
1092.95	21.8189
1095.85	14.1921
1098.74	16.6241
1101.63	18.3406
1104.53	13.452
1107.42	8.71783
1110.31	5.97815
1113.2	8.04144
1116.1	6.88629
1118.99	5.27527
1121.88	4.83789
1124.78	4.16467
1127.67	1.84418
1130.56	2.87482
1133.45	0.782471
1136.35	6.00678
1139.24	1.8429
1142.13	2.16602
1145.02	1.59326
1147.92	1.21521
1150.81	2.30725
1153.7	3.27985
1156.59	1.00659
1159.49	7.30103
1162.38	3.61572
1165.27	5.24353
1168.16	5.80865
1171.06	5.40167
1173.95	7.37653
1176.84	4.98132
1179.74	7.45795
1182.63	9.95007
1185.52	11.9589
1188.41	10.1452
1191.31	10.7955
1194.2	12.8072
1197.09	0.191284
1199.98	6.37524
1202.88	8.26538
1205.77	5.24023
1208.66	1.32532
1211.56	0.191833
1214.45	2.90942
1217.34	0.8396
1220.23	2.43451
1223.13	1.63934
1226.02	1.12622
1228.91	1.75751
1231.81	3.7085
1234.7	7.16894
1237.59	7.20911
1240.48	3.55231
1243.38	4.20019
1246.27	4.63495
1249.16	5.24854
1252.05	7.80914
1254.95	7.84638
1257.84	7.70166
1260.73	2.77869
1263.62	7.07404
1266.52	5.38593
1269.41	5.49646
1272.3	6.78967
1275.19	5.01965
1278.09	6.02777
1280.98	3.26312
1283.87	5.77142
1286.77	6.78925
1289.66	3.92383
1292.55	2.20129
1295.44	3.64667
1298.34	1.19311
1301.23	2.2926
