Measurement: Raman, 780 nm, unoriented, Raman Data Processed
Mineral: Simpsonite
Rruff sample: R050629
Ideal chemistry: Al_4_Ta_3_O_13_(OH)
Locality: Equador, Rio Grande do Norte, Brazil
Source: Gemological Center
Description: Yellow fragment
Measured chemistry: Al_4.00_(Ta_2.93_Nb_0.07_)_Î£=3_O_13_(OH)
Raman shift (cm-1)	intensity
149.919	0
152.812	0.915482
155.705	14.5817
158.597	32.851
161.49	68.3323
164.383	155.306
167.276	178.082
170.168	56.451
173.061	29.1107
175.954	16.3521
178.846	8.05727
181.739	3.1831
184.632	1.10644
187.524	2.88564
190.417	5.15337
193.31	0.1856
196.203	3.72321
199.095	9.54437
201.988	14.9498
204.881	29.641
207.773	45.4021
210.666	73.9902
213.559	63.0324
216.451	46.3922
219.344	66.2604
222.237	63.8985
225.13	39.3265
228.022	37.9841
230.915	53.3807
233.808	90.7139
236.7	179.017
239.593	236.923
242.486	230.746
245.378	255.036
248.271	317.241
251.164	454.7
254.056	696.824
256.949	518.985
259.842	134.01
262.735	39.9605
265.627	19.6784
268.52	14.3322
271.413	18.3138
274.305	32.9898
277.198	54.4508
280.091	100.139
282.983	146.957
285.876	55.0272
288.769	1.21857
291.662	3.44525
294.554	6.31866
297.447	20.7628
300.34	41.3527
303.232	55.8807
306.125	76.4383
309.018	115.741
311.911	175.551
314.803	249.034
317.696	233.036
320.589	105.598
323.481	54.4939
326.374	49.3474
329.267	58.48
332.159	50.6546
335.052	18.7236
337.945	18.5612
340.837	32.29
343.73	29.5448
346.623	3.82647
349.516	4.32787
352.408	6.54601
355.301	5.28555
358.194	2.31461
361.086	22.7734
363.979	46.9999
366.872	86.2808
369.764	126.526
372.657	169.917
375.55	240.585
378.442	300.528
381.335	349.721
384.228	435.75
387.121	403.196
390.013	303.32
392.906	259.784
395.799	283.233
398.691	337.25
401.584	424.211
404.477	416.31
407.37	303.064
410.262	246.304
413.155	284.033
416.048	389.67
418.94	513.173
421.833	498.447
424.726	353.744
427.618	294.616
430.511	254.955
433.404	195.942
436.296	78.2642
439.189	9.38939
442.082	9.90508
444.975	5.93216
447.867	9.28558
450.76	32.9547
453.653	85.2891
456.545	137.26
459.438	156.738
462.331	145.71
465.224	83.154
468.116	36.5738
471.009	17.2442
473.902	0.071014
476.794	0.860138
479.687	15.5407
482.58	34.2705
485.472	58.1845
488.365	71.4672
491.258	84.0837
494.151	129.083
497.043	206.519
499.936	293.279
502.829	279.329
505.721	187.793
508.614	114.307
511.507	65.9389
514.399	39.5833
517.292	34.6885
520.185	39.3172
523.077	31.8756
525.97	10.5238
528.863	2.7412
531.756	1.09235
534.648	17.5301
537.541	41.1242
540.434	45.8105
543.326	37.2517
546.219	47.6688
549.112	69.9008
552.004	98.0181
554.897	102.83
557.79	77.0237
560.683	64.5594
563.575	76.1161
566.468	106.816
569.361	154.54
572.253	209.947
575.146	248.551
578.039	233.118
580.931	162.497
583.824	83.3156
586.717	34.227
589.61	7.56247
592.502	2.02664
595.395	7.45747
598.288	5.47061
601.18	3.50753
604.073	20.4341
606.966	45.3091
609.858	80.6469
612.751	128.381
615.644	181.457
618.537	245.668
621.429	320.257
624.322	397.745
627.215	456.883
630.107	472.465
633	437.229
635.893	354.919
638.785	260.312
641.678	184.963
644.571	123.483
647.463	77.6206
650.356	45.9641
653.249	25.7363
656.141	15.4598
659.034	10.327
661.927	9.87164
664.82	14.7113
667.712	20.7786
670.605	28.4503
673.498	36.2541
676.39	40.7135
679.283	34.5826
682.176	24.9589
685.068	15.2938
687.961	7.83294
690.854	5.53392
693.747	2.47193
696.639	2.03611
699.532	0.833023
702.425	0.202713
705.317	1.26561
708.21	0.445126
711.103	1.25758
713.995	0.443703
716.888	0.494801
719.781	1.02043
722.674	2.15217
725.566	0.47644
728.459	0.737438
731.352	6.31819
734.244	8.70281
737.137	9.20839
740.03	14.2672
742.923	16.7173
745.815	18.9744
748.708	21.1085
751.601	23.7898
754.493	22.6633
757.386	16.6145
760.279	9.87145
763.171	7.30932
766.064	6.41557
768.957	7.72515
771.85	10.8939
774.742	8.95465
777.635	6.9527
780.528	3.93831
783.42	1.07922
786.313	2.45515
789.206	4.00465
792.098	2.39112
794.991	2.81493
797.884	1.02763
800.776	2.64858
803.669	2.0398
806.562	2.55539
809.455	4.60586
812.347	3.76722
815.24	5.30803
818.133	8.77237
821.025	12.711
823.918	21.8687
826.811	29.9262
829.703	40.8053
832.596	52.8885
835.489	67.0221
838.381	75.8028
841.274	97.9187
844.167	124.3
847.06	162.603
849.952	216.841
852.845	290.448
855.738	369.29
858.63	462.282
861.523	542.531
864.416	598.82
867.308	601.558
870.201	555.203
873.094	484.863
875.987	406.528
878.879	326.204
881.772	256.655
884.665	206.093
887.557	168.632
890.45	141.262
893.343	126.235
896.236	125.54
899.128	130.631
902.021	131.733
904.914	100.215
907.806	67.9076
910.699	41.5258
913.592	28.485
916.484	20.4734
919.377	15.9046
922.27	12.7519
925.163	12.8336
928.055	14.1663
930.948	19.0068
933.841	23.7898
936.733	29.3274
939.626	33.5729
942.519	35.9047
945.411	26.9138
948.304	13.1098
951.197	6.01736
954.09	1.92883
956.982	3.68075
959.875	3.16618
962.768	2.86133
965.66	2.94834
968.553	0.470242
971.446	1.29503
974.338	0.429611
977.231	0.266781
980.124	1.05654
983.016	0.151581
985.909	1.31235
988.802	1.41204
991.694	2.79137
994.587	2.22903
997.48	5.60688
1000.37	5.9576
1003.26	6.08469
1006.16	5.94116
1009.05	6.77174
1011.94	6.85595
1014.84	9.40831
1017.73	9.23886
1020.62	8.03942
1023.51	6.1225
1026.41	8.22261
1029.3	6.09539
1032.19	6.38421
1035.09	5.96108
1037.98	8.08822
1040.87	6.8249
1043.76	7.0121
1046.66	6.43447
1049.55	5.37192
1052.44	5.22696
1055.33	5.1938
1058.23	3.92542
1061.12	4.22171
1064.01	4.36293
1066.9	4.76741
1069.8	3.51537
1072.69	3.09637
1075.58	2.87636
1078.47	2.51403
1081.37	2.21361
1084.26	2.95628
1087.15	2.77526
1090.05	2.55524
1092.94	1.44507
1095.83	1.72119
1098.72	2.45169
1101.62	1.18583
1104.51	0.106216
1107.4	2.62043
1110.3	1.36578
1113.19	1.46309
1116.08	1.97918
1118.97	1.85487
1121.87	1.14944
1124.76	2.27195
1127.65	0.252558
1130.54	1.21473
1133.44	0.351618
1136.33	1.15231
1139.22	0.418623
1142.12	0.83637
1145.01	0.518396
1147.9	1.18094
1150.79	0.094524
1153.69	0.946964
1156.58	1.2473
1159.47	0.466688
1162.36	0.507528
1165.26	2.22698
1168.15	0.992149
1171.04	1.77771
1173.93	1.18738
1176.83	1.76481
1179.72	0.555069
1182.61	1.2905
1185.51	2.10969
1188.4	2.82736
1191.29	1.15343
1194.18	0.822283
1197.08	1.46496
1199.97	2.1484
1202.86	2.17727
1205.75	0.094013
1208.65	2.05451
1211.54	1.36451
1214.43	0.008308
1217.33	0.179352
1220.22	1.98377
1223.11	0.557644
1226	1.06991
1228.9	1.56356
1231.79	1.59661
1234.68	1.55427
1237.57	2.05922
1240.47	1.24046
1243.36	1.3118
1246.25	0.290529
1249.14	2.43724
1252.04	1.59022
1254.93	1.52792
1257.82	1.33397
1260.71	0.514282
1263.61	0.117567
1266.5	2.03327
1269.39	0.332819
1272.29	0.625271
1275.18	0.768467
1278.07	0.011284
1280.96	2.05893
1283.86	0.964348
