Measurement: Raman, 785 nm, unoriented, Raman Data Processed
Mineral: Simplotite
Rruff sample: R060712
Ideal chemistry: CaV^4+^_4_O_9_5H_2_O
Locality: Uravan Mineral Belt, Colorado, USA
Source: Bob Jenkins
Description: Radial aggregate of dark green micaceous crystals
Raman shift (cm-1)	intensity
152.383	0
155.276	152.039
158.168	337.066
161.061	650.279
163.954	625.289
166.846	706.141
169.739	641.955
172.632	383.455
175.525	157.844
178.417	41.21
181.31	38.3384
184.203	31.2988
187.095	44.8975
189.988	53.1084
192.881	67.1807
195.773	32.5801
198.666	112.606
201.559	97.8633
204.452	153.065
207.344	86.7324
210.237	153.166
213.13	239.954
216.022	364.675
218.915	491.741
221.808	670.855
224.7	773.333
227.593	1000.5
230.486	1312.08
233.378	1742.11
236.271	2111.94
239.164	2534.56
242.057	2633.42
244.949	2636.12
247.842	2432.35
250.735	2316.87
253.627	2079.78
256.52	1829.13
259.413	1588.29
262.306	1414.18
265.198	1217.34
268.091	1139.65
270.984	993.379
273.876	831.788
276.769	762.572
279.662	760.619
282.554	661.885
285.447	661.586
288.34	530.432
291.233	478.38
294.125	363.101
297.018	347.502
299.911	404.725
302.803	553.883
305.696	578.725
308.589	540.064
311.481	485.523
314.374	475.399
317.267	393.408
320.159	444.821
323.052	473.758
325.945	494.871
328.838	406.863
331.73	367.646
334.623	224.807
337.516	121.922
340.408	4.22168
343.301	20.6104
346.194	4.80176
349.086	44.209
351.979	36.3926
354.872	32.0059
357.765	42.4756
360.657	45.4111
363.55	56.5478
366.443	25.626
369.335	38.1504
372.228	116.342
375.121	149.666
378.013	94.3389
380.906	80.2109
383.799	44.5713
386.692	99.9062
389.584	50.0156
392.477	148.214
395.37	236.957
398.263	271.005
401.155	259.324
404.048	310.391
406.941	292.755
409.833	370.856
412.726	454.938
415.619	627.553
418.511	647.251
421.404	782.938
424.297	856.356
427.19	761.102
430.082	681.775
432.975	460.819
435.868	429.858
438.76	339.262
441.653	252.499
444.546	287.525
447.438	285.528
450.331	158.674
453.224	150.648
456.116	91.9639
459.009	73.0254
461.902	110.211
464.795	174.522
467.687	179.085
470.58	58.7822
473.473	110.475
476.365	83.6035
479.258	62.9883
482.151	52.1709
485.043	46.2275
487.936	91.3066
490.829	51.584
493.722	93.585
496.614	72.5772
499.507	30.6602
502.4	88.8926
505.292	36.0039
508.185	52.1768
511.078	5.43555
513.971	34.6191
516.863	48.4863
519.756	90.3984
522.649	145.618
525.541	110.708
528.434	84.6514
531.327	151.351
534.219	190.817
537.112	205.942
540.005	251.924
542.898	196.218
545.79	238.917
548.683	147.911
551.576	149.499
554.468	221.069
557.361	176.506
560.254	132.393
563.146	154.385
566.039	84.7559
568.932	56.5859
571.825	71.8828
574.717	26.5981
577.61	17.1738
580.503	40.374
583.395	31.7285
586.288	57.0024
589.181	30.6079
592.073	4.18994
594.966	52.8403
597.859	3.21289
600.752	35.5264
603.644	57.9722
606.537	46.1133
609.43	14.6777
612.322	67.0151
615.215	41.7393
618.108	13.4492
621	96.6924
623.893	7.23731
626.786	45.5435
629.679	34.8467
632.571	41.9551
635.464	96.1201
638.357	45.9258
641.249	55.0781
644.142	101.197
647.035	143.458
649.927	129.203
652.82	128.278
655.713	170.398
658.606	146.04
661.498	191.285
664.391	201.792
667.284	219.499
670.176	268.639
673.069	328.452
675.962	357.036
678.854	383.648
681.747	358.028
684.64	365.595
687.532	386.343
690.425	419.635
693.318	416.335
696.211	434.563
699.103	428.493
701.996	360.755
704.889	328.336
707.781	229.096
710.674	270.296
713.567	252.735
716.459	196.753
719.352	141.712
722.245	98.2686
725.138	177.135
728.03	111.766
730.923	93.2544
733.816	75.7524
736.708	35.9546
739.601	84.6738
742.494	98.9888
745.386	5.62988
748.279	102.829
751.172	3.72168
754.065	88.1191
756.957	20.4653
759.85	22.5815
762.743	15.9829
765.635	70.0684
768.528	64.6118
771.421	91.1611
774.313	2.46338
777.206	14.5166
780.099	59.3149
782.992	67.6436
785.884	57.3965
788.777	94.4902
791.67	31.2236
794.562	18.5938
797.455	12.0454
800.348	45.1416
803.24	12.7983
806.133	81.8506
809.026	49.6152
811.919	33.478
814.811	30.9883
817.704	51.3667
820.597	66.2383
823.489	12.5386
826.382	57.9243
829.275	6.99365
832.167	69.605
835.06	53.0347
837.953	25.5151
840.846	45.2368
843.738	7.00879
846.631	47.8657
849.524	92.4561
852.416	44.8227
855.309	106.967
858.202	76.8657
861.094	83.1558
863.987	127.064
866.88	179.173
869.773	163.698
872.665	223.08
875.558	205.488
878.451	224.102
881.343	191.663
884.236	124.296
887.129	42.8027
890.021	23.4785
892.914	11.6006
895.807	31.5967
898.7	16.8608
901.592	15.5078
904.485	77.1787
907.378	25.3896
910.27	55.0884
913.163	16.977
916.056	8.89551
918.949	16.6465
921.841	24.6958
924.734	25.2485
927.627	68.4224
930.519	57.2568
933.412	136.095
936.305	180.543
939.198	176.322
942.09	303.384
944.983	428.14
947.876	559.79
950.768	672.949
953.661	633.457
956.554	354.673
959.446	255.98
962.339	190.101
965.232	123.665
968.125	153.527
971.017	150.583
973.91	80.1997
976.803	76.7993
979.695	85.2344
982.588	107.669
985.481	32.1284
988.373	20.8774
991.266	38.8184
994.159	55.5215
997.052	92.2666
999.944	148.978
1002.84	215.63
1005.73	194.832
1008.62	229.387
1011.51	149.925
1014.41	69.9253
1017.3	29.4663
1020.19	61.7993
1023.09	29.7217
1025.98	13.5562
1028.87	62.2817
1031.76	46.9678
1034.66	72.2524
1037.55	32.5478
1040.44	33.5107
1043.34	18.0332
1046.23	31.9004
1049.12	2.35693
1052.01	27.1279
1054.91	0.169922
1057.8	71.2446
1060.69	54.1885
1063.58	35.5859
1066.48	64.3569
1069.37	63.4375
1072.26	32.0278
1075.15	34.9253
1078.05	143.957
1080.94	127.995
1083.83	29.644
1086.72	43.2695
1089.62	116.942
1092.51	102.315
1095.4	133.376
1098.3	61.9917
1101.19	113.879
1104.08	76.1602
1106.97	67.811
1109.87	76.0732
1112.76	32.5503
1115.65	87.3989
1118.55	98.168
1121.44	44.7925
1124.33	128.386
1127.22	22.7373
1130.12	13.6372
1133.01	44.9492
1135.9	40.689
1138.79	63.2817
1141.69	56.8247
1144.58	62.2407
1147.47	74.3574
1150.37	58.6025
1153.26	78.7886
1156.15	53.5596
1159.04	53.1352
1161.93	51.1621
1164.83	123.454
1167.72	67.9937
1170.61	72.1987
1173.51	66.4868
1176.4	55.5469
1179.29	58.0176
1182.18	16.2602
1185.08	12.8721
1187.97	22.7466
1190.86	39.3857
1193.76	52.0903
1196.65	80.2602
1199.54	82.8789
1202.43	42.584
1205.33	31.1929
1208.22	41.1963
1211.11	33.146
1214	81.2905
1216.9	98.3521
1219.79	103.082
1222.68	72.1826
1225.58	129.63
1228.47	83.0547
1231.36	76.3267
1234.25	12.8325
1237.15	94.8193
1240.04	72.7563
1242.93	122.35
1245.82	60.3023
1248.72	87.6299
1251.61	13.521
1254.5	45.9121
1257.39	64.4434
1260.29	47.5523
1263.18	70.6953
1266.07	0
