Measurement: Raman, 532 nm, unoriented, Raman Data Processed
Mineral: Simpsonite
Rruff sample: R061059
Ideal chemistry: Al_4_Ta_3_O_13_(OH)
Locality: Mt. Vasin-Myl'k, Voron'ya Tundra, Russia
Source: Michael Scott
Description: Subhedral off-white to pale yellowish gray crystal associated with spodumene, feldspar and quartz
Raman shift (cm-1)	intensity
121.04	0
124.415	108.886
127.79	326.346
131.165	2554.45
134.539	7751.3
137.914	14413.7
141.289	23597.8
144.664	16488.8
148.039	5979.82
151.413	3433.82
154.788	2944.63
158.163	4596.32
161.538	6987.29
164.913	10305.6
168.287	8970.26
171.662	3321.01
175.037	1771.12
178.412	1033.58
181.787	732.386
185.162	441.954
188.536	125.819
191.911	211.57
195.286	225.891
198.661	212.61
202.036	32.1616
205.411	323.366
208.785	599.84
212.16	1212.93
215.535	1531.31
218.91	2217.81
222.285	2515.88
225.659	1800.86
229.034	1601.71
232.409	1383.56
235.784	1245.33
239.159	1447.17
242.534	2556.13
245.908	5562.19
249.283	8876.65
252.658	12999.2
256.033	14706
259.408	4807.42
262.782	1281.32
266.157	292.741
269.532	318.765
272.907	1613.1
276.282	3357.92
279.657	5267.12
283.031	7147.02
286.406	1976.95
289.781	367.35
293.156	165.587
296.531	300.202
299.906	689.247
303.28	402.84
306.655	195.662
310.03	142.81
313.405	359.397
316.779	706.273
320.154	435.416
323.529	597.276
326.904	1299.81
330.279	2088.43
333.654	864.944
337.029	685.674
340.403	1623.07
343.778	2230.94
347.153	2211.26
350.528	906.842
353.903	81.4043
357.277	244.534
360.652	205.34
364.027	1302.79
367.402	2541.22
370.777	4021.65
374.151	6842.53
377.526	9623.22
380.901	13357.9
384.276	17566
387.651	17329.1
391.026	13892.6
394.4	13306.9
397.775	15251.9
401.15	18044
404.525	16764.5
407.9	11210.6
411.274	9772.33
414.649	11668.5
418.024	15050.3
421.399	17130.3
424.774	15355.2
428.149	15576.7
431.523	16200.5
434.898	10756.4
438.273	3691.66
441.648	258.619
445.023	601.26
448.397	8.57227
451.772	2164.2
455.147	5129.51
458.522	8289.54
461.897	7816.85
465.272	3821.38
468.646	1925.4
472.021	1061.3
475.396	500.115
478.771	175.525
482.146	297.742
485.521	723.74
488.895	835.717
492.27	1297.23
495.645	2278.85
499.02	3420.22
502.395	4131.78
505.769	3218.96
509.144	2298.81
512.519	2727.27
515.894	4083.03
519.269	5546.44
522.644	5396.56
526.018	3075.35
529.393	883.106
532.768	48.4434
536.143	47.7168
539.518	526.781
542.892	1111.99
546.267	1508.99
549.642	1674.12
553.017	1630.29
556.392	1081.81
559.766	640.931
563.141	1255.23
566.516	2661.3
569.891	4480.67
573.266	5659.85
576.641	5412.76
580.015	3813.83
583.39	1914.98
586.765	561.752
590.14	24.5439
593.515	243.758
596.889	117.547
600.264	362.69
603.639	1116.6
607.014	2289.22
610.389	3940.17
613.764	5924.94
617.138	8273.68
620.513	10572.8
623.888	12615.1
627.263	12928.1
630.638	11646
634.013	9991.71
637.387	8458.33
640.762	6844.49
644.137	5218.95
647.512	3549.31
650.887	2190.29
654.261	1246.03
657.636	681.229
661.011	379.362
664.386	211.708
667.761	182.143
671.135	321.894
674.51	314.606
677.885	385.71
681.26	326.477
684.635	206.523
688.01	107.794
691.385	23.9736
694.759	11.0185
698.134	80.6074
701.509	35.4639
704.884	17.375
708.259	39.1885
711.633	29.4346
715.008	3.95801
718.383	282.633
721.758	126.258
725.133	55.5889
728.507	115.58
731.882	216.974
735.257	274.305
738.632	486.041
742.007	636.159
745.381	761.385
748.756	914.412
752.131	427.693
755.506	614.286
758.881	513.216
762.256	387.182
765.63	433.361
769.005	740.8
772.38	920.493
775.755	949.202
779.13	745.219
782.505	294.384
785.879	108.593
789.254	213.341
792.629	164.08
796.004	187.548
799.379	61.9912
802.754	181.922
806.128	179.885
809.503	385.15
812.878	831.255
816.253	899.769
819.628	663.181
823.002	1045.15
826.377	1474.3
829.752	1891.06
833.127	2493.02
836.502	3524.18
839.876	4664.09
843.251	6143.96
846.626	8332.06
850.001	11079
853.376	14978
856.75	19671.5
860.125	24736.9
863.5	28630.2
866.875	29864.8
870.25	27825.9
873.625	23706.5
877	19145
880.374	14679.4
883.749	11052
887.124	8512.75
890.499	6683.93
893.874	5824.36
897.248	5491.05
900.623	5234.74
903.998	4663.75
907.373	3612.16
910.748	2668.96
914.122	2276.39
917.497	2184.47
920.872	2202.6
924.247	1994.73
927.622	1617.82
930.997	1253.94
934.371	982.211
937.746	640.615
941.121	535.122
944.496	269.344
947.871	73.2402
951.245	50.0195
954.62	37.3506
957.995	167.804
961.37	174.875
964.745	175.585
968.12	19.7959
971.494	109.09
974.869	0.733398
978.244	1.67578
981.619	85.8018
984.994	70.2832
988.369	107.58
991.743	185.642
995.118	169.339
998.493	225.034
1001.87	412.72
1005.24	292.151
1008.62	342.029
1011.99	399.228
1015.37	405.672
1018.74	375.147
1022.12	462.685
1025.49	402.783
1028.87	395.942
1032.24	331.058
1035.62	440.732
1038.99	440.237
1042.37	371.01
1045.74	323.579
1049.12	328.155
1052.49	287.071
1055.87	304.792
1059.24	365.421
1062.62	197.86
1065.99	145.627
1069.36	162.06
1072.74	135.98
1076.11	98.915
1079.49	43.3115
1082.86	126.781
1086.24	178.065
1089.61	54.166
1092.99	178.764
1096.36	272.3
1099.74	137.762
1103.11	139.106
1106.49	144.822
1109.86	157.425
1113.24	130.811
1116.61	175.663
1119.99	87.6592
1123.36	51.7422
1126.74	10.6895
1130.11	77.1709
1133.49	102.31
1136.86	46.1338
1140.23	146.42
1143.61	50.2803
1146.98	14.4639
1150.36	58.4541
1153.73	84.4121
1157.11	76.6191
1160.48	94.8945
1163.86	15.8105
1167.23	102.445
1170.61	138.073
1173.98	107.947
1177.36	123.019
1180.73	80.3359
1184.11	90.1748
1187.48	106.115
1190.86	53.958
1194.23	51.8613
1197.61	39.4482
1200.98	1.78418
1204.36	90.5615
1207.73	87.8457
1211.11	19.2529
1214.48	62.5703
1217.86	38.0156
1221.23	64.4287
1224.61	25.0752
1227.98	140.328
1231.36	71.0752
1234.73	96.0469
1238.11	95.6289
1241.48	187.575
1244.86	119.488
1248.23	79.0498
1251.6	49.1973
1254.98	185.227
1258.35	151.74
1261.73	6.97461
1265.1	80.9033
1268.48	81.7773
1271.85	142.84
1275.23	137.374
1278.6	228.971
1281.98	151.96
1285.35	139.35
1288.73	157.87
1292.1	54.4648
1295.48	26.7324
