Measurement: Raman, 785 nm, unoriented, Raman Data Processed
Mineral: Simpsonite
Rruff sample: R061059
Ideal chemistry: Al_4_Ta_3_O_13_(OH)
Locality: Mt. Vasin-Myl'k, Voron'ya Tundra, Russia
Source: Michael Scott
Description: Subhedral off-white to pale yellowish gray crystal associated with spodumene, feldspar and quartz
Raman shift (cm-1)	intensity
110.922	0
114.296	24.6635
117.671	1.96606
121.046	2.62315
124.421	31.0537
127.796	66.1816
131.171	132.912
134.545	289.445
137.92	671.656
141.295	1462.89
144.67	1242.7
148.045	647.252
151.419	452.053
154.794	358.62
158.169	412.935
161.544	655.427
164.919	1157.96
168.293	1037.32
171.668	431.789
175.043	249.999
178.418	163.941
181.793	106.011
185.167	91.9708
188.542	49.0465
191.917	6.78711
195.292	12.7068
198.667	10.7422
202.042	11.2797
205.416	7.32846
208.791	44.2574
212.166	74.1352
215.541	109.297
218.916	187.783
222.291	215.967
225.665	134.214
229.04	154.598
232.415	160.007
235.79	181.747
239.165	171.528
242.539	210.62
245.914	370.421
249.289	794.201
252.664	1491.34
256.039	1782.45
259.413	599.214
262.788	177.282
266.163	40.9624
269.538	35.9648
272.913	96.1946
276.288	324.099
279.662	680.829
283.037	904.449
286.412	258.025
289.787	45.9098
293.162	34.9087
296.536	30.0196
299.911	25.5517
303.286	3.0036
306.661	41.3109
310.036	9.02783
313.411	76.5518
316.785	128.163
320.16	36.7096
323.535	65.1373
326.91	191.762
330.285	294.646
333.659	163.061
337.034	110.169
340.409	236.502
343.784	323.757
347.159	229.891
350.534	102.34
353.908	6.37109
357.283	14.1325
360.658	33.798
364.033	128.035
367.408	210.441
370.782	278.74
374.157	441.448
377.532	751.564
380.907	1194.85
384.282	1711.63
387.656	1710.97
391.031	1277.75
394.406	1146.67
397.781	1380.1
401.156	1674.69
404.531	1567.75
407.905	963.657
411.28	686.63
414.655	881.489
418.03	1371.01
421.405	1633.54
424.779	1590.06
428.154	1792.19
431.529	1981.37
434.904	1407.17
438.279	541.754
441.654	119.59
445.028	53.1995
448.403	64.0354
451.778	77.9911
455.153	409.497
458.528	772.903
461.902	785.842
465.277	403.465
468.652	189.095
472.027	88.821
475.402	37.8704
478.777	43.8329
482.151	39.1406
485.526	106.248
488.901	114.895
492.276	233.159
495.651	426.418
499.026	640.783
502.4	665.965
505.775	428.787
509.15	242.826
512.525	260.202
515.899	456.203
519.274	652.303
522.649	671.847
526.024	404.085
529.399	144.114
532.774	29.394
536.148	9.79102
539.523	49.9206
542.898	68.8709
546.273	119.287
549.648	167.731
553.023	185.192
556.397	93.4244
559.772	5.81549
563.147	6.92908
566.522	118.738
569.897	289.451
573.271	436.151
576.646	460.307
580.021	381.032
583.396	215.178
586.771	97.4655
590.145	9.89807
593.52	9.5553
596.895	17.2118
600.27	3.0351
603.645	39.9324
607.02	132.811
610.394	245.711
613.769	395.679
617.144	617.992
620.519	824.817
623.894	1054.57
627.269	1161.29
630.643	1092.87
634.018	916.029
637.393	811.724
640.768	674.886
644.143	493
647.517	363.067
650.892	222.749
654.267	129.848
657.642	87.1659
661.017	45.3328
664.391	34.2935
667.766	30.4387
671.141	35.7013
674.516	40.9428
677.891	39.2478
681.266	39.3713
684.64	20.632
688.015	5.0596
691.39	14.6653
694.765	11.2466
698.14	20.9183
701.514	9.65826
704.889	2.89966
708.264	1.73972
711.639	2.28885
715.014	1.63678
718.389	6.88458
721.763	4.18002
725.138	0.342377
728.513	8.45517
731.888	21.613
735.263	32.507
738.638	27.3618
742.012	50.9769
745.387	41.6384
748.762	73.4089
752.137	83.6341
755.511	69.5641
758.886	60.1675
762.261	45.7456
765.636	39.7287
769.011	80.2895
772.386	113.846
775.76	108.887
779.135	117.829
782.51	77.5915
785.885	42.6249
789.26	14.9264
792.635	3.02689
796.009	3.26657
799.384	16.6962
802.759	0.33136
806.134	10.5077
809.509	19.3804
812.883	14.7235
816.258	14.0019
819.633	4.49655
823.008	9.98779
826.383	23.0032
829.757	46.9834
833.132	96.9044
836.507	143.938
839.882	196.911
843.257	280.888
846.631	389.663
850.006	570.833
853.381	787.518
856.756	1084.94
860.131	1447.75
863.506	1749.56
866.88	1904.46
870.255	1802.54
873.63	1567.87
877.005	1272.17
880.38	975.787
883.755	725.138
887.129	566.05
890.504	452.473
893.879	401.74
897.254	374.028
900.629	420.686
904.003	399.717
907.378	267.329
910.753	184.233
914.128	110.685
917.503	92.347
920.878	99.7687
924.252	78.3521
927.627	83.1541
931.002	80.5279
934.377	62.2435
937.752	67.7823
941.126	49.0674
944.501	47.9778
947.876	10.323
951.251	7.17438
954.626	14.0685
958	3.31458
961.375	1.55939
964.75	0.174561
968.125	5.8718
971.5	20.0339
974.875	0.703613
978.249	0.72757
981.624	9.71277
984.999	4.6037
988.374	15.8723
991.749	1.34206
995.124	15.9802
998.498	16.395
1001.87	27.9706
1005.25	20.4515
1008.62	23.0082
1012	40.2193
1015.37	15.5141
1018.75	32.3913
1022.12	25.9637
1025.5	20.7155
1028.87	32.9208
1032.25	22.1169
1035.62	26.6618
1039	17.765
1042.37	42.5026
1045.75	30.726
1049.12	20.0935
1052.49	13.4433
1055.87	21.5239
1059.24	2.6169
1062.62	21.0185
1065.99	19.8092
1069.37	18.2834
1072.74	7.04332
1076.12	8.511
1079.49	15.5342
1082.87	10.236
1086.24	21.0233
1089.62	18.1569
1092.99	15.6209
1096.37	12.9047
1099.74	20.1333
1103.12	4.39505
1106.49	12.25
1109.87	10.6686
1113.24	17.5282
1116.62	10.5154
1119.99	12.6625
1123.37	12.7225
1126.74	4.15408
1130.12	12.0765
1133.49	8.15773
1136.87	6.37277
1140.24	4.83873
1143.62	17.5921
1146.99	9.78883
1150.37	18.7659
1153.74	6.31545
1157.12	23.1266
1160.49	9.29877
1163.86	14.9595
1167.24	25.3976
1170.61	7.65416
1173.99	10.2841
1177.36	5.35014
1180.74	1.22206
1184.11	16.5162
1187.49	22.4457
1190.86	16.7584
1194.24	12.9984
1197.61	8.66899
1200.99	14.2276
1204.36	1.41518
1207.74	13.6011
1211.11	1.76454
1214.49	15.7593
1217.86	1.67227
1221.24	0.916122
1224.61	12.2788
1227.99	13.023
1231.36	15.3083
1234.73	8.41679
1238.11	14.0951
1241.48	18.5996
1244.86	13.0545
1248.23	19.5703
1251.61	15.5407
1254.98	9.30409
1258.36	16.925
1261.73	16.5987
1265.11	9.28415
1268.48	4.56082
1271.86	0
