Measurement: Raman, 532 nm, unoriented, Raman Data Processed
Mineral: Sincosite
Rruff sample: R060523
Ideal chemistry: Ca(V^4+^O)_2_(PO_4_)_2_5H_2_O
Locality: Ross Hannibal mine, Lawrence County, South Dakota, USA
Source: Michael Scott
Description: Green thin tabular square to rectangular crystals
Raman shift (cm-1)	intensity
151.895	0
154.788	149.715
157.68	8.058
160.573	77.867
163.466	166.353
166.359	324.677
169.251	523.304
172.144	863.924
175.037	1219.88
177.929	1759.89
180.822	1901.57
183.715	1309.98
186.607	737.367
189.5	230.103
192.393	139.089
195.286	205.31
198.178	472.788
201.071	812.518
203.964	998.664
206.857	1024.37
209.749	698.088
212.642	384.226
215.535	225.302
218.427	152.22
221.32	356.817
224.213	534.35
227.105	794.045
229.998	947.579
232.891	1143.24
235.783	1285.45
238.676	1401.52
241.569	1598.41
244.462	2150.87
247.354	3075.93
250.247	4225.33
253.14	5183.62
256.032	5500.47
258.925	5150.71
261.818	4300.59
264.711	3202.74
267.603	2332.05
270.496	2060.45
273.389	1914.42
276.281	1982.06
279.174	2101.65
282.067	2069.05
284.959	1756.96
287.852	1352.64
290.745	1014.26
293.638	883.682
296.53	817.194
299.423	640.778
302.316	632.375
305.208	612.726
308.101	610.706
310.994	537.063
313.886	408.907
316.779	284.9
319.672	65.577
322.565	30.614
325.457	80.647
328.35	57.304
331.243	115.469
334.135	38.735
337.028	3.243
339.921	5.609
342.813	10.391
345.706	38.175
348.599	71.291
351.491	163.676
354.384	202.931
357.277	176.51
360.17	169.351
363.062	121.792
365.955	85.515
368.848	94.398
371.741	135.582
374.633	170.654
377.526	304.649
380.419	523.346
383.311	681.508
386.204	880.911
389.097	1613.12
391.989	1690.07
394.882	1884.69
397.775	1984.29
400.668	2003.88
403.56	1731.19
406.453	1538.18
409.346	1268.15
412.238	1224.77
415.131	1219.49
418.024	1225.06
420.916	1256.61
423.809	1371.62
426.702	1429.86
429.595	1045.87
432.487	623.492
435.38	390.233
438.273	215.583
441.165	192.349
444.058	182.652
446.951	142.862
449.843	189.654
452.736	114.64
455.629	166.784
458.522	246.35
461.414	102.309
464.307	126.058
467.2	130.201
470.092	119.642
472.985	108.341
475.878	10.911
478.77	44.372
481.663	49.847
484.556	2.289
487.448	8.749
490.341	8.495
493.234	13.194
496.127	36.601
499.019	59.751
501.912	127.731
504.805	209.608
507.698	332.176
510.59	319.229
513.483	244.851
516.375	239.675
519.268	204.098
522.161	210.032
525.054	287.778
527.946	333.4
530.839	381.468
533.732	485.662
536.625	621.368
539.517	887.164
542.41	1143.85
545.303	1303.92
548.195	1488.83
551.088	1450.06
553.981	1527.97
556.873	1423.91
559.766	1411.34
562.659	1362.18
565.552	1270.83
568.444	1188.27
571.337	1140.38
574.23	935.129
577.122	683.634
580.015	462.484
582.908	318.106
585.8	276.338
588.693	255.936
591.586	127.124
594.479	118.082
597.371	72.062
600.264	59.379
603.157	48.818
606.049	38.367
608.942	7.986
611.835	55.752
614.727	24.043
617.62	9.648
620.513	29.476
623.406	8.937
626.298	39.013
629.191	5.972
632.084	2.12
634.976	34.963
637.869	24.421
640.762	10.456
643.654	12.33
646.547	137.391
649.44	139.884
652.333	355.233
655.225	314.875
658.118	318.233
661.011	282.895
663.903	269.752
666.796	290.551
669.689	408.169
672.581	343.36
675.474	277.232
678.367	305.39
681.26	348.743
684.152	434.417
687.045	505.588
689.938	590.076
692.83	580.855
695.723	660.789
698.616	643.911
701.508	660.012
704.401	649.783
707.294	736.15
710.187	656.158
713.079	642.185
715.972	633.951
718.865	611.441
721.757	522.189
724.65	559.451
727.543	376.92
730.435	439.205
733.328	327.09
736.221	272.765
739.114	115.834
742.006	181.854
744.899	206.593
747.792	171.604
750.684	214.086
753.577	123.453
756.47	49.895
759.362	104.303
762.255	71.409
765.148	20.405
768.041	49.176
770.933	36.778
773.826	134.568
776.719	23.079
779.612	24.33
782.504	96.17
785.397	2.663
788.29	18.134
791.182	47.353
794.075	56.339
796.968	192.624
799.86	74.822
802.753	103.514
805.646	162.32
808.539	29.938
811.431	54.213
814.324	128.397
817.217	21.457
820.109	70.764
823.002	23.606
825.895	32.557
828.787	121.993
831.68	96.069
834.573	95.966
837.466	101.383
840.358	99.107
843.251	223.078
846.144	256.434
849.036	309.072
851.929	290.743
854.822	281.92
857.714	468.456
860.607	712.488
863.5	696.876
866.393	785.837
869.285	852.98
872.178	945.738
875.071	970.904
877.963	1050.78
880.856	1053.06
883.749	967.91
886.641	857.393
889.534	687.584
892.427	652.267
895.32	563.511
898.212	494.393
901.105	440.71
903.998	255.297
906.89	124.056
909.783	140.547
912.676	95.966
915.568	31.158
918.461	10.639
921.354	53.542
924.247	35.681
927.139	0.188
930.032	33.093
932.925	72.534
935.817	70.247
938.71	106.424
941.603	19.359
944.495	12.522
947.388	40.363
950.281	4.289
953.174	154.208
956.066	464.755
958.959	674.148
961.852	1354.39
964.744	2231.54
967.637	3560.9
970.53	5668.56
973.422	9206.54
976.315	14271.8
979.208	20703.3
982.101	27391.6
984.993	29211.3
987.886	25535.7
990.779	21647.5
993.671	20089.5
996.564	19428.4
999.457	16044.5
1002.35	11996.4
1005.24	10484.7
1008.13	9708.26
1011.03	8609.9
1013.92	7994.9
1016.81	8011.99
1019.71	8047.36
1022.6	8504.18
1025.49	10225.9
1028.38	13293.5
1031.28	18468.3
1034.17	25181.6
1037.06	31528.6
1039.95	34140.2
1042.85	30174.4
1045.74	21925.7
1048.63	14000.6
1051.53	8583.45
1054.42	5572.86
1057.31	3584.26
1060.2	2385.92
1063.1	1667.56
1065.99	987.924
1068.88	577.434
1071.77	415.644
1074.67	185.733
1077.56	103.389
1080.45	62.267
1083.35	111.426
1086.24	49.945
1089.13	23.998
1092.02	84.962
1094.92	70.578
1097.81	22.562
1100.7	8.122
1103.59	54.342
1106.49	101.893
1109.38	125.812
1112.27	9.373
1115.16	64.647
1118.06	93.786
1120.95	119.873
1123.84	34.808
1126.74	93.552
1129.63	211.569
1132.52	245.215
1135.41	331.5
1138.31	204.743
1141.2	201.052
1144.09	221.792
1146.98	138.423
1149.88	36.055
1152.77	165.912
1155.66	154.126
1158.56	140.662
1161.45	135.291
1164.34	111.73
1167.23	132.04
1170.13	101.549
1173.02	261.895
1175.91	166.155
1178.8	208.942
1181.7	198.347
1184.59	272.832
1187.48	200.77
1190.38	245.415
1193.27	165.25
1196.16	126.833
1199.05	111.547
1201.95	172.389
1204.84	118.441
1207.73	185.906
1210.62	174.53
1213.52	114.536
1216.41	104.646
1219.3	20.322
1222.19	56.901
1225.09	103.033
1227.98	142.153
1230.87	123.116
1233.77	107.021
1236.66	117.195
1239.55	136.641
1242.44	91.576
1245.34	81.895
1248.23	126.258
1251.12	184.282
1254.02	280.979
1256.91	50.685
1259.8	100.526
1262.69	59.112
1265.59	12.636
1268.48	0.62
1271.37	103.626
1274.26	197.592
1277.16	91.663
1280.05	88.052
1282.94	83.142
1285.83	23.495
