Measurement: Raman, 780 nm, unoriented, Raman Data Processed
Mineral: Sincosite
Rruff sample: R060523
Ideal chemistry: Ca(V^4+^O)_2_(P^5+^O_4_)_2_4H_2_O
Locality: Ross Hannibal mine, Lawrence County, South Dakota, USA
Source: Michael Scott
Description: Green thin tabular square to rectangular crystals. Crystals twinned by a 2-fold around [1 -1 0].
Raman shift (cm-1)	intensity
93.4884	0
96.8632	12.217
100.238	4.34625
103.613	6.28803
106.988	11.1663
110.362	7.72516
113.737	2.61243
117.112	15.0848
120.487	13.6834
123.862	24.9971
127.237	21.3856
130.611	18.5883
133.986	6.25207
137.361	5.79096
140.736	4.78967
144.111	0.617188
147.485	1.19
150.86	5.8269
154.235	2.81702
157.61	9.71832
160.985	12.3372
164.359	17.3507
167.734	18.5793
171.109	25.2772
174.484	30.9473
177.859	41.941
181.234	48.1154
184.608	40.5274
187.983	28.2792
191.358	19.3094
194.733	17.8688
198.108	20.3109
201.482	24.5744
204.857	22.1073
208.232	19.6008
211.607	13.3066
214.982	14.3999
218.357	7.25766
221.731	11.8214
225.106	15.1537
228.481	20.2886
231.856	19.7828
235.231	26.2121
238.605	31.8852
241.98	36.8881
245.355	43.2467
248.73	56.9117
252.105	72.187
255.48	81.2752
258.854	83.5816
262.229	70.4871
265.604	51.8369
268.979	40.3557
272.354	34.4
275.728	35.8947
279.103	38.3414
282.478	38.9376
285.853	28.7691
289.228	18.6493
292.602	11.3576
295.977	10.62
299.352	9.20407
302.727	7.52106
306.102	6.04453
309.476	4.60053
312.851	4.018
316.226	0.763031
319.601	1.59973
322.976	0.191315
326.351	2.59299
329.725	1.70572
333.1	0.548523
336.475	0.206207
339.85	1.25433
343.225	3.90259
346.599	2.11594
349.974	1.06635
353.349	0.287048
356.724	2.49057
360.099	1.79309
363.474	3.72812
366.848	2.92841
370.223	7.03091
373.598	3.0972
376.973	6.16437
380.348	10.2046
383.722	11.421
387.097	15.7924
390.472	18.8389
393.847	23.3889
397.222	24.9375
400.596	22.7482
403.971	17.842
407.346	14.2783
410.721	12.8417
414.096	10.3182
417.471	5.79205
420.845	6.23883
424.22	7.24737
427.595	7.54022
430.97	5.61163
434.345	2.50882
437.719	1.59796
441.094	0.393494
444.469	0.836609
447.844	1.65768
451.219	1.48352
454.594	0.484436
457.968	3.00247
461.343	1.29721
464.718	1.51929
468.093	4.17639
471.468	3.07892
474.842	1.57089
478.217	1.47702
481.592	0.709961
484.967	0.457794
488.342	0.359741
491.716	1.64984
495.091	0.106842
498.466	0.579346
501.841	0.511139
505.216	1.92136
508.591	3.35745
511.965	0.697571
515.34	1.22025
518.715	0.725677
522.09	0.398132
525.465	0.580017
528.84	1.05975
532.214	0.433868
535.589	2.92993
538.964	5.59405
542.339	8.79025
545.713	11.7945
549.088	9.0625
552.463	10.7178
555.838	10.9655
559.213	10.1423
562.588	9.86719
565.962	8.62207
569.337	9.61289
572.712	8.34641
576.087	6.63968
579.462	4.27154
582.837	3.81857
586.211	2.94556
589.586	1.89557
592.961	1.00253
596.336	0.892822
599.711	1.36475
603.085	0.716278
606.46	1.45181
609.835	0.452881
613.21	1.11127
616.585	0.407898
619.96	0.144073
623.334	1.51224
626.709	1.00638
630.084	0.193024
633.459	0.369904
636.833	0.575623
640.208	1.60059
643.583	0.825684
646.958	1.15317
650.333	0.846954
653.708	0.065277
657.082	3.3309
660.457	1.94928
663.832	2.31851
667.207	1.92648
670.582	1.95834
673.957	2.02411
677.331	2.45462
680.706	3.11935
684.081	2.19269
687.456	4.27145
690.831	2.75516
694.205	3.57159
697.58	2.81397
700.955	2.112
704.33	3.04507
707.705	0.509949
711.079	2.81869
714.454	4.11639
717.829	2.60571
721.204	2.4118
724.579	2.82407
727.953	1.46692
731.328	1.28662
734.703	3.06207
738.078	1.95639
741.453	1.13119
744.828	1.52411
748.202	0.642517
751.577	0.27359
754.952	0.993805
758.327	0.71167
761.702	1.68353
765.077	0.399139
768.451	0.448639
771.826	1.26962
775.201	1.81558
778.576	1.17615
781.951	0.069946
785.325	1.80811
788.7	0.58786
792.075	1.70291
795.45	0.434509
798.825	2.53058
802.199	3.62708
805.574	3.61783
808.949	2.00964
812.324	2.46652
815.699	3.40881
819.073	2.00122
822.448	3.94577
825.823	5.91562
829.198	4.2092
832.573	5.65939
835.948	3.96042
839.322	5.97391
842.697	5.93198
846.072	5.60818
849.447	5.48923
852.822	7.95801
856.197	5.94278
859.571	7.51126
862.946	6.68353
866.321	6.42151
869.696	5.4953
873.071	5.34242
876.445	5.05811
879.82	5.38673
883.195	5.98949
886.57	3.49443
889.945	3.55928
893.319	3.38098
896.694	1.15566
900.069	2.23885
903.444	1.57221
906.819	0.086639
910.193	0.898804
913.568	0.505447
916.943	0.725998
920.318	0.330002
923.693	0.648529
927.068	1.22839
930.442	0.041061
933.817	0.628387
937.192	1.24977
940.567	0.432922
943.942	1.09486
947.317	0.506012
950.691	1.37019
954.066	1.92128
957.441	4.53001
960.816	7.74446
964.191	12.7069
967.565	18.821
970.94	29.3333
974.315	50.1244
977.69	80.6543
981.065	128.996
984.439	178.409
987.814	172.233
991.189	139.692
994.564	127.686
997.939	120.945
1001.31	83.7925
1004.69	55.4779
1008.06	40.584
1011.44	30.9272
1014.81	24.6163
1018.19	20.4322
1021.56	20.814
1024.94	24.5074
1028.31	29.6889
1031.69	44.3426
1035.06	67.8084
1038.44	93.1124
1041.81	95.3894
1045.19	67.6957
1048.56	38.8165
1051.94	23.5836
1055.31	13.4698
1058.68	9.1114
1062.06	4.65985
1065.43	3.26848
1068.81	2.31955
1072.18	0.023346
1075.56	1.26483
1078.93	1.89964
1082.31	0.385361
1085.68	0.193848
1089.06	0.463287
1092.43	0.168747
1095.81	0.357681
1099.18	0.455811
1102.56	0.453583
1105.93	1.02258
1109.31	0.842621
1112.68	0.617371
1116.06	0.387634
1119.43	0.917114
1122.81	1.08839
1126.18	1.43678
1129.56	0.69632
1132.93	2.16055
1136.31	0.527649
1139.68	1.9355
1143.06	2.59197
1146.43	2.66563
1149.81	1.99464
1153.18	2.33604
1156.56	2.94069
1159.93	1.28923
1163.31	1.99025
1166.68	2.90211
1170.05	2.40102
1173.43	2.15173
1176.8	2.94846
1180.18	2.72562
1183.55	1.51631
1186.93	1.84096
1190.3	2.60011
1193.68	1.60698
1197.05	2.02388
1200.43	2.47031
1203.8	2.61302
1207.18	2.90044
1210.55	2.12505
1213.93	2.74516
1217.3	0.818848
1220.68	0.372375
1224.05	0.442184
1227.43	0.977188
1230.8	2.9295
1234.18	0.211594
1237.55	1.03886
1240.92	0.170776
1244.3	1.39401
1247.67	0.603256
1251.05	1.64897
1254.42	3.20282
1257.8	1.06172
1261.17	2.0988
1264.55	1.17293
1267.92	2.0354
1271.3	1.62587
1274.67	0.095886
1278.05	1.17929
1281.42	1.39188
1284.8	0
