Measurement: Raman, 532 nm, unoriented, Raman Data Processed
Mineral: Sinhalite
Rruff sample: R100163
Ideal chemistry: MgAlBO_4_
Locality: Ratnapura, Sri Lanka
Source: William W. Pinch
Description: Pale brown cut gemstone
Raman shift (cm-1)	intensity
171.549	0
174.441	4.86557
177.334	1.54199
180.227	9.24219
183.119	0.263763
186.012	0.014343
188.905	2.22565
191.798	3.49646
194.69	1.16083
197.583	3.24414
200.476	3.17499
203.369	2.11328
206.261	4.31396
209.154	2.83823
212.047	3.59402
214.939	2.30969
217.832	8.68219
220.725	14.3553
223.617	18.5431
226.51	22.8474
229.403	23.309
232.296	15.2349
235.188	8.92935
238.081	7.79291
240.974	5.03876
243.866	0.803101
246.759	2.45084
249.652	1.51559
252.544	1.18002
255.437	0.328278
258.33	1.0769
261.223	1.67697
264.115	1.12396
267.008	3.65613
269.901	3.55096
272.793	3.4971
275.686	4.39389
278.579	1.71997
281.471	0.38501
284.364	4.05917
287.257	9.51456
290.15	18.4219
293.042	13.4372
295.935	11.6998
298.828	3.73718
301.72	1.23154
304.613	2.40274
307.506	6.18558
310.399	12.2932
313.291	23.2699
316.184	22.8566
319.077	14.5493
321.969	5.73044
324.862	8.56119
327.755	13.6118
330.647	7.39236
333.54	1.1358
336.433	0.918549
339.325	0.414063
342.218	1.28522
345.111	2.58249
348.004	4.3212
350.896	5.0221
353.789	16.9006
356.682	35.8845
359.574	64.1275
362.467	95.9573
365.36	148.132
368.253	254.19
371.145	463.933
374.038	623.182
376.931	306.78
379.823	188.463
382.716	183.298
385.609	119.707
388.502	74.8038
391.394	80.3927
394.287	117.332
397.18	160.947
400.072	108.85
402.965	88.0309
405.858	114.945
408.75	125.163
411.643	89.3985
414.536	101.129
417.428	83.3302
420.321	35.9419
423.214	12.809
426.107	0.126984
428.999	0.370422
431.892	0.594788
434.785	1.63968
437.677	0.356873
440.57	3.13119
443.463	1.496
446.356	0.83313
449.248	8.30838
452.141	11.4906
455.034	15.9909
457.926	26.5997
460.819	45.8608
463.712	61.2312
466.604	60.1415
469.497	43.0406
472.39	42.7809
475.283	60.6096
478.175	89.0216
481.068	110.457
483.961	126.91
486.853	132.559
489.746	149.911
492.639	147.189
495.531	96.9058
498.424	47.0808
501.317	25.2449
504.21	8.21417
507.102	3.81256
509.995	2.10461
512.888	0.271545
515.78	0.293427
518.673	5.14444
521.566	8.54996
524.458	9.86182
527.351	2.56265
530.244	2.47079
533.137	0.13092
536.029	4.61032
538.922	12.8787
541.815	23.7496
544.707	41.8216
547.6	74.6829
550.493	125.688
553.386	151.791
556.278	70.778
559.171	17.4302
562.064	6.01044
564.956	0.086578
567.849	0.342926
570.742	1.0849
573.635	1.90524
576.527	2.7536
579.42	2.67593
582.313	9.77216
585.205	16.0344
588.098	23.7925
590.991	32.4746
593.883	45.7797
596.776	63.7822
599.669	88.4367
602.562	117.604
605.454	138.979
608.347	122.634
611.24	83.2897
614.132	46.1843
617.025	25.7849
619.918	17.6615
622.81	9.77814
625.703	9.39346
628.596	2.43665
631.489	3.56549
634.381	2.78204
637.274	3.81168
640.167	4.46866
643.059	3.15689
645.952	1.99615
648.845	0.069031
651.737	0.668823
654.63	0.15686
657.523	3.01428
660.416	2.69269
663.308	1.15912
666.201	2.24362
669.094	3.6814
671.986	1.86295
674.879	1.21207
677.772	2.02155
680.664	0.828094
683.557	7.82654
686.45	10.9847
689.343	13.2368
692.235	22.9892
695.128	43.3391
698.021	66.7526
700.913	101.93
703.806	146.036
706.699	178.671
709.592	148.549
712.484	85.8455
715.377	47.5354
718.27	36.3604
721.162	33.942
724.055	39.9175
726.948	51.5346
729.841	72.7402
732.733	103.642
735.626	144.127
738.519	189.54
741.411	210.544
744.304	206.044
747.197	167.977
750.089	121.244
752.982	84.7386
755.875	62.5914
758.768	42.1891
761.66	26.1881
764.553	20.0115
767.446	15.4513
770.338	10.4501
773.231	8.64862
776.124	6.3327
779.016	8.07501
781.909	9.76154
784.802	20.2959
787.694	26.287
790.587	42.7651
793.48	57.802
796.373	56.785
799.265	37.0889
802.158	18.3289
805.051	13.4127
807.943	1.39557
810.836	0.259827
813.729	0.572144
816.621	0.312439
819.514	2.28436
822.407	1.18329
825.3	2.27478
828.192	6.45862
831.085	9.40717
833.978	17.4041
836.87	27.4302
839.763	39.8356
842.656	63.9924
845.549	112.174
848.441	175.511
851.334	264.185
854.227	395.397
857.119	558.688
860.012	641.67
862.905	527.323
865.798	323.244
868.69	190.66
871.583	125.242
874.476	86.8266
877.368	58.8879
880.261	39.8751
883.154	24.4866
886.046	17.2326
888.939	6.86182
891.832	5.26343
894.725	3.20477
897.617	0.552979
900.51	2.88287
903.403	0.968689
906.295	0.441101
909.188	1.2226
912.081	1.92944
914.973	1.69556
917.866	0.552002
920.759	4.60583
923.652	7.19952
926.544	16.6763
929.437	30.9258
932.33	44.8382
935.222	59.1003
938.115	78.4688
941.008	91.3444
943.9	85.2098
946.793	66.6434
949.686	39.3896
952.579	22.9526
955.471	13.0259
958.364	7.0033
961.257	3.45331
964.149	1.56073
967.042	1.70044
969.935	0.920471
972.827	1.51239
975.72	3.58185
978.613	4.08868
981.506	6.74542
984.398	14.0783
987.291	19.8952
990.184	26.6107
993.077	30.5645
995.969	25.107
998.862	18.0494
1001.75	15.5033
1004.65	8.74701
1007.54	4.97314
1010.43	11.0079
1013.33	5.79968
1016.22	9.5506
1019.11	7.57477
1022	12.7295
1024.9	17.8638
1027.79	21.3132
1030.68	32.4259
1033.57	54.1239
1036.47	83.6078
1039.36	121.105
1042.25	155.204
1045.14	169.917
1048.04	136.715
1050.93	89.1075
1053.82	54.1332
1056.72	35.5269
1059.61	21.0419
1062.5	14.1605
1065.39	9.57434
1068.29	4.13251
1071.18	6.20044
1074.07	5.57489
1076.96	5.14349
1079.86	1.72852
1082.75	4.78906
1085.64	0.310242
1088.54	0.178345
1091.43	0.575806
1094.32	1.80786
1097.21	0.882263
1100.11	0.216431
1103	1.80359
1105.89	2.46069
1108.79	3.76074
1111.68	2.19611
1114.57	2.41821
1117.46	4.34204
1120.36	6.22046
1123.25	4.81549
1126.14	3.50336
1129.03	2.81854
1131.93	6.72247
1134.82	4.32532
1137.71	5.75757
1140.6	4.46234
1143.5	3.71185
1146.39	4.86096
1149.28	5.70489
1152.17	2.87067
1155.07	0.781189
1157.96	1.70355
1160.85	2.84345
1163.75	5.44794
1166.64	4.58154
1169.53	3.06842
1172.42	2.71533
1175.32	1.91949
1178.21	0.149292
1181.1	0.653809
1183.99	6.23975
1186.89	3.29736
1189.78	4.85913
1192.67	7.8432
1195.57	3.11676
1198.46	5.41602
1201.35	4.49646
1204.24	5.10907
1207.14	2.97571
1210.03	6.48822
1212.92	7.53357
1215.82	1.85437
1218.71	2.62836
1221.6	2.62988
1224.49	1.9342
1227.38	3.65881
1230.28	3.91113
1233.17	3.29047
1236.06	1.50293
1238.96	0.583191
1241.85	3.30872
1244.74	0.700012
1247.63	3.53912
1250.53	2.90607
1253.42	4.56683
1256.31	3.46967
1259.2	1.66034
1262.1	4.70404
1264.99	4.19983
1267.88	5.10858
1270.78	3.44318
1273.67	6.60858
1276.56	3.2887
1279.45	1.95435
1282.35	2.35687
1285.24	1.87476
1288.13	1.52991
1291.03	4.34619
1293.92	3.29163
1296.81	1.61096
1299.7	2.7074
1302.6	0
