Measurement: Raman, 780 nm, unoriented, Raman Data Processed
Mineral: Sinhalite
Rruff sample: R070621
Ideal chemistry: MgAlBO_4_
Locality: Sri Lanka
Source: Shinichi Kihara
Description: Pale yellow transparent faceted gemstone
Measured chemistry: (Mg_0.98_Fe_0.02_)_Î£=1_Al_1.00_B_1.00_O_4_ ; B_2_O_3_ estimated by difference
Raman shift (cm-1)	intensity
109.877	0
112.77	0.525391
115.662	28.0369
118.555	98.0381
121.448	78.8164
124.341	4.82397
127.233	33.8848
130.126	22.6086
133.019	12.0359
135.911	24.7669
138.804	32.6887
141.697	9.97339
144.589	56.1536
147.482	1.53491
150.375	21.6548
153.268	52.0559
156.16	48.8381
159.053	73.7554
161.946	21.4971
164.838	42.1599
167.731	55.5012
170.624	52.0974
173.516	24.6895
176.409	33.2036
179.302	85.6738
182.195	65.5967
185.087	73.9949
187.98	96.874
190.873	21.3052
193.765	133.971
196.658	72.0142
199.551	37.1208
202.443	55.4944
205.336	52.0554
208.229	31.4084
211.121	96.3037
214.014	69.4873
216.907	133.159
219.8	122.51
222.692	224.796
225.585	394.589
228.478	344.549
231.37	245.854
234.263	178.421
237.156	31.2156
240.048	79.5759
242.941	46.9558
245.834	41.1382
248.727	83.3125
251.619	86.9338
254.512	30.6194
257.405	67.8206
260.297	42.491
263.19	47.8457
266.083	70.2398
268.976	110.599
271.868	96.0051
274.761	15.229
277.654	50.1987
280.546	7.05566
283.439	25.7285
286.332	31.2529
289.224	96.1936
292.117	113.993
295.01	87.3975
297.902	21.2256
300.795	34.3418
303.688	5.1167
306.581	69.2339
309.473	3.77197
312.366	124.873
315.259	214.165
318.151	10.5759
321.044	108.165
323.937	87.7681
326.829	254.049
329.722	106.346
332.615	33.2246
335.508	54.7886
338.4	50.4819
341.293	2.81421
344.186	28.7529
347.078	4.6665
349.971	18.6702
352.864	20.7895
355.757	145.944
358.649	301.948
361.542	619.849
364.435	951.581
367.327	1756.48
370.22	4254.41
373.113	7598.5
376.005	3312.13
378.898	1649.93
381.791	1440.98
384.683	906.892
387.576	671.554
390.469	838.648
393.362	1583.32
396.254	2927.58
399.147	1680.03
402.04	1070.17
404.932	1506.77
407.825	1751.54
410.718	1083.17
413.611	1111.87
416.503	1335.52
419.396	610.706
422.289	149.897
425.181	60.5356
428.074	23.0828
430.967	17.2331
433.859	36.6511
436.752	7.2229
439.645	6.31909
442.538	76.0039
445.43	73.8225
448.323	67.7949
451.216	105.537
454.108	247.809
457.001	377.734
459.894	741.935
462.786	1125.38
465.679	995.979
468.572	658.671
471.464	627.387
474.357	917.962
477.25	1250.79
480.143	1893.1
483.035	2042.12
485.928	1983.27
488.821	2525.93
491.713	2614.3
494.606	1780.64
497.499	954.242
500.392	537.874
503.284	293.534
506.177	148.915
509.07	103.604
511.962	58.1865
514.855	86.4634
517.748	16.2258
520.64	60.3462
523.533	18.4751
526.426	2.6626
529.318	28.3865
532.211	8.34741
535.104	31.1306
537.997	30.2734
540.889	232.814
543.782	405.435
546.675	776.777
549.567	1799.21
552.46	2579.48
555.353	1131.22
558.245	349.762
561.138	108.084
564.031	81.2581
566.924	20.2263
569.816	45.9475
572.709	59.4983
575.602	38.4961
578.494	89.4085
581.387	123.725
584.28	213.956
587.173	272.914
590.065	382.029
592.958	633.307
595.851	860.289
598.743	1253.08
601.636	1732.85
604.529	2293.46
607.421	2046.11
610.314	1400.25
613.207	808.06
616.1	471.9
618.992	260.026
621.885	215.993
624.778	185.779
627.67	152.877
630.563	77.9197
633.456	53.8091
636.348	85.2673
639.241	41.6841
642.134	35.1619
645.027	110.749
647.919	25.3833
650.812	21.9993
653.705	15.519
656.597	22.9331
659.49	11.5185
662.383	10.7734
665.275	16.8772
668.168	19.1101
671.061	4.72461
673.954	15.8413
676.846	17.6995
679.739	114.51
682.632	45.404
685.524	74.0933
688.417	119.043
691.31	180.616
694.202	322.869
697.095	673.798
699.988	1009.62
702.881	1668.26
705.773	2228.34
708.666	1737.29
711.559	996.568
714.451	589.239
717.344	394.687
720.237	375.476
723.13	445.723
726.022	584.797
728.915	830.894
731.808	1173.81
734.7	1645.99
737.593	2177.52
740.486	2536.09
743.378	2583.66
746.271	2150.25
749.164	1595.79
752.057	1100.35
754.949	763.261
757.842	523.822
760.735	387.261
763.627	248.098
766.52	207.877
769.413	107.598
772.305	116.294
775.198	103.039
778.091	47.0603
780.984	39.7783
783.876	74.509
786.769	156.365
789.662	257.399
792.554	399.49
795.447	373.27
798.34	385.452
801.232	121.586
804.125	91.0833
807.018	22.4741
809.91	26.7195
812.803	66.3098
815.696	13.8293
818.589	7.7168
821.481	57.8762
824.374	31.1912
827.267	34.6777
830.159	88.1133
833.052	100.753
835.945	246.284
838.837	322.612
841.73	646.321
844.623	894.64
847.516	1426.88
850.408	2313.86
853.301	3716.57
856.194	5597.4
859.086	6830.29
861.979	5714.35
864.872	3489.52
867.764	2034.93
870.657	1256.94
873.55	875.035
876.443	644.862
879.335	423.881
882.228	271.127
885.121	163.519
888.013	113.143
890.906	39.5815
893.799	18.052
896.692	16.1108
899.584	6.34131
902.477	10.0974
905.37	1.16162
908.262	3.84033
911.155	3.32349
914.048	47.5466
916.94	33.4275
919.833	84.7222
922.726	96.7842
925.619	206.532
928.511	255.839
931.404	427.366
934.297	664.909
937.189	943.863
940.082	1279.93
942.975	1251.51
945.867	1009.83
948.76	671.979
951.653	490.568
954.545	229.376
957.438	177.338
960.331	105.02
963.224	81.3545
966.116	19.8972
969.009	43.5156
971.902	33.645
974.794	37.8599
977.687	46.0752
980.58	16.3157
983.472	39.5161
986.365	27.7144
989.258	77.9019
992.151	93.4888
995.043	72.5881
997.936	55.1457
1000.83	47.4934
1003.72	11.0896
1006.61	2.14062
1009.51	39.2207
1012.4	7.2356
1015.29	31.8901
1018.18	74.7598
1021.08	58.9685
1023.97	41.0488
1026.86	117.652
1029.76	170.448
1032.65	228.86
1035.54	350.853
1038.43	505.047
1041.33	622.88
1044.22	775.438
1047.11	611.036
1050.01	408.084
1052.9	254.213
1055.79	214.327
1058.68	103.406
1061.58	116.774
1064.47	86.3855
1067.36	33.75
1070.25	57.2019
1073.15	61.3093
1076.04	22.7288
1078.93	68.8579
1081.82	37.3403
1084.72	60.5147
1087.61	62.9927
1090.5	11.2932
1093.39	25.4922
1096.29	10.1074
1099.18	44.5547
1102.07	17.3088
1104.97	59.3462
1107.86	38.0647
1110.75	20.782
1113.64	18.5786
1116.54	16.5637
1119.43	21.6084
1122.32	30.2646
1125.21	40.394
1128.11	43.6284
1131	32.4395
1133.89	29.5339
1136.79	12.8411
1139.68	38.6628
1142.57	31.9805
1145.46	11.5342
1148.36	33.6494
1151.25	9.56323
1154.14	29.2942
1157.04	34.4983
1159.93	15.7009
1162.82	0.897217
1165.71	20.0325
1168.61	4.60132
1171.5	1.40112
1174.39	25.8113
1177.28	35.8987
1180.18	36.5271
1183.07	35.4963
1185.96	27.3254
1188.85	34.7666
1191.75	55.4228
1194.64	39.8408
1197.53	74.3442
1200.42	67.5029
1203.32	47.6086
1206.21	71.5381
1209.1	49.7114
1212	16.1406
1214.89	72.9812
1217.78	21.1455
1220.67	37.092
1223.57	30.6421
1226.46	23.9548
1229.35	3.61182
1232.24	3.85571
1235.14	2.68897
1238.03	45.6716
1240.92	35.1091
1243.82	15.0593
1246.71	0.267334
1249.6	0
