Measurement: Raman, 532 nm, unoriented, Raman Data Processed
Mineral: Sinhalite
Rruff sample: R100132
Ideal chemistry: MgAlBO_4_
Locality: Ratnapura district, Sri Lanka
Source: William W. Pinch
Description: Tan colored water-worn single crystal
Raman shift (cm-1)	intensity
140.211	0
143.586	6.43871
146.961	0.452278
150.336	5.15778
153.71	7.01934
157.085	10.9685
160.46	17.1254
163.835	18.4024
167.21	16.2265
170.584	20.6503
173.959	18.119
177.334	14.8999
180.709	15.126
184.084	10.7483
187.459	8.39055
190.833	9.7048
194.208	8.52328
197.583	7.03095
200.958	6.51314
204.333	5.35951
207.708	5.98412
211.082	7.13314
214.457	9.46506
217.832	12.0191
221.207	14.9185
224.582	17.8688
227.956	19.4777
231.331	11.9956
234.706	5.99666
238.081	4.99786
241.456	1.10567
244.831	2.5496
248.205	0.172493
251.58	1.76526
254.955	1.19153
258.33	1.30343
261.705	0.711266
265.079	0.025787
268.454	0.7211
271.829	0.840073
275.204	2.09348
278.579	1.32072
281.954	3.77658
285.328	3.79378
288.703	15.556
292.078	6.39825
295.453	4.91554
298.828	2.8838
302.202	1.51827
305.577	1.05309
308.952	0.961449
312.327	2.72248
315.702	2.33194
319.077	0.481567
322.451	2.27647
325.826	0.827644
329.201	1.1425
332.576	0.268867
335.951	0.937752
339.325	0.75808
342.7	2.15871
346.075	6.29713
349.45	7.4839
352.825	16.5661
356.2	51.1805
359.574	94.5764
362.949	128.963
366.324	186.547
369.699	293.596
373.074	438.115
376.449	273.609
379.823	105.456
383.198	86.3162
386.573	85.0767
389.948	105.908
393.323	156.948
396.697	208.749
400.072	152.401
403.447	99.656
406.822	115.423
410.197	78.062
413.572	28.7308
416.946	14.7451
420.321	7.12331
423.696	3.38544
427.071	0.27858
430.446	1.2254
433.82	0.718712
437.195	0.109749
440.57	1.7766
443.945	0.511589
447.32	1.54051
450.695	5.02953
454.069	8.67446
457.444	8.9495
460.819	16.5737
464.194	24.3424
467.569	34.8091
470.943	45.3099
474.318	59.8113
477.693	77.3851
481.068	92.1617
484.443	78.022
487.818	48.4743
491.192	34.3342
494.567	22.6478
497.942	13.7552
501.317	4.35545
504.692	3.26132
508.067	2.40225
511.441	1.65517
514.816	0.577019
518.191	1.88237
521.566	2.29479
524.941	0.466385
528.316	0.031342
531.69	5.01358
535.065	8.22677
538.44	24.5198
541.815	35.8631
545.19	51.981
548.564	75.8618
551.939	105.759
555.314	76.9062
558.689	23.6803
562.064	13.0337
565.438	9.24982
568.813	7.44362
572.188	10.052
575.563	11.2192
578.938	15.4035
582.313	21.526
585.687	32.1933
589.062	47.4107
592.437	68.9123
595.812	95.1173
599.187	123.439
602.562	148.873
605.936	160.453
609.311	131.958
612.686	77.1027
616.061	44.86
619.436	26.505
622.81	17.6015
626.185	11.216
629.56	8.44373
632.935	7.74139
636.31	5.04026
639.684	5.07728
643.059	2.21696
646.434	1.81174
649.809	1.65408
653.184	0.188995
656.559	0.949265
659.933	1.10802
663.308	3.14444
666.683	1.83432
670.058	1.21925
673.433	0.987503
676.808	0.691124
680.182	2.78215
683.557	0.596512
686.932	6.31998
690.307	14.8176
693.682	27.484
697.057	49.3906
700.431	69.1786
703.806	97.193
707.181	105.895
710.556	69.115
713.931	39.0109
717.305	30.3005
720.68	36.0296
724.055	52.8381
727.43	75.6289
730.805	110.941
734.179	153.499
737.554	197.489
740.929	224.975
744.304	213.476
747.679	168.318
751.054	115.254
754.428	73.1737
757.803	49.5155
761.178	34.3409
764.553	22.873
767.928	14.6814
771.303	8.49906
774.677	4.16013
778.052	2.85912
781.427	5.01616
784.802	19.249
788.177	23.6486
791.552	27.0199
794.926	32.1678
798.301	23.8982
801.676	10.9576
805.051	12.1496
808.426	3.72979
811.8	1.65436
815.175	0.060394
818.55	2.66135
821.925	0.089012
825.3	2.37153
828.674	6.80191
832.049	12.7872
835.424	25.1502
838.799	41.5709
842.174	73.2176
845.549	134.124
848.923	222.238
852.298	331.873
855.673	466.973
859.048	569.675
862.423	500.211
865.798	291.874
869.172	158.149
872.547	93.5944
875.922	61.3811
879.297	40.1431
882.672	22.2218
886.046	13.3015
889.421	8.98817
892.796	2.65671
896.171	0.840027
899.546	0.23008
902.92	0.168884
906.295	0.33963
909.67	1.40252
913.045	0.531174
916.42	3.60825
919.795	6.353
923.169	9.30203
926.544	18.8799
929.919	26.263
933.294	41.496
936.669	59.2556
940.044	75.4553
943.418	74.6853
946.793	55.3706
950.168	34.5643
953.543	22.5958
956.918	13.053
960.293	8.66141
963.667	6.32018
967.042	3.32024
970.417	2.94787
973.792	0.131851
977.167	1.65115
980.541	0.70211
983.916	0.903992
987.291	3.01072
990.666	0.561562
994.041	1.77334
997.415	0.808357
1000.79	1.66123
1004.16	0.360619
1007.54	0.589851
1010.91	2.96036
1014.29	3.06045
1017.66	3.60362
1021.04	6.93862
1024.41	8.52589
1027.79	14.5807
1031.16	24.6652
1034.54	38.296
1037.91	56.6677
1041.29	70.6982
1044.66	77.967
1048.04	63.1752
1051.41	43.0082
1054.79	22.612
1058.16	13.9727
1061.54	9.28868
1064.91	5.24899
1068.29	3.02605
1071.66	3.18002
1075.04	1.96326
1078.41	0.527855
1081.79	1.29575
1085.16	0.358002
1088.54	1.93915
1091.91	0.393692
1095.29	0.739876
1098.66	2.5733
1102.04	0.830124
1105.41	1.14509
1108.79	0.929817
1112.16	1.5734
1115.53	0.436958
1118.91	1.07181
1122.28	2.18192
1125.66	2.15407
1129.03	1.93738
1132.41	1.86844
1135.78	0.622108
1139.16	0.262001
1142.53	1.9025
1145.91	1.19099
1149.28	1.74338
1152.66	0.678627
1156.03	0.532333
1159.41	0.006676
1162.78	1.36247
1166.16	1.37454
1169.53	1.92873
1172.91	1.78719
1176.28	2.52577
1179.66	0.961182
1183.03	3.73707
1186.4	2.60225
1189.78	1.77288
1193.15	1.64333
1196.53	2.12806
1199.9	1.57826
1203.28	0.591034
1206.65	1.64374
1210.03	0.71904
1213.4	4.13153
1216.78	1.1303
1220.15	1.69435
1223.53	3.52039
1226.9	2.54361
1230.28	2.12894
1233.65	1.28164
1237.03	0.589905
1240.4	1.69006
1243.78	2.12749
1247.15	0.219719
1250.53	0.293686
1253.9	2.34583
1257.28	2.95719
1260.65	1.54651
1264.03	2.51655
1267.4	2.55136
1270.78	2.3559
1274.15	4.05643
1277.53	1.93749
1280.9	1.02197
1284.28	1.50906
1287.65	1.55916
1291.03	1.18269
1294.4	2.41283
1297.78	0.093445
1301.15	2.0446
