Measurement: Raman, 532 nm, unoriented, Raman Data Processed
Mineral: Sinhalite
Rruff sample: R070621
Ideal chemistry: MgAlBO_4_
Locality: Sri Lanka
Source: Shinichi Kihara
Description: Pale yellow transparent faceted gemstone
Measured chemistry: (Mg_0.98_Fe_0.02_)_Î£=1_Al_1.00_B_1.00_O_4_ ; B_2_O_3_ estimated by difference
Raman shift (cm-1)	intensity
143.77	0
146.663	62.1902
149.556	28.9822
152.448	77.2423
155.341	33.87
158.234	121.668
161.127	74.2866
164.019	27.2956
166.912	44.4749
169.805	48.9193
172.697	57.4689
175.59	10.0778
178.483	27.2651
181.375	7.0968
184.268	45.6022
187.161	7.75549
190.054	48.2412
192.946	25.7935
195.839	7.76599
198.732	28.5463
201.624	51.6101
204.517	50.6293
207.41	10.0707
210.303	54.7567
213.195	109.626
216.088	186.031
218.981	184.789
221.873	311.526
224.766	512.01
227.659	405.59
230.551	288.314
233.444	222.854
236.337	106.202
239.23	34.1083
242.122	6.47644
245.015	7.83435
247.907	35.7128
250.8	22.5541
253.693	3.7782
256.586	15.792
259.478	7.07312
262.371	2.79053
265.264	26.0067
268.156	28.1887
271.049	91.8503
273.942	61.8315
276.834	55.2623
279.727	83.7539
282.62	143.256
285.513	206.721
288.405	294.777
291.298	382.485
294.191	240.142
297.083	117.551
299.976	111.035
302.869	93.8707
305.762	127.942
308.654	172.825
311.547	319.116
314.44	545.593
317.332	239.592
320.225	137.835
323.118	141.677
326.01	460.766
328.903	215.724
331.796	16.5684
334.688	5.89185
337.581	3.33704
340.474	33.6883
343.367	12.1713
346.259	72.5612
349.152	86.6205
352.045	263.467
354.937	704.108
357.83	1415.13
360.723	1992.09
363.615	2746.26
366.508	4028.68
369.401	7147.57
372.293	13189.7
375.186	6941.78
378.079	3835.6
380.972	4348.38
383.864	3184.4
386.757	1877.24
389.65	1844.04
392.542	2591.03
395.435	4323.87
398.328	3205.76
401.221	2061.42
404.113	2622.13
407.006	3315.21
409.899	2316.84
412.791	2617.38
415.684	2829.64
418.577	1454.51
421.469	425.868
424.362	119.389
427.255	25.6966
430.147	6.0116
433.04	22.0541
435.933	11.4619
438.826	37.2782
441.718	21.2246
444.611	67.0806
447.504	230.046
450.396	406.823
453.289	529.465
456.182	886.396
459.075	1286.23
461.967	2209.48
464.86	2319.96
467.753	1507.85
470.645	1500.96
473.538	1955.92
476.431	2786.21
479.323	3937.55
482.216	4329.36
485.109	4279.95
488.001	4792.15
490.894	5220.13
493.787	3794.83
496.68	1990.06
499.572	997.336
502.465	536.673
505.358	285.293
508.25	173.338
511.143	121.308
514.036	63.4296
516.928	91.6902
519.821	161.787
522.714	247.601
525.606	33.9631
528.499	61.5276
531.392	45.7662
534.285	52.7681
537.177	244.226
540.07	448.177
542.963	813.452
545.855	1240.17
548.748	2117.06
551.641	3527.75
554.534	1864.63
557.426	495.84
560.319	184.995
563.212	87.917
566.104	9.03369
568.997	46.6523
571.89	64.665
574.782	118.792
577.675	191.863
580.568	330.427
583.46	517.613
586.353	764.259
589.246	1044.34
592.139	1542.67
595.031	2035.64
597.924	2725.92
600.817	3447.47
603.709	4201.19
606.602	4043.54
609.495	2858.93
612.388	1664.25
615.28	979.591
618.173	595.854
621.066	446.66
623.958	310.692
626.851	232.823
629.744	231.056
632.636	178.54
635.529	93.4329
638.422	101.911
641.314	56.5391
644.207	33.5078
647.1	28.1375
649.992	1.30823
652.885	5.04688
655.778	14.9211
658.671	16.974
661.563	8.81531
664.456	55.6652
667.349	48.9576
670.241	9.93127
673.134	13.5319
676.027	17.6561
678.919	27.9065
681.812	72.1906
684.705	69.218
687.598	216.797
690.49	500.541
693.383	852.938
696.276	1243.94
699.168	1790.63
702.061	2657.34
704.954	3580.93
707.846	3237.3
710.739	1991.36
713.632	1143.63
716.524	766.948
719.417	767.165
722.31	884.79
725.203	1238.66
728.095	1674.01
730.988	2398.43
733.881	3259.33
736.773	4183.47
739.666	4876.05
742.559	4961.58
745.452	4228.17
748.344	3178.84
751.237	2157.76
754.13	1486.6
757.022	1045.06
759.915	682.992
762.808	529.425
765.7	302.351
768.593	214.298
771.486	102.228
774.379	126.283
777.271	61.3906
780.164	120.34
783.057	209.812
785.949	390.363
788.842	577.475
791.735	865.856
794.627	935.746
797.52	666.685
800.413	351.465
803.306	209.429
806.198	157.687
809.091	374.182
811.984	518.838
814.876	255.254
817.769	14.5759
820.662	98.5303
823.554	59.0524
826.447	34.9087
829.34	32.9971
832.232	186.969
835.125	409.434
838.018	790.326
840.91	1225.51
843.803	2040.6
846.696	3251.14
849.589	4799.49
852.481	6883.42
855.374	9576.01
858.267	11910.7
861.159	10683.9
864.052	6806.28
866.945	3987.84
869.837	2459.09
872.73	1727.61
875.623	1149.73
878.516	770.363
881.408	463.662
884.301	277.987
887.194	183.581
890.086	137.831
892.979	27.4766
895.872	9.76379
898.764	27.8796
901.657	33.0101
904.55	28.5117
907.443	9.37671
910.335	23.4868
913.228	24.9211
916.121	45.6682
919.013	78.1086
921.906	195.124
924.799	283.031
927.692	534.013
930.584	821.202
933.477	1166.2
936.37	1565.51
939.262	2041.62
942.155	2110.97
945.048	1772.38
947.94	1167.65
950.833	751.089
953.726	461.12
956.619	339.061
959.511	230.021
962.404	163.785
965.297	133.766
968.189	153.136
971.082	136.221
973.975	122.449
976.867	191.785
979.76	288.966
982.653	471.167
985.545	499.027
988.438	656.792
991.331	678.775
994.223	579.863
997.116	473.713
1000.01	337.913
1002.9	263.947
1005.79	116.64
1008.69	60.6422
1011.58	78.4716
1014.47	89.6616
1017.37	75.8789
1020.26	129.604
1023.15	198.122
1026.04	270.833
1028.94	469.374
1031.83	770.428
1034.72	1162.03
1037.61	1624.3
1040.51	2172.75
1043.4	2454.32
1046.29	2154.02
1049.18	1467.07
1052.08	927.63
1054.97	591.543
1057.86	422.198
1060.76	192.21
1063.65	140.97
1066.54	112.355
1069.43	52.4746
1072.33	27.3061
1075.22	25.0364
1078.11	21.8716
1081	4.84021
1083.9	24.5326
1086.79	5.10998
1089.68	7.42029
1092.58	1.5022
1095.47	13.864
1098.36	10.3833
1101.25	18.8481
1104.15	16.9177
1107.04	64.5934
1109.93	21.8549
1112.82	25.2809
1115.72	66.7273
1118.61	74.7819
1121.5	98.1412
1124.39	99.007
1127.29	102.094
1130.18	77.6786
1133.07	62.5039
1135.97	39.2927
1138.86	35.1373
1141.75	63.7443
1144.64	102.508
1147.54	49.9048
1150.43	24.1668
1153.32	83.4945
1156.21	72.0903
1159.11	44.9426
1162	61.4778
1164.89	94.8059
1167.79	57.312
1170.68	66.3307
1173.57	82.6943
1176.46	61.3352
1179.36	55.0366
1182.25	88.4146
1185.14	68.2413
1188.03	87.5298
1190.93	76.0714
1193.82	70.2891
1196.71	103.266
1199.61	85.9873
1202.5	75.1802
1205.39	58.4589
1208.28	44.5665
1211.18	31.3733
1214.07	70.3733
1216.96	39.8654
1219.85	42.0807
1222.75	68.1473
1225.64	18.5467
1228.53	15.3742
1231.42	21.8075
1234.32	18.949
1237.21	32.0601
1240.1	7.14539
1242.99	14.387
1245.89	18.3555
1248.78	47.2341
1251.67	46.8567
1254.57	1.55872
1257.46	29.5121
1260.35	0.72522
1263.24	33.0333
1266.14	17.3052
1269.03	3.7395
