Measurement: Raman, 780 nm, unoriented, Raman Data Processed
Mineral: Sinhalite
Rruff sample: R100132
Ideal chemistry: MgAlBO_4_
Locality: Ratnapura district, Sri Lanka
Source: William W. Pinch
Description: Tan colored water-worn single crystal
Raman shift (cm-1)	intensity
148.941	0
151.834	1.92831
154.727	1.68887
157.62	1.4602
160.512	4.92499
163.405	2.92352
166.298	0.154114
169.19	1.2442
172.083	3.48779
174.976	4.18661
177.869	2.46832
180.761	4.16843
183.654	0.203125
186.547	1.15634
189.439	0.105408
192.332	3.24438
195.225	0.033569
198.117	1.13068
201.01	2.30975
203.903	1.95932
206.796	4.53149
209.688	2.65735
212.581	5.24963
215.474	4.53683
218.366	7.20383
221.259	10.8586
224.152	13.5695
227.044	16.3373
229.937	10.6976
232.83	8.28821
235.722	8.00491
238.615	9.95456
241.508	5.72607
244.401	5.65253
247.293	6.48364
250.186	4.46762
253.079	0.92038
255.971	3.38196
258.864	3.24725
261.757	0.331665
264.649	3.32245
267.542	1.36896
270.435	5.80841
273.328	4.44665
276.22	1.70779
279.113	1.84097
282.006	4.67548
284.898	0.414124
287.791	4.67084
290.684	2.61261
293.576	1.51886
296.469	2.79294
299.362	3.29782
302.255	3.34091
305.147	0.660797
308.04	2.3627
310.933	1.24326
313.825	1.43318
316.718	2.80728
319.611	0.443176
322.503	2.71541
325.396	2.99066
328.289	2.15228
331.182	0.601624
334.074	0.994461
336.967	0.090286
339.86	2.02397
342.752	1.99402
345.645	3.94481
348.538	0.21344
351.43	3.13629
354.323	4.88261
357.216	10.8887
360.108	14.0925
363.001	16.3501
365.894	26.07
368.787	51.3638
371.679	106.534
374.572	120.516
377.465	46.7817
380.357	25.5449
383.25	17.8668
386.143	16.0946
389.036	15.5476
391.928	25.3946
394.821	48.3167
397.714	65.8321
400.606	30.1492
403.499	23.8366
406.392	33.257
409.284	27.7975
412.177	14.0127
415.07	6.76976
417.962	4.19528
420.855	3.71327
423.748	2.47932
426.641	2.72528
429.533	0.740692
432.426	1.98973
435.319	1.37859
438.211	0.937088
441.104	0.804749
443.997	0.060364
446.889	0.127884
449.782	2.72459
452.675	3.14346
455.567	2.75342
458.46	3.93489
461.353	6.05214
464.246	9.21188
467.138	7.60461
470.031	13.4752
472.924	12.1623
475.816	14.8497
478.709	22.3245
481.602	28.3955
484.495	23.8057
487.387	16.7756
490.28	13.762
493.173	12.3811
496.065	9.47968
498.958	4.62372
501.851	4.00971
504.743	1.08665
507.636	2.3398
510.529	0.16124
513.422	1.03526
516.314	2.60814
519.207	0.172668
522.1	0.975494
524.992	3.25433
527.885	1.26694
530.778	1.69476
533.67	1.90974
536.563	4.58125
539.456	6.49811
542.348	11.7038
545.241	16.9235
548.134	33.6378
551.027	61.5421
553.919	66.2552
556.812	27.1793
559.705	9.2187
562.597	5.74439
565.49	1.91142
568.383	2.77568
571.275	0.066391
574.168	2.09724
577.061	1.689
579.954	3.44502
582.846	3.66869
585.739	4.90698
588.632	10.0774
591.524	14.1942
594.417	16.7019
597.31	24.8738
600.202	28.1684
603.095	37.4147
605.988	43.6693
608.881	39.3467
611.773	27.9546
614.666	14.8694
617.559	10.1892
620.451	6.49344
623.344	7.46773
626.237	4.36658
629.129	2.85167
632.022	3.21945
634.915	3.13393
637.808	4.06155
640.7	2.38008
643.593	0.329605
646.486	0.759354
649.378	2.33435
652.271	3.31894
655.164	1.47749
658.056	2.62608
660.949	0.665634
663.842	0.588486
666.735	0.093048
669.627	1.1882
672.52	1.40973
675.413	2.54138
678.305	0.832626
681.198	0.175323
684.091	2.74394
686.983	3.75501
689.876	1.94307
692.769	9.62717
695.662	14.051
698.554	19.2535
701.447	30.1261
704.34	47.9111
707.232	54.3196
710.125	38.9222
713.018	15.5368
715.91	13.698
718.803	11.4589
721.696	6.61671
724.588	8.11194
727.481	14.9402
730.374	18.3754
733.266	26.4511
736.159	33.1524
739.052	44.7625
741.945	49.1066
744.837	47.7477
747.73	41.6968
750.623	26.7531
753.515	20.3713
756.408	13.5834
759.301	7.40013
762.193	4.45943
765.086	1.90118
767.979	0.049423
770.872	0.166779
773.764	0.527573
776.657	2.44998
779.55	0.333435
782.442	0.300232
785.335	1.34061
788.228	2.96556
791.12	3.03987
794.013	3.70946
796.906	5.19528
799.799	5.64697
802.691	1.89929
805.584	2.60522
808.477	2.05441
811.369	3.7316
814.262	0.900574
817.155	2.20485
820.048	0.299011
822.94	3.08568
825.833	2.39592
828.726	3.2377
831.618	4.37782
834.511	6.62793
837.404	7.89513
840.296	10.3057
843.189	18.1104
846.082	23.1433
848.975	38.3046
851.867	50.8756
854.76	79.0913
857.653	111.932
860.545	128.069
863.438	98.8357
866.331	57.5296
869.223	35.6541
872.116	23.6004
875.009	16.9243
877.901	10.0562
880.794	8.25713
883.687	4.38208
886.58	5.09164
889.472	2.82704
892.365	1.65337
895.258	2.31064
898.15	0.96814
901.043	0.81572
903.936	1.29161
906.828	0.716217
909.721	1.64931
912.614	0.488876
915.506	1.37328
918.399	3.85101
921.292	3.21567
924.185	6.52338
927.077	9.36412
929.97	8.9599
932.863	16.1165
935.755	19.7386
938.648	27.893
941.541	36.0237
944.433	31.6282
947.326	26.9777
950.219	17.4967
953.112	12.742
956.004	8.05898
958.897	4.73348
961.79	4.27672
964.682	3.06605
967.575	4.79629
970.468	3.3102
973.361	0.796555
976.253	0.942078
979.146	1.45967
982.039	0.812973
984.931	1.14154
987.824	0.281769
990.717	0.244324
993.609	1.04108
996.502	1.49425
999.395	2.42632
1002.29	3.39075
1005.18	2.64253
1008.07	3.28818
1010.97	1.18668
1013.86	0.188599
1016.75	1.95168
1019.64	2.49011
1022.54	1.93837
1025.43	4.77536
1028.32	4.25606
1031.21	3.96996
1034.11	3.03226
1037	7.27097
1039.89	8.68928
1042.79	10.7216
1045.68	13.7687
1048.57	9.90508
1051.46	8.8725
1054.36	3.42532
1057.25	5.39485
1060.14	2.15488
1063.03	4.34134
1065.93	3.0101
1068.82	0.287506
1071.71	2.45673
1074.61	1.75652
1077.5	3.66313
1080.39	0.356522
1083.28	2.68242
1086.18	2.88702
1089.07	2.40128
1091.96	2.10178
1094.85	0.40152
1097.75	1.88689
1100.64	2.25493
1103.53	0.438965
1106.42	0.438385
1109.32	2.49574
1112.21	0.573074
1115.1	1.65645
1117.99	0.338516
1120.89	0.447403
1123.78	1.72423
1126.67	2.52535
1129.57	3.28873
1132.46	0.371994
1135.35	2.55989
1138.24	0.585938
1141.14	1.96024
1144.03	1.8439
1146.92	0.864609
1149.82	4.05695
1152.71	3.34941
1155.6	4.27202
1158.49	1.99019
1161.39	10.158
1164.28	3.06494
1167.17	1.93039
1170.06	4.01717
1172.96	3.21233
1175.85	1.02188
1178.74	3.88304
1181.63	1.05505
1184.53	4.07744
1187.42	2.00307
1190.31	3.60614
1193.21	4.1998
1196.1	3.42142
1198.99	3.86783
1201.88	3.93047
1204.78	5.32393
1207.67	5.36694
1210.56	2.61485
1213.45	0.491226
1216.35	4.13795
1219.24	2.64554
1222.13	2.4621
1225.03	1.90086
1227.92	1.9429
1230.81	2.80612
1233.7	0.401031
1236.6	4.31674
1239.49	1.75645
1242.38	3.10904
1245.27	1.78407
1248.17	4.22968
1251.06	3.23068
1253.95	0.201035
1256.85	3.39677
1259.74	3.06157
1262.63	1.13152
1265.52	1.3233
1268.42	2.82774
1271.31	1.85393
1274.2	0.253342
1277.09	1.18008
1279.99	0.376724
1282.88	0.988708
