Measurement: Raman, 780 nm, unoriented, Raman Data Processed
Mineral: Sinhalite
Rruff sample: R100163
Ideal chemistry: MgAlBO_4_
Locality: Ratnapura, Sri Lanka
Source: William W. Pinch
Description: Pale brown cut gemstone
Raman shift (cm-1)	intensity
93.4982	0
96.873	5.33025
100.248	0.16745
103.623	3.48273
106.997	2.29835
110.372	0.945374
113.747	0.511398
117.122	0.800903
120.497	3.35521
123.871	3.33995
127.246	0.949829
130.621	2.72755
133.996	0.780075
137.371	1.54091
140.746	2.6973
144.12	0.765701
147.495	1.27816
150.87	0.334457
154.245	2.12132
157.62	0.744965
160.994	4.30622
164.369	4.17779
167.744	4.328
171.119	4.44492
174.494	4.99605
177.869	1.83341
181.243	4.37151
184.618	2.56049
187.993	4.8464
191.368	1.06625
194.743	4.22973
198.117	4.93102
201.492	4.72564
204.867	4.0469
208.242	4.49892
211.617	6.13943
214.992	5.08025
218.366	7.03214
221.741	13.0274
225.116	25.8378
228.491	26.6474
231.866	18.2115
235.24	10.1474
238.615	9.92641
241.99	6.51011
245.365	7.7189
248.74	5.7138
252.114	6.22822
255.489	2.6441
258.864	1.39153
262.239	1.46762
265.614	3.49821
268.988	3.81867
272.363	4.51372
275.738	0.295448
279.113	0.468441
282.488	0.846786
285.863	1.96848
289.237	4.0056
292.612	4.80557
295.987	4.74963
299.362	1.46764
302.737	1.57452
306.111	0.357208
309.486	0.561928
312.861	4.42501
316.236	2.5089
319.611	2.01884
322.986	5.6991
326.36	13.225
329.735	7.95729
333.11	0.369102
336.485	1.4024
339.86	0.4217
343.234	0.184425
346.609	0.916092
349.984	3.18186
353.359	8.15323
356.734	16.2019
360.108	22.7993
363.483	39.8349
366.858	95.744
370.233	317.827
373.608	540.707
376.983	183.642
380.357	105.522
383.732	70.648
387.107	54.4654
390.482	79.4973
393.857	177.959
397.231	277.765
400.606	106.289
403.981	117.612
407.356	169.255
410.731	86.6266
414.106	71.4465
417.48	67.2629
420.855	22.1954
424.23	4.3224
427.605	1.65031
430.98	0.147415
434.354	1.34197
437.729	0.957932
441.104	0.254364
444.479	1.72868
447.854	3.06899
451.228	6.70473
454.603	12.5753
457.978	26.8659
461.353	50.562
464.728	69.5172
468.103	41.7382
471.477	39.2412
474.852	60.8321
478.227	99.9374
481.602	136.099
484.977	130.926
488.351	148.776
491.726	159.018
495.101	97.4214
498.476	46.9891
501.851	22.7271
505.226	11.8711
508.6	4.15134
511.975	3.19123
515.35	0.308075
518.725	1.38237
522.1	2.34193
525.474	0.990784
528.849	1.063
532.224	1.48981
535.599	3.89266
538.974	8.90373
542.348	18.1014
545.723	38.2196
549.098	108.478
552.473	192.731
555.848	74.6276
559.222	20.7326
562.597	8.05988
565.972	3.59631
569.347	3.81446
572.722	4.54491
576.097	9.4141
579.471	12.8932
582.846	17.8227
586.221	26.3724
589.596	37.9274
592.971	53.0034
596.346	77.9429
599.72	120.418
603.095	185.063
606.47	207.569
609.845	148.399
613.22	76.9514
616.594	38.8838
619.969	22.1417
623.344	15.5614
626.719	10.2208
630.094	8.41582
633.468	4.72871
636.843	4.72729
640.218	2.16307
643.593	1.22979
646.968	1.41013
650.342	0.352798
653.717	0.00135
657.092	1.09713
660.467	1.75668
663.842	0.262276
667.217	0.576073
670.591	1.01961
673.966	0.771286
677.341	0.005051
680.716	1.54684
684.091	4.09566
687.466	5.45106
690.84	13.2888
694.215	22.3582
697.59	39.5998
700.965	75.3894
704.34	138.879
707.714	152.476
711.089	80.2212
714.464	40.8142
717.839	28.8782
721.214	30.732
724.588	40.3324
727.963	56.5388
731.338	84.5178
734.713	129.23
738.088	183.076
741.462	221.081
744.837	208.357
748.212	158.061
751.587	106.489
754.962	71.1342
758.337	48.3642
761.711	33.9469
765.086	22.7565
768.461	17.8052
771.836	12.1138
775.211	8.309
778.586	6.32643
781.96	6.60438
785.335	9.71423
788.71	15.8171
792.085	26.706
795.46	28.4557
798.834	17.5404
802.209	8.41804
805.584	2.73379
808.959	1.52854
812.334	0.689423
815.708	0.114662
819.083	1.18944
822.458	1.45724
825.833	3.89997
829.208	6.5688
832.582	11.9052
835.957	18.4522
839.332	29.7776
842.707	48.5021
846.082	78.3813
849.457	125.604
852.831	212.858
856.206	372.17
859.581	505.375
862.956	384.981
866.331	208.353
869.706	116.7
873.08	75.0985
876.455	48.5416
879.83	30.4617
883.205	19.5569
886.58	11.2051
889.954	7.16063
893.329	5.33188
896.704	1.31219
900.079	0.136375
903.454	0.118423
906.828	0.372894
910.203	0.113823
913.578	2.17783
916.953	0.969109
920.328	5.10999
923.702	8.64018
927.077	16.3392
930.452	24.0065
933.827	40.8985
937.202	66.7324
940.577	87.7421
943.951	86.757
947.326	59.7032
950.701	33.8981
954.076	20.4846
957.451	11.8249
960.825	5.93375
964.2	4.96768
967.575	1.29082
970.95	1.10712
974.325	1.1133
977.699	0.524117
981.074	1.65557
984.449	2.67998
987.824	2.76251
991.199	3.06158
994.574	3.96514
997.948	4.69026
1001.32	2.48817
1004.7	1.48907
1008.07	-0.149674
1011.45	0.100952
1014.82	1.65826
1018.2	0.054337
1021.57	3.39233
1024.95	4.64641
1028.32	6.56454
1031.7	7.42879
1035.07	15.7885
1038.45	26.5547
1041.82	36.8049
1045.2	44.36
1048.57	33.1533
1051.94	20.1808
1055.32	11.4308
1058.69	5.8857
1062.07	3.96872
1065.44	2.45312
1068.82	2.05549
1072.19	2.39147
1075.57	0.59903
1078.94	1.21273
1082.32	0.298141
1085.69	0.287941
1089.07	0.73431
1092.44	2.29892
1095.82	1.68677
1099.19	1.89141
1102.57	0.897137
1105.94	0.198948
1109.32	3.52643
1112.69	0.938126
1116.07	1.36444
1119.44	3.10331
1122.82	2.17789
1126.19	0.90491
1129.57	3.04081
1132.94	2.33777
1136.32	1.98592
1139.69	1.48919
1143.07	1.6008
1146.44	2.17763
1149.82	4.37032
1153.19	1.36541
1156.57	1.56587
1159.94	1.09903
1163.31	0.596729
1166.69	1.54906
1170.06	1.86764
1173.44	2.32024
1176.81	0.918793
1180.19	3.2725
1183.56	2.24282
1186.94	1.76582
1190.31	2.6184
1193.69	2.52049
1197.06	2.88165
1200.44	0.658897
1203.81	1.43891
1207.19	3.57031
1210.56	1.53666
1213.94	2.87711
1217.31	2.06173
1220.69	1.21521
1224.06	3.24459
1227.44	0.372536
1230.81	1.62103
1234.18	1.36347
1237.56	2.37278
1240.93	1.10551
1244.31	1.16748
1247.68	1.37752
1251.06	1.98147
1254.43	0.703667
1257.81	0.224407
1261.18	1.03287
1264.56	0.955341
1267.93	0.625813
1271.31	0.236568
1274.68	3.81836
1278.06	1.69078
1281.43	2.60841
1284.81	0
