Measurement: Raman, 532 nm, unoriented, Raman Data Processed
Mineral: Sinkankasite
Rruff sample: R050466
Ideal chemistry: Mn^2+^Al(PO_3_OH)_2_(OH)6H_2_O
Locality: Barker mine, Keystone, South Dakota, USA
Source: University of Arizona Mineral Museum
Description: Cluster of acicular radiating colorless crystals
Measured chemistry: (Mn^2+^_0.55_Fe^2+^_0.42_Mg_0.03_)_Σ=1_Al_1.00_(P_1.00_O_3_OH)_2_(F_0.65_(OH)_0.35_)_Σ=1_·6H_2_O
Raman shift (cm-1)	intensity
159.938	0
162.831	5.39963
165.724	9.8857
168.616	11.5182
171.509	8.74052
174.402	5.5027
177.294	6.03301
180.187	3.36003
183.08	1.87422
185.973	0.789383
188.865	0.578171
191.758	1.69049
194.651	5.95459
197.543	7.59294
200.436	8.1581
203.329	9.76556
206.221	13.9942
209.114	21.9646
212.007	28.8406
214.9	32.2033
217.792	29.5728
220.685	24.9875
223.578	18.4025
226.47	13.489
229.363	9.96777
232.256	6.87103
235.149	5.39423
238.041	4.86394
240.934	8.30098
243.827	10.0424
246.719	12.1845
249.612	15.1017
252.505	20.9521
255.397	24.6373
258.29	30.5831
261.183	33.6531
264.075	33.9791
266.968	30.3314
269.861	24.8402
272.754	24.1708
275.646	25.3572
278.539	23.1315
281.432	17.2527
284.324	12.3556
287.217	9.01987
290.11	6.06529
293.002	3.67947
295.895	1.95448
298.788	0.076706
301.681	1.34241
304.573	0.822205
307.466	0.164749
310.359	0.438614
313.251	0.413849
316.144	0.063507
319.037	2.08984
321.93	2.95036
324.822	3.9791
327.715	5.15334
330.608	10.5332
333.5	11.3721
336.393	15.5062
339.286	18.7819
342.178	21.6956
345.071	24.9544
347.964	25.433
350.856	25.4666
353.749	25.2644
356.642	24.5586
359.535	24.2838
362.427	24.4634
365.32	24.7789
368.213	26.5517
371.105	26.754
373.998	26.5838
376.891	25.6572
379.784	24.2795
382.676	21.1025
385.569	16.915
388.462	12.27
391.354	9.48517
394.247	7.16305
397.14	5.54948
400.032	5.37814
402.925	4.04741
405.818	3.12059
408.711	1.91017
411.603	1.57486
414.496	1.05634
417.389	0.297485
420.281	0.356003
423.174	0.134995
426.067	0.704193
428.959	0.565338
431.852	0.267273
434.745	0.345856
437.637	0.490768
440.53	0.754745
443.423	1.85475
446.316	3.57933
449.208	3.33264
452.101	5.74146
454.994	7.92435
457.886	9.80031
460.779	13.9245
463.672	16.1207
466.565	17.9913
469.457	20.8981
472.35	21.7189
475.243	20.345
478.135	18.2371
481.028	15.3076
483.921	11.1043
486.813	9.54726
489.706	8.14232
492.599	5.16563
495.491	4.29172
498.384	5.13788
501.277	4.05553
504.17	2.89044
507.062	2.886
509.955	3.95776
512.848	4.56932
515.74	4.37749
518.633	2.96799
521.526	2.44334
524.418	2.87721
527.311	1.18793
530.204	1.20395
533.097	0.404358
535.989	0.147293
538.882	0.580215
541.775	0.022339
544.667	0.195129
547.56	0.500565
550.453	3.24759
553.346	3.0296
556.238	5.07069
559.131	6.41223
562.024	8.22568
564.916	8.65095
567.809	11.8995
570.702	12.7778
573.594	16.7181
576.487	19.8212
579.38	24.8395
582.273	29.1833
585.165	34.2595
588.058	42.0318
590.951	44.954
593.843	42.0733
596.736	36.0525
599.629	27.5859
602.521	22.1089
605.414	17.2755
608.307	14.961
611.199	12.2159
614.092	10.8125
616.985	8.90001
619.878	6.75351
622.77	6.42635
625.663	5.22055
628.556	3.68474
631.448	3.33794
634.341	2.14
637.234	1.61183
640.126	2.01743
643.019	2.07107
645.912	1.18919
648.805	0.893173
651.697	0.828445
654.59	0.167892
657.483	0.690826
660.375	0.054871
663.268	0.726593
666.161	1.12991
669.053	0.714066
671.946	0.48349
674.839	0.60321
677.732	2.56807
680.624	1.53598
683.517	2.67899
686.41	1.61615
689.302	0.226089
692.195	3.72821
695.088	5.27318
697.981	5.49524
700.873	4.99251
703.766	5.44614
706.659	4.36748
709.551	4.16986
712.444	2.38237
715.337	2.61568
718.229	2.51485
721.122	1.24777
724.015	1.91789
726.907	0.056366
729.8	0.927704
732.693	1.00581
735.586	1.53812
738.478	0.971344
741.371	1.68341
744.264	0.466812
747.156	1.52464
750.049	3.2619
752.942	1.35872
755.834	1.15447
758.727	0.27774
761.62	0.986237
764.513	1.2075
767.405	1.20723
770.298	0.481033
773.191	0.442749
776.083	1.5029
778.976	0.427872
781.869	1.79813
784.761	1.71056
787.654	1.49802
790.547	0.385315
793.439	0.242859
796.332	0.778198
799.225	0.579269
802.118	0.854172
805.01	0.18428
807.903	0.036026
810.796	0.200516
813.688	1.05946
816.581	0.764893
819.474	0.783417
822.366	0.611862
825.259	0.302444
828.152	1.97452
831.045	1.87559
833.937	1.7867
836.83	0.980423
839.723	1.42705
842.615	1.35071
845.508	1.63223
848.401	0.384598
851.293	0.122147
854.186	0.184982
857.079	1.04057
859.972	1.27002
862.864	0.930634
865.757	0.706512
868.65	1.00536
871.542	2.51265
874.435	1.9613
877.328	2.48645
880.221	3.40897
883.113	5.03461
886.006	4.99042
888.899	7.61703
891.791	10.5013
894.684	12.1938
897.577	15.4503
900.469	18.5637
903.362	23.2127
906.255	30.7062
909.148	43.7322
912.04	62.8984
914.933	88.1424
917.826	114.775
920.718	141.271
923.611	132.727
926.504	103.195
929.396	67.722
932.289	42.229
935.182	27.5881
938.074	18.0207
940.967	12.9512
943.86	10.6258
946.753	8.08884
949.645	5.96173
952.538	4.41702
955.431	6.01819
958.323	5.0426
961.216	5.8334
964.109	4.15784
967.001	3.12637
969.894	0.512848
972.787	0.739929
975.68	0.516022
978.572	1.90704
981.465	0.142487
984.358	0.903381
987.25	0.003021
990.143	1.29218
993.036	2.45038
995.928	3.8515
998.821	5.90057
1001.71	7.88745
1004.61	11.231
1007.5	13.6892
1010.39	13.784
1013.28	10.3303
1016.18	6.80093
1019.07	5.31354
1021.96	5.00427
1024.86	6.64957
1027.75	6.48331
1030.64	10.1277
1033.53	13.3908
1036.43	16.8657
1039.32	23.5942
1042.21	32.8335
1045.1	50.0175
1048	65.3646
1050.89	84.1285
1053.78	96.2798
1056.67	96.4677
1059.57	84.1941
1062.46	66.3143
1065.35	53.5868
1068.25	43.2231
1071.14	32.9941
1074.03	25.1736
1076.92	17.7662
1079.82	12.8473
1082.71	7.6358
1085.6	6.73917
1088.49	4.80072
1091.39	2.42532
1094.28	1.23508
1097.17	0.24234
1100.07	0.63858
1102.96	0.469299
1105.85	0.142578
1108.74	1.29251
1111.64	1.57987
1114.53	1.91522
1117.42	1.59485
1120.32	0.118652
1123.21	2.26617
1126.1	1.40851
1128.99	1.84393
1131.88	1.25589
1134.78	0.482727
1137.67	0.743958
1140.56	1.37119
1143.46	0.577057
1146.35	0.786163
1149.24	0.145782
1152.13	1.94568
1155.03	0.82132
1157.92	1.26032
1160.81	0.162354
1163.7	0.803558
1166.6	1.96777
1169.49	0.18277
1172.38	1.86151
1175.28	2.6745
1178.17	3.05844
1181.06	3.65015
1183.95	2.431
1186.85	2.42886
1189.74	3.62033
1192.63	2.38034
1195.53	3.03149
1198.42	1.7229
1201.31	1.72281
1204.2	1.64471
1207.1	1.79053
1209.99	1.11505
1212.88	0.087921
1215.77	1.92023
1218.67	2.1384
1221.56	2.2103
1224.45	1.19147
1227.34	0.613495
1230.24	1.02341
1233.13	0.787659
1236.02	0.732208
1238.91	0.631897
1241.81	0.677368
1244.7	1.21915
1247.59	1.63773
1250.49	2.68973
1253.38	3.01813
1256.27	0.809662
1259.16	1.7276
1262.06	3.18509
1264.95	1.52118
1267.84	1.21408
1270.73	1.37039
1273.63	0.556244
1276.52	2.04309
1279.41	0.616516
1282.31	1.88068
1285.2	1.48813
1288.09	3.24896
1290.98	2.28162
1293.88	0.514954
1296.77	0.170807
1299.66	1.01535
