Measurement: Raman, 780 nm, unoriented, Raman Data Processed
Mineral: Sinkankasite
Rruff sample: R050466
Ideal chemistry: Mn^2+^Al(PO_3_OH)_2_(OH)6H_2_O
Locality: Barker mine, Keystone, South Dakota, USA
Source: University of Arizona Mineral Museum
Description: Cluster of acicular radiating colorless crystals
Measured chemistry: (Mn^2+^_0.55_Fe^2+^_0.42_Mg_0.03_)_Σ=1_Al_1.00_(P_1.00_O_3_OH)_2_(F_0.65_(OH)_0.35_)_Σ=1_·6H_2_O
Raman shift (cm-1)	intensity
148.989	0
151.882	0.039696
154.775	0.950935
157.667	2.10563
160.56	4.16386
163.453	5.05114
166.345	6.26502
169.238	5.56832
172.131	3.00197
175.024	2.64608
177.916	1.0079
180.809	0.806976
183.702	0.353512
186.594	0.146389
189.487	0.766109
192.38	1.93594
195.272	3.14737
198.165	3.75645
201.058	4.24146
203.951	4.99353
206.843	6.8747
209.736	9.07198
212.629	10.3761
215.521	9.80577
218.414	9.0472
221.307	7.37193
224.199	5.67215
227.092	4.18391
229.985	2.91704
232.877	1.93364
235.77	1.64382
238.663	1.68645
241.556	2.64262
244.448	2.37066
247.341	2.68257
250.234	3.39286
253.126	4.7201
256.019	6.32591
258.912	7.14007
261.805	8.31583
264.697	7.87682
267.59	7.15057
270.483	7.19122
273.375	6.76062
276.268	6.3562
279.161	5.10199
282.053	3.7146
284.946	2.6477
287.839	1.5762
290.731	0.913776
293.624	0.249054
296.517	0.015232
299.41	0.218376
302.302	0.235472
305.195	0.002979
308.088	0.185734
310.98	0.04406
313.873	0.295439
316.766	0.330853
319.659	0.910591
322.551	1.30607
325.444	1.45458
328.337	2.26918
331.229	2.69008
334.122	3.22961
337.015	4.623
339.907	4.84001
342.8	4.75586
345.693	4.86656
348.586	5.48508
351.478	5.69502
354.371	5.65548
357.264	5.28041
360.156	5.2347
363.049	4.8044
365.942	4.92115
368.834	5.53059
371.727	5.5956
374.62	4.84214
377.512	4.42472
380.405	3.9408
383.298	3.01634
386.191	2.42927
389.083	2.26393
391.976	1.74116
394.869	1.65468
397.761	1.55701
400.654	2.11214
403.547	2.01579
406.44	1.78047
409.332	1.2963
412.225	1.14223
415.118	1.13836
418.01	0.471699
420.903	0.047009
423.796	0.252396
426.688	0.054565
429.581	0.127066
432.474	0.087376
435.366	0.072313
438.259	0.095068
441.152	0.083921
444.045	0.825403
446.937	0.766289
449.83	1.02447
452.723	1.28279
455.615	1.88761
458.508	2.07151
461.401	2.7585
464.293	3.68877
467.186	3.52921
470.079	3.94392
472.972	3.80309
475.864	2.6111
478.757	2.54047
481.65	2.17988
484.542	1.4282
487.435	1.16166
490.328	0.472765
493.221	0.361975
496.113	0.865225
499.006	0.722729
501.899	0.572998
504.791	0.317488
507.684	0.358612
510.577	0.727278
513.469	1.20831
516.362	0.903591
519.255	0.775421
522.148	0.967289
525.04	0.070477
527.933	0.189644
530.826	0.117393
533.718	0.09004
536.611	0.023663
539.504	0.082129
542.396	0.138453
545.289	0.603209
548.182	0.643873
551.074	1.31362
553.967	1.39887
556.86	2.1261
559.753	2.147
562.645	2.43396
565.538	2.77947
568.431	3.58216
571.323	4.69946
574.216	5.96481
577.109	6.8866
580.001	8.68485
582.894	10.3808
585.787	11.1751
588.68	12.9741
591.572	12.504
594.465	11.0171
597.358	8.76761
600.25	6.44301
603.143	5.90799
606.036	4.25626
608.928	3.81822
611.821	2.90081
614.714	2.43377
617.607	2.2286
620.499	1.78976
623.392	1.69709
626.285	1.37416
629.177	1.04058
632.07	0.755316
634.963	1.05794
637.856	0.505428
640.748	0.104433
643.641	0.120266
646.534	0.663321
649.426	0.276379
652.319	0.190638
655.212	0.105486
658.104	0.137138
660.997	0.202707
663.89	0.208204
666.783	0.384928
669.675	0.054699
672.568	0.232643
675.461	0.239906
678.353	0.34692
681.246	0.384764
684.139	0.034157
687.031	0.515844
689.924	0.586161
692.817	0.740505
695.71	0.886879
698.602	0.70948
701.495	1.40872
704.388	0.964666
707.28	0.921273
710.173	0.814787
713.066	0.580892
715.958	0.621443
718.851	0.489809
721.744	0.115555
724.636	0.4183
727.529	0.030514
730.422	0.357496
733.315	0.585677
736.207	0.372481
739.1	0.399186
741.993	0.498842
744.885	0.429874
747.778	0.310087
750.671	0.233208
753.563	0.351359
756.456	0.552144
759.349	0.524236
762.242	0.485348
765.134	0.313591
768.027	0.370431
770.92	0.029015
773.812	0.15524
776.705	0.06905
779.598	0.134252
782.49	0.061281
785.383	0.11987
788.276	0.409805
791.169	0.006413
794.061	0.258515
796.954	0.415489
799.847	0.352787
802.739	0.519878
805.632	0.331588
808.525	0.165092
811.418	0.737828
814.31	0.321966
817.203	0.266347
820.096	0.367137
822.988	0.030717
825.881	0.514216
828.774	0.104452
831.666	0.224324
834.559	0.38417
837.452	0.294439
840.345	0.487471
843.237	0.260841
846.13	0.281422
849.023	0.283989
851.915	0.117683
854.808	0.167384
857.701	0.289681
860.593	0.400684
863.486	0.33704
866.379	0.197262
869.271	0.219342
872.164	0.281876
875.057	0.21767
877.95	0.005128
880.842	0.069604
883.735	0.336245
886.628	0.830915
889.52	0.842408
892.413	1.52224
895.306	2.06141
898.198	2.83431
901.091	3.80196
903.984	5.21613
906.877	7.64726
909.769	10.7922
912.662	15.1439
915.555	19.7039
918.447	21.6048
921.34	22.3616
924.233	18.4077
927.125	13.0434
930.018	8.57925
932.911	5.24134
935.804	3.38654
938.696	2.39994
941.589	1.43582
944.482	1.05498
947.374	0.603477
950.267	0.939412
953.16	0.609514
956.053	0.841677
958.945	0.583341
961.838	0.873907
964.731	1.11963
967.623	0.520599
970.516	0.287217
973.409	0.094436
976.301	0.022679
979.194	0.087533
982.087	0.231546
984.98	0.155781
987.872	0.059048
990.765	0.751369
993.658	0.281461
996.55	0.911399
999.443	1.42345
1002.34	1.7151
1005.23	2.36095
1008.12	2.56545
1011.01	2.18804
1013.91	1.3717
1016.8	1.18666
1019.69	1.11725
1022.59	1.21778
1025.48	1.13309
1028.37	1.23177
1031.26	1.49266
1034.15	2.52309
1037.05	3.59211
1039.94	5.09128
1042.83	6.85426
1045.73	9.10035
1048.62	12.0954
1051.51	13.8646
1054.4	14.1554
1057.3	12.6854
1060.19	10.7542
1063.08	8.90026
1065.97	7.16155
1068.87	6.13312
1071.76	3.95497
1074.65	3.04886
1077.55	1.86044
1080.44	1.3261
1083.33	0.956469
1086.22	0.575329
1089.12	0.131907
1092.01	0.145349
1094.9	0.028561
1097.8	0.093005
1100.69	0.276382
1103.58	0.03089
1106.47	0.258614
1109.37	0.263145
1112.26	0.062976
1115.15	0.848885
1118.04	0.063573
1120.94	0.277024
1123.83	0.846148
1126.72	0.350776
1129.62	0.215362
1132.51	0.113855
1135.4	0.143703
1138.29	0.304243
1141.18	0.042674
1144.08	0.308036
1146.97	0.436795
1149.86	0.317188
1152.76	0.13491
1155.65	0.462495
1158.54	0.407481
1161.43	0.422913
1164.33	0.152186
1167.22	0.25897
1170.11	0.471197
1173.01	0.44872
1175.9	0.767616
1178.79	0.40536
1181.68	0.42592
1184.58	0.46949
1187.47	0.874677
1190.36	0.846033
1193.25	0.72729
1196.15	0.486622
1199.04	0.356873
1201.93	0.649737
1204.83	0.482985
1207.72	0.399837
1210.61	0.271605
1213.5	0.104984
1216.4	0.191341
1219.29	0.442708
1222.18	0.337374
1225.07	0.23781
1227.97	0.142287
1230.86	0.307498
1233.75	0.429316
1236.64	0.224959
1239.54	0.393945
1242.43	0.382122
1245.32	0.16516
1248.21	0.355638
1251.11	0.59927
1254	0.3643
1256.89	0.229027
1259.79	0.291439
1262.68	0.569863
1265.57	0.214952
1268.46	0.287537
1271.36	0.466297
1274.25	0.206088
1277.14	0.359302
1280.04	0.186369
1282.93	0
