Measurement: Raman, 780 nm, unoriented, Raman Data Processed
Mineral: Sklodowskite
Rruff sample: R050445
Ideal chemistry: Mg(UO_2_)_2_(SiO_3_OH)_2_6H_2_O
Locality: Mina las Animas, Santa Eulalia, Chihuahua, Mexico
Source: Peter Megaw
Description: Mass of transparent yellow flat fibers
Raman shift (cm-1)	intensity
140.311	0
143.204	0.492958
146.096	0.464668
148.989	2.21051
151.882	5.36195
154.775	7.58115
157.667	7.65886
160.56	8.27164
163.453	9.07751
166.345	7.80706
169.238	10.0584
172.131	13.3378
175.024	18.0592
177.916	24.9015
180.809	32.9899
183.702	43.5652
186.594	52.4617
189.487	60.4617
192.38	67.2688
195.272	71.9627
198.165	69.194
201.058	60.361
203.951	44.3007
206.843	29.2139
209.736	18.6601
212.629	10.2294
215.521	5.25355
218.414	2.06445
221.307	0.945885
224.199	0.81559
227.092	0.98391
229.985	0.648972
232.877	1.81152
235.77	4.09509
238.663	8.54639
241.556	14.804
244.448	20.6879
247.341	27.0672
250.234	35.0939
253.126	43.0768
256.019	53.2221
258.912	62.8255
261.805	69.9203
264.697	68.9626
267.59	60.7087
270.483	52.9356
273.375	51.1001
276.268	50.1405
279.161	50.0479
282.053	49.0139
284.946	44.3057
287.839	37.7374
290.731	32.2944
293.624	29.511
296.517	29.0705
299.41	30.334
302.302	31.115
305.195	29.5929
308.088	25.4615
310.98	20.735
313.873	17.4137
316.766	15.1065
319.659	11.4059
322.551	9.82684
325.444	6.95063
328.337	5.48761
331.229	3.7314
334.122	2.4577
337.015	1.56818
339.907	0.921589
342.8	0.044483
345.693	0.107618
348.586	0.706287
351.478	0.446417
354.371	0.680243
357.264	0.072363
360.156	0.059242
363.049	0.192387
365.942	1.32175
368.834	2.19577
371.727	2.5361
374.62	3.50126
377.512	3.9024
380.405	5.22839
383.298	6.13415
386.191	7.18045
389.083	8.10921
391.976	9.26304
394.869	11.0364
397.761	12.0381
400.654	13.5253
403.547	16.1721
406.44	16.9119
409.332	17.3115
412.225	18.2676
415.118	15.9284
418.01	12.9867
420.903	9.62593
423.796	6.82861
426.688	4.15447
429.581	3.39672
432.474	1.864
435.366	1.31089
438.259	0.825741
441.152	0.954166
444.045	0.331671
446.937	0.209751
449.83	0.558008
452.723	1.07664
455.615	1.99623
458.508	3.11619
461.401	4.31778
464.293	5.38222
467.186	6.84609
470.079	8.70666
472.972	9.5947
475.864	10.0064
478.757	10.0562
481.65	8.61206
484.542	6.87944
487.435	5.63334
490.328	4.6104
493.221	2.89271
496.113	1.98225
499.006	1.30733
501.899	0.155884
504.791	0.287106
507.684	0.2304
510.577	0.482491
513.469	0.69939
516.362	0.108122
519.255	0.455618
522.148	1.92761
525.04	3.21406
527.933	5.56853
530.826	8.04599
533.718	11.4441
536.611	14.8277
539.504	18.8477
542.396	22.0759
545.289	23.2515
548.182	22.9408
551.074	22.6915
553.967	19.2259
556.86	19.2867
559.753	12.1803
562.645	8.88897
565.538	6.70951
568.431	4.80224
571.323	2.90847
574.216	1.7705
577.109	1.67075
580.001	1.44443
582.894	0.741829
585.787	0.436453
588.68	0.022184
591.572	0.708837
594.465	0.277676
597.358	0.409598
600.25	0.507942
603.143	0.403782
606.036	0.433213
608.928	0.428235
611.821	0.440789
614.714	0.655021
617.607	0.578208
620.499	0.910307
623.392	0.845369
626.285	1.00112
629.177	1.36309
632.07	1.7684
634.963	2.19724
637.856	2.06245
640.748	2.30428
643.641	2.50739
646.534	2.45734
649.426	2.65429
652.319	2.73809
655.212	2.39282
658.104	2.22422
660.997	1.9711
663.89	1.72851
666.783	1.55075
669.675	1.06236
672.568	1.00736
675.461	0.455462
678.353	0.327932
681.246	0.294375
684.139	0.024502
687.031	0.028231
689.924	0.697705
692.817	0.179523
695.71	0.214779
698.602	0.567602
701.495	0.4438
704.388	0.983826
707.28	0.333155
710.173	0.024345
713.066	0.273359
715.958	0.646519
718.851	1.1045
721.744	2.11617
724.636	3.46499
727.529	4.90247
730.422	6.26426
733.315	8.8508
736.207	11.4135
739.1	15.892
741.993	19.9036
744.885	27.2906
747.778	34.0846
750.671	45.3152
753.563	61.88
756.456	82.1473
759.349	110.72
762.242	148.087
765.134	187.69
768.027	233.164
770.92	281.915
773.812	322.589
776.705	332.913
779.598	298.832
782.49	242.075
785.383	188.938
788.276	146.965
791.169	114.561
794.061	87.1876
796.954	67.9767
799.847	51.3367
802.739	41.5358
805.632	33.9514
808.525	30.6786
811.418	29.8843
814.31	31.4428
817.203	33.7462
820.096	36.9113
822.988	39.3957
825.881	41.0374
828.774	37.5951
831.666	29.9042
834.559	21.4896
837.452	12.8223
840.345	6.45925
843.237	3.58702
846.13	1.58808
849.023	0.273973
851.915	1.1804
854.808	0.766226
857.701	0.81254
860.593	0.509434
863.486	0.224913
866.379	0.363422
869.271	0.073952
872.164	0.314528
875.057	0.028034
877.95	0.106108
880.842	0.765863
883.735	0.417023
886.628	0.056856
889.52	0.339397
892.413	1.06835
895.306	1.88501
898.198	2.00084
901.091	1.8015
903.984	2.26192
906.877	3.31584
909.769	3.99381
912.662	4.73311
915.555	5.72647
918.447	7.69832
921.34	9.27332
924.233	11.3872
927.125	14.041
930.018	17.6584
932.911	20.2376
935.803	19.3087
938.696	15.3474
941.589	13.4487
944.482	15.3033
947.374	20.4247
950.267	30.0263
953.16	45.6703
956.052	64.2442
958.945	85.7932
961.838	109.95
964.731	134.968
967.623	141.077
970.516	114.971
973.409	78.603
976.301	52.3527
979.194	36.517
982.087	26.0785
984.979	20.0242
987.872	14.5932
990.765	11.6061
993.658	9.02866
996.55	7.49825
999.443	6.12411
1002.34	4.72712
1005.23	3.95193
1008.12	3.11225
1011.01	2.24025
1013.91	1.83852
1016.8	1.39042
1019.69	1.05181
1022.59	0.746097
1025.48	0.33272
1028.37	0.157275
1031.26	0.003724
1034.15	0.226953
1037.05	0.102905
1039.94	0.017892
1042.83	0.067807
1045.73	0.173364
1048.62	0.095306
1051.51	0.047904
1054.4	0.113656
1057.3	0.017142
1060.19	0.183681
1063.08	0.379839
1065.97	0.365067
1068.87	0.10738
1071.76	0.510234
1074.65	0.959621
1077.55	0.682649
1080.44	0.894685
1083.33	0.773523
1086.22	0.932441
1089.12	0.8905
1092.01	0.821074
1094.9	1.17683
1097.8	1.06334
1100.69	0.807899
1103.58	0.987504
1106.47	0.705383
1109.37	0.798155
1112.26	0.882094
1115.15	0.713775
1118.04	0.717412
1120.94	0.629983
1123.83	0.859359
1126.72	0.96264
1129.61	0.881972
1132.51	0.856351
1135.4	1.06124
1138.29	1.20218
1141.18	1.31085
1144.08	1.47774
1146.97	1.66752
1149.86	1.99156
1152.76	1.70483
1155.65	1.71359
1158.54	1.45789
1161.43	1.36678
1164.33	0.984109
1167.22	0.889198
1170.11	0.938131
1173.01	0.750021
1175.9	0.604044
1178.79	0.35739
1181.68	0.291008
1184.58	0.382159
1187.47	0.040562
1190.36	0.213386
1193.25	0.162309
1196.15	0.220653
1199.04	0.110143
1201.93	0.083949
1204.83	0.172007
1207.72	0.063232
1210.61	0.198227
1213.5	0.050356
1216.39	0.032569
1219.29	0.130056
1222.18	0.234211
1225.07	0.170042
1227.97	0.085545
1230.86	0.007587
1233.75	0.03992
1236.64	0.078626
1239.54	0.012914
1242.43	0.005257
1245.32	0.014228
1248.21	0.220728
1251.11	0.333704
1254	0.248959
1256.89	0.125566
1259.79	0.204998
1262.68	0.050175
1265.57	0.179251
1268.46	0.010663
1271.36	0.090495
1274.25	0.178007
1277.14	0.058156
1280.04	0.191583
1282.93	0.235242
1285.82	0.264601
1288.71	0
