Measurement: Raman, 532 nm, unoriented, Raman Data Processed
Mineral: Sklodowskite
Rruff sample: R050445
Ideal chemistry: Mg(UO_2_)_2_(SiO_3_OH)_2_6H_2_O
Locality: Mina las Animas, Santa Eulalia, Chihuahua, Mexico
Source: Peter Megaw
Description: Mass of transparent yellow flat fibers
Raman shift (cm-1)	intensity
140.654	0
144.029	6.34631
147.403	23.1676
150.778	29.8872
154.153	31.1459
157.528	18.8738
160.903	14.0043
164.277	14.2883
167.652	14.4149
171.027	24.3041
174.402	20.3721
177.777	26.8919
181.151	41.8722
184.526	64.7317
187.901	80.2346
191.276	96.703
194.651	104.179
198.025	104.325
201.4	92.1906
204.775	64.3766
208.15	37.4382
211.525	19.6992
214.9	15.502
218.274	3.50879
221.649	3.3501
225.024	3.94788
228.399	2.35974
231.774	1.12805
235.149	2.6687
238.523	5.71704
241.898	11.5416
245.273	18.5439
248.648	32.788
252.023	38.1537
255.397	48.2144
258.772	56.0367
262.147	67.9971
265.522	74.964
268.897	70.2833
272.272	75.8092
275.646	79.1274
279.021	80.3655
282.396	81.9819
285.771	76.2268
289.146	71.7884
292.52	64.6971
295.895	63.7961
299.27	62.0538
302.645	69.2701
306.02	68.2523
309.394	62.2947
312.769	52.9504
316.144	50.2128
319.519	45.1057
322.894	40.7666
326.269	28.6941
329.643	26.4331
333.018	20.6323
336.393	15.6521
339.768	12.3103
343.143	9.88904
346.517	6.33814
349.892	10.1697
353.267	3.60425
356.642	4.36231
360.017	1.23633
363.392	1.24402
366.766	6.07507
370.141	2.15198
373.516	1.48743
376.891	0.036011
380.266	9.52319
383.64	8.74023
387.015	3.1355
390.39	10.9694
393.765	15.1484
397.14	21.2053
400.514	28.775
403.889	23.4855
407.264	34.5225
410.639	33.2872
414.014	28.3763
417.389	25.2388
420.763	16.5643
424.138	11.1267
427.513	0.734009
430.888	0.9646
434.263	5.26819
437.637	3.66907
441.012	1.73987
444.387	2.82214
447.762	2.26917
451.137	6.32007
454.512	5.72937
457.886	17.3223
461.261	22.6033
464.636	28.1555
468.011	38.8523
471.386	42.0729
474.76	51.4471
478.135	48.9623
481.51	59.3506
484.885	64.7432
488.26	66.827
491.635	67.6293
495.009	73.1317
498.384	74.9796
501.759	72.281
505.134	74.5621
508.509	70.8149
511.884	66.1168
515.258	66.192
518.633	68.8385
522.008	68.0013
525.383	74.2219
528.758	72.7406
532.132	74.9617
535.507	63.0461
538.882	73.8865
542.257	66.3373
545.632	71.1582
549.006	61.8275
552.381	69.9891
555.756	53.3684
559.131	43.9773
562.506	39.5
565.88	39.9685
569.255	37.0789
572.63	34.2922
576.005	25.0155
579.38	23.6384
582.755	19.99
586.129	27.6717
589.504	26.1915
592.879	18.6466
596.254	9.24915
599.629	4.33557
603.004	7.67017
606.378	5.94507
609.753	0.849121
613.128	5.74365
616.503	3.03467
619.878	1.76733
623.252	2.98975
626.627	1.25208
630.002	2.00732
633.377	1.55798
636.752	0.78064
640.126	1.54834
643.501	5.99133
646.876	8.72827
650.251	3.18591
653.626	3.13892
657	5.37122
660.375	1.81421
663.75	7.40527
667.125	2.42432
670.5	2.40955
673.875	4.8009
677.25	0.328613
680.624	0.144043
683.999	2.80664
687.374	1.45007
690.749	2.05469
694.124	7.23401
697.498	4.07983
700.873	4.26623
704.248	1.92773
707.623	4.32959
710.998	1.13171
714.372	4.49634
717.747	4.33582
721.122	6.36194
724.497	6.03772
727.872	12.8638
731.246	11.1626
734.621	19.7776
737.996	29.0886
741.371	32.6763
744.746	45.5568
748.12	58.696
751.495	86.713
754.87	125.182
758.245	174.182
761.62	249.436
764.995	340.128
768.369	444.759
771.744	554.012
775.119	628.311
778.494	597.04
781.869	497.224
785.244	382.725
788.618	287.804
791.993	216.314
795.368	155.558
798.743	118.189
802.118	83.7689
805.492	61.2897
808.867	58.4756
812.242	54.147
815.617	54.957
818.992	54.3513
822.366	58.9253
825.741	65.3148
829.116	51.8303
832.491	38.447
835.866	18.0356
839.241	10.4183
842.615	4.1344
845.99	2.7655
849.365	0.265015
852.74	7.1803
856.115	4.42688
859.49	1.65515
862.864	1.43018
866.239	1.38892
869.614	0.535156
872.989	3.62097
876.364	2.43994
879.738	2.64722
883.113	0.270874
886.488	0.091553
889.863	3.14429
893.238	4.59448
896.612	3.39307
899.987	5.79919
903.362	8.64477
906.737	8.44983
910.112	5.35059
913.487	9.78174
916.861	13.7938
920.236	17.7996
923.611	19.8655
926.986	22.949
930.361	32.7977
933.736	37.6392
937.11	31.5183
940.485	17.1702
943.86	15.9866
947.235	11.6223
950.61	27.1155
953.984	45.4185
957.359	74.6997
960.734	99.8219
964.109	132.734
967.484	144.954
970.858	114.927
974.233	72.8658
977.608	46.6454
980.983	31.2955
984.358	24.4911
987.732	16.4193
991.107	10.4642
994.482	3.03626
997.857	5.4082
1001.23	5.8562
1004.61	2.65784
1007.98	1.2887
1011.36	0.018799
1014.73	0.991333
1018.11	2.16894
1021.48	0.851685
1024.86	2.39197
1028.23	4.85199
1031.61	3.5036
1034.98	0.483215
1038.36	2.0025
1041.73	2.28125
1045.1	7.19836
1048.48	4.2475
1051.85	4.06268
1055.23	0.889099
1058.6	2.67835
1061.98	7.45721
1065.35	4.79163
1068.73	0.656494
1072.1	7.44305
1075.48	9.3894
1078.85	2.46948
1082.23	4.81836
1085.6	3.04388
1088.98	6.83899
1092.35	6.77814
1095.73	3.8313
1099.1	4.11133
1102.48	4.1239
1105.85	2.73871
1109.23	4.38214
1112.6	3.13074
1115.97	3.32001
1119.35	4.08057
1122.72	4.8949
1126.1	5.84051
1129.47	7.4906
1132.85	1.76373
1136.22	2.25647
1139.6	5.71497
1142.97	1.34149
1146.35	8.34302
1149.72	8.50854
1153.1	7.3894
1156.47	4.9621
1159.85	4.19385
1163.22	7.62854
1166.6	9.52283
1169.97	4.94397
1173.35	1.57929
1176.72	2.91406
1180.1	2.66821
1183.47	1.29901
1186.85	0.115479
1190.22	1.77887
1193.6	1.56525
1196.97	4.51453
1200.35	5.07446
1203.72	2.41449
1207.1	4.14404
1210.47	4.59747
1213.85	5.84509
1217.22	11.1692
1220.6	11.1145
1223.97	11.3604
1227.34	14.7231
1230.72	11.7535
1234.09	10.6892
1237.47	10.0884
1240.84	8.84967
1244.22	13.9744
1247.59	17.139
1250.97	13.0183
1254.34	14.7109
1257.72	11.7221
1261.09	16.5825
1264.47	13.6891
1267.84	7.48944
1271.22	13.6614
1274.59	12.3645
1277.97	9.65649
1281.34	13.1765
1284.72	11.2006
1288.09	10.9327
1291.47	6.83881
1294.84	6.7887
1298.22	1.88281
1301.59	1.06421
1304.96	0
