Measurement: Raman, 532 nm, unoriented, Raman Data Processed
Mineral: Skorpionite
Rruff sample: R060938
Ideal chemistry: Ca_3_Zn_2_(PO_4_)_2_CO_3_(OH)_2_H_2_O
Locality: Skorpion Zinc deposit, west of Rosh Pinah, southern Namibia
Source: William W. Pinch
Description: Pale green to colorless acicular crystals
Raman shift (cm-1)	intensity
126.825	0
129.718	130.549
132.611	230.168
135.504	392.457
138.396	452.894
141.289	339.56
144.182	270.906
147.074	231.559
149.967	100.973
152.86	25.9918
155.752	4.29224
158.645	23.5715
161.538	5.99023
164.43	1.18335
167.323	9.45862
170.216	18.3121
173.109	24.1362
176.001	105.164
178.894	225.849
181.787	343.821
184.679	463.908
187.572	544.743
190.465	779.615
193.357	1056.06
196.25	1243.4
199.143	1329.77
202.036	1294.87
204.928	1345.6
207.821	1499.18
210.714	1697.51
213.606	1971.35
216.499	2381.33
219.392	2865.28
222.285	3027.52
225.177	2987.02
228.07	2916.87
230.963	2937.81
233.855	2966.17
236.748	2695.39
239.641	2185.22
242.533	1510.03
245.426	1048.18
248.319	676.768
251.212	471.042
254.104	368.195
256.997	343.781
259.89	375.19
262.782	349.445
265.675	400.859
268.568	404.812
271.46	399.731
274.353	402.22
277.246	355.01
280.138	244.967
283.031	113.653
285.924	57.0306
288.817	26.2012
291.709	18.0272
294.602	41.0118
297.495	0.545288
300.387	68.9745
303.28	165.25
306.173	328.459
309.065	483.753
311.958	678.789
314.851	805.355
317.743	804.984
320.636	739.721
323.529	633.263
326.422	476.197
329.314	301.448
332.207	185.054
335.1	141.421
337.992	63.0347
340.885	36.5795
343.778	3.61169
346.671	15.1385
349.563	42.5094
352.456	20.2669
355.349	13.3774
358.241	1.88294
361.134	16.9516
364.027	74.821
366.919	128.891
369.812	248.432
372.705	386.353
375.598	540.977
378.49	662.744
381.383	732.379
384.276	634.596
387.168	478.868
390.061	335.974
392.954	289.956
395.846	229.879
398.739	280.211
401.632	372.237
404.524	502.01
407.417	700.71
410.31	996.039
413.203	1426.71
416.095	1914.69
418.988	2328.9
421.881	2447.83
424.773	1955.37
427.666	1244.31
430.559	706.049
433.452	399.118
436.344	230.024
439.237	101.886
442.13	70.521
445.022	56.6136
447.915	45.3474
450.808	79.9633
453.7	185.392
456.593	234.624
459.486	362.695
462.378	437.959
465.271	516.096
468.164	452.67
471.057	351.057
473.949	205.502
476.842	134.561
479.735	65.1928
482.627	21.3287
485.52	33.135
488.413	8.3689
491.305	21.7545
494.198	24.5325
497.091	61.1281
499.983	120.331
502.876	143.073
505.769	195.968
508.662	218.263
511.554	229.549
514.447	202.369
517.34	206.624
520.232	178.384
523.125	131.893
526.018	98.7319
528.91	73.0732
531.803	32.8569
534.696	5.24322
537.589	10.1106
540.481	9.47913
543.374	0.013367
546.267	18.4092
549.159	9.51361
552.052	9.29596
554.945	0.850281
557.837	19.5104
560.73	46.9933
563.623	81.9509
566.516	173.709
569.408	353.353
572.301	462.205
575.194	537.045
578.086	392.248
580.979	349.704
583.872	380.95
586.764	496.392
589.657	428.908
592.55	253.241
595.443	216.078
598.335	270.693
601.228	202.599
604.121	73.5228
607.013	21.0923
609.906	19.8365
612.799	18.1029
615.692	54.6993
618.584	123.281
621.477	207.654
624.37	369.482
627.262	576.916
630.155	895.442
633.048	1157.44
635.94	1430.18
638.833	1414.35
641.726	971.256
644.619	533.254
647.511	324.306
650.404	184.309
653.297	104.831
656.189	57.3408
659.082	20.7781
661.975	1.72272
664.867	4.27753
667.76	6.6814
670.653	11.9545
673.545	26.2419
676.438	11.8206
679.331	65.1112
682.224	120.463
685.116	178.441
688.009	190.915
690.902	164.592
693.794	181.023
696.687	299.043
699.58	350.461
702.472	319.277
705.365	156.993
708.258	104.077
711.15	36.493
714.043	31.7846
716.936	16.0341
719.829	8.4516
722.721	2.29346
725.614	0.312378
728.507	26.7914
731.399	36.5917
734.292	18.2811
737.185	21.0027
740.077	32.5664
742.97	33.3385
745.863	25.6653
748.756	43.5506
751.648	26.558
754.541	14.2742
757.434	45.4717
760.326	52.7623
763.219	61.0545
766.112	66.3608
769.005	68.6952
771.897	31.5893
774.79	49.0562
777.683	86.133
780.575	44.101
783.468	71.6793
786.361	78.7378
789.253	78.772
792.146	92.0958
795.039	97.7509
797.932	110.713
800.824	104.911
803.717	125.359
806.61	85.8689
809.502	100.925
812.395	94.8884
815.288	84.508
818.18	87.5078
821.073	83.5264
823.966	98.6866
826.859	73.4124
829.751	55.6299
832.644	68.1062
835.537	54.3752
838.429	90.4336
841.322	53.0203
844.215	66.4586
847.107	66.5235
850	54.8101
852.893	58.6711
855.785	67.6196
858.678	48.596
861.571	56.1242
864.464	37.813
867.356	51.7299
870.249	32.1353
873.142	49.9032
876.034	10.8583
878.927	16.8
881.82	26.0358
884.712	16.071
887.605	6.90369
890.498	4.15216
893.391	30.2173
896.283	23.9122
899.176	2.7934
902.069	15.5643
904.961	14.4433
907.854	1.53076
910.747	7.67584
913.639	2.9306
916.532	23.1118
919.425	33.0676
922.317	57.9036
925.21	71.7961
928.103	89.6242
930.996	124.683
933.888	183.181
936.781	244.037
939.674	364.274
942.566	409.626
945.459	539.423
948.352	668.221
951.245	878.581
954.137	1265.08
957.03	2006.93
959.923	3188.72
962.815	5056.73
965.708	7841.29
968.601	10837.5
971.493	11220
974.386	6656.53
977.279	3232.86
980.172	1663.54
983.064	957.66
985.957	574.229
988.85	371.235
991.742	285.329
994.635	194.102
997.528	256.29
1000.42	349.584
1003.31	554.475
1006.21	779.319
1009.1	1090.26
1011.99	1409.28
1014.88	1896.69
1017.78	1379.45
1020.67	543.765
1023.56	242.6
1026.45	69.7524
1029.35	5.81653
1032.24	21.1094
1035.13	16.0657
1038.03	32.2781
1040.92	8.0946
1043.81	122.234
1046.7	272.437
1049.6	513.057
1052.49	745.614
1055.38	730.578
1058.27	528.452
1061.17	654.274
1064.06	1152.47
1066.95	2091.43
1069.85	4142.5
1072.74	7049.84
1075.63	7497.26
1078.52	2469.96
1081.42	916.356
1084.31	499.846
1087.2	396.019
1090.09	434.949
1092.99	600.905
1095.88	884.484
1098.77	1053.54
1101.66	819.686
1104.56	536.021
1107.45	298.739
1110.34	170.382
1113.24	73.8886
1116.13	52.1134
1119.02	44.7239
1121.91	24.205
1124.81	0.610779
1127.7	8.09686
1130.59	4.93054
1133.48	1.22748
1136.38	8.42987
1139.27	0.568542
1142.16	1.34283
1145.06	12.9025
1147.95	10.9083
1150.84	34.9659
1153.73	16.9343
1156.63	28.2538
1159.52	22.0407
1162.41	24.207
1165.3	7.40045
1168.2	40.5363
1171.09	36.3367
1173.98	33.5281
1176.88	45.1642
1179.77	19.4039
1182.66	53.9174
1185.55	49.6663
1188.45	53.4761
1191.34	57.4133
1194.23	29.0691
1197.12	23.247
1200.02	4.66919
1202.91	37.0924
1205.8	0.287048
1208.69	4.482
1211.59	9.93896
1214.48	1.50555
1217.37	4.68597
1220.27	19.916
1223.16	17.5639
1226.05	25.766
1228.94	4.05786
1231.84	32.1674
1234.73	16.8599
1237.62	13.9259
1240.51	25.0695
1243.41	24.0193
1246.3	35.2969
1249.19	16.8651
1252.09	5.79511
1254.98	27.5581
1257.87	31.6105
1260.76	8.98041
1263.66	24.7693
1266.55	3.04675
1269.44	19.014
1272.33	12.864
1275.23	0
