Measurement: Raman, 785 nm, unoriented, Raman Data Processed
Mineral: Skorpionite
Rruff sample: R060938
Ideal chemistry: Ca_3_Zn_2_(PO_4_)_2_CO_3_(OH)_2_H_2_O
Locality: Skorpion Zinc deposit, west of Rosh Pinah, southern Namibia
Source: William W. Pinch
Description: Pale green to colorless acicular crystals
Raman shift (cm-1)	intensity
123.939	0
126.831	139.796
129.724	318.064
132.617	456.384
135.509	339.159
138.402	77.1332
141.295	137.607
144.188	201.623
147.08	428.735
149.973	371.746
152.866	234.972
155.758	70.7104
158.651	34.1676
161.544	32.4716
164.436	15.6113
167.329	53.875
170.222	38.7843
173.114	37.1987
176.007	101.897
178.9	144.518
181.793	281.268
184.685	297.693
187.578	307.805
190.471	503.193
193.363	698.852
196.256	885.117
199.149	1045.59
202.042	989.615
204.934	1052.21
207.827	1181.91
210.72	1295.67
213.612	1636.6
216.505	2031.59
219.398	2480.32
222.29	2809.9
225.183	2774.28
228.076	2635.19
230.969	2665.11
233.861	2775.98
236.754	2653.2
239.647	2130.37
242.539	1484.8
245.432	949.279
248.325	596.885
251.217	389.123
254.11	321.898
257.003	329.772
259.896	307.775
262.788	265.261
265.681	314.705
268.574	301.753
271.466	328.028
274.359	316.736
277.252	275.747
280.144	191.421
283.037	100.142
285.93	59.9988
288.822	13.036
291.715	22.0928
294.608	10.9907
297.5	11.4983
300.393	35.9068
303.286	128.895
306.179	252.092
309.071	389.93
311.964	554.952
314.857	686.554
317.749	749.206
320.642	587.668
323.535	446.183
326.428	357.664
329.32	241.342
332.213	178.687
335.106	119.017
337.998	40.6997
340.891	3.01227
343.784	11.4548
346.676	19.1895
349.569	27.5278
352.462	10.1801
355.354	2.88922
358.247	7.80926
361.14	23.9636
364.033	89.4681
366.925	128.451
369.818	236.066
372.711	340.147
375.603	488.812
378.496	610.344
381.389	662.917
384.281	526.813
387.174	422.744
390.067	245.987
392.96	213.47
395.852	186.81
398.745	157.462
401.638	190.299
404.53	275.877
407.423	358.731
410.316	562.978
413.209	835.036
416.101	1200.72
418.994	1511.99
421.887	1609.43
424.779	1291.91
427.672	770.778
430.565	420.621
433.457	234.254
436.35	119.763
439.243	33.6902
442.135	15.1749
445.028	25.3625
447.921	36.0585
450.814	45.8908
453.706	80.473
456.599	176.502
459.492	284.46
462.384	357.714
465.277	413.345
468.17	389.748
471.062	281.17
473.955	197.147
476.848	114.113
479.74	71.542
482.633	9.53778
485.526	8.99408
488.419	10.4214
491.311	26.8026
494.204	42.4569
497.097	33.3907
499.989	49.6621
502.882	108.073
505.775	138.792
508.668	172.435
511.56	170.112
514.453	184.801
517.346	174.359
520.238	118.839
523.131	105.711
526.024	103.819
528.916	45.4279
531.809	2.14886
534.702	7.75983
537.595	13.3964
540.487	15.0522
543.38	17.1725
546.273	12.6426
549.165	46.2381
552.058	14.0893
554.951	19.3699
557.843	24.9896
560.736	50.6487
563.629	50.2123
566.521	80.7267
569.414	109.378
572.307	261.21
575.2	307.19
578.092	270.796
580.985	315.423
583.878	353.133
586.77	473.723
589.663	342.153
592.556	264.643
595.448	210.399
598.341	228.969
601.234	193.69
604.127	71.2909
607.019	44.258
609.912	31.9861
612.805	28.3102
615.697	40.3496
618.59	75.5667
621.483	191.189
624.375	309.318
627.268	459.197
630.161	784.466
633.053	1103.61
635.946	1313.94
638.839	1280.77
641.732	880.966
644.624	464.875
647.517	250.601
650.41	153.192
653.302	112.007
656.195	89.9616
659.088	43.2824
661.981	15.2432
664.873	38.8199
667.766	15.7178
670.659	12.7596
673.551	45.2313
676.444	43.0962
679.337	72.0284
682.229	166.701
685.122	134.725
688.015	98.6469
690.908	97.4168
693.8	131.256
696.693	153.393
699.586	224.945
702.478	156.004
705.371	68.4349
708.264	68.9907
711.156	77.6301
714.049	32.7174
716.942	24.551
719.835	40.1047
722.727	9.17767
725.62	33.5222
728.513	44.5109
731.405	14.5799
734.298	11.7795
737.191	70.5464
740.083	34.9921
742.976	22.2987
745.869	20.7571
748.761	6.47995
751.654	16.8611
754.547	40.9743
757.44	64.8043
760.332	49.3115
763.225	17.685
766.118	11.9154
769.01	5.50732
771.903	69.7021
774.796	75.2226
777.688	25.6104
780.581	72.73
783.474	83.8645
786.367	78.6039
789.259	65.9143
792.152	64.8602
795.045	21.2688
797.937	12.828
800.83	5.58255
803.723	48.6456
806.615	55.6078
809.508	71.178
812.401	68.0493
815.294	101.432
818.186	60.7032
821.079	80.8983
823.972	75.5218
826.864	6.89044
829.757	6.33112
832.65	51.5393
835.542	29.0543
838.435	27.3345
841.328	50.9315
844.221	22.7886
847.113	46.727
850.006	87.7528
852.899	27.9098
855.791	19.9047
858.684	25.6819
861.577	10.5851
864.469	30.0981
867.362	5.79724
870.255	40.1292
873.148	38.2961
876.04	33.1998
878.933	48.2565
881.826	20.4338
884.718	20.2895
887.611	23.0141
890.504	21.3683
893.396	10.708
896.289	42.2216
899.182	17.8032
902.074	2.22424
904.967	4.48242
907.86	5.41418
910.753	18.886
913.645	54.6685
916.538	14.8237
919.431	30.491
922.323	4.30164
925.216	63.7936
928.109	65.6617
931.001	106.812
933.894	114.138
936.787	199.609
939.68	210.22
942.572	254.254
945.465	349.896
948.358	392.822
951.25	561.58
954.143	734.568
957.036	1055.28
959.928	1760.06
962.821	2945.46
965.714	4971.25
968.607	6978.58
971.499	6667.07
974.392	3735.38
977.285	1833.69
980.177	929.312
983.07	552.092
985.963	361.86
988.856	204.82
991.748	77.0718
994.641	88.4181
997.534	138.92
1000.43	203.443
1003.32	279.933
1006.21	371.212
1009.1	589.733
1012	915.367
1014.89	1184.45
1017.78	744.192
1020.67	302.318
1023.57	22.7949
1026.46	6.54004
1029.35	48.4489
1032.25	2.88477
1035.14	20.1886
1038.03	2.88806
1040.92	9.09509
1043.82	68.7178
1046.71	196.386
1049.6	376.014
1052.49	511.096
1055.39	456.663
1058.28	328.363
1061.17	301.882
1064.07	433.456
1066.96	895.65
1069.85	2082.93
1072.74	3959.24
1075.64	3471.63
1078.53	1070.98
1081.42	405.397
1084.31	255.083
1087.21	167.158
1090.1	220.179
1092.99	323.066
1095.88	445.209
1098.78	566.732
1101.67	446.672
1104.56	315.262
1107.46	164.015
1110.35	43.0458
1113.24	54.5245
1116.13	16.1956
1119.03	29.4473
1121.92	25.426
1124.81	9.99722
1127.7	46.2667
1130.6	9.802
1133.49	18.4374
1136.38	32.5262
1139.28	43.2297
1142.17	23.1842
1145.06	24.7125
1147.95	13.45
1150.85	31.1999
1153.74	54.2448
1156.63	42.0301
1159.53	54.7407
1162.42	44.9143
1165.31	62.4766
1168.2	59.4786
1171.1	52.3684
1173.99	59.6624
1176.88	20.185
1179.77	83.0957
1182.67	58.5383
1185.56	88.862
1188.45	100.112
1191.34	42.8268
1194.24	67.4214
1197.13	75.7069
1200.02	45.0559
1202.91	36.7721
1205.81	2.11932
1208.7	27.9902
1211.59	54.9781
1214.49	58.2904
1217.38	70.0901
1220.27	49.168
1223.16	78.788
1226.06	113.897
1228.95	45.8147
1231.84	72.6961
1234.73	41.5525
1237.63	2.75101
1240.52	17.6281
1243.41	25.0004
1246.31	69.5827
1249.2	63.7967
1252.09	47.4909
1254.98	41.7441
1257.88	3.91531
1260.77	40.1302
1263.66	40.7214
1266.56	45.3508
1269.45	10.4955
