Measurement: Raman, 532 nm, unoriented, Raman Data Processed
Mineral: Skutterudite
Rruff sample: R100195
Ideal chemistry: CoAs_3-x_
Locality: Skutterud, Norway
Source: Royal Ontario Museum
Description: Massive silver metallic associated with quartz
Measured chemistry: (Co_0.90_Fe_0.08_Ni_0.05_)_Σ=1.03_(As_2.97_S_0.03_)_Σ=3.00_
Raman shift (cm-1)	intensity
164.799	0
167.692	2.87138
170.584	14.9657
173.477	6.63024
176.37	0.041458
179.263	4.81361
182.155	4.97655
185.048	8.42913
187.941	0.435688
190.833	10.8907
193.726	10.2902
196.619	23.8675
199.512	31.8339
202.404	16.4751
205.297	9.91096
208.19	9.29361
211.082	16.003
213.975	10.6904
216.868	20.4815
219.761	15.9192
222.653	3.95968
225.546	2.85968
228.439	1.12685
231.331	4.45075
234.224	2.25034
237.117	1.18726
240.009	2.71032
242.902	5.09034
245.795	7.89034
248.688	6.12232
251.58	10.4382
254.473	17.4815
257.366	26.6025
260.258	22.1886
263.151	23.8837
266.044	34.4794
268.936	48.3763
271.829	12.9142
274.722	5.17091
277.615	3.76082
280.507	3.44335
283.4	5.26717
286.293	1.65837
289.185	5.33155
292.078	3.62793
294.971	4.224
297.863	1.24351
300.756	2.38454
303.649	1.97847
306.541	2.77888
309.434	4.94743
312.327	1.56411
315.22	6.47141
318.112	5.23238
321.005	5.35932
323.898	4.29342
326.791	4.19733
329.683	2.84691
332.576	0.225006
335.469	4.39945
338.361	1.32549
341.254	0.320713
344.147	2.39838
347.039	1.90563
349.932	4.52136
352.825	8.485
355.717	4.03311
358.61	1.28402
361.503	4.34728
364.396	1.61783
367.288	2.06344
370.181	1.99649
373.074	1.05586
375.966	6.0803
378.859	2.0845
381.752	0.944771
384.644	4.42242
387.537	1.79764
390.43	2.3779
393.323	2.34961
396.215	1.67329
399.108	3.43638
402.001	3.86522
404.894	6.59009
407.786	5.60038
410.679	3.25663
413.572	4.82836
416.464	3.40497
419.357	2.12904
422.25	2.89339
425.142	2.25911
428.035	4.71079
430.928	3.24213
433.82	0.831638
436.713	7.10374
439.606	2.9725
442.499	2.70472
445.391	1.76774
448.284	6.55242
451.177	1.01812
454.069	4.67136
456.962	6.96321
459.855	1.70747
462.748	3.56293
465.64	0.341812
468.533	3.09628
471.426	1.77856
474.318	5.21375
477.211	5.07436
480.104	1.88939
482.996	0.687847
485.889	5.44555
488.782	5.95546
491.675	5.51177
494.567	6.51192
497.46	3.61522
500.353	2.81295
503.245	1.2831
506.138	2.62872
509.031	1.46938
511.923	1.15054
514.816	4.95427
517.709	5.20003
520.602	3.53323
523.494	2.63365
526.387	8.05466
529.28	6.61858
532.172	1.75473
535.065	2.17089
537.958	3.04939
540.851	3.6361
543.743	1.05474
546.636	8.17648
549.529	2.81739
552.421	3.20048
555.314	2.27062
558.207	4.15272
561.099	3.91605
563.992	4.69662
566.885	0.843559
569.778	3.20254
572.67	1.66943
575.563	4.64221
578.456	4.76937
581.348	5.27764
584.241	3.61853
587.134	0.251278
590.027	3.65705
592.919	4.87878
595.812	4.66153
598.705	4.01821
601.597	0.154743
604.49	4.81031
607.383	0.895805
610.275	1.64803
613.168	3.27218
616.061	0.01104
618.953	5.59894
621.846	0.360199
624.739	4.2864
627.632	0.13678
630.524	2.97548
633.417	3.3205
636.31	5.72496
639.202	0.768963
642.095	2.89401
644.988	2.19781
647.881	2.18542
650.773	0.557083
653.666	1.63003
656.559	2.36283
659.451	3.01269
662.344	1.83269
665.237	1.68965
668.13	2.54838
671.022	2.59305
673.915	0.79467
676.808	1.55226
679.7	0.475704
682.593	1.67954
685.486	5.43904
688.378	2.8032
691.271	1.08001
694.164	2.00613
697.057	1.7931
699.949	4.00946
702.842	1.75879
705.735	0.049625
708.627	6.18846
711.52	2.5545
714.413	0.52681
717.305	3.15893
720.198	2.32355
723.091	1.57292
725.984	3.16009
728.876	1.85397
731.769	5.98816
734.662	0.799141
737.554	5.04289
740.447	1.75556
743.34	2.55363
746.232	2.29348
749.125	4.03822
752.018	4.73441
754.91	0.551983
757.803	0.171871
760.696	2.89604
763.589	2.8926
766.481	2.27793
769.374	3.5607
772.267	2.35262
775.159	2.49935
778.052	3.25058
780.945	4.54366
783.838	0.096893
786.73	2.36684
789.623	1.98281
792.516	1.18641
795.408	6.98958
798.301	2.0693
801.194	0.040871
804.087	4.77811
806.979	2.81834
809.872	1.45749
812.765	3.3756
815.657	5.02718
818.55	3.89634
821.443	5.13622
824.335	2.12726
827.228	5.59851
830.121	2.54438
833.014	3.51659
835.906	3.92334
838.799	0.926983
841.692	3.78972
844.584	3.2542
847.477	3.03142
850.37	6.65519
853.263	6.1991
856.155	5.65892
859.048	4.31079
861.941	6.21014
864.833	6.71785
867.726	3.73775
870.619	4.23653
873.511	4.5448
876.404	4.88488
879.297	6.23512
882.189	4.2348
885.082	1.32535
887.975	0.140862
890.868	1.58948
893.76	3.52066
896.653	1.6772
899.546	1.05604
902.438	1.45196
905.331	1.32912
908.224	0.080399
911.116	2.81612
914.009	1.20778
916.902	3.05445
919.795	2.66418
922.687	2.47974
925.58	0.937328
928.473	4.25397
931.365	4.66334
934.258	1.32246
937.151	5.77511
940.044	2.34162
942.936	2.16833
945.829	3.45173
948.722	7.02465
951.614	2.25843
954.507	4.73554
957.4	2.76362
960.293	4.03727
963.185	0.997227
966.078	5.31331
968.971	6.04134
971.863	3.64251
974.756	2.67366
977.649	2.66145
980.541	5.01093
983.434	0.244228
986.327	2.18481
989.22	7.40719
992.112	4.17564
995.005	4.05527
997.898	1.68069
1000.79	7.01537
1003.68	1.4947
1006.58	3.22343
1009.47	6.31511
1012.36	1.30577
1015.25	1.61905
1018.15	5.03806
1021.04	3.53094
1023.93	3.55532
1026.83	2.49261
1029.72	3.30146
1032.61	4.23801
1035.5	3.03995
1038.4	0.390831
1041.29	2.22706
1044.18	0.299183
1047.07	2.59744
1049.97	1.37735
1052.86	1.7221
1055.75	1.54274
1058.64	1.8343
1061.54	2.30115
1064.43	3.04792
1067.32	4.43391
1070.21	0.284851
1073.11	5.59377
1076	2.72206
1078.89	2.61601
1081.79	3.49929
1084.68	5.86712
1087.57	1.81722
1090.46	2.01541
1093.36	5.20058
1096.25	3.69644
1099.14	4.87196
1102.04	3.28523
1104.93	2.6896
1107.82	2.30735
1110.71	2.26123
1113.61	1.80499
1116.5	0.20554
1119.39	3.66029
1122.28	2.03354
1125.18	3.08734
1128.07	0.765015
1130.96	1.19988
1133.86	4.74079
1136.75	2.11419
1139.64	3.88018
1142.53	2.73576
1145.43	1.92159
1148.32	5.40883
1151.21	4.29646
1154.1	7.36885
1157	2.15297
1159.89	3.15845
1162.78	6.43232
1165.67	3.94517
1168.57	3.77409
1171.46	3.14036
1174.35	2.26606
1177.24	4.47975
1180.14	4.46811
1183.03	2.24656
1185.92	3.03302
1188.82	3.86933
1191.71	3.6788
1194.6	0.624023
1197.49	4.38776
1200.39	5.25565
1203.28	3.9549
1206.17	5.06224
1209.07	1.86535
1211.96	2.17188
1214.85	2.54109
1217.74	0.263073
1220.64	1.85247
1223.53	2.06261
1226.42	4.75237
1229.31	7.10979
1232.21	5.25697
1235.1	4.7067
1237.99	2.83831
1240.88	5.17958
1243.78	3.27384
1246.67	5.23317
1249.56	1.92086
1252.45	1.99588
1255.35	6.58678
1258.24	2.29734
1261.13	1.71157
1264.03	4.53339
1266.92	4.01413
1269.81	2.66184
1272.7	0.8452
1275.6	3.65247
1278.49	4.04641
1281.38	4.38067
1284.28	2.31538
1287.17	6.36418
1290.06	6.35638
1292.95	3.70595
1295.85	3.04613
1298.74	1.74759
1301.63	0.502171
