Measurement: Raman, 532 nm, unoriented, Raman Data Processed
Mineral: Skutterudite
Rruff sample: R050593
Ideal chemistry: CoAs_3-x_
Locality: Bou Azzer, Morocco
Source: Marcus Origlieri
Description: Gray metallic, massive to coarsely crystalline
Measured chemistry: (Co_0.86_Fe_0.11_Ni_0.07_)_Σ=1.04_(As_2.93_S_0.07_)_Σ=3.00_
Raman shift (cm-1)	intensity
121.971	0
125.346	2.67329
128.72	1.59069
132.095	3.8671
135.47	3.88154
138.845	9.42784
142.22	3.66406
145.595	4.73105
148.969	6.43265
152.344	8.26379
155.719	10.4825
159.094	5.00286
162.469	7.40052
165.843	8.32304
169.218	13.7158
172.593	6.37156
175.968	0.523865
179.343	2.53529
182.718	3.74869
186.092	6.7931
189.467	6.90066
192.842	11.3751
196.217	24.6236
199.592	38.1731
202.966	8.6705
206.341	5.11008
209.716	6.88498
213.091	10.7807
216.466	17.4093
219.84	4.69481
223.215	0.855019
226.59	0.210566
229.965	0.632923
233.34	0.357079
236.715	0.999327
240.089	0.689348
243.464	2.15783
246.839	3.88177
250.214	2.67428
253.589	9.02205
256.964	13.552
260.338	10.2548
263.713	17.1837
267.088	29.6932
270.463	9.81874
273.838	0.964687
277.212	0.092969
280.587	0.17343
283.962	0.104937
287.337	1.32267
290.712	1.29979
294.087	1.26375
297.461	1.74037
300.836	1.74782
304.211	1.72616
307.586	1.42285
310.961	1.92894
314.336	1.11636
317.71	1.54649
321.085	2.34635
324.46	1.18319
327.835	1.62431
331.21	2.09014
334.584	2.59127
337.959	0.630491
341.334	1.75161
344.709	0.826747
348.084	2.09803
351.459	0.288711
354.833	0.061105
358.208	1.16555
361.583	1.58419
364.958	0.92234
368.333	0.235053
371.707	0.214202
375.082	1.55388
378.457	0.71924
381.832	0.476527
385.207	1.11035
388.582	0.524328
391.956	2.15094
395.331	0.016463
398.706	0.760088
402.081	0.211165
405.456	1.62473
408.83	0.143965
412.205	1.19841
415.58	0.226202
418.955	1.23861
422.33	0.923807
425.705	2.31284
429.079	1.53202
432.454	0.745547
435.829	1.25894
439.204	0.019401
442.579	0.664522
445.954	0.836746
449.328	0.858397
452.703	1.37567
456.078	0.125007
459.453	0.420558
462.828	0.849802
466.202	1.12953
469.577	0.866522
472.952	1.37181
476.327	0.832147
479.702	0.163437
483.077	0.314414
486.451	1.97531
489.826	0.726326
493.201	1.91681
496.576	0.80864
499.951	1.32481
503.325	0.96449
506.7	1.48702
510.075	1.32505
513.45	1.91318
516.825	1.83882
520.2	1.73675
523.574	1.30193
526.949	0.676162
530.324	0.49324
533.699	1.1599
537.074	0.430039
540.448	1.15174
543.823	0.210486
547.198	0.324094
550.573	0.09024
553.948	0.316382
557.323	0.691814
560.697	0.649999
564.072	1.66608
567.447	0.686827
570.822	1.23341
574.197	1.3768
577.572	0.658026
580.946	0.792538
584.321	0.311541
587.696	0.088749
591.071	0.033177
594.446	1.18883
597.821	1.56083
601.195	1.98998
604.57	1.18281
607.945	0.131261
611.32	1.53389
614.695	0.832573
618.069	0.249039
621.444	1.62325
624.819	0.366645
628.194	1.05364
631.569	1.56683
634.943	1.45375
638.318	0.34568
641.693	0.692306
645.068	1.42504
648.443	0.885888
651.818	1.21451
655.192	0.509604
658.567	1.26305
661.942	1.02417
665.317	1.15253
668.692	0.674892
672.067	0.177889
675.441	0.171814
678.816	0.806085
682.191	1.26669
685.566	1.66151
688.941	0.590355
692.316	0.21157
695.69	1.21312
699.065	0.991332
702.44	0.675324
705.815	1.24978
709.19	0.090414
712.564	0.027134
715.939	0.652006
719.314	1.31909
722.689	0.387605
726.064	0.990664
729.438	0.149317
732.813	0.703728
736.188	0.516773
739.563	0.503863
742.938	1.38065
746.313	0.586009
749.687	0.017118
753.062	0.303602
756.437	0.370601
759.812	0.442517
763.187	0.872052
766.562	0.716111
769.936	1.07516
773.311	1.23424
776.686	0.09444
780.061	1.16424
783.436	0.75878
786.811	0.524411
790.185	0.368045
793.56	0.649419
796.935	0.60733
800.31	1.18243
803.685	0.700408
807.059	0.409652
810.434	0.846964
813.809	0.86776
817.184	1.06469
820.559	2.0984
823.933	0.4732
827.308	1.99734
830.683	1.18609
834.058	2.22578
837.433	1.75009
840.808	1.73735
844.182	1.30328
847.557	1.83653
850.932	2.42236
854.307	1.80259
857.682	1.59607
861.057	2.32205
864.431	1.82657
867.806	1.81081
871.181	1.74509
874.556	2.29117
877.931	1.78225
881.306	2.12554
884.68	1.75744
888.055	1.62976
891.43	1.74815
894.805	1.48415
898.18	0.942439
901.554	0.948851
904.929	1.53326
908.304	0.376422
911.679	0.362751
915.054	0.053208
918.428	0.59217
921.803	0.012914
925.178	0.599537
928.553	0.265818
931.928	0.319564
935.303	0.361326
938.677	0.145832
942.052	0.115861
945.427	0.284772
948.802	0.091621
952.177	0.261858
955.552	0.289205
958.926	0.482146
962.301	0.75421
965.676	1.1631
969.051	1.13448
972.426	0.415551
975.801	0.654815
979.175	0.342034
982.55	0.705919
985.925	0.698175
989.3	1.59526
992.675	0.01775
996.049	0.753906
999.424	0.611961
1002.8	0.65989
1006.17	0.581919
1009.55	0.839287
1012.92	0.929232
1016.3	0.359013
1019.67	1.72744
1023.05	1.38768
1026.42	0.949215
1029.8	1.62985
1033.17	1.38489
1036.55	1.48602
1039.92	0.191702
1043.3	1.40471
1046.67	1.47719
1050.05	1.30682
1053.42	0.628975
1056.8	1.20954
1060.17	0.406466
1063.55	0.371082
1066.92	1.00128
1070.3	1.64857
1073.67	0.852103
1077.05	0.28393
1080.42	0.263388
1083.8	0.198024
1087.17	0.260027
1090.54	1.7021
1093.92	1.66162
1097.29	0.968479
1100.67	0.862832
1104.04	1.02618
1107.42	0.44174
1110.79	0.087629
1114.17	2.02163
1117.54	0.60524
1120.92	1.04717
1124.29	0.378605
1127.67	0.89564
1131.04	0.700886
1134.42	0.438259
1137.79	0.3924
1141.17	0.271237
1144.54	0.306908
1147.92	0.906282
1151.29	1.01166
1154.67	1.37546
1158.04	0.808961
1161.42	0.941195
1164.79	1.78314
1168.16	0.256359
1171.54	0.382447
1174.91	1.58141
1178.29	1.28072
1181.66	1.05754
1185.04	1.39058
1188.41	0.678766
1191.79	1.44683
1195.16	1.01159
1198.54	1.02426
1201.91	1.66982
1205.29	0.238886
1208.66	1.72818
1212.04	0.027972
1215.41	0.197909
1218.79	2.09394
1222.16	1.36598
1225.54	1.00192
1228.91	0.894122
1232.29	1.04638
1235.66	1.58674
1239.04	0.659503
1242.41	0.958253
1245.79	0.337191
1249.16	0.144238
1252.54	1.47223
1255.91	0.108307
1259.29	1.00679
1262.66	1.94711
1266.04	1.41521
1269.41	0.249588
1272.79	0.234102
1276.16	1.55216
1279.53	0.900965
1282.91	0.027292
1286.28	1.3759
1289.66	1.08536
1293.03	0.855705
1296.41	0.370435
1299.78	0.918986
