Measurement: Raman, 532 nm, unoriented, Raman Data Processed
Mineral: Skutterudite
Rruff sample: R070528
Ideal chemistry: CoAs_3-x_
Locality: Cobalt, Coleman Township, Timiskamig County, Ontario, Canada
Source: James Shigley
Description: Silver-grey metallic massive and radiating prismatic crystals
Measured chemistry: (Co_0.82_Fe_0.12_Ni_0.09_)_Σ=1.03_(As_2.99_S_0.01_)_Σ=3.00_ (Note: dark phase is lollingite, (Fe_0.69_Co_0.23_Ni_0.11_)_Σ=1.03_(As_1.98_S_0.01_)_Σ=2.00_) Bright spots are native bismuth
Raman shift (cm-1)	intensity
169.138	0
172.031	0.418625
174.924	1.16668
177.816	0.572479
180.709	3.00337
183.602	3.03639
186.494	4.12369
189.387	5.49023
192.28	8.94196
195.173	15.2666
198.065	26.802
200.958	12.6268
203.851	7.78717
206.743	7.3139
209.636	7.47537
212.529	8.02782
215.421	11.3624
218.314	11.063
221.207	4.68571
224.1	2.18896
226.992	1.19342
229.885	3.39097
232.778	1.55099
235.67	1.79675
238.563	3.2741
241.456	3.09683
244.348	4.78449
247.241	6.85439
250.134	6.87154
253.026	11.0885
255.919	14.7691
258.812	13.9382
261.705	12.9234
264.597	22.0107
267.49	29.6512
270.383	5.90691
273.276	0.217407
276.168	1.55521
279.061	0.486061
281.954	0.317894
284.846	1.95419
287.739	2.23203
290.632	1.56609
293.524	2.37891
296.417	2.18981
299.31	1.50889
302.202	2.6682
305.095	2.06208
307.988	1.25844
310.881	1.16225
313.773	1.63457
316.666	2.58575
319.559	2.50944
322.451	1.43954
325.344	1.96423
328.237	0.137611
331.13	2.10243
334.022	0.37442
336.915	0.078362
339.808	1.91125
342.7	1.55397
345.593	1.49123
348.486	2.13664
351.378	0.353394
354.271	0.340149
357.164	1.05895
360.057	0.265915
362.949	1.7186
365.842	1.24803
368.735	1.31876
371.627	0.81118
374.52	0.114365
377.413	1.04936
380.305	1.38059
383.198	0.571831
386.091	1.17728
388.984	0.282761
391.876	0.490875
394.769	0.819481
397.662	1.18567
400.554	0.95845
403.447	0.793007
406.34	0.731758
409.233	0.686836
412.125	0.234154
415.018	0.617165
417.911	1.88814
420.803	1.53954
423.696	0.713097
426.589	1.19799
429.481	1.85697
432.374	1.99004
435.267	0.115318
438.159	2.4875
441.052	2.89786
443.945	0.482727
446.838	0.637604
449.73	2.00221
452.623	0.883804
455.516	2.15009
458.409	1.40595
461.301	0.277397
464.194	1.99243
467.087	2.35188
469.979	3.07355
472.872	2.48232
475.765	3.06723
478.657	0.680946
481.55	1.90417
484.443	2.27807
487.336	0.613152
490.228	1.99289
493.121	0.187698
496.014	1.97111
498.906	0.776688
501.799	1.84109
504.692	1.73166
507.584	1.56449
510.477	1.08391
513.37	1.31995
516.263	0.565018
519.155	0.559998
522.048	1.04292
524.941	1.95668
527.833	1.39413
530.726	0.959152
533.619	1.09177
536.511	1.50697
539.404	0.550163
542.297	0.9142
545.19	1.40559
548.082	2.16098
550.975	1.01102
553.868	0.589149
556.76	0.398529
559.653	2.40763
562.546	1.42274
565.438	2.46184
568.331	0.812248
571.224	0.520882
574.117	0.004532
577.009	1.31273
579.902	0.621849
582.795	1.50288
585.687	0.883057
588.58	1.64705
591.473	1.91982
594.365	2.58538
597.258	1.27548
600.151	0.074226
603.044	1.47501
605.936	0.839325
608.829	0.555779
611.722	1.70003
614.614	1.17839
617.507	1.42283
620.4	0.85807
623.293	1.01817
626.185	1.215
629.078	0.536476
631.971	0.188026
634.863	2.00754
637.756	1.32614
640.649	2.09283
643.542	1.95826
646.434	1.30785
649.327	2.31749
652.22	1.04207
655.112	1.76427
658.005	2.04003
660.898	0.944893
663.79	0.744316
666.683	1.04015
669.576	0.800079
672.468	0.488937
675.361	2.05262
678.254	0.012054
681.147	1.23024
684.039	1.44605
686.932	0.18515
689.825	1.21403
692.717	1.57794
695.61	2.48936
698.503	1.53748
701.396	1.48845
704.288	0.707062
707.181	1.02784
710.074	0.949043
712.966	1.84231
715.859	2.39158
718.752	1.99578
721.644	0.985954
724.537	0.29837
727.43	0.60701
730.323	0.998596
733.215	1.17326
736.108	1.19658
739.001	0.766373
741.893	0.308372
744.786	0.759644
747.679	0.832809
750.572	1.74516
753.464	0.52066
756.357	0.822647
759.25	1.35924
762.142	1.84892
765.035	1.5848
767.928	0.957993
770.82	0.042336
773.713	2.27709
776.606	0.652649
779.499	1.44328
782.391	2.58575
785.284	2.26921
788.177	0.826698
791.069	1.77173
793.962	0.597939
796.855	0.759216
799.747	0.590919
802.64	1.95213
805.533	1.43446
808.426	1.94292
811.318	0.899895
814.211	1.07813
817.104	1.20379
819.996	1.14684
822.889	2.12746
825.782	2.05119
828.674	0.226486
831.567	2.19219
834.46	2.33411
837.353	1.65312
840.245	2.22842
843.138	2.22695
846.031	3.3933
848.923	2.64214
851.816	3.34747
854.709	2.49676
857.601	0.006134
860.494	2.87829
863.387	2.68159
866.28	1.6208
869.172	3.45055
872.065	1.65997
874.958	1.47137
877.851	1.08102
880.743	1.23392
883.636	0.886429
886.529	0.325508
889.421	0.693604
892.314	1.88002
895.207	1.62934
898.099	0.221939
900.992	0.232193
903.885	1.72967
906.778	0.979431
909.67	1.71041
912.563	1.13046
915.456	2.23763
918.348	0.605942
921.241	1.17393
924.134	0.004128
927.026	1.3178
929.919	2.36314
932.812	1.67213
935.705	0.532104
938.597	1.20808
941.49	1.8142
944.383	1.40771
947.275	0.084595
950.168	0.435585
953.061	0.459282
955.953	0.967346
958.846	0.566681
961.739	0.698334
964.631	1.59573
967.524	0.424286
970.417	1.49409
973.31	0.312599
976.202	0.33992
979.095	2.03713
981.988	1.02301
984.88	0.618858
987.773	1.82563
990.666	1.72135
993.559	1.39052
996.451	1.04681
999.344	1.84587
1002.24	1.79826
1005.13	0.722214
1008.02	1.81956
1010.91	1.25864
1013.81	0.796669
1016.7	1.11399
1019.59	0.319756
1022.49	0.868164
1025.38	2.03035
1028.27	0.123047
1031.16	1.80401
1034.06	0.438911
1036.95	0.574219
1039.84	1.37976
1042.73	1.52696
1045.63	0.198219
1048.52	1.4318
1051.41	2.13374
1054.31	0.009552
1057.2	1.09319
1060.09	1.35885
1062.98	2.30356
1065.88	1.05575
1068.77	2.05133
1071.66	2.21268
1074.55	1.90565
1077.45	0.233398
1080.34	1.4963
1083.23	0.016991
1086.12	2.67264
1089.02	1.38491
1091.91	1.17896
1094.8	1.13248
1097.7	2.62527
1100.59	0.975143
1103.48	2.05022
1106.37	2.14175
1109.27	2.02827
1112.16	0.585022
1115.05	1.1812
1117.94	0.934311
1120.84	3.12107
1123.73	1.21955
1126.62	1.14816
1129.52	3.01617
1132.41	1.84588
1135.3	1.14017
1138.19	1.57573
1141.09	1.27576
1143.98	1.40493
1146.87	1.06746
1149.77	1.86024
1152.66	0.050888
1155.55	1.4085
1158.44	0.115692
1161.34	1.90225
1164.23	2.09193
1167.12	1.86386
1170.01	2.10038
1172.91	0.260864
1175.8	2.84249
1178.69	1.4149
1181.58	0.140244
1184.48	1.75555
1187.37	2.10564
1190.26	2.29108
1193.15	2.37252
1196.05	1.76771
1198.94	2.0099
1201.83	1.70429
1204.73	0.709526
1207.62	1.21642
1210.51	3.5162
1213.4	2.29481
1216.3	1.3402
1219.19	1.85184
1222.08	2.39358
1224.97	2.43202
1227.87	0.614655
1230.76	0.60453
1233.65	1.21697
1236.55	1.29239
1239.44	2.29972
1242.33	0.037933
1245.22	3.90755
1248.12	0.527061
1251.01	2.25997
1253.9	2.18461
1256.8	1.24367
1259.69	2.71695
1262.58	3.01499
1265.47	2.56774
1268.37	2.01766
1271.26	2.37675
1274.15	2.57053
1277.04	2.00417
1279.94	1.25373
1282.83	3.08438
1285.72	1.16444
1288.61	0.538757
1291.51	0.645622
1294.4	0.383888
1297.29	0.246994
1300.18	0.439468
