Measurement: Raman, 780 nm, unoriented, Raman Data Processed
Mineral: Slavikite
Rruff sample: R080048
Ideal chemistry: (H_3_O^+^)_3_Mg_6_Fe_15_(SO_4_)_21_(OH)_18_98H_2_O
Locality: Mandat, Bohmen, Czech Republic
Source: Michael Scott
Description: Mustard yellow, massive efflorescence
Raman shift (cm-1)	intensity
164.439	0
167.331	0.536118
170.224	0.011948
173.117	0.062683
176.009	1.53607
178.902	1.21155
181.795	2.1599
184.687	4.56938
187.58	6.32257
190.473	8.07216
193.365	10.2537
196.258	16.6214
199.151	24.0538
202.044	29.6884
204.936	36.1003
207.829	41.4734
210.722	45.2065
213.614	48.2692
216.507	52.0038
219.4	53.7466
222.292	43.2011
225.185	29.8828
228.078	18.8785
230.971	12.4805
233.863	9.47156
236.756	6.01897
239.649	3.40225
242.541	2.47726
245.434	2.31723
248.327	0.850082
251.22	1.32869
254.112	0.03331
257.005	0.354141
259.898	0.013916
262.79	0.600677
265.683	0.487991
268.576	0.999207
271.468	0.281143
274.361	0.675354
277.254	0.335312
280.147	1.59181
283.039	3.64098
285.932	4.93726
288.825	7.78317
291.717	7.61735
294.61	8.39783
297.503	11.6685
300.395	9.87367
303.288	10.1135
306.181	7.86385
309.074	4.83098
311.966	3.00446
314.859	3.57555
317.752	3.38286
320.644	3.79073
323.537	4.04785
326.43	5.45509
329.322	6.1572
332.215	5.74379
335.108	8.5262
338	9.10893
340.893	8.74936
343.786	7.12624
346.679	6.55919
349.571	4.09404
352.464	3.02393
355.357	3.15451
358.249	0.616241
361.142	0.878876
364.035	0.253189
366.928	0.753922
369.82	0.170288
372.713	0.017593
375.606	0.34433
378.498	0.228912
381.391	0.009109
384.284	0.461075
387.176	1.35373
390.069	2.0435
392.962	3.30141
395.854	3.34277
398.747	5.45471
401.64	8.16698
404.533	12.9933
407.425	18.2559
410.318	21.318
413.211	26.5113
416.103	31.0377
418.996	34.284
421.889	37.7427
424.781	37.0587
427.674	33.3153
430.567	27.2071
433.46	23.6803
436.352	21.9535
439.245	22.1246
442.138	20.6461
445.03	22.7984
447.923	22.2565
450.816	22.5404
453.709	19.9482
456.601	15.2092
459.494	11.22
462.387	8.2095
465.279	8.56525
468.172	4.41254
471.065	4.71066
473.957	3.82533
476.85	2.556
479.743	3.95104
482.635	3.5397
485.528	4.24002
488.421	3.86604
491.314	3.63513
494.206	2.84746
497.099	1.51181
499.992	0.0065
502.884	0.615646
505.777	0.234543
508.67	0.248337
511.562	0.303085
514.455	0.340225
517.348	0.488434
520.241	0.040192
523.133	1.28639
526.026	0.165756
528.919	0.123703
531.811	0.067963
534.704	0.491653
537.597	0.434647
540.49	1.83595
543.382	1.46873
546.275	0.984146
549.168	4.16144
552.06	4.28381
554.953	5.43224
557.846	7.38202
560.738	8.03281
563.631	8.44762
566.524	9.39148
569.417	7.42287
572.309	7.37669
575.202	6.03554
578.095	5.68309
580.987	2.94399
583.88	2.84555
586.773	3.05457
589.665	1.99812
592.558	4.06802
595.451	3.57268
598.343	2.8567
601.236	2.5528
604.129	6.00597
607.022	8.66386
609.914	10.0107
612.807	12.242
615.7	14.8044
618.592	17.1142
621.485	19.0744
624.378	19.9944
627.27	14.0577
630.163	8.69136
633.056	5.1899
635.949	4.19902
638.841	2.71715
641.734	2.6987
644.627	1.98592
647.519	0.651871
650.412	0.584503
653.305	0.012909
656.197	0.992828
659.09	0.666428
661.983	1.20982
664.876	1.00505
667.768	0.829239
670.661	1.91478
673.554	0.916687
676.446	0.996384
679.339	0.069946
682.232	0.273758
685.125	0.117767
688.017	0.006012
690.91	0.351181
693.803	0.344406
696.695	1.45731
699.588	0.822037
702.481	0.163086
705.373	0.511261
708.266	1.75684
711.159	0.937515
714.052	0.720566
716.944	1.4763
719.837	1.6071
722.73	0.394669
725.622	0.75415
728.515	1.64299
731.408	0.5233
734.3	0.241882
737.193	0.853973
740.086	0.310104
742.979	0.239105
745.871	0.043396
748.764	0.51561
751.657	0.228714
754.549	0.276077
757.442	0.096512
760.335	0.60611
763.227	0.809753
766.12	1.0341
769.013	1.01347
771.905	1.83801
774.798	0.512955
777.691	0.349487
780.584	0.327454
783.476	1.20253
786.369	0.189148
789.262	1.11606
792.154	0.361313
795.047	0.865692
797.94	1.50722
800.832	1.05809
803.725	0.05748
806.618	0.669968
809.511	1.8708
812.403	1.3521
815.296	0.0383
818.189	1.06212
821.081	1.03023
823.974	0.992798
826.867	0.455826
829.76	0.615494
832.652	0.768417
835.545	0.876053
838.438	1.02831
841.33	1.28676
844.223	1.58401
847.116	1.68881
850.008	0.447021
852.901	0.850845
855.794	0.926147
858.687	1.02193
861.579	1.38661
864.472	0.892609
867.365	0.630203
870.257	1.43018
873.15	0.031448
876.043	1.2966
878.935	1.95104
881.828	1.42166
884.721	1.17708
887.614	0.853531
890.506	0.586136
893.399	0.404099
896.292	2.06599
899.184	2.20026
902.077	1.61316
904.97	1.31082
907.862	0.955658
910.755	0.631302
913.648	0.875122
916.54	0.633499
919.433	0.942459
922.326	0.698578
925.219	1.18454
928.111	0.269882
931.004	0.168869
933.897	0.74263
936.789	0.051331
939.682	0.410782
942.575	0.702744
945.467	0.719574
948.36	0.216171
951.253	0.262543
954.146	0.39621
957.038	1.71372
959.931	0.220261
962.824	0.890289
965.716	0.822174
968.609	0.200912
971.502	1.05664
974.394	1.21088
977.287	2.25915
980.18	3.49886
983.073	5.57138
985.965	6.67416
988.858	7.59035
991.751	14.2059
994.643	20.5776
997.536	27.2593
1000.43	34.2001
1003.32	43.5557
1006.21	49.2434
1009.11	39.6
1012	27.1953
1014.89	22.7017
1017.78	16.5415
1020.68	10.2395
1023.57	7.25945
1026.46	8.0146
1029.36	7.43346
1032.25	6.74176
1035.14	5.67212
1038.03	6.4921
1040.93	6.09663
1043.82	6.00746
1046.71	6.41653
1049.61	3.49696
1052.5	2.55803
1055.39	1.94614
1058.28	1.21109
1061.18	0.883392
1064.07	0.067215
1066.96	0.771774
1069.85	2.38998
1072.75	4.49228
1075.64	7.69543
1078.53	9.46242
1081.42	13.2592
1084.32	18.2684
1087.21	21.0028
1090.1	20.6892
1092.99	19.1608
1095.89	14.1825
1098.78	10.4812
1101.67	6.98381
1104.57	5.70564
1107.46	3.69325
1110.35	2.52628
1113.24	1.49262
1116.14	0.99971
1119.03	0.403061
1121.92	0.117249
1124.82	0.2771
1127.71	0.358032
1130.6	0.032562
1133.49	0.700165
1136.39	0.789093
1139.28	0.501541
1142.17	1.49242
1145.06	2.56279
1147.96	3.58914
1150.85	4.51076
1153.74	4.68539
1156.63	5.22101
1159.53	5.64737
1162.42	4.83901
1165.31	4.75349
1168.2	2.95291
1171.1	1.67624
1173.99	1.07481
1176.88	1.81686
1179.78	0.30481
1182.67	0.4263
1185.56	0.397705
1188.45	0.341309
1191.35	0.287201
1194.24	0.455536
1197.13	0.607574
1200.03	0.384071
1202.92	0.505074
1205.81	1.05555
1208.7	1.72688
1211.6	1.12479
1214.49	1.55815
1217.38	0.975967
1220.27	0.82386
1223.17	1.12717
1226.06	0.918465
1228.95	0.246788
1231.85	0.198105
1234.74	1.08353
1237.63	0.789337
1240.52	1.21773
1243.42	1.03515
1246.31	1.48827
1249.2	0.006126
1252.09	1.67374
1254.99	1.21532
1257.88	0.318069
1260.77	0.103706
1263.66	0.267693
1266.56	1.2313
1269.45	-0.281303
1272.34	0.58321
1275.23	1.61808
1278.13	0.585651
1281.02	1.56433
1283.91	0.260704
1286.81	0
