Measurement: Raman, 532 nm, unoriented, Raman Data Processed
Mineral: Slavikite
Rruff sample: R080048
Ideal chemistry: (H_3_O^+^)_3_Mg_6_Fe_15_(SO_4_)_21_(OH)_18_98H_2_O
Locality: Mandat, Bohmen, Czech Republic
Source: Michael Scott
Description: Mustard yellow, massive efflorescence
Raman shift (cm-1)	intensity
161.381	0
164.274	0.952759
167.167	0.459839
170.059	1.3302
172.952	3.73889
175.845	2.10327
178.737	6.53223
181.63	13.6001
184.523	18.5613
187.415	25.6454
190.308	36.7838
193.201	55.1727
196.094	84.8407
198.986	120.821
201.879	163.264
204.772	202.263
207.664	236.409
210.557	273.449
213.45	328.098
216.342	380.016
219.235	373.525
222.128	293.881
225.02	193.876
227.913	131.346
230.806	91.0853
233.699	60.5227
236.591	37.4276
239.484	29.835
242.377	18.0153
245.269	11.8945
248.162	4.19678
251.055	4.89014
253.947	0.887817
256.84	3.06177
259.733	1.42334
262.625	3.0669
265.518	2.09851
268.411	1.5304
271.304	2.49255
274.196	3.91467
277.089	9.50146
279.982	14.8015
282.875	25.9718
285.767	36.0583
288.66	49.1278
291.553	63.895
294.445	78.0945
297.338	92.2878
300.231	96.1025
303.123	88.9414
306.016	73.4565
308.909	59.2732
311.801	38.7012
314.694	29.0695
317.587	22.8027
320.48	20.6788
323.372	16.3199
326.265	21.662
329.158	16.9343
332.05	28.9158
334.943	35.2761
337.836	38.9961
340.728	41.531
343.621	37.9849
346.514	38.1223
349.406	22.3325
352.299	15.3257
355.192	11.6599
358.085	10.3269
360.977	9.1178
363.87	3.46155
366.763	0.529663
369.655	2.12451
372.548	0.542603
375.441	0.967041
378.334	2.59155
381.226	3.46497
384.119	10.971
387.012	13.0802
389.904	20.9811
392.797	26.692
395.69	36.4829
398.582	47.0294
401.475	65.5604
404.368	88.4744
407.26	124.094
410.153	166.052
413.046	211.01
415.939	259.433
418.831	309.306
421.724	352.047
424.617	354.029
427.509	305.823
430.402	232.374
433.295	185.375
436.188	149.305
439.08	141.544
441.973	134.298
444.866	138.594
447.758	141.497
450.651	145.18
453.544	134.722
456.436	112.947
459.329	78.5337
462.222	54.0671
465.115	37.9915
468.007	29.6637
470.9	20.3511
473.793	20.0831
476.685	17.6534
479.578	13.6049
482.471	13.7449
485.363	13.5969
488.256	13.3361
491.149	11.3279
494.041	13.1705
496.934	7.37573
499.827	1.00452
502.72	3.70276
505.612	0.97998
508.505	2.73877
511.398	4.94397
514.29	0.778687
517.183	0.530762
520.076	2.66577
522.968	1.94849
525.861	0.665161
528.754	6.68042
531.647	9.10352
534.539	8.69922
537.432	13.5038
540.325	17.3178
543.217	25.8919
546.11	31.3247
549.003	34.7594
551.895	44.9374
554.788	52.8535
557.681	60.2496
560.574	70.3142
563.466	75.3509
566.359	74.0581
569.252	64.9022
572.144	54.3611
575.037	47.2846
577.93	38.9155
580.822	35.4397
583.715	28.5709
586.608	26.2748
589.5	17.3124
592.393	12.8232
595.286	11.172
598.179	12.4034
601.071	15.7383
603.964	22.8438
606.857	35.4741
609.75	47.0255
612.642	60.7773
615.535	83.4122
618.428	114.294
621.32	156.78
624.213	170.911
627.106	119.288
629.998	59.7644
632.891	31.9936
635.784	26.1359
638.677	16.2699
641.569	7.36377
644.462	6.91833
647.355	2.9989
650.247	2.13159
653.14	2.85608
656.033	3.56726
658.925	2.20325
661.818	3.70044
664.711	2.44861
667.604	2.20398
670.496	4.10376
673.389	7.29675
676.282	2.9187
679.174	2.67078
682.067	0.068115
684.96	1.78955
687.852	1.52515
690.745	0.146729
693.638	4.16675
696.53	2.27954
699.423	0.428589
702.316	4.27905
705.209	5.28577
708.101	1.09912
710.994	6.87573
713.887	4.6333
716.779	0.200562
719.672	5.98633
722.565	3.38794
725.457	3.15491
728.35	1.65894
731.243	2.03284
734.136	4.8971
737.028	4.0426
739.921	6.26196
742.814	3.32947
745.706	3.02441
748.599	2.90662
751.492	2.48608
754.385	5.09692
757.277	5.61377
760.17	0.346436
763.063	0.253662
765.955	3.4281
768.848	4.25452
771.741	7.47803
774.633	5.39441
777.526	4.03784
780.419	2.54883
783.312	0.402344
786.204	4.48694
789.097	7.24988
791.99	8.422
794.882	6.68189
797.775	2.88049
800.668	0.939819
803.56	0.390625
806.453	2.11816
809.346	0.446533
812.238	5.44104
815.131	4.59399
818.024	7.42285
820.917	0.499878
823.809	8.15894
826.702	9.74182
829.595	5.51929
832.487	6.52832
835.38	9.61743
838.273	12.8155
841.165	7.98389
844.058	5.2096
846.951	5.65308
849.843	11.2382
852.736	10.7459
855.629	12.9185
858.522	12.9141
861.414	12.3934
864.307	11.9819
867.2	10.6638
870.092	6.09326
872.985	8.01929
875.878	7.74158
878.77	6.43054
881.663	13.4045
884.556	11.498
887.449	13.9469
890.341	5.4884
893.234	4.50684
896.127	5.57593
899.019	8.28088
901.912	5.24915
904.805	10.593
907.697	8.20496
910.59	7.82153
913.483	4.06702
916.376	8.10315
919.268	4.92248
922.161	5.82935
925.054	1.25794
927.946	1.50537
930.839	0.090454
933.732	2.89648
936.625	4.23157
939.517	0.65625
942.41	0.377197
945.303	2.3855
948.195	1.69678
951.088	0.332153
953.981	2.35535
956.873	6.03003
959.766	1.23474
962.659	0.516968
965.552	1.30371
968.444	1.94495
971.337	9.3241
974.23	7.49585
977.122	15.4568
980.015	16.6528
982.908	32.2932
985.8	38.6331
988.693	50.3469
991.586	69.0692
994.479	97.1843
997.371	133.225
1000.26	187.856
1003.16	262.041
1006.05	321.607
1008.94	292.547
1011.84	171.571
1014.73	99.8181
1017.62	60.6493
1020.51	47.3656
1023.4	47.5996
1026.3	40.8303
1029.19	37.6575
1032.08	33.0122
1034.98	24.7111
1037.87	28.5617
1040.76	27.8665
1043.65	27.6602
1046.55	23.6003
1049.44	13.9753
1052.33	10.3579
1055.22	0.965332
1058.12	0.379272
1061.01	0.766846
1063.9	1.65491
1066.8	8.73523
1069.69	14.3261
1072.58	29.7714
1075.47	55.474
1078.37	81.576
1081.26	114.635
1084.15	159.236
1087.05	191.306
1089.94	197.23
1092.83	166.034
1095.72	131.906
1098.62	94.1171
1101.51	71.9369
1104.4	47.9419
1107.29	33.4987
1110.19	22.1357
1113.08	16.6487
1115.97	6.85693
1118.87	3.37146
1121.76	1.5365
1124.65	0.684204
1127.54	5.18884
1130.43	5.39368
1133.33	5.54053
1136.22	1.06811
1139.11	11.4985
1142.01	12.1482
1144.9	12.2041
1147.79	15.6592
1150.68	28.6012
1153.58	37.225
1156.47	52.407
1159.36	58.9679
1162.26	62.994
1165.15	61.8263
1168.04	55.3807
1170.93	45.2739
1173.83	34.2998
1176.72	23.8549
1179.61	17.5818
1182.5	11.956
1185.4	6.23181
1188.29	5.03674
1191.18	1.448
1194.08	1.37109
1196.97	0.883179
1199.86	7.28442
1202.75	7.24268
1205.65	1.73413
1208.54	1.7478
1211.43	6.69409
1214.32	1.38599
1217.22	1.93481
1220.11	6.35132
1223	7.19434
1225.89	1.25378
1228.79	2.54346
1231.68	1.33044
1234.57	5.66113
1237.46	5.52783
1240.36	1.26062
1243.25	2.35693
1246.14	0.682617
1249.04	1.51208
1251.93	9.00159
1254.82	6.02869
1257.71	1.422
1260.61	4.5658
1263.5	6.08789
1266.39	6.47559
1269.29	5.56165
1272.18	8.24048
1275.07	6.63464
1277.96	9.81323
1280.86	14.0828
1283.75	9.90015
1286.64	8.23413
1289.53	7.66211
1292.43	8.59265
1295.32	2.58594
1298.21	7.66504
1301.11	1.85242
1304	4.6145
