Measurement: Raman, 514 nm, unoriented, Raman Data Processed
Mineral: Smithsonite
Rruff sample: R040051
Ideal chemistry: ZnCO_3_
Locality: Berg Aukas mine, Grootfontein, Namibia
Source: University of Arizona Mineral Museum
Description: Yellowish brown botryoidal groups
Measured chemistry: (Zn_0.94_Ca_0.02_Mg_0.02_)C_1.01_O_3_
Raman shift (cm-1)	intensity
136.47	0
140.63	81.11
144.787	48.532
148.942	41.06
153.096	17.425
157.247	27.4
161.396	80.75
165.544	152.205
169.689	167.896
173.833	240.852
177.974	325.075
182.114	603.225
186.251	1171.61
190.387	2905.85
194.52	3847.07
198.652	2871.43
202.782	1525.18
206.909	804.416
211.035	282.797
215.159	75.231
219.281	51.58
223.4	10.117
227.518	25.089
231.634	45.227
235.748	3.322
239.86	17.591
243.97	33.495
248.079	62.544
252.185	49.739
256.289	60.149
260.391	124.521
264.492	137.593
268.59	220.142
272.687	296.866
276.781	375.568
280.874	613.918
284.964	997.105
289.053	1755.51
293.14	3672.99
297.225	7148.53
301.308	11301.4
305.389	10638.6
309.468	6782.05
313.545	3537.63
317.62	1844.45
321.693	1025
325.765	603.79
329.834	321.357
333.902	291.915
337.967	184.751
342.031	156.71
346.093	123.35
350.153	99.177
354.21	97.064
358.267	64.097
362.321	35.81
366.373	43.309
370.423	24.657
374.471	12.964
378.518	30.384
382.563	28.63
386.605	57.216
390.646	9.759
394.685	6.641
398.722	27.826
402.757	27.394
406.79	21.165
410.821	25.351
414.851	28.127
418.878	11.895
422.904	20.725
426.927	64.492
430.949	3.49
434.969	21.531
438.987	46.782
443.003	38.104
447.018	35.376
451.03	28.191
455.041	39.958
459.049	27.667
463.056	3.467
467.061	68.246
471.064	74.948
475.065	77.597
479.064	89.161
483.062	115.115
487.057	110.217
491.051	111.774
495.043	70.212
499.032	13.377
503.02	24.262
507.007	35.426
510.991	38.639
514.973	100.892
518.954	35.99
522.933	36.769
526.91	58.784
530.885	56.324
534.858	37.801
538.829	25.285
542.799	64.593
546.766	113.472
550.732	49.848
554.696	66.211
558.658	7.616
562.618	31.926
566.576	0.613
570.533	42.122
574.488	16.172
578.44	27.278
582.391	37.566
586.341	9.299
590.288	78.075
594.233	22.44
598.177	0.11
602.119	68.141
606.059	61.293
609.997	54.762
613.933	83.817
617.868	223.354
621.801	65.251
625.731	88.157
629.66	64.943
633.588	74.081
637.513	46.526
641.437	37.257
645.358	24.677
649.278	86.189
653.196	9.754
657.113	65.427
661.027	53.146
664.94	53.271
668.851	44.216
672.76	25.71
676.667	41.617
680.572	61.192
684.476	57.708
688.378	53.517
692.278	76.016
696.176	89.956
700.072	64.428
703.967	73.963
707.86	82.298
711.751	100.228
715.64	110.33
719.527	104.091
723.413	325.057
727.297	1189.07
731.179	1727.74
735.059	502.697
738.937	217.978
742.814	56.479
746.689	116.86
750.562	22.236
754.433	29.666
758.303	46.401
762.17	5.286
766.036	30.345
769.901	23.881
773.763	26.366
777.624	58.794
781.482	24.147
785.339	16.974
789.195	21.96
793.048	19.014
796.9	34.873
800.75	44.173
804.598	58.772
808.445	28.188
812.289	9.99
816.132	37.142
819.973	5.691
823.813	6.139
827.65	40.302
831.486	28.43
835.32	7.126
839.152	1.268
842.983	121.657
846.812	58.198
850.639	9.241
854.464	21.478
858.288	76.777
862.11	62.989
865.93	1.875
869.748	88.199
873.564	73.464
877.379	32.7
881.192	49.925
885.004	12.16
888.813	24.606
892.621	91.58
896.427	71.759
900.232	91.951
904.034	46.949
907.835	30.915
911.634	75.03
915.432	50.166
919.227	57.579
923.021	32.382
926.813	18.228
930.604	0.331
934.393	59.479
938.18	5.532
941.965	85.516
945.749	3.392
949.53	0.669
953.311	67.448
957.089	104.569
960.866	77.56
964.641	74.752
968.414	102.498
972.185	60.707
975.955	51.936
979.723	55.101
983.49	60.442
987.254	154.839
991.017	97.549
994.779	71.149
998.538	53.779
1002.3	129.92
1006.05	57.809
1009.81	114.259
1013.56	210.927
1017.31	133.497
1021.06	212.289
1024.81	239.484
1028.55	284.42
1032.3	330.587
1036.04	399.563
1039.78	469.113
1043.52	511.999
1047.26	682.041
1050.99	736.776
1054.73	809.381
1058.46	795.37
1062.19	914.29
1065.92	1072.21
1069.65	1419.78
1073.37	1737.19
1077.1	2461.68
1080.82	4227.08
1084.54	7852.6
1088.26	16550.8
1091.97	33762.1
1095.69	33111.3
1099.4	14012.7
1103.12	5437.78
1106.83	2540.38
1110.54	1339.83
1114.24	842.667
1117.95	554.759
1121.65	512.261
1125.35	565.107
1129.06	310.882
1132.75	237.087
1136.45	113.649
1140.15	55.897
1143.84	37.252
1147.53	33.808
1151.22	0.392
1154.91	75.76
1158.6	16.07
1162.28	108.215
1165.97	80.845
1169.65	45.201
1173.33	23.597
1177.01	92.799
1180.69	62.253
1184.36	106.999
1188.04	82.516
1191.71	24.719
1195.38	22.122
1199.05	41.921
1202.71	48.957
1206.38	76.673
1210.04	84.637
1213.71	27.909
1217.37	71.435
1221.03	19.895
1224.68	18.275
1228.34	7.578
1231.99	52.8
1235.65	53.374
1239.3	60.941
1242.95	46.12
1246.59	59.943
1250.24	4.724
1253.88	52.662
1257.53	35.737
1261.17	79.978
1264.81	7.952
1268.45	36.066
1272.08	32.336
1275.72	25.206
1279.35	42.346
1282.98	67.906
1286.61	14.042
1290.24	25.076
1293.87	53.96
1297.49	38.566
1301.11	57.362
1304.73	1.165
1308.36	152.634
1311.97	106
1315.59	46.244
1319.2	80.178
1322.82	129.185
1326.43	4.823
1330.04	7.535
1333.65	122.326
1337.26	120.901
1340.86	75.833
1344.47	40.25
1348.07	99.617
1351.67	91.147
1355.27	110.652
1358.87	158.098
1362.46	157.173
1366.06	155.187
1369.65	131.914
1373.24	191.174
1376.83	194.116
1380.42	241.175
1384	228.548
1387.59	418.92
1391.17	361.084
1394.75	320.681
1398.33	562.444
1401.91	1025.59
1405.49	2807.25
1409.06	8571.2
1412.64	5211.27
1416.21	1712.49
1419.78	705.503
1423.35	487.409
1426.91	416.599
1430.48	379.765
1434.05	300.116
1437.61	303.559
1441.17	250.246
1444.73	264.702
1448.29	228.97
1451.84	239.052
1455.4	277.894
1458.95	241.618
1462.5	388.939
1466.05	324.533
1469.6	337
1473.15	266.661
1476.69	259.396
1480.24	275.402
1483.78	105.64
1487.32	91.204
1490.86	140.293
1494.39	184.09
1497.93	163.677
1501.46	28.814
1505	31.851
1508.53	54.114
1512.06	89.991
1515.59	153.726
1519.11	133.679
1522.64	0
