Measurement: Raman, 780 nm, unoriented, Raman Data Processed
Mineral: Smithsonite
Rruff sample: R040035
Ideal chemistry: ZnCO_3_
Locality: Mazapil, Zacatecas, Mexico
Source: University of Arizona Mineral Museum
Description: Pale green-blue fine-grained massive
Measured chemistry: (Zn_0.97_Ca_0.02_Pb_0.01_)_Î£=1_C_1.00_O_3_; CO_2_ estimated by difference
Raman shift (cm-1)	intensity
159.596	0
162.488	0.04863
165.381	1.95511
168.274	9.08435
171.167	18.2998
174.059	31.8657
176.952	47.8983
179.845	65.7256
182.737	83.5249
185.63	113.031
188.523	148.284
191.416	205.449
194.308	251.713
197.201	204.529
200.094	109.841
202.986	51.681
205.879	27.4218
208.772	13.6831
211.664	8.00975
214.557	0.998985
217.45	0.558098
220.343	1.82219
223.235	1.65533
226.128	2.34245
229.021	1.00865
231.913	0.280769
234.806	1.74776
237.699	3.99282
240.591	5.46175
243.484	7.1411
246.377	10.0746
249.269	13.0651
252.162	20.8087
255.055	26.2169
257.948	34.2506
260.84	42.956
263.733	57.6557
266.626	77.6375
269.518	95.3733
272.411	129.162
275.304	174.008
278.197	237.633
281.089	328.124
283.982	438.086
286.875	561.688
289.767	716.249
292.66	911.523
295.553	1170.6
298.445	1472.5
301.338	1704.87
304.231	1653.74
307.123	1275.25
310.016	839.869
312.909	534.861
315.802	344.628
318.694	225.586
321.587	149.552
324.48	98.8291
327.372	69.6799
330.265	47.0066
333.158	36.8736
336.05	24.2777
338.943	18.9856
341.836	14.1744
344.729	8.40602
347.621	7.22274
350.514	4.67552
353.407	5.0586
356.299	2.58134
359.192	1.96427
362.085	2.76755
364.978	0.25972
367.87	1.96576
370.763	2.1555
373.656	0.223793
376.548	0.449974
379.441	0.06115
382.334	0.877407
385.226	1.30313
388.119	1.27568
391.012	0.848396
393.904	0.162594
396.797	1.32191
399.69	0.13806
402.583	0.296482
405.475	0.438795
408.368	1.36755
411.261	1.38929
414.153	2.9911
417.046	2.43801
419.939	2.05795
422.832	2.45813
425.724	3.37575
428.617	4.65836
431.51	4.04901
434.402	3.95703
437.295	6.51667
440.188	6.23601
443.08	5.30627
445.973	6.32508
448.866	4.78861
451.759	4.83115
454.651	3.59707
457.544	3.4469
460.437	2.61246
463.329	2.07423
466.222	1.90343
469.115	2.40401
472.007	2.69023
474.9	1.33149
477.793	2.67269
480.685	3.20848
483.578	2.8441
486.471	2.57712
489.364	1.15255
492.256	2.12258
495.149	1.92026
498.042	2.06947
500.934	1.62829
503.827	1.90563
506.72	1.63536
509.613	2.19541
512.505	0.767029
515.398	0.403463
518.291	0.246471
521.183	1.66518
524.076	1.03368
526.969	0.604671
529.861	0.156429
532.754	1.42235
535.647	0.607234
538.539	0.576442
541.432	2.04577
544.325	1.80177
547.218	0.593998
550.11	0.543643
553.003	1.38819
555.896	1.36434
558.788	1.0942
561.681	1.87139
564.574	2.29619
567.466	0.248128
570.359	1.7409
573.252	1.01786
576.145	1.76534
579.037	2.71534
581.93	1.31967
584.823	1.70918
587.715	0.583701
590.608	0.193782
593.501	1.89393
596.393	1.06672
599.286	2.44973
602.179	2.56602
605.072	1.32224
607.964	1.53689
610.857	1.20915
613.75	1.52266
616.642	1.11226
619.535	1.21103
622.428	0.162218
625.32	1.19501
628.213	1.29858
631.106	0.568125
633.999	0.362472
636.891	0.583742
639.784	0.862346
642.677	1.0627
645.569	1.0305
648.462	0.298066
651.355	0.578783
654.247	1.29174
657.14	0.500839
660.033	1.54097
662.926	0.866218
665.818	1.58227
668.711	0.91904
671.604	1.13759
674.496	0.939752
677.389	1.24065
680.282	1.00434
683.174	1.65754
686.067	1.67692
688.96	1.91392
691.852	1.48116
694.745	0.676506
697.638	2.03148
700.531	2.79303
703.423	2.33998
706.316	5.17624
709.209	5.6706
712.101	11.1463
714.994	18.0583
717.887	25.3929
720.779	33.4858
723.672	49.3394
726.565	80.4945
729.458	128.737
732.35	99.905
735.243	34.2191
738.136	18.1659
741.028	12.6089
743.921	9.65864
746.814	6.59449
749.707	3.28943
752.599	1.68268
755.492	1.81254
758.385	0.851853
761.277	1.15238
764.17	0.240558
767.063	1.47467
769.955	0.305675
772.848	0.015878
775.741	0.129782
778.634	0.641241
781.526	0.595071
784.419	1.1137
787.312	0.183144
790.204	0.01603
793.097	0.307571
795.99	0.298382
798.882	0.59654
801.775	0.247272
804.668	1.61963
807.561	1.05728
810.453	1.69202
813.346	0.889228
816.239	2.07768
819.131	1.61377
822.024	2.16735
824.917	2.22851
827.809	1.05085
830.702	2.00605
833.595	2.46877
836.487	2.0681
839.38	3.11418
842.273	2.32311
845.166	3.19305
848.058	1.75103
850.951	2.35276
853.844	1.53509
856.736	3.24427
859.629	2.56128
862.522	3.56168
865.415	3.36165
868.307	3.38809
871.2	4.88227
874.093	1.86515
876.985	0.827206
879.878	2.62636
882.771	1.35821
885.663	1.95569
888.556	2.48264
891.449	1.89042
894.342	1.95801
897.234	1.74194
900.127	2.1475
903.02	1.69941
905.912	0.386903
908.805	1.73499
911.698	1.14601
914.591	1.23107
917.483	1.48296
920.376	0.979441
923.269	1.7547
926.161	0.204819
929.054	1.52929
931.947	0.677504
934.839	2.00161
937.732	1.68813
940.625	1.21814
943.517	0.826442
946.41	1.03985
949.303	0.758756
952.196	1.0742
955.088	0.259827
957.981	3.01038
960.874	1.73489
963.766	0.99671
966.659	0.677154
969.552	1.01055
972.444	1.65421
975.337	0.195256
978.23	0.592891
981.122	1.47904
984.015	0.202386
986.908	0.864407
989.801	0.569335
992.693	0.655147
995.586	0.081207
998.479	0.473901
1001.37	0.22181
1004.26	0.016202
1007.16	0.65502
1010.05	0.333298
1012.94	0.826756
1015.84	0.685846
1018.73	2.7583
1021.62	2.29586
1024.51	5.97208
1027.41	7.73311
1030.3	8.97418
1033.19	12.8645
1036.08	14.8742
1038.98	17.0232
1041.87	18.6989
1044.76	24.2327
1047.65	26.6835
1050.55	28.1544
1053.44	32.4694
1056.33	37.5686
1059.22	43.3378
1062.12	53.1108
1065.01	70.0106
1067.9	94.389
1070.8	130.816
1073.69	191.511
1076.58	299.871
1079.47	485.769
1082.37	737.757
1085.26	1085.19
1088.15	1570.99
1091.05	2143.51
1093.94	2099.47
1096.83	1276.03
1099.72	624.573
1102.62	315.205
1105.51	176.028
1108.4	101.478
1111.29	64.9284
1114.19	40.2088
1117.08	26.294
1119.97	17.0755
1122.87	11.0209
1125.76	8.84066
1128.65	4.77077
1131.54	3.42803
1134.44	2.01775
1137.33	0.697603
1140.22	0.077654
1143.11	0.771436
1146.01	0.967917
1148.9	0.160919
1151.79	0.028385
1154.68	0.986608
1157.58	1.5593
1160.47	0.908131
1163.36	1.73926
1166.26	0.920861
1169.15	2.05855
1172.04	0.893682
1174.93	0.706908
1177.83	3.75595
1180.72	2.40798
1183.61	2.83493
1186.5	1.9773
1189.4	2.87602
1192.29	3.6795
1195.18	3.30398
1198.08	4.10039
1200.97	3.42633
1203.86	3.12798
1206.75	2.81302
1209.65	2.66978
1212.54	4.53536
1215.43	2.89662
1218.32	3.70619
1221.22	2.78701
1224.11	3.09811
1227	2.20996
1229.89	2.4213
1232.79	1.54115
1235.68	3.91022
1238.57	1.97988
1241.46	1.03513
1244.36	1.80146
1247.25	0.287113
1250.14	1.16854
1253.04	1.84845
1255.93	0.200554
1258.82	0.657822
1261.71	1.92177
1264.61	2.20525
1267.5	0.727604
