Measurement: Raman, 514 nm, unoriented, Raman Data Processed
Mineral: Smithsonite
Rruff sample: R040035
Ideal chemistry: ZnCO_3_
Locality: Mazapil, Zacatecas, Mexico
Source: University of Arizona Mineral Museum
Description: Pale green-blue fine-grained massive
Measured chemistry: (Zn_0.97_Ca_0.02_Pb_0.01_)_Î£=1_C_1.00_O_3_; CO_2_ estimated by difference
Raman shift (cm-1)	intensity
162.779	0
166.926	1.618
171.07	79.039
175.213	349.242
179.354	547.523
183.493	1219.08
187.63	2490.38
191.765	3464.98
195.898	2973.58
200.029	1763.08
204.158	853.826
208.285	624.066
212.41	346.706
216.533	162.86
220.654	105.461
224.773	96.122
228.891	2.955
233.006	93.591
237.119	17.366
241.231	40.229
245.34	8.463
249.448	77.502
253.553	10.787
257.657	121.511
261.758	10.013
265.858	100.405
269.956	184.764
274.052	290.949
278.146	353.514
282.237	467.503
286.327	560.423
290.416	1056.4
294.502	1741.58
298.586	2598.96
302.668	2694.11
306.749	2058.43
310.827	1341.38
314.903	824.172
318.978	463.118
323.051	300.124
327.121	230.901
331.19	187.134
335.257	83.305
339.322	100.498
343.385	48.187
347.446	115.34
351.505	57.927
355.563	121.069
359.618	137.819
363.672	100.354
367.723	135.886
371.773	147.94
375.821	121.335
379.866	182.983
383.91	217.551
387.952	258.575
391.992	178.387
396.031	124.542
400.067	118.502
404.101	70.259
408.134	0.878
412.165	189.408
416.193	169.858
420.22	28.808
424.245	85.357
428.268	106.83
432.289	76.505
436.309	43.568
440.326	163.67
444.342	38.381
448.355	18.836
452.367	52.831
456.377	28.718
460.385	31.39
464.391	124.655
468.395	154.096
472.398	126.445
476.398	12.45
480.397	131.414
484.394	138.173
488.389	112.839
492.382	155.472
496.373	103.729
500.362	88.936
504.349	168.676
508.335	166.403
512.319	130.782
516.3	188.232
520.28	168.949
524.259	101.628
528.235	74.168
532.209	133.499
536.182	93.436
540.152	112.611
544.121	218.945
548.088	64.787
552.053	86.681
556.017	72.852
559.978	146.526
563.938	148.941
567.895	221.739
571.851	155.351
575.805	234.869
579.758	78.493
583.708	0.369
587.657	34.301
591.603	74.406
595.548	82.745
599.491	20.376
603.432	10.681
607.372	250.49
611.309	238.505
615.245	135.94
619.179	168.671
623.111	48.922
627.041	182.524
630.97	75.734
634.896	122.499
638.821	351.479
642.744	191.864
646.665	80.135
650.584	248.36
654.502	239.148
658.418	366.82
662.331	49.53
666.244	103.864
670.154	147.854
674.062	167.736
677.969	137.23
681.874	173.13
685.777	232.098
689.678	89.371
693.577	170.104
697.475	49.378
701.371	179.329
705.265	90.06
709.157	124.142
713.047	149.657
716.936	311.789
720.823	473.918
724.708	969.207
728.591	1978.89
732.472	1491.58
736.352	494.651
740.23	284.749
744.106	215.186
747.98	161.082
751.853	181.215
755.723	201.343
759.592	136.514
763.459	106.257
767.325	95.271
771.188	80.883
775.05	194.963
778.91	27.919
782.768	83.22
786.625	171.846
790.479	160.028
794.332	141.13
798.183	57.006
802.033	125.794
805.88	163.307
809.726	101.031
813.57	18.431
817.413	96.398
821.253	175.938
825.092	223.538
828.929	131.129
832.764	93.986
836.598	86.762
840.429	177.441
844.259	108.086
848.088	5.102
851.914	136.019
855.739	47.507
859.562	90.036
863.383	248.701
867.203	107.96
871.02	124.613
874.836	145.297
878.65	138.988
882.463	131.693
886.274	279.421
890.083	296.124
893.89	217.804
897.695	68.48
901.499	124.174
905.301	252.857
909.102	130.25
912.9	162.818
916.697	266.413
920.492	231.066
924.285	182.32
928.077	207.537
931.867	21.467
935.655	56.734
939.442	298.09
943.226	127.482
947.009	122.672
950.791	80.08
954.57	76.664
958.348	160.387
962.124	106.345
965.899	141.682
969.671	100.899
973.442	84.989
977.211	195.377
980.979	203.932
984.745	334.608
988.509	284.757
992.271	225.19
996.032	89.119
999.791	168.758
1003.55	123.031
1007.3	78.313
1011.06	287.222
1014.81	179.967
1018.56	265.653
1022.31	334.172
1026.06	460.792
1029.8	382.193
1033.55	367.156
1037.29	446.586
1041.03	505.255
1044.77	551.932
1048.5	562.073
1052.24	617.69
1055.97	596.492
1059.7	859.545
1063.43	880.066
1067.16	1009.23
1070.89	1286.38
1074.61	1882.83
1078.34	2855.93
1082.06	4841.59
1085.78	9677.83
1089.5	19496
1093.21	28345.2
1096.93	18311.9
1100.64	7910.95
1104.35	3771.69
1108.06	1870.13
1111.77	1179.32
1115.48	736.915
1119.18	532.271
1122.89	457.476
1126.59	335.139
1130.29	126.751
1133.99	183.39
1137.68	129.864
1141.38	174.25
1145.07	24.06
1148.76	33.154
1152.45	17.654
1156.14	2.801
1159.83	63.092
1163.51	109.346
1167.19	86.264
1170.88	73.07
1174.56	31.971
1178.23	98.764
1181.91	8.102
1185.59	232.133
1189.26	273.174
1192.93	10.922
1196.6	10.4
1200.27	201.623
1203.94	250.914
1207.6	58.648
1211.27	43.025
1214.93	255.018
1218.59	49.576
1222.25	139.879
1225.9	248.902
1229.56	47.221
1233.21	123.031
1236.86	241.189
1240.51	114.803
1244.16	181.064
1247.81	56.324
1251.45	123.527
1255.1	107.623
1258.74	39.633
1262.38	33.336
1266.02	245.551
1269.66	114.08
1273.29	126.109
1276.93	3.527
1280.56	84.656
1284.19	161.553
1287.82	237.035
1291.45	47.455
1295.07	87.77
1298.7	77.84
1302.32	76.324
1305.94	111.234
1309.56	108.879
1313.18	65.623
1316.8	161.406
1320.41	23.508
1324.02	12.166
1327.63	167.512
1331.24	65.256
1334.85	98.096
1338.46	16.723
1342.06	203.389
1345.67	156.957
1349.27	268.975
1352.87	193.613
1356.47	323.029
1360.07	190.738
1363.66	244.812
1367.25	186.998
1370.85	312.408
1374.44	74.389
1378.03	266.541
1381.61	331.463
1385.2	343.631
1388.78	288.738
1392.37	485.035
1395.95	577.727
1399.53	597.58
1403.1	866.686
1406.68	1151.05
1410.26	1383.36
1413.83	888.924
1417.4	518.689
1420.97	581.191
1424.54	417.137
1428.1	462.461
1431.67	358.631
1435.23	534.725
1438.8	598.68
1442.36	450.488
1445.91	564.553
1449.47	380.637
1453.03	624.064
1456.58	482.812
1460.13	534.506
1463.68	356.887
1467.23	262.098
1470.78	402.018
1474.33	544.666
1477.87	392.873
1481.42	304.59
1484.96	348.502
1488.5	344.51
1492.04	282.932
1495.57	107.918
1499.11	112.74
1502.64	110.777
1506.17	362.279
1509.71	67.367
1513.23	112.697
1516.76	22.646
1520.29	95.717
1523.81	190.904
1527.34	0
