Measurement: Raman, 532 nm, unoriented, Raman Data Processed
Mineral: Smithite
Rruff sample: R070642
Ideal chemistry: AgAsS_2_
Locality: Jas Roux, Pelvoux Mt., Valgaudemar, Hautes-Alpes, Provence-Alpes-Côte d'Azur, France
Source: Michael Scott
Description: Deep-red with good cleavage, associated with realgar and chabournéite, R070371.
Measured chemistry: Ag_1.00_(As_0.80_Sb_0.20_)_Σ=1_S_2.00_
Raman shift (cm-1)	intensity
152.429	0
155.322	61.1294
158.214	70.5015
161.107	130.99
164	202.513
166.893	301.342
169.785	385.442
172.678	409.453
175.571	423.683
178.463	401.912
181.356	308.223
184.249	256.219
187.142	127.294
190.034	139.261
192.927	61.676
195.82	37.6746
198.712	46.7705
201.605	49.874
204.498	63.0793
207.39	37.2622
210.283	37.5825
213.176	40.8171
216.069	55.2676
218.961	78.7759
221.854	35.7087
224.747	79.8486
227.639	66.0239
230.532	100.257
233.425	49.4246
236.317	127.254
239.21	40.0974
242.103	16.668
244.995	51.8406
247.888	37.1414
250.781	17.4878
253.674	14.4055
256.566	81.8857
259.459	225.302
262.352	341.128
265.244	399.914
268.137	555.091
271.03	668.409
273.923	750.523
276.815	807.619
279.708	877.64
282.601	946.194
285.493	1068.88
288.386	1284.81
291.279	1513.4
294.171	1683.29
297.064	1714.9
299.957	1593.78
302.849	1387.5
305.742	1125.05
308.635	936.605
311.528	961.568
314.42	1059.04
317.313	1354.65
320.206	1572.16
323.098	1748.37
325.991	1853.68
328.884	1806.24
331.776	1683.37
334.669	1443.45
337.562	1226.72
340.455	1097.12
343.347	914.03
346.24	1025.63
349.133	1121.68
352.025	1397.77
354.918	1774.38
357.811	2599.84
360.704	3231.28
363.596	2965.36
366.489	2090.79
369.382	1378.37
372.274	982.997
375.167	716.079
378.06	499.587
380.952	313.356
383.845	185.68
386.738	90.7864
389.63	12.5105
392.523	33.2886
395.416	25.7268
398.308	47.6382
401.201	13.918
404.094	25.3879
406.987	44.0276
409.879	1.94702
412.772	12.0632
415.665	18.342
418.557	18.8157
421.45	19.1526
424.343	33.9539
427.236	30.2795
430.128	36.2148
433.021	54.0955
435.914	55.8499
438.806	94.72
441.699	93.0332
444.592	107.705
447.484	87.6135
450.377	123.106
453.27	112.896
456.163	106.54
459.055	97.2534
461.948	128.478
464.841	87.8352
467.733	86.8074
470.626	87.2009
473.519	88.7778
476.411	64.3801
479.304	63.6116
482.197	90.0041
485.089	25.2671
487.982	74.334
490.875	15.1296
493.768	28.262
496.66	74.8318
499.553	31.5129
502.446	25.8621
505.338	6.83984
508.231	23.792
511.124	44.0935
514.016	25.1104
516.909	4.73633
519.802	28.4817
522.695	9.17578
525.587	15.1724
528.48	3.26294
531.373	4.31982
534.265	26.2046
537.158	42.5024
540.051	1.8772
542.943	36.3699
545.836	2.43286
548.729	17.3965
551.622	21.4229
554.514	44.4148
557.407	51.1399
560.3	4.30444
563.192	47.2688
566.085	29.6384
568.978	37.875
571.87	61.8481
574.763	16.3662
577.656	4.13403
580.549	17.0115
583.441	70.8015
586.334	7.17554
589.227	1.60181
592.119	18.6121
595.012	66.8035
597.905	45.217
600.798	69.0215
603.69	31.1543
606.583	60.8167
609.476	28.8889
612.368	46.5647
615.261	45.0686
618.154	21.0161
621.046	1.35376
623.939	17.303
626.832	1.0271
629.725	31.0288
632.617	6.13989
635.51	18.9023
638.403	15.4143
641.295	17.9819
644.188	15.9092
647.081	87.3218
649.973	15.7051
652.866	21.6206
655.759	48.3386
658.651	59.2051
661.544	22.5747
664.437	47.4453
667.33	48.1531
670.222	9.30933
673.115	22.0312
676.008	10.1472
678.9	13.1997
681.793	55.8323
684.686	36.3394
687.578	8.33154
690.471	34.6676
693.364	0.746094
696.256	42.3086
699.149	0.672852
702.042	28.2156
704.935	1.12012
707.827	22.3801
710.72	17.7338
713.613	18.7444
716.505	26.2969
719.398	49.8512
722.291	66.9131
725.183	44.3719
728.076	63.9706
730.969	44.8955
733.862	49.3977
736.754	67.3463
739.647	26.016
742.54	80.8536
745.432	18.4235
748.325	8.3584
751.218	9.80457
754.111	67.6705
757.003	19.4135
759.896	39.2234
762.789	13.0574
765.681	17.8179
768.574	36.3131
771.467	3.9469
774.359	43.0196
777.252	27.6099
780.145	31.3762
783.038	28.3677
785.93	35.8523
788.823	28.7076
791.716	37.4915
794.608	36.135
797.501	37.9463
800.394	11.7502
803.286	0.64978
806.179	9.87329
809.072	12.8166
811.965	28.3826
814.857	47.9458
817.75	2.64685
820.643	28.9036
823.535	13.915
826.428	13.5158
829.321	32.0554
832.213	24.3402
835.106	38.2056
837.999	20.6266
840.891	23.3171
843.784	9.73901
846.677	8.61926
849.57	44.2858
852.462	25.4667
855.355	26.1855
858.248	67.2272
861.14	24.8029
864.033	62.6937
866.926	32.2908
869.818	28.8527
872.711	30.4751
875.604	51.8683
878.497	35.3175
881.389	4.67065
884.282	27.1959
887.175	52.0949
890.067	38.2305
892.96	10.2281
895.853	35.3589
898.745	27.1011
901.638	10.0299
904.531	15.3435
907.424	18.3426
910.316	25.2151
913.209	33.7664
916.102	35.1672
918.994	7.58801
921.887	35.8346
924.78	4.3031
927.673	6.10877
930.565	38.4939
933.458	8.94629
936.351	38.2078
939.243	27.6848
942.136	21.0779
945.029	28.3859
947.921	27.0784
950.814	20.3453
953.707	43.9124
956.6	25.7286
959.492	31.4009
962.385	33.919
965.278	13.6443
968.17	16.4414
971.063	5.09485
973.956	28.3673
976.848	15.4906
979.741	35.3986
982.634	31.8181
985.527	11.8723
988.419	14.1876
991.312	37.704
994.205	33.8575
997.097	41.4808
999.99	39.8453
1002.88	84.1047
1005.77	44.6445
1008.67	63.4733
1011.56	28.4341
1014.45	66.7639
1017.35	30.8868
1020.24	40.5298
1023.13	75.1094
1026.02	18.3554
1028.92	7.47681
1031.81	33.1796
1034.7	37.8842
1037.6	53.1234
1040.49	22.8307
1043.38	37.7938
1046.27	39.6699
1049.17	34.0343
1052.06	13.7312
1054.95	16.1704
1057.84	37.3843
1060.74	61.1577
1063.63	8.151
1066.52	8.06934
1069.41	29.2407
1072.31	27.501
1075.2	54.3223
1078.09	31.0483
1080.98	38.7874
1083.88	6.84326
1086.77	27.426
1089.66	29.21
1092.56	3.05054
1095.45	12.4673
1098.34	5.93408
1101.23	60.0527
1104.13	27.5916
1107.02	34.5237
1109.91	10.3682
1112.81	29.8535
1115.7	45.0156
1118.59	46.9653
1121.48	25.803
1124.38	32.7634
1127.27	19.3525
1130.16	65.6209
1133.05	31.9441
1135.95	70.4143
1138.84	56.6267
1141.73	31.78
1144.62	6.7749
1147.52	49.5088
1150.41	42.5579
1153.3	60.1948
1156.2	47.1418
1159.09	60.2022
1161.98	61.6523
1164.87	16.7344
1167.77	43.1653
1170.66	0.909424
1173.55	71.0337
1176.44	24.1194
1179.34	35.2974
1182.23	29.7478
1185.12	24.5967
1188.02	62.4841
1190.91	70.5019
1193.8	16.2183
1196.69	32.6567
1199.59	36.7102
1202.48	36.8706
1205.37	39.3557
1208.26	34.9729
1211.16	79.5715
1214.05	48.8623
1216.94	61.9851
1219.84	25.6421
1222.73	28.2771
1225.62	17.9646
1228.51	20.6814
1231.41	15.5901
1234.3	17.8562
1237.19	34.4155
1240.08	66.0627
1242.98	50.7869
1245.87	5.81738
1248.76	9.38208
1251.65	46.1299
1254.55	46.1506
1257.44	35.5164
1260.33	2.28931
1263.23	9.11255
