Measurement: Raman, 532 nm, unoriented, Raman Data Processed
Mineral: Smithsonite
Rruff sample: R040051
Ideal chemistry: ZnCO_3_
Locality: Berg Aukas mine, Grootfontein, Namibia
Source: University of Arizona Mineral Museum
Description: Yellowish brown botryoidal groups
Measured chemistry: (Zn_0.94_Ca_0.02_Mg_0.02_)C_1.01_O_3_
Raman shift (cm-1)	intensity
126.343	0
129.718	71.75
133.093	11.6661
136.468	5.74951
139.843	117.936
143.217	223.962
146.592	276.901
149.967	240.561
153.342	230.254
156.717	264.292
160.091	334.655
163.466	368.582
166.841	452.529
170.216	423.276
173.591	482.587
176.965	641.144
180.34	854.963
183.715	1369.12
187.09	2239.82
190.465	3535.46
193.84	5055.06
197.214	5155.88
200.589	2732.92
203.964	1218.54
207.339	656.955
210.714	346.958
214.089	202.201
217.463	119.529
220.838	71.4592
224.213	5.61816
227.588	6.00244
230.963	27.2781
234.337	5.16675
237.712	2.73389
241.087	1.99536
244.462	30.332
247.837	37.093
251.211	43.6414
254.586	41.6345
257.961	69.5388
261.336	191.411
264.711	240.373
268.086	342.742
271.46	493.929
274.835	717.937
278.21	967.366
281.585	1469.33
284.96	2191.89
288.334	3517.24
291.709	5724.27
295.084	9218.83
298.459	13563.2
301.834	17522.4
305.209	18601.5
308.583	13919.2
311.958	8257.89
315.333	4614.76
318.708	2649.41
322.082	1564.74
325.457	1000.47
328.832	631.326
332.207	381.213
335.582	337.695
338.957	246.314
342.331	140.486
345.706	131.546
349.081	96.4187
352.456	91.8677
355.831	42.9404
359.205	33.7827
362.58	35.9106
365.955	19.3355
369.33	7.51636
372.705	18.0405
376.08	4.19214
379.454	25.5212
382.829	8.65967
386.204	0.51709
389.579	11.3953
392.954	17.9648
396.328	16.5588
399.703	15.7783
403.078	23.0332
406.453	3.94019
409.828	39.8506
413.202	40.9673
416.577	78.9648
419.952	70.2214
423.327	44.2607
426.702	61.4326
430.077	102.308
433.451	17.8584
436.826	69.187
440.201	50.6294
443.576	62.8347
446.951	79.5796
450.325	72.448
453.7	12.3084
457.075	18.8706
460.45	21.2925
463.825	39.0938
467.2	18.8189
470.574	37.6631
473.949	13.4553
477.324	32.2019
480.699	30.499
484.074	47.7375
487.448	50.2512
490.823	25.853
494.198	4.59375
497.573	19.0149
500.948	22.4849
504.322	9.56885
507.697	42.3884
511.072	2.28735
514.447	22.8286
517.822	48.2776
521.197	19.9644
524.571	37.1909
527.946	11.3652
531.321	44.6257
534.696	1.19311
538.071	7.271
541.445	33.7273
544.82	63.9321
548.195	49.7571
551.57	76.1182
554.945	14.7114
558.319	44.8023
561.694	57.6926
565.069	36.5564
568.444	95.5176
571.819	38.8489
575.194	94.447
578.568	120.463
581.943	117.655
585.318	128.724
588.693	92.1436
592.068	120.524
595.442	179.089
598.817	142.252
602.192	194.531
605.567	226.921
608.942	226.629
612.317	283.925
615.691	301.309
619.066	348.521
622.441	354.169
625.816	380.783
629.191	360.749
632.565	330.876
635.94	275.64
639.315	165.67
642.69	151.587
646.065	81.7483
649.439	89.8284
652.814	27.4582
656.189	28.9802
659.564	39.0747
662.939	27.7593
666.314	25.3904
669.688	48.3657
673.063	12.0449
676.438	12.0029
679.813	5.01392
683.188	29.3225
686.562	29.1719
689.937	54.3301
693.312	29.8718
696.687	90.6948
700.062	35.7295
703.437	63.9431
706.811	112.323
710.186	114.752
713.561	161.246
716.936	280.837
720.311	471.859
723.685	853.18
727.06	1404.56
730.435	2016.87
733.81	998.728
737.185	350.754
740.559	178.221
743.934	122.934
747.309	126.375
750.684	25.7581
754.059	25.8789
757.434	31.9048
760.808	7.27246
764.183	31.6457
767.558	2.83813
770.933	25.5193
774.308	9.14111
777.683	2.65137
781.057	1.55493
784.432	23.1782
787.807	1.79907
791.182	21.0078
794.557	67.8838
797.931	69.457
801.306	51.6394
804.681	87.2581
808.056	112.133
811.431	148.176
814.805	200.18
818.18	235.344
821.555	347.841
824.93	420.914
828.305	381.592
831.679	330.125
835.054	311.964
838.429	291.535
841.804	267.85
845.179	266.929
848.554	180.413
851.928	170.707
855.303	196.14
858.678	125.425
862.053	121.772
865.428	165.208
868.802	132.846
872.177	105.092
875.552	97.0859
878.927	39.5474
882.302	70.6352
885.677	94.6148
889.051	69.8843
892.426	122.353
895.801	109.828
899.176	60.2485
902.551	42.8428
905.925	33.2256
909.3	4.24756
912.675	47.0049
916.05	7.38623
919.425	22.0381
922.799	17.293
926.174	51.4941
929.549	58.7212
932.924	30.3564
936.299	29.1548
939.674	34.5244
943.048	5.61865
946.423	40.061
949.798	0.149902
953.173	4.75879
956.548	30.9082
959.922	0.464355
963.297	14.3877
966.672	58.9199
970.047	35.0215
973.422	74.3193
976.797	53.8711
980.171	6.854
983.546	9.9873
986.921	37.8667
990.296	24.9341
993.671	20.5415
997.045	54.1333
1000.42	30.4902
1003.79	32.9834
1007.17	8.81641
1010.54	0.679688
1013.92	32.6792
1017.29	37.3276
1020.67	50.7056
1024.04	72.6348
1027.42	166.132
1030.79	208.763
1034.17	267.996
1037.54	295.253
1040.92	377.008
1044.29	446.337
1047.67	507.266
1051.04	644.778
1054.42	706.283
1057.79	783.638
1061.17	942.083
1064.54	1183.81
1067.92	1655.86
1071.29	2298.02
1074.67	3253.01
1078.04	5435.17
1081.42	9551.89
1084.79	17070.1
1088.16	29540.7
1091.54	45079.2
1094.91	38663.6
1098.29	16902.7
1101.66	7320.55
1105.04	3686.97
1108.41	2090.83
1111.79	1168.48
1115.16	751.283
1118.54	447.229
1121.91	324.141
1125.29	168.773
1128.66	162.514
1132.04	110.041
1135.41	54.6465
1138.79	31.0771
1142.16	24.2524
1145.54	15.0312
1148.91	23.2144
1152.29	22.4273
1155.66	2.3208
1159.04	77.7939
1162.41	13.7163
1165.79	23.646
1169.16	3.25879
1172.54	55.9253
1175.91	69.4614
1179.29	36.9395
1182.66	136.032
1186.04	77.2275
1189.41	87.6616
1192.79	7.86328
1196.16	65.9233
1199.53	76.2065
1202.91	13.3735
1206.28	37.9453
1209.66	54.5269
1213.03	52.188
1216.41	19.6055
1219.78	10.8188
1223.16	60.0625
1226.53	55.3921
1229.91	52.1157
1233.28	58.2666
1236.66	69.0854
1240.03	49.4722
1243.41	83.5688
1246.78	98.4233
1250.16	52.4292
1253.53	15.02
1256.91	37.895
1260.28	16.8052
1263.66	15.6435
1267.03	40.2861
1270.4	71.7642
1273.78	88.0767
1277.15	45.2422
1280.53	42.0503
1283.9	42.0596
1287.28	51.1743
