Measurement: Raman, 780 nm, unoriented, Raman Data Processed
Mineral: Smithite
Rruff sample: R070642
Ideal chemistry: AgAsS_2_
Locality: Jas Roux, Pelvoux Mt., Valgaudemar, Hautes-Alpes, Provence-Alpes-Côte d'Azur, France
Source: Michael Scott
Description: Deep-red with good cleavage, associated with realgar and chabournéite, R070371.
Measured chemistry: Ag_1.00_(As_0.80_Sb_0.20_)_Σ=1_S_2.00_
Raman shift (cm-1)	intensity
128.684	0
131.576	51.3281
134.469	986.652
137.362	1880.85
140.255	2180.09
143.147	1877.59
146.04	1679.15
148.933	1606.22
151.825	1737.08
154.718	2064.89
157.611	3134.95
160.503	5225.09
163.396	7552.13
166.289	10396.9
169.181	13199.5
172.074	16565.6
174.967	19289.6
177.859	19601.1
180.752	16595.7
183.645	11799.6
186.538	7741.08
189.43	5032.58
192.323	3883.93
195.216	3423.16
198.108	3947.85
201.001	4499.58
203.894	4786.87
206.786	4289.21
209.679	3755.06
212.572	2696.19
215.465	1954.58
218.357	1830.63
221.25	2409.13
224.143	3232.56
227.035	4290.82
229.928	5344.51
232.821	5764.4
235.714	5484.21
238.606	4476.59
241.499	3121.02
244.392	1469.79
247.284	235.363
250.177	698.12
253.07	1043.53
255.962	1004.93
258.855	446.635
261.748	327.14
264.64	1638.98
267.533	3224.81
270.426	5121.1
273.319	7333.67
276.211	9705.81
279.104	11627.7
281.997	12660.1
284.889	14092
287.782	17075.5
290.675	21612.7
293.567	27481.7
296.46	33825.6
299.353	38043.7
302.246	37898.8
305.138	34538.4
308.031	29057.3
310.924	25050.5
313.816	24936.6
316.709	28259.5
319.602	34076.5
322.495	40952.3
325.387	44917.7
328.28	43313.2
331.173	38184.5
334.065	32066.7
336.958	26283.9
339.851	20515.1
342.743	15316.8
345.636	12167.3
348.529	11845.7
351.421	15086.1
354.314	21062.7
357.207	29787.2
360.1	44513.2
362.992	61641.9
365.885	54508.6
368.778	32597.1
371.67	16756.1
374.563	9223.17
377.456	5477.7
380.349	3270.51
383.241	1853.39
386.134	745.975
389.027	102.434
391.919	202.859
394.812	356.347
397.705	333.423
400.597	344.06
403.49	216.647
406.383	153.218
409.276	78.3086
412.168	34.2244
415.061	97.4781
417.954	232.483
420.846	329.83
423.739	392.282
426.632	503.898
429.524	596.553
432.417	650.666
435.31	795.48
438.202	853.44
441.095	935.84
443.988	999.122
446.881	1089.16
449.773	1097.09
452.666	1010.22
455.559	929.668
458.451	829.697
461.344	708.125
464.237	624.374
467.13	554.892
470.022	468.035
472.915	477.642
475.808	422.536
478.7	420.604
481.593	398.827
484.486	372.307
487.378	347.754
490.271	301.974
493.164	276.997
496.057	248.962
498.949	205.304
501.842	164.691
504.735	108.08
507.627	127.72
510.52	73.0004
513.413	58.77
516.305	52.1046
519.198	49.679
522.091	23.9576
524.984	12.7104
527.876	12.1152
530.769	11.1612
533.662	22.1865
536.554	3.9664
539.447	2.09546
542.34	8.29462
545.232	20.1801
548.125	9.83621
551.018	16.7545
553.91	6.21466
556.803	2.27112
559.696	15.6663
562.589	21.7261
565.481	11.2118
568.374	21.3436
571.267	8.52228
574.159	28.6273
577.052	15.1203
579.945	24.3053
582.837	37.8428
585.73	39.8363
588.623	54.6578
591.516	76.9511
594.408	92.1914
597.301	113.026
600.194	118.2
603.086	127.725
605.979	130.694
608.872	115.733
611.764	109.755
614.657	88.6038
617.55	87.1679
620.443	89.1143
623.335	72.2994
626.228	97.3436
629.121	75.9951
632.013	80.056
634.906	57.8986
637.799	90.5301
640.692	97.1563
643.584	91.2674
646.477	103.23
649.37	131.972
652.262	95.5797
655.155	95.3524
658.048	108.173
660.94	102.779
663.833	132.51
666.726	94.5242
669.619	98.3987
672.511	114.804
675.404	74.2274
678.297	86.8367
681.189	104.293
684.082	66.4734
686.975	47.0511
689.867	61.3277
692.76	49.4818
695.653	25.4551
698.545	14.8534
701.438	19.3441
704.331	1.23503
707.224	3.28374
710.116	3.36652
713.009	4.21127
715.902	6.5553
718.794	21.1973
721.687	20.4223
724.58	17.9966
727.472	28.6976
730.365	57.9425
733.258	37.2268
736.151	53.6257
739.043	54.8832
741.936	48.7142
744.829	23.1391
747.721	64.098
750.614	40.8702
753.507	30.8098
756.399	35.7612
759.292	40.7753
762.185	33.2881
765.078	21.9128
767.97	27.976
770.863	19.124
773.756	4.23338
776.648	42.5976
779.541	8.68574
782.434	12.0265
785.327	24.8394
788.219	23.5515
791.112	16.584
794.005	12.2772
796.897	4.0517
799.79	36.2042
802.683	22.3198
805.575	14.4234
808.468	20.1166
811.361	12.7374
814.254	34.2589
817.146	31.0436
820.039	28.4002
822.932	22.5206
825.824	25.7869
828.717	37.0811
831.61	28.8978
834.502	7.95004
837.395	10.5884
840.288	1.84743
843.181	28.7161
846.073	4.62973
848.966	34.6442
851.859	22.5476
854.751	13.2117
857.644	32.9983
860.537	20.8887
863.429	7.61946
866.322	22.0075
869.215	10.3168
872.107	5.26479
875	8.41405
877.893	18.1273
880.786	4.80086
883.678	29.4098
886.571	0.176712
889.464	6.68143
892.356	15.388
895.249	24.8137
898.142	23.0933
901.034	13.2306
903.927	18.179
906.82	10.0493
909.713	12.523
912.605	5.22635
915.498	2.4984
918.391	17.3557
921.283	20.5352
924.176	16.2497
927.069	5.29643
929.962	18.7616
932.854	8.16347
935.747	9.89064
938.64	24.2173
941.532	1.28271
944.425	18.0555
947.318	22.06
950.21	13.6832
953.103	8.94242
955.996	15.7796
958.889	9.38721
961.781	26.7426
964.674	23.231
967.567	25.7475
970.459	16.4943
973.352	4.66187
976.245	16.1795
979.137	27.0122
982.03	21.4932
984.923	19.029
987.816	29.7489
990.708	20.1855
993.601	8.23235
996.494	17.3757
999.386	46.0499
1002.28	11.5968
1005.17	12.2639
1008.06	28.2885
1010.96	21.8727
1013.85	9.32571
1016.74	16.9447
1019.63	21.9702
1022.53	2.36355
1025.42	12.2798
1028.31	6.50641
1031.21	17.6802
1034.1	29.2739
1036.99	13.6274
1039.88	29.5874
1042.78	18.4562
1045.67	6.87079
1048.56	37.6839
1051.45	28.8807
1054.35	33.0508
1057.24	32.6194
1060.13	14.2482
1063.03	26.6814
1065.92	5.35985
1068.81	23.5216
1071.7	30.1098
1074.6	14.7943
1077.49	30.4787
1080.38	13.7119
1083.28	18.318
1086.17	25.599
1089.06	14.4008
1091.95	4.90219
1094.85	22.6789
1097.74	25.6946
1100.63	23.587
1103.52	29.8253
1106.42	21.5085
1109.31	40.9936
1112.2	30.1097
1115.09	12.022
1117.99	11.9781
1120.88	16.7955
1123.77	18.589
1126.66	6.47113
1129.56	11.1581
1132.45	20.7152
1135.34	20.0248
1138.24	5.40528
1141.13	13.3017
1144.02	22.7142
1146.91	2.78487
1149.81	24.058
1152.7	17.7482
1155.59	41.0713
1158.48	17.9657
1161.38	13.7307
1164.27	24.7647
1167.16	16.8371
1170.06	23.0662
1172.95	2.32205
1175.84	0.671207
1178.73	8.3681
1181.63	31.3218
1184.52	13.3375
1187.41	20.5962
1190.3	6.30677
1193.2	5.12857
1196.09	11.1436
1198.98	7.24735
1201.88	12.4655
1204.77	11.2641
1207.66	30.4575
1210.55	17.3604
1213.45	24.849
1216.34	11.2574
1219.23	20.5872
1222.12	4.53517
1225.02	13.9181
1227.91	21.5405
1230.8	12.2463
1233.69	26.4936
1236.59	24.0583
1239.48	14.1404
1242.37	7.08128
1245.27	25.1194
1248.16	24.0003
1251.05	13.2406
1253.94	24.7313
1256.84	38.1451
1259.73	24.0867
1262.62	24.8515
1265.52	10.2638
1268.41	8.99036
