Measurement: Raman, 532 nm, unoriented, Raman Data Processed
Mineral: Smithsonite
Rruff sample: R040035
Ideal chemistry: ZnCO_3_
Locality: Mazapil, Zacatecas, Mexico
Source: University of Arizona Mineral Museum
Description: Pale green-blue fine-grained massive
Measured chemistry: (Zn_0.97_Ca_0.02_Pb_0.01_)_Î£=1_C_1.00_O_3_; CO_2_ estimated by difference
Raman shift (cm-1)	intensity
137.279	0
140.172	2.04032
143.064	0.653404
145.957	2.48441
148.85	0.92778
151.742	3.08259
154.635	12.0981
157.528	11.233
160.421	17.6786
163.313	27.2069
166.206	36.9865
169.099	57.6381
171.991	86.2918
174.884	135.056
177.777	197.737
180.669	260.923
183.562	334.795
186.455	441.288
189.347	586.125
192.24	773.245
195.133	826.236
198.025	567.18
200.918	282.511
203.811	146.563
206.704	77.1782
209.596	46.5761
212.489	23.5901
215.382	11.6477
218.274	6.76042
221.167	0.926529
224.06	3.65026
226.952	2.25203
229.845	3.07089
232.738	2.07384
235.631	1.09632
238.523	0.115974
241.416	4.4732
244.309	7.83708
247.201	10.8779
250.094	21.1998
252.987	27.3455
255.88	36.1085
258.772	50.0251
261.665	63.1444
264.558	89.029
267.45	115.254
270.343	149.993
273.236	201.307
276.128	274.473
279.021	386.226
281.914	539.604
284.807	758.663
287.699	1029.14
290.592	1344.21
293.485	1698.01
296.377	2112.12
299.27	2453.85
302.163	2598.14
305.055	2284.38
307.948	1613.87
310.841	1030.3
313.733	667.002
316.626	430.236
319.519	289.447
322.412	189.834
325.304	130.11
328.197	91.2279
331.09	65.0235
333.982	47.5813
336.875	34.3661
339.768	25.1545
342.661	19.0214
345.553	16.2903
348.446	11.5643
351.339	11.2837
354.231	8.95621
357.124	7.13174
360.017	4.64141
362.909	3.07161
365.802	3.7255
368.695	1.44764
371.587	1.16166
374.48	0.43
377.373	2.37933
380.266	0.546455
383.158	1.59862
386.051	1.37626
388.944	1.26537
391.836	1.32328
394.729	0.509251
397.622	0.537434
400.514	1.49947
403.407	2.34006
406.3	1.83777
409.193	0.814949
412.085	2.66425
414.978	5.67319
417.871	5.1284
420.763	5.51526
423.656	5.73498
426.549	7.9306
429.442	9.24384
432.334	7.25153
435.227	8.9518
438.12	9.15699
441.012	7.35775
443.905	8.13927
446.798	6.35644
449.69	7.50608
452.583	9.76424
455.476	7.2303
458.368	5.1742
461.261	4.29099
464.154	5.70966
467.047	5.29171
469.939	5.24602
472.832	5.78696
475.725	4.25198
478.617	6.33437
481.51	5.5726
484.403	2.7289
487.296	4.31586
490.188	4.27358
493.081	4.09535
495.974	2.33821
498.866	3.56487
501.759	2.22587
504.652	2.55648
507.544	2.00075
510.437	1.24998
513.33	1.64077
516.222	0.14492
519.115	2.09135
522.008	0.810837
524.901	3.15621
527.793	1.61336
530.686	0.321091
533.579	2.76354
536.471	1.77785
539.364	1.74965
542.257	0.173504
545.149	3.88211
548.042	1.63171
550.935	0.2173
553.828	1.02129
556.72	2.22715
559.613	1.47574
562.506	3.3474
565.398	2.644
568.291	2.47356
571.184	1.40388
574.077	1.70793
576.969	2.5624
579.862	2.72837
582.755	1.74725
585.647	2.29409
588.54	2.64532
591.433	1.67831
594.325	2.79064
597.218	1.69562
600.111	1.97479
603.003	1.26386
605.896	0.53384
608.789	1.60939
611.682	0.52412
614.574	1.59482
617.467	1.36889
620.36	1.39242
623.252	0.187222
626.145	0.774727
629.038	0.828411
631.93	0.377262
634.823	0.295792
637.716	0.552937
640.609	0.447056
643.501	0.243748
646.394	1.84211
649.287	0.333515
652.179	0.156097
655.072	2.11194
657.965	0.677044
660.857	0.585293
663.75	1.07751
666.643	0.993755
669.535	0.839355
672.428	0.921375
675.321	0.887932
678.214	2.23041
681.106	1.6643
683.999	2.05519
686.892	3.088
689.784	2.19241
692.677	1.4693
695.57	2.58288
698.462	5.18438
701.355	5.75995
704.248	7.54824
707.141	11.2498
710.033	17.8167
712.926	26.7704
715.819	47.0406
718.711	67.5622
721.604	94.2604
724.497	146.475
727.389	232.279
730.282	305.361
733.175	158.53
736.068	59.8689
738.96	36.4081
741.853	26.797
744.746	20.4215
747.638	12.4192
750.531	7.17324
753.424	3.90044
756.317	1.77336
759.209	1.11576
762.102	0.825039
764.995	1.20709
767.887	0.203056
770.78	0.999352
773.673	0.469604
776.565	1.44304
779.458	0.745743
782.351	0.090385
785.244	0.134838
788.136	0.061954
791.029	0.412483
793.922	0.380745
796.814	0.326401
799.707	0.309528
802.6	0.254852
805.492	0.535976
808.385	0.776592
811.278	0.031086
814.17	1.64502
817.063	0.918777
819.956	1.66982
822.849	2.34093
825.741	2.3051
828.634	3.07104
831.527	2.69875
834.419	3.92634
837.312	4.67651
840.205	2.64761
843.097	3.75021
845.99	3.70217
848.883	3.50225
851.776	3.02513
854.668	3.75888
857.561	7.27347
860.454	9.17263
863.346	8.09197
866.239	7.62067
869.132	3.74544
872.024	2.919
874.917	2.64485
877.81	2.30368
880.703	1.72093
883.595	1.90926
886.488	2.67179
889.381	4.73402
892.273	3.84729
895.166	5.83139
898.059	3.72065
900.952	6.15132
903.844	3.77596
906.737	3.71711
909.63	3.53388
912.522	3.21448
915.415	3.40075
918.308	4.08997
921.2	3.25412
924.093	2.77163
926.986	2.74622
929.879	3.87787
932.771	3.72196
935.664	4.41386
938.557	2.54544
941.449	4.33107
944.342	4.21772
947.235	1.94555
950.127	2.42155
953.02	1.76727
955.913	3.67255
958.806	2.20037
961.698	2.63092
964.591	2.80358
967.484	0.333611
970.376	1.69264
973.269	1.65228
976.162	2.11293
979.054	0.515606
981.947	0.004486
984.84	1.62849
987.732	0.292507
990.625	1.78135
993.518	1.32258
996.41	1.9693
999.303	1.55177
1002.2	1.46163
1005.09	1.35901
1007.98	0.456177
1010.87	2.30959
1013.77	2.732
1016.66	6.0172
1019.55	8.76456
1022.45	12.7827
1025.34	16.7622
1028.23	21.4829
1031.12	29.0673
1034.02	37.1612
1036.91	42.7423
1039.8	51.118
1042.69	60.8645
1045.59	69.2267
1048.48	79.311
1051.37	84.9084
1054.27	94.6314
1057.16	108.669
1060.05	127.481
1062.94	160.732
1065.84	206.513
1068.73	282.998
1071.62	386.791
1074.51	568.408
1077.41	911.137
1080.3	1484.13
1083.19	2295.05
1086.08	3367.71
1088.98	4854.49
1091.87	6155.38
1094.76	5178.14
1097.65	2783.55
1100.55	1354.33
1103.44	716.332
1106.33	406.064
1109.23	245.127
1112.12	153.087
1115.01	99.7718
1117.9	66.8542
1120.8	46.241
1123.69	30.2145
1126.58	21.7086
1129.47	12.9376
1132.37	8.24572
1135.26	4.18638
1138.15	2.98906
1141.05	0.001083
1143.94	0.443012
1146.83	1.89617
1149.72	2.31745
1152.62	2.46777
1155.51	2.32249
1158.4	1.42914
1161.29	0.566525
1164.19	0.148033
1167.08	0.148045
1169.97	1.65794
1172.87	2.19424
1175.76	2.2738
1178.65	2.54767
1181.54	6.14884
1184.44	5.74051
1187.33	5.78296
1190.22	5.81255
1193.11	4.65897
1196.01	4.86792
1198.9	6.28868
1201.79	5.0142
1204.68	6.3541
1207.58	5.07539
1210.47	6.28189
1213.36	2.43912
1216.26	3.18424
1219.15	3.36818
1222.04	2.8358
1224.93	2.80167
1227.83	2.91225
1230.72	2.02169
1233.61	1.15619
1236.51	1.13039
1239.4	1.24645
1242.29	1.7145
1245.18	2.83394
1248.08	0.454857
1250.97	1.24876
1253.86	2.00519
1256.75	0.635334
1259.65	2.06124
1262.54	1.65817
1265.43	1.78609
1268.32	1.89515
1271.22	1.10987
1274.11	0.130489
1277	3.61103
1279.89	0.36805
1282.79	0.790188
