Measurement: Raman, 785 nm, unoriented, Raman Data Processed
Mineral: Smithsonite
Rruff sample: R040051
Ideal chemistry: ZnCO_3_
Locality: Berg Aukas mine, Grootfontein, Namibia
Source: University of Arizona Mineral Museum
Description: Yellowish brown botryoidal groups
Measured chemistry: (Zn_0.94_Ca_0.02_Mg_0.02_)C_1.01_O_3_
Raman shift (cm-1)	intensity
113.332	0
116.225	33.6535
119.118	20.2336
122.01	7.28307
124.903	39.4081
127.796	97.2954
130.688	252.905
133.581	264.2
136.474	100.695
139.367	68.3013
142.259	89.6882
145.152	196.778
148.045	313.898
150.937	247.916
153.83	196.889
156.723	173.868
159.615	166.575
162.508	192.559
165.401	198.483
168.293	234.635
171.186	253.437
174.079	283.75
176.971	303.817
179.864	376.656
182.757	514.074
185.65	802.072
188.542	1247.37
191.435	1915.55
194.328	2671.16
197.22	2485.3
200.113	1332.05
203.006	673.914
205.899	363.126
208.791	221.508
211.684	146.484
214.577	110.575
217.469	68.5038
220.362	42.9706
223.255	36.3835
226.147	34.9475
229.04	16.9761
231.933	12.6031
234.826	10.8547
237.718	8.22491
240.611	2.14221
243.504	2.99945
246.396	1.69986
249.289	5.71841
252.182	7.16406
255.074	10.9986
257.967	13.7996
260.86	0.941223
263.752	15.1869
266.645	28.0835
269.538	32.9758
272.431	43.2804
275.323	71.7677
278.216	99.1761
281.109	140.098
284.001	190.369
286.894	300.289
289.787	445.798
292.68	680.007
295.572	1047.72
298.465	1517.01
301.358	1944.09
304.25	2127.42
307.143	1901.48
310.036	1268.82
312.928	798.711
315.821	497.981
318.714	302.317
321.606	190.643
324.499	137.322
327.392	105.247
330.285	63.0721
333.177	44.6885
336.07	30.1953
338.963	15.4521
341.855	20.3404
344.748	22.8299
347.641	14.9348
350.534	18.7021
353.426	13.6984
356.319	2.03897
359.212	5.56235
362.104	1.5128
364.997	9.96716
367.89	3.47449
370.782	8.87166
373.675	4.42194
376.568	0.821579
379.461	4.75897
382.353	10.5254
385.246	13.9892
388.139	3.7733
391.031	2.33981
393.924	2.35605
396.817	2.53442
399.709	10.903
402.602	2.59322
405.495	13.7105
408.387	9.02188
411.28	13.1865
414.173	16.2944
417.066	14.5646
419.958	10.5664
422.851	15.2789
425.744	11.5281
428.636	7.0842
431.529	3.45429
434.422	14.2879
437.315	17.1531
440.207	20.4437
443.1	15.0887
445.993	4.99026
448.885	16.431
451.778	14.4482
454.671	13.7461
457.563	2.85739
460.456	7.00142
463.349	16.0848
466.241	5.09068
469.134	17.939
472.027	15.1343
474.92	10.2206
477.812	11.6851
480.705	1.73218
483.598	17.4035
486.49	17.2366
489.383	6.7267
492.276	11.0411
495.168	7.29866
498.061	15.3338
500.954	3.657
503.847	6.96637
506.739	9.69885
509.632	6.55728
512.525	7.42159
515.417	0.328491
518.31	8.28088
521.203	13.1612
524.096	9.96898
526.988	6.3027
529.881	7.58266
532.774	10.1984
535.666	7.45081
538.559	24.539
541.452	3.42055
544.344	7.55264
547.237	6.4245
550.13	16.3601
553.023	4.77176
555.915	10.5567
558.808	11.9881
561.701	13.0056
564.593	5.07802
567.486	2.89301
570.379	5.77516
573.271	9.04257
576.164	17.5493
579.057	8.77466
581.949	9.94667
584.842	3.07703
587.735	5.79716
590.628	13.6547
593.52	9.69328
596.413	11.681
599.306	9.49655
602.198	4.32489
605.091	11.4984
607.984	6.21442
610.876	18.6613
613.769	16.9302
616.662	17.0541
619.555	21.6127
622.447	18.6255
625.34	1.85678
628.233	14.4847
631.125	20.8445
634.018	7.63724
636.911	9.60657
639.803	6.35797
642.696	9.41649
645.589	7.72601
648.482	3.37547
651.374	0.365875
654.267	3.01181
657.16	4.42396
660.052	6.34467
662.945	8.18922
665.838	14.1836
668.731	8.4702
671.623	1.84682
674.516	4.19389
677.409	1.06476
680.301	0.12236
683.194	9.62933
686.087	5.23488
688.979	9.33711
691.872	10.4427
694.765	5.64508
697.658	18.5782
700.55	13.4179
703.443	14.5939
706.336	27.9688
709.228	40.1121
712.121	45.898
715.014	64.1752
717.906	102.878
720.799	187.05
723.692	347.284
726.585	685.651
729.477	1226.41
732.37	922.829
735.263	299.257
738.155	140.76
741.048	83.1013
743.941	59.8062
746.833	29.7797
749.726	32.1108
752.619	16.1832
755.511	12.0107
758.404	15.8446
761.297	7.11174
764.19	4.80753
767.082	4.72615
769.975	0.171722
772.868	2.76588
775.76	4.74737
778.653	1.65849
781.546	3.9427
784.438	9.66808
787.331	8.692
790.224	2.04726
793.117	9.98058
796.009	7.3651
798.902	3.37776
801.795	2.60101
804.687	12.4641
807.58	17.6005
810.473	3.51099
813.365	2.5658
816.258	10.4165
819.151	4.57384
822.044	5.00751
824.936	2.38673
827.829	6.69148
830.722	4.23242
833.614	14.7935
836.507	9.94273
839.4	20.4425
842.293	20.1267
845.185	2.69795
848.078	8.85901
850.971	13.5525
853.863	12.5468
856.756	4.97197
859.649	8.73488
862.541	14.1054
865.434	10.5419
868.327	5.91554
871.22	5.09084
874.112	2.75244
877.005	6.1943
879.898	2.17731
882.79	6.04572
885.683	1.74715
888.576	2.42546
891.468	16.423
894.361	8.87707
897.254	8.87482
900.146	5.95982
903.039	4.59647
905.932	5.40927
908.825	1.92485
911.717	7.52547
914.61	11.502
917.503	16.545
920.395	3.94353
923.288	13.8054
926.181	1.04927
929.073	4.69435
931.966	12.9216
934.859	14.5072
937.752	8.9491
940.644	14.81
943.537	10.6433
946.43	6.30562
949.322	14.4232
952.215	10.4598
955.108	24.1328
958	13.9695
960.893	10.9541
963.786	19.0729
966.679	18.0977
969.571	6.00734
972.464	17.4946
975.357	5.05174
978.249	8.39934
981.142	1.67468
984.035	8.49422
986.928	8.02719
989.82	3.38019
992.713	11.1291
995.606	1.88591
998.498	6.87483
1001.39	0.924301
1004.28	2.04428
1007.18	4.5053
1010.07	1.28845
1012.96	1.12537
1015.85	4.25887
1018.75	8.0018
1021.64	15.7834
1024.53	21.9924
1027.42	27.9627
1030.32	42.6532
1033.21	58.2031
1036.1	66.8824
1039	87.7021
1041.89	108.827
1044.78	131.892
1047.67	146.856
1050.57	150.594
1053.46	187.616
1056.35	206.844
1059.24	235.108
1062.14	256.025
1065.03	336.481
1067.92	444.18
1070.82	548.449
1073.71	747.706
1076.6	1108.08
1079.49	1708.47
1082.39	2866.21
1085.28	5032.38
1088.17	8878.65
1091.07	13534.2
1093.96	12807.8
1096.85	6829.18
1099.74	3165.06
1102.63	1596.84
1105.53	916.253
1108.42	564.425
1111.31	365.709
1114.21	227.777
1117.1	157.737
1119.99	93.5999
1122.88	70.6142
1125.78	43.5232
1128.67	22.9291
1131.56	27.234
1134.45	10.5885
1137.35	10.1599
1140.24	2.64053
1143.13	2.67097
1146.03	3.72113
1148.92	2.93306
1151.81	5.08258
1154.7	9.18358
1157.6	4.32643
1160.49	4.71083
1163.38	3.60931
1166.28	6.16059
1169.17	1.43082
1172.06	0.788712
1174.95	3.68535
1177.85	6.48748
1180.74	11.5142
1183.63	13.1166
1186.52	11.8686
1189.42	28.2121
1192.31	12.3166
1195.2	15.0852
1198.1	13.2058
1200.99	9.13593
1203.88	2.4818
1206.77	13.9703
1209.66	10.9552
1212.56	14.362
1215.45	14.3266
1218.34	11.67
1221.24	11.8011
1224.13	6.77101
1227.02	3.54276
1229.91	11.4902
1232.81	5.87298
1235.7	4.43492
1238.59	0.512428
1241.48	11.7469
1244.38	9.54711
1247.27	8.29946
1250.16	2.91234
1253.06	2.49848
1255.95	6.86517
1258.84	5.42648
1261.73	7.24109
