Measurement: Raman, 780 nm, unoriented, Raman Data Processed
Mineral: Sodalite
Rruff sample: R060416
Ideal chemistry: Na_4_Si_3_Al_3_O_12_Cl
Locality: Koksha Valley, Badakshan Province, Afghanistan
Source: Herb Obodda
Description: Colorless fragment
Measured chemistry: Na_8.00_Al_6.00_Si_6.00_O_24_Cl_2.00_
Raman shift (cm-1)	intensity
90.6055	0
93.9803	24.5858
97.3551	32.7149
100.73	3.11408
104.105	5.31926
107.48	39.6824
110.854	78.9441
114.229	14.4551
117.604	5.27855
120.979	3.64485
124.354	0.286636
127.728	7.172
131.103	32.7628
134.478	0.579575
137.853	1.74194
141.228	1.3553
144.602	7.9964
147.977	14.55
151.352	12.3441
154.727	19.8822
158.102	34.5923
161.477	84.3099
164.851	191.002
168.226	159.506
171.601	82.7112
174.976	53.1161
178.351	43.5055
181.726	27.1776
185.1	14.2889
188.475	8.8414
191.85	7.14185
195.225	2.90085
198.6	0.531494
201.974	1.33109
205.349	0.094955
208.724	1.39803
212.099	2.55225
215.474	1.32138
218.848	2.43709
222.223	10.5197
225.598	15.964
228.973	20.7139
232.348	30.3692
235.722	33.6492
239.097	29.9451
242.472	37.7414
245.847	50.1569
249.222	69.9713
252.597	93.8978
255.971	135.457
259.346	193.413
262.721	236.265
266.096	223.091
269.471	168.229
272.846	114.936
276.22	91.4087
279.595	74.9202
282.97	74.8201
286.345	87.5021
289.719	133.593
293.094	178.008
296.469	128.667
299.844	57.2142
303.219	26.7729
306.594	14.7486
309.968	11.8241
313.343	7.31348
316.718	3.50461
320.093	2.44099
323.468	2.9547
326.842	1.03242
330.217	2.92532
333.592	2.09973
336.967	0.015152
340.342	4.10214
343.717	2.35994
347.091	2.72739
350.466	2.48917
353.841	1.39148
357.216	2.33054
360.591	3.12195
363.965	1.63333
367.34	3.74866
370.715	8.32269
374.09	4.6539
377.465	1.04605
380.839	0.114777
384.214	1.20981
387.589	1.88342
390.964	1.68594
394.339	1.6246
397.714	0.882263
401.088	3.07413
404.463	5.02875
407.838	21.2368
411.213	18.9146
414.588	7.17514
417.962	8.01755
421.337	9.77774
424.712	14.1303
428.087	19.591
431.462	30.5022
434.837	39.3702
438.211	42.1067
441.586	58.8289
444.961	96.4105
448.336	159.599
451.711	246.135
455.085	415.031
458.46	771.433
461.835	1329.08
465.21	1401.4
468.585	791.824
471.959	388.969
475.334	216.491
478.709	130.657
482.084	89.1028
485.459	56.0946
488.834	39.7004
492.208	36.0638
495.583	36.1603
498.958	30.8429
502.333	15.7993
505.708	8.98257
509.082	6.62677
512.457	6.57196
515.832	6.53564
519.207	3.11377
522.582	5.83221
525.957	2.79095
529.331	4.08502
532.706	3.20367
536.081	3.46741
539.456	3.19125
542.831	0.672485
546.205	0.642426
549.58	0.709625
552.955	3.49484
556.33	1.38046
559.705	2.44052
563.08	0.70459
566.454	2.25565
569.829	1.52557
573.204	0.047272
576.579	5.40152
579.954	1.47769
583.328	2.19379
586.703	0.610352
590.078	5.26083
593.453	2.81006
596.828	7.11585
600.202	5.9855
603.577	6.54883
606.952	8.53693
610.327	9.66345
613.702	6.87625
617.077	6.76318
620.451	3.70691
623.826	8.67212
627.201	7.11993
630.576	3.11526
633.951	1.94553
637.325	5.94702
640.7	5.34778
644.075	4.9176
647.45	0.888428
650.825	6.98669
654.199	4.25385
657.574	1.98267
660.949	8.28833
664.324	3.26154
667.699	5.46777
671.073	4.74567
674.448	0.18457
677.823	2.74023
681.198	0.637146
684.573	1.86652
687.948	2.24152
691.322	1.58655
694.697	2.8432
698.072	0.803284
701.447	2.61658
704.822	4.11395
708.197	1.40186
711.571	2.93341
714.946	5.25989
718.321	8.26727
721.696	6.29663
725.071	8.09766
728.445	15.1882
731.82	29.4637
735.195	30.7914
738.57	13.8088
741.945	8.34699
745.319	4.8346
748.694	1.8786
752.069	1.16522
755.444	0.603394
758.819	0.16925
762.193	5.80762
765.568	1.3371
768.943	0.391602
772.318	2.62085
775.693	4.41815
779.068	2.35724
782.442	3.00433
785.817	2.74811
789.192	1.26453
792.567	1.40515
795.942	5.17938
799.317	5.48853
802.691	5.45459
806.066	2.08252
809.441	2.73242
812.816	2.24402
816.191	3.99365
819.565	6.52551
822.94	5.77362
826.315	4.22723
829.69	1.22357
833.065	3.48431
836.439	2.05078
839.814	4.83392
843.189	5.08301
846.564	6.90619
849.939	10.759
853.313	5.32336
856.688	5.9765
860.063	11.7877
863.438	6.24957
866.813	7.47992
870.188	10.1038
873.562	10.7638
876.937	8.70209
880.312	8.83856
883.687	8.3689
887.062	11.1962
890.437	10.5903
893.811	8.82593
897.186	0.717468
900.561	4.20782
903.936	5.98261
907.311	7.67188
910.685	5.17786
914.06	1.16882
917.435	1.19153
920.81	0.069031
924.185	2.85626
927.559	6.10693
930.934	1.72998
934.309	3.66382
937.684	7.13379
941.059	10.377
944.433	6.15356
947.808	10.8736
951.183	14.0648
954.558	18.8137
957.933	28.7493
961.308	52.0884
964.682	78.2555
968.057	91.9222
971.432	90.5081
974.807	78.5444
978.182	85.7809
981.557	155.136
984.931	348.583
988.306	277.75
991.681	90.9485
995.056	40.9387
998.431	19.3345
1001.8	14.5189
1005.18	7.98987
1008.55	10.3085
1011.93	9.95361
1015.3	4.56299
1018.68	0.031494
1022.05	0.886841
1025.43	3.55652
1028.8	2.06787
1032.18	4.27454
1035.55	2.53601
1038.93	9.02502
1042.3	6.20544
1045.68	6.94373
1049.05	16.5587
1052.43	17.5861
1055.8	25.55
1059.18	24.102
1062.55	22.1578
1065.93	19.3113
1069.3	13.3671
1072.68	13.7897
1076.05	11.1948
1079.43	3.78186
1082.8	4.57873
1086.18	2.85632
1089.55	10.646
1092.92	9.81189
1096.3	5.89087
1099.67	2.84558
1103.05	7.05542
1106.42	2.88977
1109.8	8.24487
1113.17	4.69946
1116.55	4.62891
1119.92	5.10388
1123.3	9.1471
1126.67	1.31445
1130.05	2.78064
1133.42	4.40271
1136.8	2.19287
1140.17	9.33301
1143.55	6.12756
1146.92	6.12598
1150.3	7.23157
1153.67	4.99011
1157.05	3.04627
1160.42	6.05359
1163.8	9.64343
1167.17	7.74316
1170.55	7.40051
1173.92	10.6903
1177.3	13.8758
1180.67	12.0171
1184.05	5.13623
1187.42	8.40137
1190.8	9.50269
1194.17	17.2183
1197.55	14.519
1200.92	6.9845
1204.29	8.33557
1207.67	7.95361
1211.04	0.21582
1214.42	5.1189
1217.79	1.52649
1221.17	0.868286
1224.54	7.91235
1227.92	1.82507
1231.29	1.90295
1234.67	7.4729
1238.04	5.38013
1241.42	2.61023
1244.79	6.40588
1248.17	12.6619
1251.54	5.0896
1254.92	3.64002
1258.29	8.78723
1261.67	9.10144
1265.04	4.99793
1268.42	8.81628
1271.79	8.15649
1275.16	8.89929
1278.54	7.19019
1281.91	3.47351
