Measurement: Raman, 780 nm, unoriented, Raman Data Processed
Mineral: Sodalite
Rruff sample: R060405
Ideal chemistry: Na_4_Si_3_Al_3_O_12_Cl
Locality: Cerro Sapo, Cochabamba Department, Bolivia
Source: Marcus Origlieri
Description: Blue massive associated with brown burbankite R050646
Measured chemistry: Na_8.00_Al_6.00_Si_6.00_O_24_Cl_2_
Raman shift (cm-1)	intensity
137.371	0
140.263	0.169415
143.156	3.0954
146.049	10.6742
148.941	13.3696
151.834	13.6395
154.727	20.7035
157.62	33.566
160.512	54.9787
163.405	92.3277
166.298	102.147
169.19	67.7262
172.083	41.4256
174.976	29.4498
177.869	22.604
180.761	16.3656
183.654	6.95756
186.547	4.01172
189.439	0.236805
192.332	0.626156
195.225	0.818367
198.117	1.36031
201.01	1.75793
203.903	0.388069
206.796	1.83718
209.688	1.02864
212.581	3.03293
215.474	4.24654
218.366	5.99955
221.259	7.69946
224.152	11.2801
227.044	15.8517
229.937	21.4376
232.83	30.064
235.722	30.5512
238.615	34.8652
241.508	39.8823
244.401	48.3243
247.293	62.123
250.186	75.8002
253.079	93.0001
255.971	117.313
258.864	141.647
261.757	160.536
264.649	155.465
267.542	128.911
270.435	101.204
273.328	78.8334
276.22	67.0159
279.113	58.5521
282.006	54.418
284.898	57.0419
287.791	67.8324
290.684	88.4675
293.576	104.257
296.469	85.6208
299.362	48.0013
302.255	25.6669
305.147	14.1525
308.04	11.2929
310.933	5.44069
313.825	4.76694
316.718	2.01099
319.611	0.516935
322.503	1.13933
325.396	0.321571
328.289	0.688213
331.182	0.150843
334.074	1.01765
336.967	1.44891
339.86	0.537874
342.752	0.818491
345.645	0.556173
348.538	0.385773
351.43	0.32291
354.323	0.228931
357.216	0.293903
360.108	0.011314
363.001	0.594719
365.894	1.37235
368.787	2.65623
371.679	3.46792
374.572	1.29067
377.465	0.060366
380.357	1.106
383.25	1.24076
386.143	1.47679
389.036	0.720835
391.928	0.499027
394.821	1.13153
397.714	0.989044
400.606	2.63547
403.499	4.93906
406.392	8.78838
409.284	13.5778
412.177	10.1657
415.07	6.5597
417.962	6.39034
420.855	6.5615
423.748	10.1048
426.641	13.2874
429.533	19.0286
432.426	27.7466
435.319	33.8668
438.211	46.6373
441.104	69.075
443.997	111.039
446.889	170.142
449.782	224.782
452.675	295.731
455.567	407.85
458.46	599.58
461.353	836.823
464.246	869.589
467.138	604.022
470.031	342.071
472.924	206.462
475.816	129.892
478.709	90.2707
481.602	66.8054
484.495	53.4302
487.387	45.2315
490.28	35.8301
493.173	27.2171
496.065	24.404
498.958	19.5034
501.851	12.3495
504.743	8.52638
507.636	5.59287
510.529	5.86571
513.422	4.41416
516.314	4.11358
519.207	3.61902
522.1	2.12522
524.992	3.10239
527.885	2.44943
530.778	1.213
533.67	2.61733
536.563	1.2456
539.456	1.25597
542.348	1.14445
545.241	1.02878
548.134	0.490992
551.027	0.092196
553.919	1.0035
556.812	0.76232
559.705	0.064627
562.597	0.123407
565.49	0.137159
568.383	0.122967
571.275	0.474821
574.168	0.174711
577.061	0.847824
579.954	0.320808
582.846	1.13359
585.739	1.41448
588.632	2.00551
591.524	2.52993
594.417	3.54299
597.31	2.95752
600.202	4.66756
603.095	3.84472
605.988	6.14549
608.881	4.27578
611.773	4.55593
614.666	4.81968
617.559	5.17803
620.451	5.48862
623.344	4.76326
626.237	2.46292
629.129	3.58784
632.022	1.59014
634.915	1.41663
637.808	2.11236
640.7	2.51918
643.593	1.56602
646.486	1.17581
649.378	0.926394
652.271	0.867579
655.164	1.68555
658.056	0.787102
660.949	0.207592
663.842	1.99606
666.735	0.951569
669.627	1.73609
672.52	1.11625
675.413	0.897875
678.305	1.02718
681.198	0.356525
684.091	1.45291
686.983	0.74317
689.876	0.67312
692.769	0.764605
695.662	0.872446
698.554	0.066072
701.447	1.04521
704.34	1.75736
707.232	0.311535
710.125	2.43166
713.018	2.14656
715.91	3.39618
718.803	2.85337
721.696	2.82234
724.588	5.3604
727.481	6.12592
730.374	9.23667
733.266	11.9998
736.159	10.3653
739.052	6.99658
741.945	5.15186
744.837	4.17756
747.73	2.79176
750.623	2.44617
753.515	1.54535
756.408	1.13879
759.301	0.33556
762.193	0.106707
765.086	0.533546
767.979	0.921942
770.872	1.53496
773.764	0.085743
776.657	0.059425
779.55	0.688124
782.442	0.778553
785.335	1.01087
788.228	1.23705
791.12	0.622936
794.013	1.49516
796.906	0.734545
799.799	1.00231
802.691	0.683065
805.584	1.13968
808.477	1.83131
811.369	1.18409
814.262	1.23987
817.155	1.57278
820.048	1.85814
822.94	0.943142
825.833	1.19722
828.726	2.02803
831.618	1.25965
834.511	1.83621
837.404	1.85539
840.296	1.34815
843.189	2.5679
846.082	1.70081
848.975	3.11169
851.867	3.60998
854.76	3.14769
857.653	2.72345
860.545	2.91378
863.438	5.00081
866.331	2.39725
869.223	3.29988
872.116	3.72319
875.009	2.57767
877.901	2.85018
880.794	2.91315
883.687	1.70442
886.58	2.4393
889.472	1.13374
892.365	1.30162
895.258	0.830605
898.15	0.904816
901.043	0.120935
903.936	0.280973
906.828	0.877573
909.721	0.363953
912.614	0.448111
915.506	0.022926
918.399	0.974895
921.292	0.587511
924.185	0.054424
927.077	0.562128
929.97	1.17523
932.863	0.72327
935.755	0.048298
938.648	1.78708
941.541	1.48014
944.433	2.84389
947.326	3.31103
950.219	4.8185
953.112	7.61427
956.004	12.2401
958.897	17.4046
961.79	25.6555
964.682	35.1558
967.575	39.9456
970.468	47.9799
973.361	55.5106
976.253	62.7016
979.146	81.0984
982.039	126.348
984.931	196.058
987.824	178.956
990.717	92.411
993.609	42.4591
996.502	24.0256
999.395	17.3437
1002.29	11.364
1005.18	9.54111
1008.07	8.36677
1010.97	8.41551
1013.86	5.19984
1016.75	2.87508
1019.64	0.200802
1022.54	0.520334
1025.43	0.372816
1028.32	0.461557
1031.21	1.69981
1034.11	4.45388
1037	6.31597
1039.89	4.07875
1042.79	3.80523
1045.68	7.00781
1048.57	10.7174
1051.46	15.2175
1054.36	22.7279
1057.25	27.6349
1060.14	30.1392
1063.03	31.9328
1065.93	30.918
1068.82	23.5717
1071.71	17.0466
1074.61	11.2383
1077.5	7.08228
1080.39	4.64665
1083.28	2.19894
1086.18	2.95699
1089.07	2.13035
1091.96	1.00395
1094.85	0.831211
1097.75	0.321066
1100.64	0.853077
1103.53	0.024559
1106.42	0.123772
1109.32	0.05349
1112.21	0.539038
1115.1	0.032902
1117.99	0.132151
1120.89	0.269655
1123.78	0.439877
1126.67	1.2622
1129.57	1.19118
1132.46	1.45807
1135.35	1.30197
1138.24	0.733236
1141.14	0.577465
1144.03	0.311182
1146.92	1.52316
1149.82	0.668428
1152.71	1.84595
1155.6	2.25961
1158.49	1.66207
1161.39	1.43165
1164.28	1.1984
1167.17	2.52316
1170.06	1.26174
1172.96	1.26646
1175.85	0.962992
1178.74	1.88587
1181.63	2.24045
1184.53	1.28975
1187.42	2.40585
1190.31	2.40151
1193.21	2.16388
1196.1	0.42182
1198.99	0.27137
1201.88	0.450981
1204.78	0.197374
1207.67	0.070372
1210.56	0.671499
1213.45	0.134514
1216.35	0.39447
1219.24	0.325214
1222.13	0.68174
1225.03	1.25899
1227.92	1.34039
1230.81	0.100498
1233.7	1.60937
1236.6	1.96053
1239.49	1.0001
1242.38	1.29768
1245.27	0.738523
1248.17	1.01864
1251.06	0.662403
1253.95	1.67951
1256.85	2.51561
1259.74	2.81761
1262.63	2.25253
1265.52	2.89537
1268.42	1.95922
1271.31	1.78794
1274.2	1.12911
1277.09	1.4988
1279.99	0.136385
1282.88	0.693653
