Measurement: Raman, 514 nm, unoriented, Raman Data Processed
Mineral: Sodalite
Rruff sample: R040141
Ideal chemistry: Na_4_Si_3_Al_3_O_12_Cl
Locality: Princess Sodalite mine, Bancroft, Ontario, Canada
Source: University of Arizona Mineral Museum
Description: Blue grains in a coarsely crystalline rock
Measured chemistry: Na_7.86_Al_6.00_Si_6.03_O_24_Cl_2.02_
Raman shift (cm-1)	intensity
54.266	0
58.464	1.117
62.661	4.73
66.856	10.079
71.048	71.303
75.239	141.85
79.427	210.575
83.614	260.605
87.798	348.535
91.981	621.067
96.161	963.623
100.34	709.655
104.516	752.758
108.691	1332.84
112.864	1770.86
117.034	633.784
121.203	216.605
125.369	191.298
129.534	332.022
133.696	494.314
137.857	89.174
142.016	29.749
146.172	88.569
150.327	120.763
154.48	371.405
158.63	1180.55
162.779	3194.22
166.926	5553.43
171.07	3695.19
175.213	1963.5
179.354	1338.36
183.493	774.742
187.63	319.65
191.765	174.078
195.898	107.019
200.029	32.465
204.158	52.406
208.285	65.832
212.41	93.267
216.533	83.915
220.654	25.721
224.773	86.218
228.891	322.212
233.006	677.751
237.119	787.484
241.231	882.907
245.34	1223.94
249.448	1896.56
253.553	3144.77
257.657	5422.58
261.758	7732.96
265.858	8514.79
269.956	6648.04
274.052	4307.67
278.146	2950.69
282.237	2303.12
286.327	2358.96
290.416	3377.15
294.502	4459.67
298.586	2750.5
302.668	1195.52
306.749	531.861
310.827	320.539
314.903	186.537
318.978	138.849
323.051	126.478
327.121	107.934
331.19	62.618
335.257	65.11
339.322	79.871
343.385	70.897
347.446	59.182
351.505	137.72
355.563	94.504
359.618	124.531
363.672	173.793
367.723	272.205
371.773	369.922
375.821	314.491
379.866	236.053
383.91	238.832
387.952	266.128
391.992	315.089
396.031	338.332
400.067	377.847
404.101	492.619
408.134	748.093
412.165	905.744
416.193	724.509
420.22	815.649
424.245	913.332
428.268	1182.3
432.289	1510.28
436.309	1647.58
440.326	2068.64
444.342	2805.3
448.355	4444.53
452.367	7308.94
456.377	14488.7
460.385	31973.9
464.391	52450.4
468.395	39115.5
472.398	18871.6
476.398	9549.25
480.397	5742.16
484.394	3837.79
488.389	2851.44
492.382	2093.81
496.373	1794.25
500.362	1451.8
504.349	1102.47
508.335	929.281
512.319	807.214
516.3	776.259
520.28	713.409
524.259	656.662
528.235	511.037
532.209	466.483
536.182	462.79
540.152	331.624
544.121	276.311
548.088	209.02
552.053	149.737
556.017	114.454
559.978	72.164
563.938	43.861
567.895	20.53
571.851	37.92
575.805	52.608
579.758	42.377
583.708	5.964
587.657	12.8
591.603	24.341
595.548	1.814
599.491	15.844
603.432	11.71
607.372	42.245
611.309	30.118
615.245	9.045
619.179	3.547
623.111	10.939
627.041	38.407
630.97	41.278
634.896	24.516
638.821	44.698
642.744	47.109
646.665	92.175
650.584	69.184
654.502	139.186
658.418	159.373
662.331	162.583
666.244	217.984
670.154	228.801
674.062	238.362
677.969	296.72
681.874	290.269
685.777	291.81
689.678	257.575
693.577	261.732
697.475	266.821
701.371	274.72
705.265	316.378
709.157	310.877
713.047	349.965
716.936	334.884
720.823	368.632
724.708	406.756
728.591	552.322
732.472	928.308
736.352	1144.51
740.23	662.714
744.106	419.456
747.98	272.391
751.853	183.222
755.723	167.518
759.592	123.618
763.459	97.515
767.325	73.995
771.188	85.576
775.05	97.655
778.91	86.712
782.768	46.319
786.625	42.231
790.479	68.032
794.332	63.437
798.183	49.668
802.033	50.946
805.88	21.345
809.726	14.585
813.57	1.638
817.413	22.534
821.253	5.019
825.092	8.349
828.929	8.544
832.764	18.333
836.598	1.02
840.429	17.383
844.259	12.368
848.088	20.711
851.914	34.679
855.739	19.553
859.562	10.336
863.383	92.032
867.203	55.652
871.02	130.201
874.836	87.682
878.65	96.106
882.463	80.111
886.274	61.045
890.083	28.619
893.89	41.22
897.695	23.19
901.499	1.655
905.301	33.843
909.102	1.654
912.9	44.886
916.697	60.424
920.492	73.891
924.285	84.376
928.077	112.907
931.867	139.48
935.655	201.138
939.442	282.405
943.226	391.869
947.009	518.077
950.791	595.887
954.57	649.981
958.348	997.731
962.124	1811.56
965.899	3321.78
969.671	3613.82
973.442	3779.75
977.211	4778.55
980.979	4865.61
984.745	12502.6
988.509	17620
992.271	7152.11
996.032	2841.62
999.791	1619.52
1003.55	964.525
1007.3	706.553
1011.06	698.79
1014.81	554.286
1018.56	347.039
1022.31	224.872
1026.06	180.804
1029.8	172.818
1033.55	189.913
1037.29	280.064
1041.03	330.198
1044.77	442.378
1048.5	431.942
1052.24	697.969
1055.97	1219.05
1059.7	1943.27
1063.43	1968.68
1067.16	1581.28
1070.89	1097.83
1074.61	692.505
1078.34	479.161
1082.06	382.752
1085.78	297.41
1089.5	300.263
1093.21	243.115
1096.93	197.887
1100.64	168.543
1104.35	163.516
1108.06	167.847
1111.77	167.612
1115.48	138.634
1119.18	141.194
1122.89	317.328
1126.59	251.736
1130.29	115.216
1133.99	141.893
1137.68	159.497
1141.38	122.569
1145.07	149.604
1148.76	162.531
1152.45	128.011
1156.14	153.213
1159.83	153.303
1163.51	184.115
1167.19	146.762
1170.88	143.03
1174.56	118.199
1178.23	144.625
1181.91	135.827
1185.59	113.972
1189.26	81.083
1192.93	87.816
1196.6	103.479
1200.27	111.093
1203.94	65.726
1207.6	65.356
1211.27	21.025
1214.93	61.455
1218.59	23.759
1222.25	82.042
1225.9	62.687
1229.56	82.159
1233.21	66.049
1236.86	48.924
1240.51	11.627
1244.16	55.235
1247.81	53.772
1251.45	56.232
1255.1	48.574
1258.74	36.66
1262.38	59.548
1266.02	49.222
1269.66	38.605
1273.29	59.65
1276.93	38.618
1280.56	19.236
1284.19	24.895
1287.82	9.849
1291.45	0.62
1295.07	20.803
1298.7	7.458
1302.32	26.342
1305.94	16.453
1309.56	6.181
1313.18	11.435
1316.8	19.277
1320.41	7.359
1324.02	30.332
1327.63	42.829
1331.24	86.158
1334.85	174.336
1338.46	372.368
1342.06	225.256
1345.67	79.003
1349.27	56.614
1352.87	96.099
1356.47	87.321
1360.07	100.588
1363.66	76.549
1367.25	79.66
1370.85	82.729
1374.44	113.833
1378.03	80.692
1381.61	102.853
1385.2	119.386
1388.78	122.735
1392.37	162.614
1395.95	130.382
1399.53	189.717
1403.1	139.929
1406.68	129.767
1410.26	145.267
1413.83	133.239
1417.4	136.425
1420.97	131.408
1424.54	103.46
1428.1	102.37
1431.67	68.971
1435.23	96.765
1438.8	106.11
1442.36	105.146
1445.91	147.757
1449.47	142.281
1453.03	153.131
1456.58	138.344
1460.13	91.831
1463.68	98.602
1467.23	141.925
1470.78	127.656
1474.33	94.106
1477.87	67.459
1481.42	61.738
1484.96	32.076
1488.5	33.678
1492.04	60.535
1495.57	49.064
1499.11	32.701
1502.64	33.388
1506.17	77.369
1509.71	92.238
1513.23	56.147
1516.76	9.564
