Measurement: Raman, 785 nm, unoriented, Raman Data Processed
Mineral: Sodalite
Rruff sample: R040141
Ideal chemistry: Na_4_Si_3_Al_3_O_12_Cl
Locality: Princess Sodalite mine, Bancroft, Ontario, Canada
Source: University of Arizona Mineral Museum
Description: Blue grains in a coarsely crystalline rock
Measured chemistry: Na_7.86_Al_6.00_Si_6.03_O_24_Cl_2.02_
Raman shift (cm-1)	intensity
148.018	0
150.911	79.0613
153.803	178.063
156.696	193.896
159.589	182.319
162.481	389.142
165.374	824.571
168.267	860.42
171.16	597.87
174.052	461.674
176.945	374.67
179.838	249.392
182.73	203.165
185.623	99.9102
188.516	84.6914
191.408	43.7383
194.301	72.6787
197.194	73.1084
200.087	35.3191
202.979	64.1103
205.872	30.8093
208.765	24.0984
211.657	17.7297
214.55	57.8372
217.443	21.7354
220.335	5.12036
223.228	53.5862
226.121	78.7422
229.013	115.212
231.906	202.345
234.799	193.149
237.692	174.521
240.584	189.56
243.477	291.946
246.37	400.694
249.262	504.539
252.155	662.246
255.048	937.747
257.941	1203.23
260.833	1478.8
263.726	1626.19
266.619	1468.85
269.511	1171.5
272.404	878.65
275.297	688.761
278.19	601.766
281.082	601.965
283.975	705.673
286.868	867.965
289.76	1100.03
292.653	1385.16
295.546	1213.07
298.438	673.665
301.331	333.31
304.224	214.284
307.116	133.515
310.009	127.882
312.902	102.421
315.795	47.727
318.687	14.124
321.58	7.32959
324.473	8.56543
327.365	13.6348
330.258	30.374
333.151	35.9077
336.043	60.3379
338.936	5.71826
341.829	22.8003
344.721	1.89502
347.614	0.075684
350.507	60.2261
353.4	71.6548
356.292	65.8521
359.185	89.2983
362.078	47.2046
364.97	16.1685
367.863	66.124
370.756	70.1587
373.649	78.0347
376.541	43.7383
379.434	57.0635
382.327	45.4785
385.219	11.5566
388.112	6.75732
391.005	32.1977
393.897	37.0727
396.79	35.4746
399.683	7.93115
402.575	31.5898
405.468	78.5518
408.361	54.5732
411.254	137.491
414.146	44.6807
417.039	45.4678
419.932	24.2949
422.824	27.4814
425.717	70.561
428.61	114.799
431.502	161.172
434.395	162.471
437.288	232.477
440.181	286.628
443.073	452.63
445.966	761.163
448.859	1287.66
451.751	1984.2
454.644	3037.64
457.537	4798.89
460.43	7443.79
463.322	9635.94
466.215	8422.38
469.108	4972.67
472	2668.45
474.893	1612.79
477.786	1009.16
480.678	694.743
483.571	489.94
486.464	347.767
489.356	275.172
492.249	204.171
495.142	216.218
498.035	263.525
500.927	80.2104
503.82	40.3433
506.713	32.6807
509.605	55.7524
512.498	22.1084
515.391	15.688
518.284	67.4458
521.176	58.1133
524.069	52.9517
526.962	25.271
529.854	15.0786
532.747	25.8438
535.64	54.4746
538.533	57.8286
541.425	92.2412
544.318	50.4873
547.211	38.3355
550.103	22.0771
552.996	18.3643
555.889	28.8154
558.781	73.2769
561.674	110.237
564.567	48.46
567.459	22.376
570.352	21.3457
573.245	11.6352
576.138	10.8237
579.03	56.9287
581.923	74.3447
584.816	175.885
587.708	80.8525
590.601	83.3799
593.494	41.1953
596.386	15.8213
599.279	100.931
602.172	86.6377
605.064	138.477
607.957	110.138
610.85	83.0947
613.743	73.6641
616.635	81.96
619.528	51.332
622.421	52.9023
625.313	71.2822
628.206	124.182
631.099	85.0156
633.991	45.5273
636.884	115.826
639.777	36.3193
642.67	33.2822
645.562	38.5176
648.455	56.0645
651.348	61.6562
654.24	77.6484
657.133	9.68652
660.026	13.373
662.918	52.3398
665.811	26.5527
668.704	44.6602
671.597	3.51758
674.489	73.0176
677.382	66.3682
680.275	6.78711
683.167	68.8877
686.06	43.2988
688.953	40.2295
691.846	42.3691
694.738	43.9336
697.631	117.003
700.524	34.4922
703.416	97.501
706.309	51.5635
709.202	130.752
712.094	56.6133
714.987	45.2441
717.88	92.8174
720.773	82.5557
723.665	94.0322
726.558	123.294
729.451	181.435
732.343	161.675
735.236	239.56
738.129	207.717
741.021	97.8291
743.914	9.85645
746.807	62.748
749.699	86.3506
752.592	76.8496
755.485	59.3867
758.378	112.183
761.27	89.7314
764.163	87.4023
767.056	86.4209
769.948	50.2988
772.841	89.5127
775.734	9.39648
778.626	56.8926
781.519	54.666
784.412	70.9639
787.305	89.6279
790.197	76.0078
793.09	83.8164
795.983	120.652
798.875	59.9082
801.768	47.1846
804.661	32.2539
807.553	67.7432
810.446	24.5625
813.339	131.213
816.232	54.1631
819.124	126.864
822.017	98.7217
824.91	84.3184
827.802	21.7559
830.695	36.6865
833.588	31.2871
836.481	44.5478
839.373	29.7686
842.266	113.319
845.159	127.108
848.051	123.299
850.944	55.4277
853.837	98.042
856.729	52.0176
859.622	47.3496
862.515	27.4297
865.408	111.085
868.3	12.6182
871.193	61.6289
874.086	129.497
876.978	84.458
879.871	97.4512
882.764	44.915
885.656	31.0488
888.549	63.1201
891.442	46.6094
894.335	47.8652
897.227	31.5186
900.12	110.524
903.013	42.4268
905.905	8.26758
908.798	6.40918
911.691	21.1475
914.583	14.249
917.476	84.5312
920.369	45.2266
923.261	21.1465
926.154	14.4336
929.047	23.4629
931.94	13.0947
934.832	79.041
937.725	33.1191
940.618	81.0098
943.51	127.617
946.403	131.643
949.296	176.447
952.188	118.162
955.081	240.565
957.974	294.305
960.867	434.652
963.759	602.529
966.652	780.318
969.545	678.637
972.437	686.404
975.33	794.15
978.223	840.26
981.115	1445.81
984.008	2333.7
986.901	2689.5
989.794	1554.69
992.686	643.58
995.579	392.609
998.472	245.924
1001.36	93.0996
1004.26	87.7422
1007.15	202.572
1010.04	77.418
1012.93	209.182
1015.83	73.6367
1018.72	14.9746
1021.61	45.7734
1024.51	6.73242
1027.4	22.8418
1030.29	35.6934
1033.18	78.3496
1036.08	103.978
1038.97	170.69
1041.86	58.4004
1044.76	69.5684
1047.65	162.916
1050.54	112.16
1053.43	312.488
1056.33	398.012
1059.22	460.852
1062.11	434.301
1065	325.815
1067.9	252.627
1070.79	273.828
1073.68	196.781
1076.58	240.875
1079.47	198.272
1082.36	283.894
1085.25	230.818
1088.14	227.113
1091.04	167.377
1093.93	88.0859
1096.82	11.2246
1099.72	144.943
1102.61	60.668
1105.5	55.7207
1108.39	143.732
1111.29	16.4043
1114.18	67.0606
1117.07	150.014
1119.96	176.453
1122.86	264.711
1125.75	255.664
1128.64	148.193
1131.54	152.459
1134.43	131.131
1137.32	201.613
1140.21	89.1914
1143.11	141.957
1146	5.68945
1148.89	81.2168
1151.79	30.3125
1154.68	90.1738
1157.57	61.8828
1160.46	40.7676
1163.36	25.3418
1166.25	24.1152
1169.14	27.1504
1172.03	97.4883
1174.93	160.449
1177.82	6.07617
1180.71	201.182
1183.6	177.209
1186.5	175.455
1189.39	57.3555
1192.28	163.779
1195.17	132.33
1198.07	191.627
1200.96	40.4238
1203.85	95.1172
1206.75	0
