Measurement: Raman, 780 nm, unoriented, Raman Data Processed
Mineral: Sodalite
Rruff sample: R060354
Ideal chemistry: Na_4_Si_3_Al_3_O_12_Cl
Locality: Koksha Valley, Badakshan Province, Afghanistan
Source: Herb Obodda
Description: Pale purple transparent fragment
Measured chemistry: (Na_0.99_K_0.01_)_8_Al_6.00_Si_6.00_O_24_Cl_2.00_
Raman shift (cm-1)	intensity
151.316	0
154.208	2.42949
157.101	11.3531
159.994	32.3894
162.887	77.311
165.779	119.347
168.672	95.716
171.565	56.0089
174.457	34.2338
177.35	28.2389
180.243	21.4273
183.135	13.3991
186.028	7.02997
188.921	4.4696
191.814	2.84122
194.706	0.741058
197.599	0.853241
200.492	1.45642
203.384	0.309906
206.277	1.10858
209.17	0.184097
212.062	0.181808
214.955	2.55643
217.848	3.68301
220.74	5.85666
223.633	9.87048
226.526	12.2018
229.419	19.5261
232.311	27.7486
235.204	30.1369
238.097	30.8669
240.989	31.8702
243.882	38.7431
246.775	50.675
249.667	64.0037
252.56	81.4912
255.453	107.451
258.346	141.08
261.238	180.283
264.131	195.245
267.024	177.839
269.916	138.652
272.809	103.432
275.702	82.0408
278.594	64.3008
281.487	58.2081
284.38	56.0629
287.273	60.93
290.165	84.8113
293.058	112.166
295.951	121.362
298.843	82.9994
301.736	45.107
304.629	22.1806
307.522	14.6507
310.414	10.0954
313.307	7.98517
316.2	6.18393
319.092	4.09638
321.985	3.01805
324.878	0.619408
327.77	1.79056
330.663	1.90421
333.556	0.950935
336.449	2.07407
339.341	1.25857
342.234	2.16716
345.127	1.11704
348.019	0.08696
350.912	1.04832
353.805	0.157555
356.697	2.24974
359.59	1.09602
362.483	0.109665
365.375	0.612999
368.268	2.97725
371.161	3.42148
374.054	2.74119
376.946	1.40607
379.839	0.088531
382.732	0.565193
385.624	0.747871
388.517	0.721832
391.41	1.29474
394.303	0.255402
397.195	0.203331
400.088	0.900467
402.981	1.57047
405.873	7.62279
408.766	15.987
411.659	25.0318
414.551	11.0684
417.444	5.94138
420.337	6.12462
423.229	6.93066
426.122	9.19032
429.015	13.4799
431.908	17.5826
434.8	23.2318
437.693	28.1068
440.586	38.5856
443.478	54.5988
446.371	82.5279
449.264	122.004
452.156	174.131
455.049	272.556
457.942	452.691
460.835	763.148
463.727	1049.5
466.62	927.13
469.513	559.473
472.405	315.598
475.298	192.301
478.191	125.233
481.084	86.2281
483.976	61.6331
486.869	48.9037
489.762	41.8714
492.654	33.4826
495.547	30.0804
498.44	32.5421
501.332	22.4475
504.225	13.2752
507.118	8.33607
510.01	6.59394
512.903	4.46638
515.796	4.3722
518.689	2.23085
521.581	4.11448
524.474	2.90937
527.367	2.19237
530.259	2.1521
533.152	1.39496
536.045	0.65564
538.938	1.32812
541.83	1.341
544.723	1.63995
547.616	1.24326
550.508	0.680756
553.401	1.32827
556.294	0.244698
559.186	0.495667
562.079	0.721855
564.972	0.519974
567.865	0.277046
570.757	0.996223
573.65	1.2754
576.543	0.736282
579.435	0.277687
582.328	1.42306
585.221	1.79509
588.114	2.35664
591.006	1.74959
593.899	2.7276
596.792	3.24873
599.684	4.19733
602.577	3.6461
605.47	5.41411
608.362	6.61992
611.255	6.66982
614.148	5.86048
617.04	4.22443
619.933	4.65104
622.826	4.11441
625.719	4.31396
628.611	3.49248
631.504	2.0331
634.397	2.8142
637.289	1.57921
640.182	2.50542
643.075	2.22197
645.967	2.00835
648.86	0.616035
651.753	2.0313
654.646	1.81645
657.538	0.902802
660.431	0.278801
663.324	0.977356
666.216	0.36805
669.109	2.13542
672.002	0.78204
674.894	1.1369
677.787	2.35538
680.68	1.77601
683.573	2.18761
686.465	1.66551
689.358	1.379
692.251	1.70165
695.143	0.078667
698.036	1.91698
700.929	2.17949
703.822	1.80497
706.714	2.42051
709.607	0.323238
712.5	2.54153
715.392	2.57239
718.285	3.63762
721.178	4.09013
724.07	4.56263
726.963	5.3635
729.856	8.03177
732.749	10.8147
735.641	14.1048
738.534	10.7252
741.427	7.35904
744.319	5.0534
747.212	3.38497
750.105	2.27221
752.997	0.752705
755.89	1.19721
758.783	1.05053
761.676	0.918602
764.568	0.780567
767.461	0.383991
770.354	1.3203
773.246	0.580765
776.139	0.051212
779.032	0.122684
781.924	1.3584
784.817	0.888523
787.71	1.26781
790.602	0.568256
793.495	1.73659
796.388	1.97936
799.281	0.785652
802.173	1.51324
805.066	2.31743
807.959	2.59292
810.851	1.9686
813.744	1.33916
816.637	1.41698
819.529	1.97816
822.422	0.954453
825.315	1.30643
828.208	1.26642
831.1	1.83725
833.993	1.79665
836.886	1.82999
839.778	1.78973
842.671	0.968094
845.564	1.82718
848.457	2.18468
851.349	2.89465
854.242	3.91205
857.135	3.02513
860.027	3.99314
862.92	3.60727
865.813	3.55104
868.705	3.32608
871.598	3.38253
874.491	2.79148
877.384	3.29789
880.276	2.95949
883.169	3.12545
886.062	2.58025
888.954	1.83091
891.847	1.9873
894.74	0.791435
897.632	0.014263
900.525	0.259361
903.418	0.904621
906.311	0.55616
909.203	0.485252
912.096	0.370514
914.989	0.724861
917.881	1.21652
920.774	0.341644
923.667	0.936493
926.559	0.903706
929.452	0.154327
932.345	0.345531
935.237	2.32547
938.13	0.413395
941.023	2.90126
943.916	3.18167
946.808	3.80232
949.701	4.94141
952.594	7.07513
955.486	7.76197
958.379	13.226
961.272	18.9642
964.164	30.4535
967.057	41.4419
969.95	43.1393
972.843	46.1381
975.735	45.1055
978.628	50.4823
981.521	78.7051
984.413	147.265
987.306	221.538
990.199	167.127
993.091	83.1
995.984	41.3389
998.877	25.0864
1001.77	17.3928
1004.66	10.9042
1007.55	9.96114
1010.45	9.38001
1013.34	10.8291
1016.23	5.7555
1019.13	2.6542
1022.02	1.70245
1024.91	0.558987
1027.8	0.586399
1030.7	0.823189
1033.59	1.4706
1036.48	7.72888
1039.38	8.04543
1042.27	3.42221
1045.16	3.93813
1048.05	6.03354
1050.94	9.7771
1053.84	14.8516
1056.73	18.3491
1059.62	23.1099
1062.52	21.5965
1065.41	21.907
1068.3	17.7755
1071.19	13.4828
1074.09	9.18716
1076.98	6.6259
1079.87	3.82671
1082.77	4.25106
1085.66	3.10051
1088.55	1.13375
1091.44	0.368935
1094.34	0.001873
1097.23	0.223881
1100.12	0.08223
1103.01	0.161133
1105.91	0.263401
1108.8	0.049053
1111.69	0.293419
1114.59	0.178497
1117.48	0.589653
1120.37	1.30218
1123.26	0.205376
1126.16	0.655094
1129.05	1.12642
1131.94	1.4941
1134.83	0.932468
1137.73	1.90608
1140.62	1.44212
1143.51	0.153336
1146.4	2.84438
1149.3	0.80492
1152.19	0.966885
1155.08	1.42421
1157.97	1.60697
1160.87	1.37
1163.76	1.98748
1166.65	0.059872
1169.55	1.59229
1172.44	1.40101
1175.33	0.889194
1178.22	0.958767
1181.12	1.10471
1184.01	0.885025
1186.9	1.33513
1189.8	1.73121
1192.69	1.53921
1195.58	2.09249
1198.47	0.994106
1201.37	0.033752
1204.26	0.600182
1207.15	2.15966
1210.04	0.276588
1212.94	1.72864
1215.83	0.794094
1218.72	1.11642
1221.62	0.503933
1224.51	0.416553
1227.4	0.842384
1230.29	1.05721
1233.19	0.158989
1236.08	1.00796
1238.97	1.78186
1241.86	1.51333
1244.76	1.48006
1247.65	2.71283
1250.54	2.12008
1253.43	2.02721
1256.33	1.12552
1259.22	1.84116
1262.11	1.56975
1265.01	1.69262
1267.9	0.457043
1270.79	1.1144
1273.68	0.381512
1276.58	0.612549
1279.47	0.917606
1282.36	0.510826
1285.25	1.19863
