Measurement: Raman, 532 nm, unoriented, Raman Data Processed
Mineral: Sodalite
Rruff sample: R060354
Ideal chemistry: Na_4_Si_3_Al_3_O_12_Cl
Locality: Koksha Valley, Badakshan Province, Afghanistan
Source: Herb Obodda
Description: Pale purple transparent fragment
Measured chemistry: (Na_0.99_K_0.01_)_8_Al_6.00_Si_6.00_O_24_Cl_2.00_
Raman shift (cm-1)	intensity
159.435	0
162.328	36.2562
165.22	121.648
168.113	147.469
171.006	129.145
173.898	104.061
176.791	74.7759
179.684	49.2525
182.577	29.9929
185.469	27.7106
188.362	30.0922
191.255	21.7961
194.147	12.6607
197.04	1.33783
199.933	0.187622
202.825	2.37225
205.718	4.34155
208.611	0.81897
211.504	4.06555
214.396	0.75946
217.289	1.84741
220.182	0.611938
223.074	5.60925
225.967	6.36731
228.86	17.8002
231.752	31.5888
234.645	43.4331
237.538	33.4069
240.43	42.4554
243.323	50.2207
246.216	71.5201
249.109	101.059
252.001	139.057
254.894	174.757
257.787	228.087
260.679	271.048
263.572	290.76
266.465	270.328
269.358	209.765
272.25	153.94
275.143	123.951
278.036	100.605
280.928	97.0057
283.821	100.617
286.714	123.165
289.606	159.883
292.499	209.447
295.392	197.421
298.284	131.498
301.177	63.4851
304.07	34.9175
306.963	18.0485
309.855	11.8768
312.748	10.6332
315.641	5.31555
318.533	6.0846
321.426	4.99744
324.319	1.14123
327.212	1.80713
330.104	1.84692
332.997	4.82007
335.89	4.75012
338.782	4.94287
341.675	2.44885
344.568	1.56006
347.46	0.650757
350.353	4.05579
353.246	1.91467
356.139	1.80212
359.031	5.71606
361.924	7.64905
364.817	6.45715
367.709	12.9392
370.602	13.0698
373.495	7.32165
376.387	2.15137
379.28	3.24634
382.173	1.60046
385.065	3.71228
387.958	2.28516
390.851	0.770264
393.744	3.01172
396.636	0.791382
399.529	1.67554
402.422	3.03931
405.314	12.0854
408.207	13.9085
411.1	24.9644
413.993	16.3776
416.885	9.65283
419.778	8.15747
422.671	9.24292
425.563	14.3613
428.456	23.7507
431.349	33.8392
434.241	48.4609
437.134	57.7582
440.027	81.9268
442.92	122.655
445.812	187.322
448.705	302.237
451.598	446.448
454.49	641.543
457.383	942.671
460.276	1378.63
463.168	1743.54
466.061	1576.22
468.954	988.441
471.846	569.209
474.739	341.085
477.632	221.758
480.525	151.176
483.417	107.442
486.31	82.9568
489.203	72.3118
492.095	52.229
494.988	44.5969
497.881	40.9043
500.774	29.3652
503.666	19.2312
506.559	13.3536
509.452	12.7256
512.344	6.71985
515.237	6.5177
518.13	3.38184
521.022	4.89368
523.915	7.69519
526.808	7.63879
529.701	5.78015
532.593	5.42969
535.486	2.23792
538.379	4.11224
541.271	5.16925
544.164	2.53638
547.057	2.75159
549.949	9.98169
552.842	1.04077
555.735	2.93445
558.628	4.74548
561.52	0.471558
564.413	4.06329
567.306	5.47436
570.198	2.09259
573.091	3.94415
575.984	3.52991
578.876	2.72052
581.769	2.59912
584.662	8.57361
587.554	15.9947
590.447	10.8456
593.34	10.8486
596.232	10.0012
599.125	9.87433
602.018	9.58502
604.911	10.3301
607.803	17.8605
610.696	14.136
613.589	10.4671
616.481	13.603
619.374	9.53223
622.267	10.6661
625.159	11.2005
628.052	11.7432
630.945	9.5296
633.838	7.31555
636.73	7.13721
639.623	0.720459
642.516	0.091736
645.408	3.50012
648.301	1.92645
651.194	5.92169
654.087	3.11926
656.979	6.46796
659.872	6.95978
662.765	5.86529
665.657	5.23456
668.55	3.14313
671.443	3.52783
674.335	8.81812
677.228	5.14002
680.121	7.18835
683.014	5.55414
685.906	6.64356
688.799	5.97919
691.692	8.6698
694.584	6.88513
697.477	7.16034
700.37	8.14575
703.263	7.10211
706.155	3.66528
709.048	6.25757
711.941	9.88147
714.833	10.7948
717.726	7.92389
720.619	6.00555
723.511	13.9539
726.404	15.7215
729.297	26.3861
732.189	28.6639
735.082	39.2001
737.975	29.1456
740.868	18.9149
743.76	11.9254
746.653	8.91022
749.546	9.06122
752.438	5.03155
755.331	2.30231
758.224	3.94281
761.116	2.80768
764.009	4.23163
766.902	1.19708
769.795	0.017212
772.687	0.49884
775.58	2.64099
778.473	1.28693
781.365	5.20972
784.258	0.586243
787.151	1.03272
790.043	5.37213
792.936	5.03656
795.829	5.25623
798.722	1.75269
801.614	4.74353
804.507	2.71454
807.4	2.59967
810.292	3.86401
813.185	1.87323
816.078	2.88898
818.971	7.21393
821.863	2.86743
824.756	4.77545
827.649	0.087463
830.541	2.2179
833.434	5.11139
836.327	3.49231
839.219	0.679504
842.112	2.64227
845.005	3.67572
847.898	2.06097
850.79	7.06348
853.683	5.84448
856.576	9.14374
859.468	6.99713
862.361	5.13953
865.254	8.92596
868.146	2.36285
871.039	6.30689
873.932	11.0127
876.824	10.9707
879.717	5.63263
882.61	5.16132
885.503	5.58093
888.395	0.051758
891.288	4.03742
894.181	6.0719
897.073	4.24085
899.966	3.50116
902.859	3.17297
905.751	4.00403
908.644	0.321777
911.537	1.18756
914.43	3.76605
917.322	0.685242
920.215	3.55505
923.108	4.17847
926	3.43646
928.893	4.27148
931.786	1.44366
934.678	3.94165
937.571	1.4256
940.464	2.56397
943.357	0.65033
946.249	3.13403
949.142	11.1408
952.035	20.1024
954.927	28.3024
957.82	45.4789
960.713	62.9875
963.606	91.0966
966.498	112.929
969.391	116.482
972.284	129.392
975.176	137.405
978.069	164.925
980.962	234.718
983.854	364.534
986.747	493.492
989.64	400.909
992.533	199.373
995.425	104.51
998.318	63.2976
1001.21	43.7347
1004.1	32.4434
1007	28.8644
1009.89	23.6156
1012.78	21.2879
1015.67	13.3246
1018.57	8.17279
1021.46	5.06085
1024.35	0.729065
1027.24	1.87811
1030.14	5.91724
1033.03	10.2854
1035.92	19.4811
1038.82	17.1699
1041.71	7.43652
1044.6	7.68683
1047.49	8.44989
1050.39	17.8416
1053.28	25.7213
1056.17	38.3213
1059.07	37.0342
1061.96	33.7185
1064.85	35.6718
1067.74	30.4116
1070.63	24.2949
1073.53	12.2332
1076.42	10.1161
1079.31	4.3858
1082.21	3.94617
1085.1	1.47369
1087.99	0.338745
1090.88	2.84821
1093.78	3.96796
1096.67	0.0979
1099.56	1.36365
1102.45	0.047058
1105.35	0.856201
1108.24	3.06561
1111.13	2.76996
1114.03	1.72638
1116.92	3.56262
1119.81	5.18042
1122.7	2.89825
1125.6	2.33679
1128.49	1.40674
1131.38	1.56049
1134.28	5.46985
1137.17	5.71362
1140.06	6.06677
1142.95	3.78595
1145.85	5.68481
1148.74	7.32172
1151.63	5.40277
1154.52	4.01837
1157.42	3.19257
1160.31	6.86359
1163.2	3.85297
1166.09	0.444092
1168.99	5.13055
1171.88	4.65265
1174.77	5.31525
1177.66	1.867
1180.56	1.07275
1183.45	0.838562
1186.34	4.5191
1189.24	4.20044
1192.13	3.77338
1195.02	6.30633
1197.91	6.29968
1200.81	5.43872
1203.7	8.37433
1206.59	1.70819
1209.48	10.2927
1212.38	8.30188
1215.27	4.29053
1218.16	3.40704
1221.06	3.6452
1223.95	3.85626
1226.84	2.18677
1229.73	4.97589
1232.63	3.6275
1235.52	3.08862
1238.41	6.18237
1241.31	1.30682
1244.2	2.92389
1247.09	4.39496
1249.98	7.73029
1252.88	4.81091
1255.77	11.5491
1258.66	1.57379
1261.55	10.5804
1264.45	3.31537
1267.34	2.25012
1270.23	5.46729
1273.12	5.05182
1276.02	3.10773
1278.91	7.31036
1281.8	3.25549
1284.69	3.55194
1287.59	0.662964
1290.48	4.77039
1293.37	1.22852
1296.27	6.42627
1299.16	6.48187
1302.05	1.13794
