Measurement: Raman, 532 nm, unoriented, Raman Data Processed
Mineral: Sodalite
Rruff sample: R060436
Ideal chemistry: Na_4_Si_3_Al_3_O_12_Cl
Locality: Koksha Valley, Budakshan Province, Afghanistan
Source: Herb Obodda
Description: Pale blue fragment
Measured chemistry: (Na_0.99_K_0.01_)_8_Al_6.00_Si_6.00_O_24_Cl_2.00_
Raman shift (cm-1)	intensity
170.102	0
172.995	18.0187
175.888	32.9227
178.78	32.9145
181.673	13.4562
184.566	0.733521
187.459	7.65894
190.351	18.1238
193.244	22.1371
196.137	9.21497
199.029	1.04602
201.922	2.51196
204.815	0.942505
207.708	6.3927
210.6	2.38184
213.493	3.83032
216.386	8.07898
219.278	13.2206
222.171	14.77
225.064	20.2564
227.956	28.1528
230.849	33.8225
233.742	46.05
236.635	48.6155
239.527	47.5386
242.42	56.7118
245.313	76.5537
248.205	97.9519
251.098	126.448
253.991	169.641
256.884	210.908
259.776	267.168
262.669	314.545
265.562	325.945
268.454	281.804
271.347	215.367
274.24	163.163
277.132	129.868
280.025	116.009
282.918	105.44
285.81	119.112
288.703	148.804
291.596	187.09
294.489	221.811
297.381	192.072
300.274	101.884
303.167	59.2251
306.059	32.7537
308.952	20.9954
311.845	16.7107
314.738	9.9408
317.63	14.1676
320.523	10.8822
323.416	1.05627
326.308	0.062134
329.201	1.05847
332.094	8.15564
334.986	2.33044
337.879	0.629395
340.772	0.476685
343.665	1.84534
346.557	2.9397
349.45	0.968506
352.343	3.01868
355.235	4.77527
358.128	8.38123
361.021	2.3656
363.913	0.860107
366.806	9.36023
369.699	5.79065
372.592	9.21094
375.484	3.96802
378.377	4.59094
381.27	2.23547
384.162	2.87622
387.055	5.38074
389.948	4.02087
392.841	2.69775
395.733	1.22314
398.626	0.478882
401.519	7.02734
404.411	7.79602
407.304	14.0215
410.197	21.311
413.089	20.0096
415.982	8.16553
418.875	7.92517
421.767	9.38806
424.66	16.2782
427.553	23.5336
430.446	33.0951
433.338	40.4465
436.231	50.2666
439.124	67.7794
442.017	82.9934
444.909	120.807
447.802	199.264
450.695	319.207
453.587	483.292
456.48	728.454
459.373	1118.5
462.265	1633.11
465.158	1899.45
468.051	1442.86
470.943	832.333
473.836	470.329
476.729	296.231
479.622	198.491
482.514	130.368
485.407	95.781
488.3	78.8878
491.192	63.5964
494.085	58.6981
496.978	58.7269
499.87	53.4039
502.763	33.4937
505.656	13.6885
508.549	8.24353
511.441	12.7074
514.334	8.00207
517.227	9.41003
520.119	7.22412
523.012	6.34595
525.905	8.21106
528.798	5.4436
531.69	10.3604
534.583	4.81018
537.476	5.71619
540.368	1.42969
543.261	0.379517
546.154	1.5426
549.047	5.23193
551.939	7.45276
554.832	4.12952
557.725	1.76282
560.617	3.20972
563.51	1.91541
566.403	0.433594
569.295	1.98682
572.188	7.40625
575.081	0.153564
577.973	6.65637
580.866	2.34448
583.759	4.84265
586.652	8.42065
589.544	6.9325
592.437	1.48962
595.33	6.91748
598.222	6.50781
601.115	10.9895
604.008	8.49866
606.901	10.6031
609.793	9.72205
612.686	11.5853
615.579	6.92554
618.471	8.93176
621.364	7.47327
624.257	4.64539
627.149	1.07446
630.042	4.46997
632.935	3.54627
635.828	1.91894
638.72	6.27759
641.613	6.00635
644.506	6.26331
647.398	0.018677
650.291	2.7124
653.184	0.177856
656.077	2.08691
658.969	5.32568
661.862	8.68298
664.755	3.04675
667.647	4.0249
670.54	1.46155
673.433	0.840576
676.325	10.2136
679.218	4.74158
682.111	7.64807
685.004	10.4456
687.896	7.6311
690.789	10.762
693.682	4.09534
696.574	2.68848
699.467	5.41943
702.36	6.3468
705.253	8.26282
708.145	9.29602
711.038	5.96191
713.931	7.92798
716.823	7.35535
719.716	4.87341
722.609	6.80127
725.501	11.3825
728.394	14.9048
731.287	30.2902
734.179	32.9421
737.072	30.2696
739.965	20.4945
742.858	12.5017
745.75	7.17297
748.643	6.1853
751.536	1.33838
754.428	2.27161
757.321	4.46716
760.214	5.6106
763.107	2.06873
765.999	2.9198
768.892	3.15845
771.785	2.2085
774.677	0.524048
777.57	1.40967
780.463	3.85828
783.356	6.43494
786.248	6.8728
789.141	1.03088
792.034	2.35382
794.926	3.84912
797.819	1.31665
800.712	5.20654
803.604	6.078
806.497	4.04688
809.39	7.75922
812.283	3.86566
815.175	4.80072
818.068	3.08801
820.961	0.320862
823.853	4.72907
826.746	1.9068
829.639	2.57855
832.531	1.40417
835.424	3.12415
838.317	1.79688
841.21	1.33331
844.102	1.36639
846.995	0.004028
849.888	1.36859
852.78	0.886597
855.673	6.01367
858.566	1.97986
861.458	3.1535
864.351	4.62537
867.244	9.41809
870.136	7.90784
873.029	8.32806
875.922	9.12799
878.815	8.50293
881.707	9.39887
884.6	9.48718
887.493	4.58978
890.385	0.046509
893.278	0.152832
896.171	2.61072
899.064	1.96692
901.956	3.5003
904.849	5.3548
907.742	2.17004
910.634	2.40912
913.527	1.55865
916.42	0.314636
919.312	3.89722
922.205	1.60644
925.098	4.3161
927.991	2.93823
930.883	9.71729
933.776	2.55121
936.669	3.28418
939.562	0.944092
942.454	1.06653
945.347	3.98578
948.24	6.91675
951.132	13.4468
954.025	16.5204
956.918	30.6664
959.81	48.9866
962.703	74.3447
965.596	104.699
968.489	124.213
971.381	119.722
974.274	129.803
977.167	139.838
980.059	190.581
982.952	305.253
985.845	473.816
988.737	509.337
991.63	296.433
994.523	150.091
997.415	78.2317
1000.31	51.016
1003.2	40.7266
1006.09	28.4489
1008.99	24.116
1011.88	20.7879
1014.77	23.6361
1017.66	13.1207
1020.56	7.2843
1023.45	1.3385
1026.34	0.229675
1029.23	1.93536
1032.13	1.8302
1035.02	8.10223
1037.91	16.3076
1040.81	8.20935
1043.7	6.57752
1046.59	11.1102
1049.48	17.3899
1052.38	23.6443
1055.27	36.855
1058.16	43.4197
1061.06	46.8823
1063.95	38.8675
1066.84	24.8002
1069.73	25.1567
1072.63	15.8487
1075.52	9.64545
1078.41	8.67896
1081.3	4.70026
1084.2	4.15875
1087.09	5.32239
1089.98	4.05389
1092.88	2.71136
1095.77	0.833008
1098.66	0.37384
1101.55	0.682251
1104.45	0.767822
1107.34	3.42096
1110.23	4.08411
1113.12	4.87488
1116.02	0.906006
1118.91	2.15045
1121.8	4.11121
1124.69	5.85522
1127.59	7.45276
1130.48	6.56824
1133.37	0.523682
1136.27	0.347351
1139.16	1.82361
1142.05	5.26288
1144.94	1.49567
1147.84	5.89532
1150.73	4.64075
1153.62	2.42065
1156.51	1.23303
1159.41	4.67633
1162.3	0.564514
1165.19	4.60095
1168.09	6.01825
1170.98	5.26764
1173.87	4.27704
1176.76	3.80487
1179.66	5.82544
1182.55	2.71728
1185.44	10.2709
1188.33	4.711
1191.23	1.0227
1194.12	2.69409
1197.01	2.96082
1199.9	4.84381
1202.8	0.648071
1205.69	1.67664
1208.58	1.87494
1211.48	4.4447
1214.37	2.4826
1217.26	1.25317
1220.15	0.417908
1223.05	3.65051
1225.94	2.07837
1228.83	3.70972
1231.72	1.48212
1234.62	1.32098
1237.51	0.716248
1240.4	3.57123
1243.3	2.52655
1246.19	0.575134
1249.08	0.700989
1251.97	5.56043
1254.87	4.43469
1257.76	1.487
1260.65	3.43158
1263.54	1.89642
1266.44	1.3103
1269.33	5.13849
1272.22	2.35175
1275.12	6.30261
1278.01	3.75806
1280.9	9.03748
1283.79	9.04663
1286.69	3.20917
1289.58	3.9455
1292.47	5.68628
1295.36	6.53558
1298.26	6.34857
1301.15	0.125366
