Measurement: Raman, 780 nm, unoriented, Raman Data Processed
Mineral: Sodalite
Rruff sample: R060355
Ideal chemistry: Na_4_Si_3_Al_3_O_12_Cl
Locality: Mont Saint-Hilaire, Quebec, Canada
Source: Herb Obodda
Description: Clear colorless fragment
Measured chemistry: (Na_0.98_[box]_0.02_)_8_Al_6.00_(Si_0.99_Al_0.01_)_6_O_24_Cl_1.82_
Raman shift (cm-1)	intensity
142.638	0
145.53	1.18353
148.423	1.60243
151.316	1.82375
154.208	5.40086
157.101	18.1275
159.994	42.8747
162.887	91.1981
165.779	125.105
168.672	92.1636
171.565	57.693
174.457	40.7955
177.35	34.2725
180.243	23.1237
183.135	14.5929
186.028	9.89684
188.921	4.30658
191.814	1.87277
194.706	0.710106
197.599	1.06269
200.492	2.34016
203.384	1.03117
206.277	0.204155
209.17	0.141876
212.062	0.765022
214.955	2.52396
217.848	1.6407
220.74	4.75057
223.633	9.30093
226.526	11.5623
229.419	20.0448
232.311	29.3603
235.204	30.7029
238.097	32.0638
240.989	33.3476
243.882	42.161
246.775	56.2494
249.667	74.8825
252.56	95.7831
255.453	128.608
258.346	170.678
261.238	214.296
264.131	225.759
267.024	198.696
269.916	153.929
272.809	113.838
275.702	86.7472
278.594	71.4505
281.487	62.0738
284.38	60.5337
287.273	68.4868
290.165	92.3863
293.058	126.642
295.951	128.625
298.843	87.6487
301.736	45.2773
304.629	22.6877
307.522	16.7578
310.414	10.8597
313.307	9.66361
316.2	7.99861
319.092	4.55754
321.985	3.80774
324.878	1.78481
327.77	2.91537
330.663	2.8868
333.556	1.60692
336.449	2.61757
339.341	0.930717
342.234	1.04046
345.127	0.035225
348.019	0.053146
350.912	0.999443
353.805	0.258461
356.697	0.428322
359.59	0.518051
362.483	0.081993
365.375	1.9988
368.268	3.92248
371.161	2.89562
374.054	3.82164
376.946	0.28318
379.839	0.281624
382.732	0.580208
385.624	1.38218
388.517	1.79147
391.41	1.53297
394.303	0.366692
397.195	0.379829
400.088	0.684998
402.981	2.93261
405.873	7.91287
408.766	20.2987
411.659	25.0374
414.551	8.69876
417.444	5.46606
420.337	4.31233
423.229	6.01256
426.122	9.16077
429.015	14.0536
431.908	20.1101
434.8	23.6936
437.693	29.3859
440.586	41.6531
443.478	62.9579
446.371	96.9381
449.264	142.621
452.156	207.338
455.049	319.905
457.942	537.799
460.835	907.418
463.727	1208.09
466.62	980.864
469.513	559.308
472.405	312.163
475.298	190.821
478.191	124.895
481.084	88.4046
483.976	64.234
486.869	54.8728
489.762	44.554
492.654	33.6663
495.547	32.2504
498.44	33.693
501.332	19.4603
504.225	10.4554
507.118	5.90087
510.01	5.16311
512.903	4.795
515.796	5.36294
518.689	3.35686
521.581	5.56328
524.474	2.32521
527.367	3.41613
530.259	2.96252
533.152	2.06211
536.045	1.42467
538.938	2.19212
541.83	0.456406
544.723	0.898209
547.616	1.19624
550.508	0.968956
553.401	0.675743
556.294	1.30479
559.186	0.242958
562.079	0.382324
564.972	0.179482
567.865	0.173607
570.757	0.259377
573.65	1.21111
576.543	1.12986
579.435	0.735767
582.328	1.28988
585.221	2.64753
588.114	3.20483
591.006	1.54463
593.899	3.82552
596.792	2.656
599.684	4.36731
602.577	4.57804
605.47	6.78362
608.362	7.24414
611.255	6.3102
614.148	5.95371
617.04	4.63219
619.933	4.92662
622.826	4.00316
625.719	3.55684
628.611	3.18072
631.504	2.30095
634.397	2.8415
637.289	0.810333
640.182	2.3031
643.075	2.4103
645.967	1.77098
648.86	1.24522
651.753	1.65965
654.646	1.4546
657.538	1.44768
660.431	0.786327
663.324	1.03472
666.216	0.734173
669.109	2.17794
672.002	0.143551
674.894	0.472404
677.787	1.57829
680.68	1.89941
683.573	1.13964
686.465	0.449917
689.358	1.26187
692.251	0.762028
695.143	0.997913
698.036	0.361298
700.929	2.27237
703.822	0.216747
706.714	2.72903
709.607	1.41404
712.5	3.11551
715.392	2.95679
718.285	3.42719
721.178	3.32117
724.07	4.01637
726.963	5.23399
729.856	8.6218
732.749	12.7126
735.641	15.82
738.534	11.3123
741.427	6.58017
744.319	5.89075
747.212	3.25398
750.105	1.8517
752.997	0.586025
755.89	1.30028
758.783	1.29893
761.676	0.739605
764.568	0.045719
767.461	0.514072
770.354	1.33086
773.246	1.28822
776.139	0.052841
779.032	0.156803
781.924	0.347702
784.817	0.197796
787.71	0.167152
790.602	0.55579
793.495	1.06072
796.388	1.57688
799.281	1.09528
802.173	0.700352
805.066	2.08239
807.959	0.845566
810.851	1.29734
813.744	1.78516
816.637	0.78664
819.529	1.36584
822.422	0.283081
825.315	0.667763
828.208	1.37311
831.1	2.08462
833.993	1.35306
836.886	2.13398
839.778	2.32287
842.671	1.75814
845.564	2.74828
848.457	2.32639
851.349	3.75965
854.242	3.00365
857.135	2.62966
860.027	2.93488
862.92	3.05224
865.813	4.00832
868.705	2.9871
871.598	4.0949
874.491	2.92508
877.384	3.73103
880.276	2.83372
883.169	3.04417
886.062	1.00237
888.954	1.21497
891.847	1.00623
894.74	0.578033
897.632	0.380791
900.525	1.64951
903.418	0.254978
906.311	0.038155
909.203	0.264946
912.096	0.580791
914.989	2.16993
917.881	3.2182
920.774	3.76986
923.667	6.25299
926.559	5.34472
929.452	2.43782
932.345	1.86753
935.237	2.77172
938.13	1.37885
941.023	1.97739
943.916	2.5313
946.808	3.46257
949.701	5.36525
952.594	6.8351
955.486	8.48737
958.379	14.0996
961.272	19.3444
964.164	33.3447
967.057	43.4485
969.95	43.4055
972.843	46.366
975.735	48.2088
978.628	56.6866
981.521	94.4091
984.413	166.438
987.306	234.454
990.199	171.944
993.091	81.1392
995.984	39.6938
998.877	25.4864
1001.77	17.2782
1004.66	10.2263
1007.55	9.43646
1010.45	11.4666
1013.34	11.2424
1016.23	6.51181
1019.13	2.95795
1022.02	1.80274
1024.91	0.181789
1027.8	0.216263
1030.7	0.305294
1033.59	0.231644
1036.48	0.7225
1039.38	1.4818
1042.27	2.51193
1045.16	4.55735
1048.05	6.4196
1050.94	10.0918
1053.84	19.1383
1056.73	24.8571
1059.62	28.4701
1062.52	29.1579
1065.41	29.1888
1068.3	26.2559
1071.19	18.1387
1074.09	12.7383
1076.98	8.54121
1079.87	5.95682
1082.77	5.08124
1085.66	3.03488
1088.55	1.39397
1091.44	0.972244
1094.34	0.825764
1097.23	0.07724
1100.12	1.12639
1103.01	0.31443
1105.91	0.704037
1108.8	0.345661
1111.69	0.352352
1114.59	0.406624
1117.48	0.025249
1120.37	0.884296
1123.26	0.098499
1126.16	0.419121
1129.05	0.87965
1131.94	0.650154
1134.83	0.46352
1137.73	2.11798
1140.62	0.78154
1143.51	0.1908
1146.4	1.73832
1149.3	0.673988
1152.19	1.0212
1155.08	1.17287
1157.97	1.26155
1160.87	0.935734
1163.76	1.65073
1166.65	1.21221
1169.55	1.51369
1172.44	1.45214
1175.33	0.677555
1178.22	0.136509
1181.12	0.341747
1184.01	0.401257
1186.9	1.86499
1189.8	1.27296
1192.69	0.930782
1195.58	1.75462
1198.47	0.485878
1201.37	0.067337
1204.26	1.18464
1207.15	1.83104
1210.04	0.734447
1212.94	1.32666
1215.83	2.14681
1218.72	1.56408
1221.62	0.655636
1224.51	1.0462
1227.4	1.2678
1230.29	1.39146
1233.19	0.099712
1236.08	0.71957
1238.97	0.356506
1241.86	1.2777
1244.76	2.42934
1247.65	1.69942
1250.54	0.859833
1253.43	0.938755
1256.33	0.764294
1259.22	1.68372
1262.11	2.61923
1265.01	2.25036
1267.9	1.24917
1270.79	0.680851
1273.68	0.685287
1276.58	1.31427
1279.47	1.19782
1282.36	0.193401
1285.25	0.214748
