Measurement: Raman, 532 nm, unoriented, Raman Data Processed
Mineral: Sodalite
Rruff sample: R060405
Ideal chemistry: Na_4_Si_3_Al_3_O_12_Cl
Locality: Cerro Sapo, Cochabamba Department, Bolivia
Source: Marcus Origlieri
Description: Blue massive associated with brown burbankite R050646
Measured chemistry: Na_8.00_Al_6.00_Si_6.00_O_24_Cl_2_
Raman shift (cm-1)	intensity
200.958	4.89404
203.851	11.7441
206.743	5.604
209.636	6.65747
212.529	12.3433
215.421	19.1011
218.314	14.8203
221.207	15.114
224.1	28.7188
226.992	22.1223
229.885	36.3518
232.778	43.6895
235.67	45.3098
238.563	41.406
241.456	55.8789
244.348	76.9827
247.241	102.526
250.134	119.98
253.026	151.027
255.919	195.313
258.812	239.871
261.705	292.764
264.597	298.096
267.49	255.553
270.383	192.627
273.276	126.723
276.168	108.903
279.061	87.1279
281.954	86.6934
284.846	77.4036
287.739	111.715
290.632	151.945
293.524	179.774
296.417	153.384
299.31	87.7339
302.202	34.5928
305.095	15.0154
307.988	14.6838
310.881	8.63428
313.773	5.54981
316.666	13.7434
319.559	6.8291
322.451	10.9085
325.344	2.71021
328.237	1.02954
331.13	10.2112
334.022	2.33691
336.915	0.311035
339.808	2.56665
342.7	0.633545
345.593	0.376953
348.486	3.59717
351.378	10.2417
354.271	0.061523
357.164	1.92285
360.057	1.67627
362.949	1.19385
365.842	4.68066
368.735	0.839111
371.627	3.271
374.52	8.56299
377.413	7.21509
380.305	9.51196
383.198	5.56763
386.091	2.89941
388.984	4.13159
391.876	4.32495
394.769	1.29419
397.662	8.6792
400.554	10.7283
403.447	19.3604
406.34	19.0252
409.233	24.3699
412.125	20.6091
415.018	2.07227
417.911	10.1619
420.803	13.8379
423.696	10.4824
426.589	14.4058
429.481	42.5764
432.374	48.5071
435.267	58.281
438.159	80.1296
441.052	105.07
443.945	159.078
446.838	244.253
449.73	386.471
452.623	543.627
455.516	776.162
458.409	1118.47
461.301	1542.67
464.194	1766.48
467.087	1366.24
469.979	811.695
472.872	467.111
475.765	298.63
478.657	202.239
481.55	143.048
484.443	106.105
487.336	89.5767
490.228	77.8667
493.121	75.905
496.014	71.2266
498.906	60.6177
501.799	43.0469
504.692	20.3525
507.584	7.10791
510.477	13.4268
513.37	10.0281
516.263	17.3774
519.155	12.3706
522.048	0.680664
524.941	10.8198
527.833	14.5896
530.726	2.05322
533.619	8.78662
536.511	5.80689
539.404	2.31055
542.297	1.30786
545.19	4.11963
548.082	2.26025
550.975	8.8479
553.868	3.29541
556.76	3.84082
559.653	1.59302
562.546	6.60327
565.438	2.00757
568.331	8.27075
571.224	9.74023
574.117	8.2229
577.009	4.54321
579.902	3.01343
582.795	6.50903
585.687	7.90234
588.58	12.1116
591.473	15.3445
594.365	10.8481
597.258	5.39014
600.151	17.6177
603.044	13.1472
605.936	9.75366
608.829	18.2297
611.722	7.07935
614.614	15.3081
617.507	9.91797
620.4	3.15039
623.293	7.41211
626.185	20.1912
629.078	6.23901
631.971	4.40137
634.863	1.71973
637.756	6.43921
640.649	9.24634
643.542	23.2239
646.434	13.2651
649.327	2.51538
652.22	0.455566
655.112	7.12378
658.005	13.2344
660.898	18.947
663.79	14.2268
666.683	6.94751
669.576	0.045898
672.468	15.8059
675.361	18.2192
678.254	9.10034
681.147	8.93677
684.039	17.9485
686.932	15.2742
689.825	21.8071
692.717	20.3201
695.61	14.9519
698.503	13.3225
701.396	17.6743
704.288	22.9936
707.181	25.4602
710.074	18.0068
712.966	19.021
715.859	22.3909
718.752	16.2109
721.644	14.8435
724.537	15.5935
727.43	15.0796
730.323	16.884
733.215	26.6782
736.108	27.5129
739.001	21.9253
741.893	8.83569
744.786	13.7979
747.679	5.18823
750.572	5.84399
753.464	2.21118
756.357	7.72363
759.25	6.23779
762.142	8.64526
765.035	5.08643
767.928	0.240234
770.82	7.03516
773.713	5.94995
776.606	1.41016
779.499	8.08862
782.391	10.8215
785.284	3.80127
788.177	0.978027
791.069	10.4241
793.962	3.10718
796.855	7.8396
799.747	15.9148
802.64	16.5273
805.533	3.30103
808.426	5.94409
811.318	0.765869
814.211	7.38208
817.104	5.99439
819.996	11.9785
822.889	3.6145
825.782	4.10327
828.674	0.961914
831.567	2.66065
834.46	0.533447
837.353	1.521
840.245	0.821533
843.138	9.05713
846.031	1.34668
848.923	4.37256
851.816	2.60693
854.709	4.35913
857.601	0.769531
860.494	2.02148
863.387	4.21851
866.28	5.31445
869.172	5.58081
872.065	15.1799
874.958	15.3584
877.851	15.4512
880.743	12.9912
883.636	13.4556
886.529	8.80322
889.421	15.1555
892.314	13.407
895.207	14.0398
898.099	8.50317
900.992	12.6956
903.885	11.2471
906.778	3.70825
909.67	14.831
912.563	15.9604
915.456	6.85669
918.348	10.7175
921.241	13.416
924.134	9.5127
927.026	21.189
929.919	10.9392
932.812	17.6221
935.705	22.7625
938.597	8.9519
941.49	3.83008
944.383	7.53394
947.275	2.75366
950.168	8.63599
953.061	19.793
955.953	29.5149
958.846	44.2895
961.739	68.1846
964.631	86.1333
967.524	101.815
970.417	109.134
973.31	128.047
976.202	147.644
979.095	201.84
981.988	307.304
984.88	465.212
987.773	498.017
990.666	285.545
993.559	138.409
996.451	81.3635
999.344	64.6543
1002.24	40.4004
1005.13	30.2944
1008.02	35.9836
1010.91	27.1541
1013.81	24.8794
1016.7	14.3623
1019.59	11.6956
1022.49	6.1394
1025.38	2.15185
1028.27	6.53174
1031.16	6.33667
1034.06	18.0986
1036.95	15.7234
1039.84	12.6409
1042.73	8.40234
1045.63	20.9343
1048.52	29.623
1051.41	43.7634
1054.31	55.6777
1057.2	67.6265
1060.09	68.0249
1062.98	59.8987
1065.88	46.6533
1068.77	37.0007
1071.66	35.6931
1074.55	22.7412
1077.45	19.8198
1080.34	21.5286
1083.23	8.8125
1086.12	6.19946
1089.02	2.88281
1091.91	0.560303
1094.8	3.50488
1097.7	1.677
1100.59	4.32007
1103.48	1.64404
1106.37	2.96252
1109.27	11.4557
1112.16	10.6794
1115.05	4.64575
1117.94	9.9967
1120.84	7.55261
1123.73	6.96558
1126.62	8.39636
1129.52	13.0844
1132.41	5.86316
1135.3	17.0593
1138.19	4.65051
1141.09	6.08752
1143.98	8.27319
1146.87	9.01111
1149.77	14.5377
1152.66	3.18872
1155.55	1.63977
1158.44	2.75867
1161.34	9.05603
1164.23	7.39075
1167.12	6.60486
1170.01	0.521973
1172.91	6.63782
1175.8	5.16003
1178.69	4.052
1181.58	7.88611
1184.48	8.76562
1187.37	6.46509
1190.26	2.40149
1193.15	3.70935
1196.05	7.54211
1198.94	6.5603
1201.83	8.53906
1204.73	4.0885
1207.62	1.08447
1210.51	10.9861
1213.4	5.84485
1216.3	7.95996
1219.19	9.55102
1222.08	2.32043
1224.97	4.47095
1227.87	8.4397
1230.76	2.55212
1233.65	2.19958
1236.55	2.51306
1239.44	1.30994
1242.33	0.236816
1245.22	3.11646
1248.12	0.840332
1251.01	7.46777
1253.9	1.88025
1256.8	0.142212
1259.69	7.98108
1262.58	9.4635
1265.47	4.65564
1268.37	7.64514
1271.26	5.40686
1274.15	8.96143
1277.04	4.97583
1279.94	7.66492
1282.83	0.399048
1285.72	6.97656
1288.61	4.32495
1291.51	6.64148
1294.4	12.0765
1297.29	0.37793
1300.18	1.56848
