Measurement: Raman, 532 nm, unoriented, Raman Data Processed
Mineral: Sodalite
Rruff sample: R060355
Ideal chemistry: Na_4_Si_3_Al_3_O_12_Cl
Locality: Mont Saint-Hilaire, Quebec, Canada
Source: Herb Obodda
Description: Clear colorless fragment
Measured chemistry: (Na_0.98_[box]_0.02_)_8_Al_6.00_(Si_0.99_Al_0.01_)_6_O_24_Cl_1.82_
Raman shift (cm-1)	intensity
157.988	0
160.881	28.215
163.774	94.5546
166.667	127.951
169.559	106.727
172.452	84.1382
175.345	70.3985
178.237	55.2201
181.13	39.4382
184.023	22.5276
186.916	14.167
189.808	9.11276
192.701	5.23148
195.594	3.90204
198.486	1.70773
201.379	2.79819
204.272	4.08047
207.164	1.60666
210.057	6.09485
212.95	0.979706
215.843	1.94913
218.735	4.94333
221.628	14.0091
224.521	20.1209
227.413	35.4111
230.306	51.9636
233.199	64.2547
236.091	71.8395
238.984	71.3221
241.877	90.3344
244.769	120.099
247.662	155.167
250.555	203.093
253.448	265.332
256.34	340.835
259.233	412.603
262.126	455.507
265.018	439.792
267.911	360.752
270.804	278.203
273.697	213.769
276.589	173.639
279.482	163.362
282.375	159.482
285.267	173.841
288.16	208.471
291.053	268.211
293.945	293.545
296.838	224.314
299.731	129.462
302.623	67.2288
305.516	43.8267
308.409	27.4656
311.302	21.1123
314.194	17.4783
317.087	9.9133
319.98	11.105
322.872	10.2456
325.765	5.74322
328.658	4.72055
331.55	5.79419
334.443	5.47244
337.336	1.21903
340.229	4.44604
343.121	0.832428
346.014	1.88937
348.907	1.30322
351.799	2.39169
354.692	0.535736
357.585	0.445953
360.478	0.215118
363.37	7.41428
366.263	6.65662
369.156	6.71378
372.048	9.26434
374.941	2.61603
377.834	0.955963
380.726	2.53976
383.619	1.75561
386.512	2.78351
389.404	1.41559
392.297	0.767273
395.19	1.76776
398.083	2.22183
400.975	5.46549
403.868	10.5711
406.761	21.0417
409.653	33.4737
412.546	26.8064
415.439	13.7063
418.332	13.7351
421.224	12.1994
424.117	19.4663
427.01	26.4313
429.902	43.3626
432.795	56.3321
435.688	68.828
438.58	93.3029
441.473	134.717
444.366	217.063
447.259	355.267
450.151	544.294
453.044	793.689
455.937	1156.48
458.829	1715.22
461.722	2360.81
464.615	2477.33
467.507	1700.76
470.4	954.891
473.293	553.799
476.185	348.945
479.078	236.632
481.971	167.74
484.864	125.608
487.756	98.5798
490.649	75.7285
493.542	63.6693
496.434	58.2368
499.327	49.5423
502.22	27.3345
505.113	18.9669
508.005	13.4742
510.898	10.8678
513.791	10.1458
516.683	11.3036
519.576	9.42957
522.469	7.62079
525.361	6.23859
528.254	6.34628
531.147	3.96826
534.04	3.46439
536.932	3.96381
539.825	0.238129
542.718	10.6732
545.61	1.68378
548.503	2.0593
551.396	1.1637
554.288	2.07147
557.181	0.297089
560.074	0.082245
562.967	3.26239
565.859	0.500092
568.752	0.206512
571.645	0.26947
574.537	2.72574
577.43	0.934875
580.323	3.40152
583.216	6.50546
586.108	8.44974
589.001	9.49411
591.894	10.7703
594.786	12.342
597.679	9.60471
600.572	12.265
603.464	13.1295
606.357	15.0475
609.25	16.5239
612.142	14.4367
615.035	10.9613
617.928	8.41168
620.821	12.0997
623.713	8.07983
626.606	7.70856
629.499	4.81714
632.391	1.87952
635.284	2.75745
638.177	3.52884
641.069	1.13593
643.962	0.572693
646.855	0.475739
649.747	2.04456
652.64	1.62744
655.533	3.70761
658.426	1.65735
661.318	0.483307
664.211	2.02426
667.104	3.89871
669.996	0.802399
672.889	2.80249
675.782	2.51105
678.674	8.89374
681.567	3.97671
684.46	5.78973
687.353	2.8866
690.245	3.36969
693.138	0.071777
696.031	5.88855
698.923	4.09399
701.816	3.89169
704.709	3.35944
707.601	4.95062
710.494	6.64807
713.387	8.90277
716.28	8.34949
719.172	8.62469
722.065	14.0436
724.958	17.5092
727.85	28.4478
730.743	39.1238
733.636	50.8761
736.529	44.0274
739.421	24.1642
742.314	14.7852
745.207	9.64636
748.099	4.84988
750.992	4.41843
753.885	2.24353
756.777	1.92673
759.67	3.49124
762.563	1.36679
765.456	3.06827
768.348	1.23178
771.241	1.93179
774.134	3.6907
777.026	2.39725
779.919	2.68439
782.812	4.465
785.704	2.21933
788.597	2.21497
791.49	3.20108
794.383	6.32428
797.275	3.17538
800.168	0.650909
803.061	3.81162
805.953	3.07013
808.846	1.18247
811.739	1.15128
814.631	2.28018
817.524	2.27884
820.417	0.858459
823.309	2.81305
826.202	0.283295
829.095	1.09903
831.988	1.48386
834.88	1.33798
837.773	3.63782
840.666	0.328644
843.558	1.63873
846.451	4.64679
849.344	1.40262
852.236	1.72287
855.129	5.06824
858.022	3.22052
860.915	4.25192
863.807	8.47
866.7	7.19061
869.593	5.73746
872.485	6.457
875.378	7.30246
878.271	5.01993
881.163	4.07101
884.056	3.0148
886.949	1.95044
889.842	2.40146
892.734	1.6409
895.627	0.755768
898.52	0.713226
901.412	0.200806
904.305	0.242218
907.198	0.740417
910.091	2.72931
912.983	4.65213
915.876	7.83517
918.769	11.6256
921.661	17.2004
924.554	18.4388
927.447	14.1515
930.339	10.7865
933.232	2.64832
936.125	5.47269
939.018	4.44241
941.91	1.22946
944.803	1.65891
947.696	11.798
950.588	20.4731
953.481	32.0421
956.374	48.0683
959.266	72.8405
962.159	109.497
965.052	147.641
967.944	167.057
970.837	166.432
973.73	188.321
976.623	210.632
979.515	277.991
982.408	420.418
985.301	618.512
988.193	645.554
991.086	389.364
993.979	187.229
996.871	96.7104
999.764	62.9128
1002.66	45.8282
1005.55	30.8002
1008.44	31.8158
1011.34	27.4158
1014.23	21.2866
1017.12	13.5378
1020.01	7.72739
1022.91	3.3609
1025.8	0.503113
1028.69	0.846771
1031.58	0.255249
1034.48	0.507202
1037.37	1.55762
1040.26	1.09442
1043.15	3.56354
1046.05	9.59552
1048.94	14.1875
1051.83	26.2402
1054.73	36.7457
1057.62	48.3346
1060.51	45.2922
1063.4	44.395
1066.3	31.2325
1069.19	22.8743
1072.08	16.0611
1074.97	9.35205
1077.87	8.97946
1080.76	5.02982
1083.65	3.50183
1086.55	1.20215
1089.44	2.10593
1092.33	2.272
1095.22	3.20355
1098.12	0.869568
1101.01	0.261597
1103.9	1.10001
1106.79	1.75348
1109.69	0.019806
1112.58	4.89273
1115.47	0.858978
1118.37	3.88696
1121.26	0.933838
1124.15	0.976135
1127.04	0.88678
1129.94	2.84454
1132.83	4.53546
1135.72	6.15082
1138.61	3.87946
1141.51	3.01971
1144.4	0.941162
1147.29	0.498108
1150.18	4.81061
1153.08	5.0202
1155.97	2.99481
1158.86	3.56122
1161.76	6.08893
1164.65	3.55158
1167.54	2.11005
1170.43	1.28784
1173.33	1.47168
1176.22	1.77185
1179.11	0.122498
1182	0.0354
1184.9	4.46417
1187.79	4.16229
1190.68	3.02588
1193.58	0.71814
1196.47	3.03986
1199.36	2.22003
1202.25	2.14734
1205.15	1.73126
1208.04	0.536316
1210.93	2.1004
1213.82	7.03937
1216.72	2.86932
1219.61	4.05481
1222.5	1.92657
1225.39	2.68951
1228.29	8.1759
1231.18	5.58447
1234.07	4.49854
1236.97	2.82471
1239.86	5.46423
1242.75	3.80536
1245.64	1.2395
1248.54	1.80774
1251.43	2.25696
1254.32	5.5235
1257.21	5.32013
1260.11	0.017456
1263	4.22595
1265.89	4.43744
1268.79	3.17725
1271.68	2.79559
1274.57	1.70148
1277.46	2.60535
1280.36	0.733398
1283.25	1.49664
1286.14	3.56354
1289.03	1.68897
1291.93	2.64667
1294.82	0.479919
1297.71	0.081604
1300.61	1.99939
