Measurement: Raman, 532 nm, unoriented, Raman Data Processed
Mineral: Sodalite
Rruff sample: R040141
Ideal chemistry: Na_4_Si_3_Al_3_O_12_Cl
Locality: Princess Sodalite mine, Bancroft, Ontario, Canada
Source: University of Arizona Mineral Museum
Description: Blue grains in a coarsely crystalline rock
Measured chemistry: Na_7.86_Al_6.00_Si_6.03_O_24_Cl_2.02_
Raman shift (cm-1)	intensity
143.394	0
146.287	40.2722
149.18	43.0682
152.072	63.4167
154.965	162.938
157.858	275.103
160.75	520.203
163.643	862.644
166.536	1095.8
169.429	780.094
172.321	459.229
175.214	363.916
178.107	336.882
180.999	257.139
183.892	170.001
186.785	118.336
189.678	69.2356
192.57	44.2129
195.463	36.8614
198.356	0.633148
201.248	2.44034
204.141	5.42871
207.034	12.8211
209.926	21.3683
212.819	15.5931
215.712	22.7418
218.605	10.0062
221.497	2.50745
224.39	27.9244
227.283	82.9354
230.175	120.684
233.068	138.514
235.961	135.275
238.853	98.7166
241.746	130.821
244.639	192.848
247.532	285.433
250.424	453.939
253.317	640.443
256.21	921.311
259.102	1197.99
261.995	1432.95
264.888	1411.77
267.781	1141.98
270.673	818.389
273.566	551.255
276.459	426.176
279.351	356.572
282.244	398.829
285.137	492.565
288.029	711.078
290.922	1048.07
293.815	1303.94
296.707	1048.46
299.6	498.303
302.493	224.28
305.386	144.237
308.278	103.181
311.171	103.694
314.064	103.869
316.956	118.519
319.849	147.504
322.742	172.687
325.635	193.214
328.527	209.973
331.42	199.901
334.313	222.706
337.205	212.025
340.098	171.838
342.991	166.779
345.883	145.968
348.776	122.465
351.669	90.4318
354.562	109.205
357.454	80.5266
360.347	76.6223
363.24	76.4896
366.132	77.2239
369.025	64.5636
371.918	66.8462
374.81	41.1852
377.703	5.63953
380.596	7.76135
383.488	18.1186
386.381	16.9702
389.274	25.1814
392.167	11.7646
395.059	3.3468
397.952	0.436646
400.845	39.2889
403.737	105.861
406.63	202.768
409.523	404.286
412.416	260.63
415.308	115.191
418.201	78.9646
421.094	61.3484
423.986	94.8743
426.879	136.484
429.772	182.814
432.664	237.411
435.557	222.847
438.45	245.737
441.343	379.431
444.235	555.378
447.128	858.823
450.021	1405.63
452.913	2322.81
455.806	3689.71
458.699	5689.2
461.591	8174.84
464.484	9286.37
467.377	6576.12
470.27	3534.86
473.162	2014.14
476.055	1249.9
478.948	806.484
481.84	550.111
484.733	412.043
487.626	352.926
490.519	329.174
493.411	364.109
496.304	438.438
499.197	431.239
502.089	180.852
504.982	92.0592
507.875	21.8585
510.767	1.33807
513.66	12.7298
516.553	25.1166
519.446	16.9365
522.338	1.74439
525.231	20.0967
528.124	3.87176
531.016	34.1602
533.909	10.9346
536.802	0.100403
539.694	9.05579
542.587	1.39319
545.48	2.0672
548.372	4.55908
551.265	7.28638
554.158	12.093
557.051	6.39972
559.943	5.82599
562.836	9.91858
565.729	11.3139
568.621	10.0184
571.514	15.3361
574.407	10.1399
577.299	1.87543
580.192	10.1851
583.085	29.5092
585.978	20.9874
588.87	9.51416
591.763	20.2071
594.656	32.1989
597.548	44.0453
600.441	62.9016
603.334	71.3187
606.227	101.346
609.119	124.197
612.012	72.3079
614.905	36.6783
617.797	45.6312
620.69	28.3399
623.583	15.5401
626.476	1.94415
629.368	18.3402
632.261	2.7063
635.154	4.73285
638.046	12.3989
640.939	20.8335
643.832	0.62616
646.724	16.3289
649.617	10.0079
652.51	69.8898
655.403	41.1629
658.295	37.9258
661.188	56.9573
664.081	49.6387
666.973	65.1962
669.866	69.3344
672.759	60.7473
675.651	81.4852
678.544	84.7878
681.437	59.5118
684.33	74.7365
687.222	84.9957
690.115	55.7261
693.008	73.4191
695.9	66.4122
698.793	74.9621
701.686	75.0669
704.578	60.1098
707.471	75.761
710.364	88.836
713.256	79.0345
716.149	90.1786
719.042	78.9774
721.935	89.6103
724.827	129.926
727.72	180.175
730.613	238.085
733.505	325.012
736.398	255.189
739.291	161.701
742.183	96.135
745.076	72.0446
747.969	65.8212
750.862	28.1656
753.754	14.5327
756.647	9.77124
759.54	38.6138
762.432	15.8282
765.325	6.24725
768.218	13.3605
771.111	0.764099
774.003	19.0942
776.896	14.2913
779.789	7.00763
782.681	0.185242
785.574	5.27374
788.467	13.0241
791.359	27.0837
794.252	3.18146
797.145	5.06909
800.038	18.304
802.93	8.76508
805.823	3.48676
808.716	26.1464
811.608	8.06934
814.501	40.0378
817.394	22.2413
820.286	17.5491
823.179	18.2109
826.072	2.53888
828.965	3.47766
831.857	11.4253
834.75	16.1834
837.643	17.4437
840.535	29.6985
843.428	27.8031
846.321	47.1761
849.213	45.4075
852.106	38.563
854.999	51.0441
857.891	47.8052
860.784	58.7826
863.677	58.5239
866.57	55.2692
869.462	56.204
872.355	65.5202
875.248	60.4053
878.14	59.0502
881.033	58.2787
883.926	23.9601
886.819	42.8498
889.711	21.0861
892.604	26.6937
895.497	9.76459
898.389	28.5957
901.282	9.08569
904.175	10.3724
907.067	9.27502
909.96	22.5681
912.853	12.6325
915.746	14.1476
918.638	5.26074
921.531	1.73914
924.424	6.61438
927.316	7.83191
930.209	34.7748
933.102	7.38061
935.995	44.8485
938.887	32.9526
941.78	42.0039
944.673	74.3149
947.565	72.384
950.458	122.239
953.351	145.859
956.243	275.429
959.136	424.781
962.029	680.124
964.922	950.376
967.814	950.706
970.707	919.618
973.6	820.73
976.492	818.198
979.385	1127.31
982.278	1844.63
985.17	2675.65
988.063	2449.9
990.956	1087.94
993.848	455.671
996.741	241.338
999.634	153.818
1002.53	140.866
1005.42	141.817
1008.31	181.202
1011.21	213.711
1014.1	171.469
1016.99	78.9623
1019.88	12.904
1022.78	23.2925
1025.67	3.25452
1028.56	14.6053
1031.45	3.53906
1034.35	17.3273
1037.24	24.9154
1040.13	71.8407
1043.02	119.677
1045.92	204.21
1048.81	364.048
1051.7	600.506
1054.6	901.178
1057.49	1098.03
1060.38	1004.23
1063.27	727.926
1066.17	499.468
1069.06	348.035
1071.95	236.787
1074.84	177.692
1077.74	122.471
1080.63	106.998
1083.52	116.35
1086.41	74.9454
1089.31	71.2425
1092.2	39.7682
1095.09	21.8011
1097.99	50.7291
1100.88	39.6459
1103.77	7.94873
1106.66	25.9854
1109.56	25.8185
1112.45	5.40601
1115.34	14.1614
1118.23	8.02893
1121.13	23.9965
1124.02	3.5481
1126.91	6.9231
1129.81	0.90332
1132.7	2.99634
1135.59	21.8256
1138.48	1.14026
1141.38	32.3433
1144.27	20.3933
1147.16	35.5922
1150.05	5.14575
1152.95	24.8156
1155.84	18.0836
1158.73	44.4761
1161.62	13.7966
1164.52	28.7799
1167.41	45.3815
1170.3	21.7858
1173.2	20.5685
1176.09	24.26
1178.98	42.0343
1181.87	8.18665
1184.77	30.1394
1187.66	20.4696
1190.55	38.8236
1193.44	21.3618
1196.34	31.8555
1199.23	0.655396
1202.12	17.0929
1205.02	12.9688
1207.91	29.9104
1210.8	39.4337
1213.69	25.1068
1216.59	7.2146
1219.48	7.28479
1222.37	21.6794
1225.27	25.0121
1228.16	14.2434
1231.05	36.7812
1233.94	35.6964
1236.84	29.3173
1239.73	17.8531
1242.62	21.509
1245.51	27.9122
1248.41	22.7105
1251.3	52.5332
1254.19	22.9381
1257.08	52.1491
1259.98	17.9893
1262.87	28.9675
1265.76	15.6284
1268.65	22.8928
1271.55	8.34644
1274.44	16.9117
1277.33	40.3336
1280.23	43.964
1283.12	16.1351
1286.01	23.4989
1288.9	39.3069
1291.8	6.82275
1294.69	21.3181
1297.58	0.028809
