Measurement: Raman, 780 nm, unoriented, Raman Data Processed
Mineral: Sodalite
Rruff sample: R060435
Ideal chemistry: Na_4_Si_3_Al_3_O_12_Cl
Locality: Koksha Valley, Badakshan Province, Afghanistan
Source: Herb Obodda
Description: Pale purple fragment
Measured chemistry: (Na_0.99_K_0.01_)_8_Al_6.00_Si_6.00_O_24_Cl_2_
Raman shift (cm-1)	intensity
174.976	0
177.869	0.941925
180.761	3.8429
183.654	2.74979
186.547	2.14581
189.439	1.63937
192.332	1.88171
195.225	1.91202
198.117	1.36917
201.01	2.50186
203.903	6.80453
206.796	1.22025
209.688	2.56409
212.581	0.467957
215.474	3.33664
218.366	2.707
221.259	5.47418
224.152	5.72806
227.044	10.1064
229.937	14.3261
232.83	18.9616
235.722	20.5358
238.615	22.5474
241.508	30.451
244.401	38.4612
247.293	45.8128
250.186	59.0663
253.079	64.4797
255.971	79.3601
258.864	97.0162
261.757	106.257
264.649	101.252
267.542	84.8188
270.435	64.4925
273.328	52.2266
276.22	52.433
279.113	44.1149
282.006	45.1036
284.898	50.571
287.791	55.7929
290.684	73.131
293.576	70.8617
296.469	48.8781
299.362	22.4293
302.255	10.2307
305.147	7.6907
308.04	2.62765
310.933	3.12207
313.825	1.28522
316.718	0.541779
319.611	0.958069
322.503	0.986206
325.396	3.90781
328.289	2.74985
331.182	0.569305
334.074	0.2565
336.967	6.26849
339.86	2.0939
342.752	1.58676
345.645	0.841156
348.538	8.17654
351.43	8.13202
354.323	9.19574
357.216	13.3681
360.108	12.1356
363.001	9.95337
365.894	8.49338
368.787	11.7209
371.679	8.18518
374.572	1.94849
377.465	2.45312
380.357	0.728699
383.25	1.93945
386.143	0.123901
389.036	0.413147
391.928	0.687378
394.821	4.78302
397.714	1.39661
400.606	2.52948
403.499	1.04755
406.392	3.0025
409.284	8.1662
412.177	5.53198
415.07	6.50324
417.962	5.45685
420.855	8.57678
423.748	8.71753
426.641	12.6893
429.533	15.6195
432.426	16.7088
435.319	29.1273
438.211	30.6469
441.104	50.3872
443.997	87.4811
446.889	140.344
449.782	190.406
452.675	237.206
455.567	305.101
458.46	411.315
461.353	554.553
464.246	576.878
467.138	408.189
470.031	222.399
472.924	129.162
475.816	80.3734
478.709	56.1797
481.602	40.9222
484.495	31.1557
487.387	24.397
490.28	18.585
493.173	15.6589
496.065	17.8742
498.958	10.322
501.851	11.5844
504.743	11.2891
507.636	7.03357
510.529	1.01843
513.422	1.99164
516.314	4.66003
519.207	2.19763
522.1	0.513245
524.992	1.0152
527.885	0.408386
530.778	2.284
533.67	2.51697
536.563	3.61963
539.456	0.174866
542.348	1.28784
545.241	1.87518
548.134	1.39508
551.027	1.22229
553.919	1.59552
556.812	0.020081
559.705	3.88818
562.597	1.23059
565.49	2.55701
568.383	4.19385
571.275	2.89996
574.168	1.29633
577.061	4.6969
579.954	5.25934
582.846	0.245972
585.739	3.32898
588.632	1.10754
591.524	4.57721
594.417	6.96436
597.31	9.74982
600.202	3.01874
603.095	5.41046
605.988	8.02295
608.881	6.97003
611.773	10.2092
614.666	6.89117
617.559	3.62628
620.451	6.93018
623.344	3.99774
626.237	5.87042
629.129	4.48883
632.022	4.89874
634.915	5.83063
637.808	7.35718
640.7	5.12335
643.593	1.11749
646.486	4.6001
649.378	6.95862
652.271	2.76306
655.164	4.20752
658.056	4.3125
660.949	2.88452
663.842	2.28137
666.735	3.3385
669.627	0.205933
672.52	0.588623
675.413	8.04919
678.305	3.91345
681.198	2.20325
684.091	4.8833
686.983	6.81433
689.876	4.38415
692.769	2.729
695.662	0.098145
698.554	2.91638
701.447	6.22082
704.34	6.12781
707.232	5.86462
710.125	6.99194
713.018	3.59778
715.91	5.14233
718.803	6.95532
721.696	7.65698
724.588	10.7395
727.481	11.34
730.374	14.9452
733.266	13.3977
736.159	10.7098
739.052	7.09363
741.945	6.20813
744.837	8.64075
747.73	3.83594
750.623	5.49268
753.515	0.748901
756.408	0.150757
759.301	0.190674
762.193	0.296875
765.086	4.97888
767.979	10.3492
770.872	4.82275
773.764	0.081665
776.657	1.60974
779.55	0.87207
782.442	1.57056
785.335	1.60315
788.228	1.45703
791.12	10.1497
794.013	10.5718
796.906	0.637817
799.799	4.09595
802.691	5.48828
805.584	14.2776
808.477	9.95288
811.369	9.03503
814.262	7.46399
817.155	10.1046
820.048	14.9182
822.94	10.8001
825.833	5.19397
828.726	10.1825
831.618	12.0273
834.511	5.77795
837.404	7.18823
840.296	5.09399
843.189	14.318
846.082	5.12817
848.975	13.6771
851.867	9.92297
854.76	2.7345
857.653	6.28186
860.545	7.86096
863.438	10.6688
866.331	15.4064
869.223	10.9392
872.116	7.98303
875.009	12.9534
877.901	4.46948
880.794	11.4708
883.687	13.4331
886.58	26.7302
889.472	15.4254
892.365	2.95984
895.258	6.61316
898.15	5.69287
901.043	3.71423
903.936	0.956299
906.828	8.58093
909.721	9.78772
912.614	6.45569
915.506	2.63245
918.399	9.46094
921.292	3.34436
924.185	3.73144
927.077	0.461182
929.97	0.5802
932.863	6.79126
935.755	4.58936
938.648	5.13745
941.541	6.21899
944.433	6.72998
947.326	7.65064
950.219	10.4331
953.112	11.5127
956.004	21.6213
958.897	28.948
961.79	38.0857
964.682	39.773
967.575	49.9116
970.468	50.9995
973.361	55.3713
976.253	53.3003
979.146	70.1067
982.039	104.866
984.931	142.721
987.824	111.923
990.717	48.6814
993.609	23.2402
996.502	6.13306
999.395	10.47
1002.29	5.12085
1005.18	6.11377
1008.07	6.49316
1010.97	4.24023
1013.86	1.04907
1016.75	7.00659
1019.64	5.06396
1022.54	2.40088
1025.43	6.90723
1028.32	0.787598
1031.21	17.3176
1034.11	1.69067
1037	20.3879
1039.89	21.6033
1042.79	32.0298
1045.68	16.2375
1048.57	32.2581
1051.46	17.1423
1054.36	31.3416
1057.25	39.7893
1060.14	38.6301
1063.03	34.5295
1065.93	22.0176
1068.82	32.4116
1071.71	28.1475
1074.61	14.8154
1077.5	5.99927
1080.39	21.0708
1083.28	14.655
1086.18	11.8772
1089.07	35.5947
1091.96	32.5769
1094.85	10.5398
1097.75	4.49536
1100.64	3.44019
1103.53	13.3494
1106.42	13.2615
1109.32	28.3818
1112.21	3.09717
1115.1	3.65381
1117.99	2.26025
1120.89	7.85938
1123.78	3.65308
1126.67	12.2097
1129.57	12.804
1132.46	2.80396
1135.35	10.3928
1138.24	17.1294
1141.14	19.9497
1144.03	15.3235
1146.92	24.3611
1149.82	7.34961
1152.71	15.1704
1155.6	16.0447
1158.49	9.61182
1161.39	17.9675
1164.28	18.283
1167.17	26.3315
1170.06	15.4192
1172.96	44.5767
1175.85	17.3777
1178.74	43.7568
1181.63	25.7888
1184.53	11.6445
1187.42	17.9744
1190.31	16.3789
1193.21	26.3433
1196.1	28.4761
1198.99	23.9988
1201.88	11.3372
1204.78	36.9736
1207.67	7.86426
1210.56	2.90308
1213.45	6.65454
1216.35	7.64917
1219.24	1.34106
1222.13	3.50952
1225.03	55.6685
1227.92	11.2764
1230.81	0.745605
1233.7	4.60498
1236.6	21.5703
1239.49	14.4771
1242.38	12.9453
1245.27	20.2256
1248.17	11.6016
1251.06	23.9253
1253.95	2.06885
1256.85	7.74072
1259.74	34.6968
1262.63	28.3467
1265.52	24.5542
1268.42	20.978
1271.31	7.9668
1274.2	23.3247
1277.09	21.5972
1279.99	0.490723
1282.88	3.07568
