Measurement: Raman, 532 nm, unoriented, Raman Data Processed
Mineral: Sodalite
Rruff sample: R060435
Ideal chemistry: Na_4_Si_3_Al_3_O_12_Cl
Locality: Koksha Valley, Badakshan Province, Afghanistan
Source: Herb Obodda
Description: Pale purple fragment
Measured chemistry: (Na_0.99_K_0.01_)_8_Al_6.00_Si_6.00_O_24_Cl_2_
Raman shift (cm-1)	intensity
151.782	0
154.675	0.15884
157.567	7.80076
160.46	12.8737
163.353	25.2459
166.245	42.6426
169.138	49.818
172.031	30.9146
174.924	22.6565
177.816	18.2509
180.709	18.1251
183.602	13.2256
186.494	5.84495
189.387	4.9718
192.28	4.35609
195.173	1.76574
198.065	1.62324
200.958	0.16926
203.851	0.976715
206.743	0.714914
209.636	0.034657
212.529	0.2799
215.421	0.160412
218.314	0.586107
221.207	2.40719
224.1	3.94172
226.992	4.95771
229.885	6.86468
232.778	10.7907
235.67	12.3768
238.563	11.3237
241.456	12.1414
244.348	17.6112
247.241	24.324
250.134	32.9184
253.026	44.8408
255.919	57.7635
258.812	76.4083
261.705	92.8515
264.597	102.992
267.49	94.5978
270.383	74.6749
273.276	55.8781
276.168	47.0924
279.061	38.8932
281.954	38.6128
284.846	37.6454
287.739	44.1343
290.632	56.8617
293.524	70.6662
296.417	67.0727
299.31	42.9754
302.202	19.2994
305.095	9.02589
307.988	3.52476
310.881	2.92757
313.773	2.53541
316.666	0.73653
319.559	1.16106
322.451	0.093384
325.344	2.61361
328.237	1.4837
331.13	2.34849
334.022	2.00583
336.915	4.09849
339.808	3.78388
342.7	3.72934
345.593	2.91885
348.486	2.58953
351.378	3.67181
354.271	3.43784
357.164	2.88716
360.057	2.17657
362.949	2.65472
365.842	3.03701
368.735	3.09812
371.627	3.11414
374.52	0.820602
377.413	0.969524
380.305	0.247841
383.198	0.062153
386.091	1.66532
388.984	1.27144
391.876	1.69359
394.769	1.10796
397.662	0.491035
400.554	0.421597
403.447	2.54699
406.34	3.86268
409.233	8.44074
412.125	10.4422
415.018	5.48362
417.911	5.13956
420.803	3.59136
423.696	5.75648
426.589	9.06216
429.481	8.64911
432.374	12.9566
435.267	16.7738
438.159	17.8723
441.052	24.8382
443.945	39.4769
446.838	60.6435
449.73	101.915
452.623	151.775
455.516	219.463
458.409	325.805
461.301	469.857
464.194	599.154
467.087	565.792
469.979	352.275
472.872	191.98
475.765	115.025
478.657	73.8375
481.55	49.7442
484.443	36.0292
487.336	25.6692
490.228	20.7257
493.121	18.3321
496.014	16.8747
498.906	15.7687
501.799	11.5855
504.692	6.57261
507.584	3.53557
510.477	3.20187
513.37	2.49256
516.263	3.52855
519.155	3.07927
522.048	1.86049
524.941	1.23821
527.833	0.684864
530.726	2.20906
533.619	2.04256
536.511	2.1212
539.404	2.16032
542.297	1.38363
545.19	1.26335
548.082	0.896864
550.975	1.27504
553.868	0.089499
556.76	1.81729
559.653	1.45804
562.546	0.774441
565.438	0.103251
568.331	0.517841
571.224	0.029442
574.117	0.3643
577.009	1.01834
579.902	0.662907
582.795	0.190628
585.687	2.64646
588.58	1.56799
591.473	0.817495
594.365	1.8799
597.258	2.41212
600.151	3.19653
603.044	2.21004
605.936	2.64538
608.829	3.35957
611.722	3.18575
614.614	2.88978
617.507	3.52232
620.4	3.94801
623.293	2.45619
626.185	0.549593
629.078	1.59187
631.971	1.0797
634.863	0.62005
637.756	0.869032
640.649	1.08605
643.542	0.590269
646.434	1.12094
649.327	0.447464
652.22	0.217741
655.112	0.615564
658.005	2.36285
660.898	1.62899
663.79	1.30893
666.683	2.16437
669.576	0.963606
672.468	2.96235
675.361	1.58218
678.254	2.17874
681.147	1.98351
684.039	3.30352
686.932	3.82834
689.825	1.95559
692.717	2.75658
695.61	3.84363
698.503	2.27804
701.396	3.53534
704.288	2.72504
707.181	3.38372
710.074	3.33104
712.966	3.57495
715.859	3.03208
718.752	3.5335
721.644	3.91802
724.537	4.47069
727.43	6.81791
730.323	8.61606
733.215	10.5909
736.108	12.039
739.001	8.20766
741.893	4.0806
744.786	2.65783
747.679	2.25438
750.572	0.056498
753.464	0.669804
756.357	0.235298
759.25	0.008795
762.142	0.288219
765.035	2.14612
767.928	1.0198
770.82	0.6791
773.713	0.997942
776.606	0.226669
779.499	0.283264
782.391	0.31189
785.284	0.681173
788.177	0.241329
791.069	1.23673
793.962	0.51037
796.855	0.13714
799.747	0.65134
802.64	1.76415
805.533	0.347233
808.426	1.67594
811.318	1.2543
814.211	0.153004
817.104	0.183258
819.996	1.16194
822.889	1.07973
825.782	0.818861
828.674	2.9404
831.567	0.776678
834.46	0.921989
837.353	0.96381
840.245	1.41408
843.138	1.18453
846.031	0.115484
848.923	1.75534
851.816	0.490572
854.709	0.977087
857.601	3.25396
860.494	2.3725
863.387	1.42807
866.28	2.70829
869.172	1.7089
872.065	3.19381
874.958	3.19855
877.851	1.63073
880.743	2.32651
883.636	2.69627
886.529	1.22745
889.421	0.644951
892.314	0.660391
895.207	0.508867
898.099	0.350338
900.992	0.428452
903.885	1.08582
906.778	0.378027
909.67	0.525354
912.563	0.695702
915.456	0.417328
918.348	0.041952
921.241	1.04339
924.134	1.21186
927.026	0.12694
929.919	0.128447
932.812	1.76032
935.705	1.17608
938.597	1.87251
941.49	3.12294
944.383	1.80952
947.275	2.71799
950.168	4.00839
953.061	5.40031
955.953	9.0118
958.846	14.2832
961.739	22.1151
964.631	34.5559
967.524	40.3143
970.417	39.9128
973.31	44.1828
976.202	48.1153
979.095	63.6144
981.988	96.3103
984.88	155.713
987.773	192.655
990.666	113.522
993.559	46.3708
996.451	24.1578
999.344	13.7755
1002.24	9.38884
1005.13	8.44925
1008.02	6.63943
1010.91	7.37498
1013.81	6.66916
1016.7	4.18266
1019.59	0.772617
1022.49	0.349251
1025.38	0.067677
1028.27	0.585705
1031.16	0.123089
1034.06	0.353975
1036.95	0.092907
1039.84	2.22087
1042.73	3.90447
1045.63	6.70903
1048.52	11.9123
1051.41	15.7128
1054.31	23.3308
1057.2	31.3291
1060.09	32.0045
1062.98	23.3236
1065.88	16.0734
1068.77	12.0719
1071.66	9.17894
1074.55	6.63447
1077.45	3.71616
1080.34	3.47543
1083.23	2.1753
1086.12	2.494
1089.02	0.556799
1091.91	1.36828
1094.8	1.07637
1097.7	0.404667
1100.59	1.50986
1103.48	0.114647
1106.37	0.643019
1109.27	0.269806
1112.16	0.579653
1115.05	0.855354
1117.94	1.05427
1120.84	0.189793
1123.73	1.08668
1126.62	1.35947
1129.52	0.779428
1132.41	0.03714
1135.3	0.351393
1138.19	1.68523
1141.09	0.20083
1143.98	0.411602
1146.87	0.071199
1149.77	2.32516
1152.66	1.48771
1155.55	1.08382
1158.44	0.564358
1161.34	2.5175
1164.23	1.16855
1167.12	0.254559
1170.01	1.03613
1172.91	0.653351
1175.8	0.469313
1178.69	1.42683
1181.58	1.04393
1184.48	2.04499
1187.37	0.602264
1190.26	1.16241
1193.15	2.10887
1196.05	0.806181
1198.94	1.85295
1201.83	0.940468
1204.73	0.02438
1207.62	1.39243
1210.51	1.09827
1213.4	1.87929
1216.3	2.34283
1219.19	1.22815
1222.08	0.917837
1224.97	0.084448
1227.87	0.16156
1230.76	1.16769
1233.65	0.249929
1236.55	2.07019
1239.44	0.18482
1242.33	1.60688
1245.22	1.51939
1248.12	0.714853
1251.01	1.44524
1253.9	1.48517
1256.8	1.2486
1259.69	1.17685
1262.58	1.4595
1265.47	1.47364
1268.37	2.81862
1271.26	2.65377
1274.15	1.20869
1277.04	1.74095
1279.94	1.37811
1282.83	1.63366
1285.72	0.491947
1288.61	0.227184
1291.51	1.01763
1294.4	0.849995
1297.29	0.620436
1300.18	0.26211
