Measurement: Raman, 780 nm, unoriented, Raman Data Processed
Mineral: Sodalite
Rruff sample: R060436
Ideal chemistry: Na_4_Si_3_Al_3_O_12_Cl
Locality: Koksha Valley, Budakshan Province, Afghanistan
Source: Herb Obodda
Description: Pale blue fragment
Measured chemistry: (Na_0.99_K_0.01_)_8_Al_6.00_Si_6.00_O_24_Cl_2.00_
Raman shift (cm-1)	intensity
134.478	0
137.371	0.05307
140.263	0.968719
143.156	4.21289
146.049	17.8673
148.941	19.4748
151.834	15.8916
154.727	27.7391
157.62	46.4575
160.512	87.5651
163.405	150.6
166.298	164.592
169.19	108.198
172.083	61.8914
174.976	46.7563
177.869	33.1942
180.761	21.5616
183.654	11.1849
186.547	5.38078
189.439	1.43507
192.332	0.554962
195.225	0.282867
198.117	2.42311
201.01	1.27756
203.903	0.895844
206.796	4.41351
209.688	1.57979
212.581	3.11449
215.474	6.32135
218.366	5.9203
221.259	11.6767
224.152	16.0774
227.044	27.9963
229.937	35.5622
232.83	43.6155
235.722	44.3221
238.615	49.4485
241.508	58.9386
244.401	76.2458
247.293	92.2367
250.186	117.129
253.079	146.947
255.971	184.703
258.864	227.037
261.757	256.163
264.649	249.252
267.542	204.141
270.435	156.739
273.328	124.503
276.22	101.393
279.113	89.9559
282.006	82.9703
284.898	86.1582
287.791	101.401
290.684	135.44
293.576	157.478
296.469	129.321
299.362	71.1174
302.255	39.3497
305.147	24.132
308.04	14.0131
310.933	9.83537
313.825	5.92038
316.718	4.31833
319.611	5.06682
322.503	3.99747
325.396	1.90457
328.289	2.49448
331.182	1.23441
334.074	2.60213
336.967	0.410507
339.86	0.881256
342.752	0.486694
345.645	0.173584
348.538	1.26317
351.43	1.76829
354.323	1.72353
357.216	2.60632
360.108	1.18137
363.001	1.93703
365.894	4.64767
368.787	6.62289
371.679	5.71413
374.572	3.15987
377.465	0.54097
380.357	1.07869
383.25	1.35141
386.143	2.20918
389.036	1.35748
391.928	0.517181
394.821	0.801971
397.714	1.42581
400.606	3.42015
403.499	5.48479
406.392	17.5318
409.284	33.3484
412.177	21.2084
415.07	7.51674
417.962	6.16238
420.855	10.5723
423.748	11.9582
426.641	19.6594
429.533	25.5509
432.426	37.0047
435.319	45.5962
438.211	64.6826
441.104	95.8982
443.997	152.624
446.889	239.583
449.782	324.304
452.675	436.602
455.567	632.477
458.46	980.561
461.353	1362.14
464.246	1440.88
467.138	949.089
470.031	534.637
472.924	321.289
475.816	204.867
478.709	142.716
481.602	105.947
484.495	85.3972
487.387	69.5932
490.28	56.3251
493.173	51.7659
496.065	54.3525
498.958	44.9521
501.851	25.7536
504.743	14.1658
507.636	12.9483
510.529	9.50342
513.422	6.63068
516.314	5.44289
519.207	4.50474
522.1	4.00554
524.992	3.97203
527.885	5.06651
530.778	1.90338
533.67	1.12443
536.563	1.80747
539.456	0.427147
542.348	0.894081
545.241	0.010605
548.134	0.660233
551.027	0.652985
553.919	0.942566
556.812	0.404121
559.705	2.6328
562.597	1.91526
565.49	0.805763
568.383	0.174713
571.275	0.362801
574.168	0.711098
577.061	1.08452
579.954	2.84088
582.846	1.37945
585.739	5.1725
588.632	6.61484
591.524	10.1697
594.417	13.6429
597.31	13.0092
600.202	14.0928
603.095	16.1057
605.988	15.9666
608.881	14.3353
611.773	9.72381
614.666	9.13345
617.559	9.18832
620.451	6.59998
623.344	4.85414
626.237	4.09951
629.129	2.35934
632.022	3.88657
634.915	4.41608
637.808	1.45209
640.7	1.61886
643.593	1.71297
646.486	2.2464
649.378	2.75611
652.271	1.17307
655.164	3.57899
658.056	2.90718
660.949	1.09905
663.842	1.85031
666.735	1.55259
669.627	0.462761
672.52	1.77973
675.413	2.15198
678.305	1.30086
681.198	2.82987
684.091	2.75854
686.983	2.8801
689.876	1.39178
692.769	2.73817
695.662	2.05566
698.554	0.960739
701.447	1.05593
704.34	2.10286
707.232	2.77787
710.125	2.89838
713.018	4.09519
715.91	5.64238
718.803	5.61475
721.696	7.43929
724.588	8.25195
727.481	10.0979
730.374	14.9312
733.266	18.9192
736.159	14.6807
739.052	11.312
741.945	8.18012
744.837	4.20969
747.73	1.9599
750.623	3.66701
753.515	0.36087
756.408	1.26188
759.301	1.85223
762.193	0.358917
765.086	0.24688
767.979	0.693886
770.872	1.52487
773.764	0.439301
776.657	0.155388
779.55	1.70296
782.442	0.04319
785.335	2.4706
788.228	2.9891
791.12	2.02871
794.013	2.08595
796.906	0.114052
799.799	5.61608
802.691	9.13617
805.584	14.7238
808.477	19.1423
811.369	24.2955
814.262	17.6851
817.155	8.20955
820.048	5.12566
822.94	3.15372
825.833	1.1733
828.726	5.35564
831.618	0.984261
834.511	3.30489
837.404	2.63993
840.296	4.10852
843.189	2.03959
846.082	1.9851
848.975	2.63494
851.867	4.74611
854.76	5.23205
857.653	4.82596
860.545	3.77056
863.438	4.37939
866.331	5.11496
869.223	2.86272
872.116	6.12538
875.009	4.96127
877.901	3.86888
880.794	3.42984
883.687	3.25453
886.58	2.96139
889.472	1.74979
892.365	2.42126
895.258	0.175369
898.15	0.731995
901.043	0.110939
903.936	0.772377
906.828	0.319351
909.721	2.06681
912.614	1.7012
915.506	0.278854
918.399	0.655136
921.292	0.518677
924.185	0.012482
927.077	0.907242
929.97	0.748512
932.863	2.01216
935.755	2.04818
938.648	3.61641
941.541	5.1224
944.433	6.11977
947.326	5.86891
950.219	9.87461
953.112	16.006
956.004	23.662
958.897	33.2158
961.79	48.1392
964.682	63.109
967.575	70.7661
970.468	77.5643
973.361	87.6517
976.253	100.17
979.146	134.76
982.039	217.12
984.931	331.263
987.824	290.947
990.717	151.497
993.609	78.4609
996.502	49.0497
999.395	32.0962
1002.29	25.4494
1005.18	17.9402
1008.07	18.6471
1010.97	18.4109
1013.86	13.8093
1016.75	6.63597
1019.64	3.56294
1022.54	0.723587
1025.43	0.453552
1028.32	0.568268
1031.21	0.523293
1034.11	4.66052
1037	10.6819
1039.89	8.37144
1042.79	9.59583
1045.68	15.0321
1048.57	22.8638
1051.46	30.4611
1054.36	42.4617
1057.25	52.375
1060.14	49.3242
1063.03	44.2657
1065.93	42.4012
1068.82	29.4516
1071.71	21.1694
1074.61	16.1523
1077.5	10.2547
1080.39	4.53773
1083.28	3.71935
1086.18	3.07391
1089.07	1.74223
1091.96	2.59971
1094.85	0.728462
1097.75	1.75291
1100.64	0.545921
1103.53	0.590424
1106.42	1.14095
1109.32	0.839462
1112.21	0.748856
1115.1	2.9303
1117.99	2.6226
1120.89	1.92223
1123.78	1.85184
1126.67	1.20183
1129.57	1.73264
1132.46	0.789185
1135.35	3.03784
1138.24	1.68778
1141.14	1.22638
1144.03	1.08434
1146.92	1.18497
1149.82	2.8128
1152.71	1.53714
1155.6	2.34502
1158.49	3.29695
1161.39	1.68907
1164.28	3.35255
1167.17	1.38667
1170.06	2.02267
1172.96	4.20763
1175.85	1.70297
1178.74	2.75802
1181.63	2.00175
1184.53	0.326942
1187.42	1.90991
1190.31	2.28484
1193.21	2.29266
1196.1	2.33665
1198.99	2.44601
1201.88	2.14861
1204.78	1.61363
1207.67	3.75855
1210.56	1.76814
1213.45	0.102417
1216.35	0.05368
1219.24	1.81335
1222.13	0.931671
1225.03	1.6542
1227.92	0.100418
1230.81	6.15388
1233.7	1.95444
1236.6	1.86771
1239.49	1.29371
1242.38	1.45396
1245.27	1.93903
1248.17	1.51882
1251.06	1.20818
1253.95	4.27684
1256.85	3.12379
1259.74	2.16245
1262.63	3.77661
1265.52	0.163513
1268.42	0.880074
1271.31	1.24762
1274.2	1.9413
1277.09	2.72144
1279.99	0.782043
1282.88	0.603546
