Measurement: Raman, 532 nm, unoriented, Raman Data Processed
Mineral: Sodalite
Rruff sample: R060416
Ideal chemistry: Na_4_Si_3_Al_3_O_12_Cl
Locality: Koksha Valley, Badakshan Province, Afghanistan
Source: Herb Obodda
Description: Colorless fragment
Measured chemistry: Na_8.00_Al_6.00_Si_6.00_O_24_Cl_2.00_
Raman shift (cm-1)	intensity
132.497	0
135.872	3.3234
139.247	0.194447
142.622	0.465864
145.996	3.01588
149.371	3.04762
152.746	10.4493
156.121	23.4502
159.496	39.114
162.871	67.8187
166.245	102.36
169.62	94.8879
172.995	57.8624
176.37	46.9243
179.745	39.1817
183.119	20.1872
186.494	11.3122
189.869	7.17697
193.244	5.69584
196.619	2.66983
199.994	1.02187
203.369	1.24368
206.743	0.911594
210.118	1.54608
213.493	1.60193
216.868	0.311821
220.243	3.44865
223.617	7.72785
226.992	12.8217
230.367	22.1904
233.742	23.8815
237.117	25.7197
240.492	28.4767
243.866	39.1226
247.241	56.2066
250.616	80.2083
253.991	113.394
257.366	153.694
260.74	201.353
264.115	230.457
267.49	198.831
270.865	148.856
274.24	111.651
277.615	90.2996
280.989	87.3807
284.364	91.3103
287.739	107.097
291.114	134.423
294.489	155.156
297.863	105.523
301.238	47.3458
304.613	23.8278
307.988	15.1753
311.363	9.41312
314.738	5.32053
318.112	5.85611
321.487	2.05018
324.862	1.04543
328.237	0.064644
331.612	2.28039
334.986	2.85949
338.361	1.27134
341.736	0.958214
345.111	0.157955
348.486	2.19962
351.861	1.6108
355.235	0.291122
358.61	2.22942
361.985	0.50259
365.36	2.30999
368.735	5.31986
372.11	5.1919
375.484	0.382526
378.859	0.000408
382.234	0.308666
385.609	0.328609
388.984	0.010006
392.358	0.891087
395.733	0.108891
399.108	2.21256
402.483	4.70794
405.858	10.0455
409.233	25.4378
412.607	19.8411
415.982	4.92373
419.357	5.80141
422.732	6.29625
426.107	12.2577
429.481	18.7854
432.856	23.1812
436.231	28.3314
439.606	40.0146
442.981	64.3777
446.356	108.123
449.73	198.661
453.105	333.091
456.48	521.789
459.855	838.935
463.23	1218.11
466.604	1142.91
469.979	606.142
473.354	305.134
476.729	174.289
480.104	110.302
483.479	73.4936
486.853	49.9693
490.228	39.9425
493.603	38.4559
496.978	40.814
500.353	31.2636
503.728	15.6425
507.102	6.84593
510.477	6.20544
513.852	4.18364
517.227	6.28273
520.602	3.95983
523.976	4.26065
527.351	2.42748
530.726	3.61955
534.101	2.286
537.476	2.2893
540.851	1.6779
544.225	0.106365
547.6	0.192802
550.975	0.112793
554.35	0.921108
557.725	0.888325
561.099	1.06355
564.474	0.781654
567.849	0.284481
571.224	0.617912
574.599	0.420998
577.973	3.5151
581.348	4.13264
584.723	2.35789
588.098	1.08387
591.473	3.38089
594.848	4.06518
598.222	4.79514
601.597	6.98961
604.972	8.48532
608.347	10.8875
611.722	9.35933
615.097	6.54959
618.471	5.56039
621.846	4.08831
625.221	4.09496
628.596	2.83673
631.971	1.3092
635.346	1.81875
638.72	0.872183
642.095	2.33616
645.47	1.59919
648.845	0.252506
652.22	0.511927
655.594	1.64202
658.969	1.43066
662.344	1.08349
665.719	1.02228
669.094	0.614079
672.468	1.03556
675.843	1.27449
679.218	1.76714
682.593	1.90575
685.968	3.63652
689.343	1.41466
692.717	1.1129
696.092	1.7924
699.467	0.739138
702.842	1.34668
706.217	2.71549
709.592	0.651438
712.966	2.41541
716.341	3.08129
719.716	3.81385
723.091	6.95202
726.466	7.36124
729.841	13.4109
733.215	20.908
736.59	19.367
739.965	10.5835
743.34	6.24539
746.715	3.29767
750.089	1.58207
753.464	2.11268
756.839	2.56354
760.214	2.17429
763.589	0.105156
766.963	2.83881
770.338	2.31948
773.713	1.49303
777.088	2.74118
780.463	1.21347
783.838	1.9289
787.212	1.37487
790.587	1.86276
793.962	0.812197
797.337	1.30102
800.712	2.34993
804.087	2.07224
807.461	2.0143
810.836	0.200302
814.211	0.350056
817.586	1.31276
820.961	1.20311
824.335	0.4137
827.71	0.946032
831.085	1.42604
834.46	1.39577
837.835	2.9932
841.21	1.04375
844.584	2.01236
847.959	2.15245
851.334	2.97571
854.709	2.76522
858.084	2.36003
861.458	2.74856
864.833	2.61936
868.208	3.81001
871.583	3.80051
874.958	4.16121
878.333	4.4225
881.707	3.53935
885.082	1.46227
888.457	3.76698
891.832	0.240101
895.207	1.51871
898.582	0.549555
901.956	1.60543
905.331	0.193888
908.706	0.708696
912.081	1.53914
915.456	0.880005
918.83	0.4608
922.205	0.91873
925.58	0.996809
928.955	2.36575
932.33	3.62511
935.705	2.34846
939.079	0.219744
942.454	5.204
945.829	6.7136
949.204	8.23972
952.579	10.5737
955.953	18.9051
959.328	31.2239
962.703	51.3795
966.078	70.9785
969.453	71.6998
972.827	77.8188
976.202	90.4644
979.577	133.297
982.952	236.173
986.327	385.921
989.702	235.01
993.077	80.6219
996.451	37.9128
999.826	23.3728
1003.2	14.967
1006.58	14.7369
1009.95	16.5915
1013.33	16.855
1016.7	5.30767
1020.08	2.27894
1023.45	0.781752
1026.83	0.626369
1030.2	0.050205
1033.57	1.04471
1036.95	0.096741
1040.32	1.27243
1043.7	2.40485
1047.07	9.44475
1050.45	17.7174
1053.82	30.4043
1057.2	38.3256
1060.57	33.0378
1063.95	19.7102
1067.32	10.8851
1070.7	4.9613
1074.07	4.34328
1077.45	3.5704
1080.82	0.9655
1084.2	0.710972
1087.57	0.354258
1090.95	1.24049
1094.32	2.47115
1097.7	0.496906
1101.07	0.605982
1104.45	0.815916
1107.82	0.509706
1111.19	1.14769
1114.57	0.101881
1117.94	2.50015
1121.32	2.24551
1124.69	0.463551
1128.07	3.13981
1131.44	3.91317
1134.82	1.21732
1138.19	2.27019
1141.57	3.40481
1144.94	0.810856
1148.32	0.685226
1151.69	2.09269
1155.07	1.96046
1158.44	1.69571
1161.82	1.54601
1165.19	2.12223
1168.57	1.6173
1171.94	2.79982
1175.32	1.42111
1178.69	2.16689
1182.07	2.36886
1185.44	1.55765
1188.82	2.01214
1192.19	2.1808
1195.57	0.098137
1198.94	2.00007
1202.32	1.66507
1205.69	3.90504
1209.07	2.41809
1212.44	1.98361
1215.82	0.935024
1219.19	2.16147
1222.56	1.03702
1225.94	3.23503
1229.31	0.916962
1232.69	2.56891
1236.06	2.3561
1239.44	1.63894
1242.81	3.38119
1246.19	2.42688
1249.56	1.19548
1252.94	1.8977
1256.31	2.92286
1259.69	2.76473
1263.06	0.799479
1266.44	1.90307
1269.81	1.69325
1273.19	0.301355
1276.56	0.444151
1279.94	0.552441
1283.31	0.980896
1286.69	0.093443
1290.06	0.473862
1293.43	1.08228
1296.81	0.047594
1300.18	0.122095
