Measurement: Raman, 780 nm, unoriented, Raman Data Processed
Mineral: Soddyite
Rruff sample: R060407
Ideal chemistry: (UO_2_)_2_SiO_4_2H_2_O
Locality: Palette, Northern Territory, Australia
Source: American Museum of Natural History
Description: Pale yellow consolidated earthy powder
Measured chemistry: (U_1.00_O_2_)_2_Si_1.00_O_4_Â·2H_2_O
Raman shift (cm-1)	intensity
158.102	0
160.994	9.58374
163.887	10.6829
166.78	9.02197
169.673	0.813477
172.565	6.8374
175.458	14.1045
178.351	34.1182
181.243	56.7639
184.136	63.7388
187.029	68.7148
189.921	51.1523
192.814	41.718
195.707	46.9153
198.6	44.2039
201.492	49.8552
204.385	64.5962
207.278	73.4646
210.17	81.7258
213.063	91.4065
215.956	87.6728
218.848	84.6157
221.741	74.2605
224.634	49.647
227.526	15.6606
230.419	4.39648
233.312	1.22388
236.205	6.00098
239.097	11.1218
241.99	21.8772
244.883	29.1982
247.775	37.0127
250.668	37.283
253.561	36.1484
256.454	32.7871
259.346	29.4011
262.239	39.5339
265.132	42.7043
268.024	60.7715
270.917	77.0215
273.81	87.0925
276.702	91.9946
279.595	103.2
282.488	116.205
285.38	116.179
288.273	111.327
291.166	105.156
294.059	99.3013
296.951	101.892
299.844	86.1873
302.737	88.5818
305.629	79.0237
308.522	59.574
311.415	28.9568
314.308	14.3354
317.2	0.817139
320.093	6.45068
322.986	2.58643
325.878	5.36084
328.771	2.96753
331.664	0.262451
334.556	2.9375
337.449	11.8108
340.342	6.84204
343.234	18.8137
346.127	22.3896
349.02	28.1645
351.913	27.3447
354.805	36.2925
357.698	26.2783
360.591	45.8469
363.483	49.6658
366.376	56.2229
369.269	70.2412
372.161	77.2178
375.054	75.1887
377.947	80.4829
380.839	89.1699
383.732	91.6428
386.625	82.9731
389.518	80.2244
392.41	78.7517
395.303	79.531
398.196	79.8972
401.088	78.2541
403.981	69.6992
406.874	62.6873
409.767	66.2698
412.659	62.2783
415.552	69.3071
418.445	72.9055
421.337	82.0374
424.23	89.9165
427.123	89.5742
430.015	99.1856
432.908	99.7798
435.801	107.008
438.693	118.812
441.586	117.147
444.479	117.8
447.372	112.88
450.264	121.805
453.157	116.809
456.05	119.743
458.942	104.015
461.835	86.4966
464.728	72.7937
467.62	60.6638
470.513	43.2024
473.406	33.1426
476.299	21.7356
479.191	17.5308
482.084	17.7053
484.977	12.2935
487.869	7.13403
490.762	6.76318
493.655	0.571045
496.547	10.5203
499.44	4.74536
502.333	1.03809
505.226	3.20996
508.118	1.04712
511.011	4.04468
513.904	5.73413
516.796	3.43701
519.689	2.60059
522.582	3.74927
525.474	1.82471
528.367	5.13672
531.26	1.63745
534.153	8.76929
537.045	10.3726
539.938	12.2402
542.831	16.5273
545.723	20.9875
548.616	24.3235
551.509	30.9668
554.401	29.9844
557.294	40.7378
560.187	48.6545
563.08	54.1577
565.972	51.6343
568.865	63.8025
571.758	66.4358
574.65	68.7146
577.543	72.1699
580.436	69.6194
583.328	69.7034
586.221	70.8081
589.114	73.3535
592.006	72.1477
594.899	53.0457
597.792	61.1116
600.685	47.8513
603.577	34.5437
606.47	35.0747
609.363	26.3206
612.255	27.4514
615.148	29.5117
618.041	22.5127
620.933	19.4311
623.826	13.9851
626.719	13.9436
629.611	11.01
632.504	5.56348
635.397	5.31567
638.29	7.27588
641.182	1.06738
644.075	3.01856
646.968	3.61401
649.86	8.24902
652.753	8.83935
655.646	9.56616
658.538	15.0859
661.431	12.8008
664.324	21.0625
667.217	20.6152
670.109	29.0564
673.002	35.7283
675.895	38.4492
678.787	47.4917
681.68	34.3516
684.573	37.5276
687.466	39.728
690.358	24.0312
693.251	24.6514
696.144	20.7866
699.036	11.6062
701.929	2.15796
704.822	8.09546
707.714	11.8975
710.607	6.37891
713.5	12.7537
716.393	12.8235
719.285	2.80347
722.178	11.085
725.071	20.8367
727.963	30.8271
730.856	48.2109
733.749	58.1899
736.641	78.4775
739.534	85.7959
742.427	98.2893
745.319	126.815
748.212	135.03
751.105	137.759
753.998	154.845
756.89	166.619
759.783	169.978
762.676	191.08
765.568	195.102
768.461	205.132
771.354	217.976
774.246	233.347
777.139	243.689
780.032	261.342
782.925	272.205
785.817	282.856
788.71	288.018
791.603	291.216
794.495	286.652
797.388	280.936
800.281	286.182
803.173	302.645
806.066	342.981
808.959	378.879
811.851	449.896
814.744	572.253
817.637	707.553
820.53	856.279
823.422	988.637
826.315	1076.16
829.208	1064.01
832.1	887.939
834.993	643.607
837.886	452.025
840.779	334.693
843.671	261.338
846.564	202.278
849.457	146.644
852.349	108.461
855.242	79.5863
858.135	50.0784
861.027	23.631
863.92	12.2293
866.813	0.485596
869.706	8.15063
872.598	6.38147
875.491	8.04968
878.384	8.72082
881.276	7.42151
884.169	4.11084
887.062	2.96435
889.954	2.56873
892.847	6.14807
895.74	12.8197
898.632	6.53394
901.525	16.0924
904.418	16.3468
907.311	17.0709
910.203	26.2081
913.096	24.8867
915.989	24.255
918.881	20.9104
921.774	17.5703
924.667	12.172
927.559	18.1276
930.452	16.6802
933.345	10.7043
936.237	1.88452
939.13	4.51929
942.023	5.56457
944.916	1.33154
947.808	2.74231
950.701	3.18018
953.594	1.53809
956.486	5.02087
959.379	5.51404
962.272	6.26318
965.164	8.29053
968.057	10.0348
970.95	13.9773
973.843	19.5404
976.735	13.7422
979.628	20.197
982.521	22.2927
985.413	15.4783
988.306	27.0217
991.199	22.2118
994.091	22.3563
996.984	29.1106
999.877	30.9038
1002.77	33.3176
1005.66	42.7877
1008.55	55.1977
1011.45	72.1809
1014.34	67.8529
1017.23	80.5593
1020.13	79.597
1023.02	74.7297
1025.91	76.7688
1028.8	62.3435
1031.7	51.0281
1034.59	38.282
1037.48	39.4685
1040.38	32.5063
1043.27	32.2438
1046.16	24.4105
1049.05	23.3212
1051.94	22.8223
1054.84	20.2688
1057.73	16.9276
1060.62	19.0049
1063.52	16.7658
1066.41	19.3922
1069.3	15.6274
1072.19	12.1726
1075.09	17.0967
1077.98	7.98291
1080.87	12.054
1083.77	13.2484
1086.66	6.96521
1089.55	8.81848
1092.44	8.60608
1095.34	4.18445
1098.23	1.06909
1101.12	0.173706
1104.01	2.11792
1106.91	4.68359
1109.8	3.52808
1112.69	1.51038
1115.59	7.97253
1118.48	6.02466
1121.37	3.2738
1124.26	1.42822
1127.16	7.16211
1130.05	3.0592
1132.94	7.03894
1135.83	1.00586
1138.73	7.31079
1141.62	3.31567
1144.51	5.35083
1147.4	7.36707
1150.3	0.148071
1153.19	5.47839
1156.08	14.4285
1158.97	7.50452
1161.87	7.36414
1164.76	13.449
1167.65	4.53821
1170.55	11.535
1173.44	11.0178
1176.33	12.3691
1179.22	13.0713
1182.12	11.8845
1185.01	2.50037
1187.9	6.78345
1190.8	9.66687
1193.69	10.2162
1196.58	12.932
1199.47	14.6586
1202.37	8.53455
1205.26	7.53918
1208.15	11.012
1211.04	6.24536
1213.94	1.91089
1216.83	7.17004
1219.72	3.59583
1222.62	2.09827
1225.51	5.62878
1228.4	6.66992
1231.29	2.36523
1234.18	8.49475
1237.08	11.3715
1239.97	3.99707
1242.86	7.02246
1245.76	8.17541
1248.65	5.56165
1251.54	7.47144
1254.43	5.42481
1257.33	0.192261
1260.22	10.5734
1263.11	4.60962
1266.01	5.22607
1268.9	6.99146
1271.79	7.05103
1274.68	1.99341
1277.58	10.5388
1280.47	6.91406
1283.36	3.16577
