Measurement: Raman, 780 nm, unoriented, Raman Data Processed
Mineral: Soddyite
Rruff sample: R060361
Ideal chemistry: (UO_2_)_2_SiO_4_2H_2_O
Locality: Musonoi Extension, near Kolwezi, Shaba Province, Zaire
Source: Michael Scott
Description: Yellow pyramidal crystals associated with light green malachite and dark green brochantite
Raman shift (cm-1)	intensity
107.925	0
111.3	55.7618
114.675	10.1892
118.05	0.041321
121.424	18.8586
124.799	42.257
128.174	34.1412
131.549	16.6384
134.924	1.12091
138.298	13.0356
141.673	29.3121
145.048	134.231
148.423	263.591
151.798	405.167
155.173	563.595
158.547	729.898
161.922	858.439
165.297	849.493
168.672	706.67
172.047	522.293
175.422	409.55
178.796	372.758
182.171	380.242
185.546	414.558
188.921	428.767
192.296	404.896
195.67	346.531
199.045	303.345
202.42	294.22
205.795	311.827
209.17	376.293
212.544	466.012
215.919	572.904
219.294	625.713
222.669	505.75
226.044	330.093
229.419	201.752
232.793	130.024
236.168	92.9675
239.543	88.0951
242.918	80.9929
246.293	75.0609
249.667	57.0465
253.042	46.3597
256.417	55.6226
259.792	30.8001
263.167	17.5523
266.542	22.4556
269.916	7.27664
273.291	48.8855
276.666	101.795
280.041	165.278
283.416	256.292
286.791	359.466
290.165	435.511
293.54	402.276
296.915	344.68
300.29	347.008
303.665	400.185
307.039	484.425
310.414	504.607
313.789	366.337
317.164	201.86
320.539	98.5609
323.913	39.9821
327.288	7.51175
330.663	1.85684
334.038	1.18655
337.413	2.70007
340.788	9.98828
344.162	14.2337
347.537	17.3586
350.912	19.0196
354.287	20.4738
357.662	18.6701
361.036	13.9128
364.411	5.35019
367.786	4.56656
371.161	2.10341
374.536	1.88222
377.911	0.959091
381.285	0.407074
384.66	8.06523
388.035	1.15382
391.41	0.526199
394.785	4.24577
398.159	2.08217
401.534	5.367
404.909	7.22955
408.284	9.95593
411.659	13.3274
415.034	16.8016
418.408	18.4841
421.783	24.5476
425.158	24.9848
428.533	33.7123
431.908	39.6112
435.282	46.2524
438.657	61.1363
442.032	82.9658
445.407	106.011
448.782	133.058
452.156	162.85
455.531	191.271
458.906	202.519
462.281	169.562
465.656	113.179
469.031	67.7487
472.405	42.8398
475.78	28.2888
479.155	19.2283
482.53	14.3273
485.905	12.1707
489.279	7.07408
492.654	3.11412
496.029	0.421844
499.404	0.700027
502.779	0.010635
506.154	1.13838
509.528	2.66713
512.903	0.307404
516.278	0.473495
519.653	1.25297
523.028	1.25829
526.403	0.967369
529.777	2.64626
533.152	2.18463
536.527	2.73984
539.902	4.41412
543.277	1.26969
546.651	5.22308
550.026	4.47706
553.401	5.20648
556.776	2.68687
560.151	3.8922
563.525	5.08191
566.9	9.94783
570.275	12.4514
573.65	19.5633
577.025	25.75
580.399	33.9509
583.774	39.7445
587.149	54.3046
590.524	71.2385
593.899	62.5671
597.274	34.1589
600.649	16.9291
604.023	10.6322
607.398	7.89233
610.773	7.98116
614.148	5.145
617.523	5.4076
620.897	3.06399
624.272	2.5008
627.647	1.87715
631.022	1.78921
634.397	0.694153
637.771	1.69202
641.146	3.1739
644.521	5.12419
647.896	2.19288
651.271	4.50283
654.646	5.39076
658.02	4.10393
661.395	3.30779
664.77	4.58508
668.145	4.42908
671.52	3.07169
674.894	4.37678
678.269	4.45393
681.644	5.70341
685.019	2.85876
688.394	1.37305
691.769	1.02984
695.143	1.75313
698.518	0.64579
701.893	1.46541
705.268	1.82901
708.643	2.55179
712.018	0.863838
715.392	0.043091
718.767	0.460304
722.142	3.24675
725.517	0.818375
728.891	1.94891
732.266	3.23695
735.641	5.16399
739.016	5.78307
742.391	4.55473
745.766	7.51354
749.14	9.02681
752.515	8.91959
755.89	12.1986
759.265	15.0985
762.64	15.8211
766.014	16.8285
769.389	18.1183
772.764	23.3742
776.139	29.3172
779.514	33.9807
782.889	43.3133
786.263	52.5596
789.638	71.1883
793.013	86.9821
796.388	114.775
799.763	148.164
803.138	197.579
806.512	278.553
809.887	420.264
813.262	681.572
816.637	1077.9
820.012	1515.06
823.386	2123.19
826.761	2871.03
830.136	2910.27
833.511	1720.53
836.886	816.772
840.26	423.778
843.635	241.615
847.01	146.829
850.385	89.353
853.76	54.7315
857.135	34.9719
860.509	17.2751
863.884	8.15053
867.259	1.07001
870.634	1.41437
874.009	5.34717
877.384	2.99169
880.758	0.503212
884.133	3.08374
887.508	6.51633
890.883	10.1485
894.258	20.1606
897.632	25.8848
901.007	28.7327
904.382	34.4598
907.757	46.2265
911.132	39.4233
914.506	18.2975
917.881	6.22448
921.256	3.35446
924.631	2.99367
928.006	0.463799
931.381	0.422363
934.755	0.718391
938.13	1.29095
941.505	1.69857
944.88	1.68509
948.255	4.45405
951.63	3.98093
955.004	3.73122
958.379	3.87537
961.754	6.34826
965.129	6.18637
968.504	7.35166
971.878	9.30319
975.253	10.5224
978.628	10.8485
982.003	13.6084
985.378	16.4422
988.752	14.3609
992.127	16.7552
995.502	20.4963
998.877	24.0059
1002.25	29.5328
1005.63	43.2112
1009	62.964
1012.38	93.7733
1015.75	134.103
1019.13	181.049
1022.5	228.3
1025.88	238.819
1029.25	182.785
1032.62	115.672
1036	73.1197
1039.38	48.2717
1042.75	30.9198
1046.12	19.3109
1049.5	14.7622
1052.87	9.3662
1056.25	5.50549
1059.62	5.56509
1063	1.78758
1066.37	1.74354
1069.75	1.20528
1073.12	1.48241
1076.5	0.033493
1079.87	0.862968
1083.25	0.263618
1086.62	2.14669
1090	0.436592
1093.37	1.45373
1096.75	0.093384
1100.12	0.655045
1103.5	2.1924
1106.87	1.32747
1110.25	0.364647
1113.62	0.881721
1116.99	0.866249
1120.37	0.551468
1123.74	0.929207
1127.12	1.45274
1130.49	3.69172
1133.87	0.512035
1137.24	0.406681
1140.62	2.35751
1143.99	1.06943
1147.37	2.57342
1150.74	2.11429
1154.12	1.70907
1157.49	1.33979
1160.87	2.86494
1164.24	1.95205
1167.62	0.906536
1170.99	1.86801
1174.37	2.20439
1177.74	3.60087
1181.12	1.30346
1184.49	2.31175
1187.87	2.62977
1191.24	3.52713
1194.62	3.76453
1197.99	4.5484
1201.37	2.95142
1204.74	1.80469
1208.12	2.66371
1211.49	2.89645
1214.87	1.85338
1218.24	4.68034
1221.62	3.31401
1224.99	3.1161
1228.37	0.074703
1231.74	2.21065
1235.11	2.33253
1238.49	0.749176
1241.86	0.252895
1245.24	1.14763
1248.61	2.98072
1251.99	0.621304
1255.36	2.44456
1258.74	3.6726
1262.11	2.68454
1265.49	1.93636
1268.86	3.11844
1272.24	1.99488
1275.61	3.26452
1278.99	1.05823
1282.36	0.487289
1285.74	0
