Measurement: Raman, 785 nm, unoriented, Raman Data Processed
Mineral: Sofiite
Rruff sample: R070045
Ideal chemistry: Zn_2_(Se^4+^O_3_)Cl_2_
Locality: Great Tolbachik Eruption (1975-6), Tolbachik Volcano, Kamchatka Peninsula, Russia
Source: Michael Scott
Description: White or colorless thin psuedohexagonal plates, co-type material
Raman shift (cm-1)	intensity
192.663	0
195.556	4.15527
198.449	155.734
201.341	254.057
204.234	314.486
207.127	211.234
210.019	216.927
212.912	100.656
215.805	15.999
218.698	34.3584
221.59	118.13
224.483	140.595
227.376	144.056
230.268	100.547
233.161	172.49
236.054	291.537
238.946	285.112
241.839	298.24
244.732	246.664
247.625	158.294
250.517	103.722
253.41	94.1875
256.303	91.0147
259.195	100.481
262.088	97.7656
264.981	139.769
267.873	259.489
270.766	200.427
273.659	233.707
276.552	315.715
279.444	369.086
282.337	535.648
285.23	686.055
288.122	783.516
291.015	824.367
293.908	890.688
296.8	893.08
299.693	948.825
302.586	783.621
305.479	760.225
308.371	634.007
311.264	511.159
314.157	381.679
317.049	241.356
319.942	145.009
322.835	130.921
325.728	119.299
328.62	197.149
331.513	147.99
334.406	204.05
337.298	26.5371
340.191	85.7881
343.084	6.26758
345.976	61.6133
348.869	42.5557
351.762	70.6982
354.654	53.4277
357.547	83.2734
360.44	5.68945
363.333	44.169
366.225	91.2217
369.118	150.014
372.011	218.337
374.903	368.852
377.796	295.942
380.689	230.675
383.582	202.96
386.474	157.848
389.367	181.303
392.26	122.079
395.152	200.387
398.045	173.952
400.938	313.576
403.83	223.59
406.723	336.468
409.616	307.751
412.509	278.822
415.401	230.991
418.294	105.489
421.187	108.667
424.079	67.2012
426.972	39.9668
429.865	24.501
432.757	18.1885
435.65	16.1143
438.543	30.9941
441.435	95.7188
444.328	14.8877
447.221	130.63
450.114	262.423
453.006	174.524
455.899	293.789
458.792	307.497
461.684	287.453
464.577	299.632
467.47	241.077
470.363	214.578
473.255	273.329
476.148	157.289
479.041	273.402
481.933	147.685
484.826	319.318
487.719	133.847
490.611	276.974
493.504	248.278
496.397	252.909
499.289	242.715
502.182	215.514
505.075	259.387
507.968	149.973
510.86	179.386
513.753	174.99
516.646	170.01
519.538	136.658
522.431	89.5225
525.324	109.963
528.217	61.3184
531.109	161.391
534.002	82.9111
536.895	50.3252
539.787	46.5967
542.68	37.6924
545.573	3.56836
548.466	34.0312
551.358	16.085
554.251	27.7578
557.144	38.3857
560.036	44.6094
562.929	103.772
565.822	91.4853
568.714	37.8291
571.607	48.0986
574.5	12.6279
577.392	96.5772
580.285	91.9453
583.178	35.3281
586.071	50.3047
588.963	66.0176
591.856	52.0547
594.749	107.665
597.641	84.1201
600.534	57.3711
603.427	131.19
606.319	127.897
609.212	84.1543
612.105	37.1357
614.997	112.892
617.89	110.592
620.783	99.8779
623.676	83.6865
626.568	117.818
629.461	140.371
632.354	17.3379
635.246	44.4863
638.139	1.94043
641.032	8.11133
643.924	1.95508
646.817	7.83789
649.71	55.0879
652.603	20.9023
655.495	49.1289
658.388	25.7979
661.281	52.3555
664.173	27.9062
667.066	68.1143
669.959	103.821
672.851	53.5459
675.744	134.29
678.637	195.198
681.53	274.976
684.422	370.122
687.315	382.313
690.208	495.302
693.1	608.855
695.993	624.705
698.886	773.299
701.779	799.558
704.671	907.242
707.564	899.704
710.457	747.248
713.349	634.019
716.242	443.175
719.135	506.17
722.027	564.082
724.92	599.435
727.813	615.72
730.706	718.327
733.598	784.34
736.491	700.143
739.384	519.04
742.276	285.254
745.169	248.154
748.062	169.3
750.954	138.062
753.847	103.841
756.74	43.8789
759.633	216.099
762.525	204.641
765.418	231.142
768.311	284.66
771.203	343.241
774.096	325.78
776.989	314.548
779.881	236.99
782.774	196.689
785.667	45.7051
788.559	78.3379
791.452	34.5947
794.345	115.741
797.238	122.651
800.13	222.691
803.023	432.045
805.916	544.666
808.808	736.676
811.701	910.543
814.594	1232.06
817.486	1529.44
820.379	1707.99
823.272	1762.71
826.165	1681.34
829.057	1522.7
831.95	1456.26
834.843	1624.56
837.735	2043.66
840.628	2838.52
843.521	3680.15
846.413	4490.11
849.306	4543.33
852.199	3804.02
855.092	2837.46
857.984	2095.77
860.877	1300.39
863.77	804.982
866.662	496.834
869.555	310.731
872.448	246.547
875.341	169.345
878.233	38.9092
881.126	43.0635
884.019	10.1729
886.911	44.0371
889.804	36.8984
892.697	18.0586
895.589	18.0303
898.482	5.87988
901.375	74.8379
904.268	1.35059
907.16	49.0615
910.053	48.8545
912.946	13.5371
915.838	47.6514
918.731	65.6201
921.624	98.2139
924.516	78.5908
927.409	27.4736
930.302	38.9277
933.194	54.5869
936.087	17.4814
938.98	69.9502
941.873	86.2978
944.765	133.1
947.658	54.8447
950.551	97.3066
953.443	30.5107
956.336	109.972
959.229	57.3232
962.121	112.993
965.014	53.0938
967.907	30.0371
970.8	67.4873
973.692	77.4932
976.585	50.8887
979.478	92.9356
982.37	67.2744
985.263	40.4219
988.156	71.8262
991.048	93.7197
993.941	45.752
996.834	99.8535
999.727	47.2861
1002.62	110.009
1005.51	40.5772
1008.4	33.707
1011.3	24.584
1014.19	16.2812
1017.08	72.332
1019.98	46.9072
1022.87	23.7695
1025.76	29.2686
1028.65	21.1855
1031.55	26.3213
1034.44	63.1494
1037.33	17.2178
1040.22	38.7168
1043.12	94.4404
1046.01	46.9766
1048.9	105.012
1051.8	6.03809
1054.69	76.75
1057.58	39.9482
1060.47	80.9307
1063.37	116.974
1066.26	101.672
1069.15	152.86
1072.04	150.148
1074.94	130.224
1077.83	110
1080.72	170.504
1083.62	174.269
1086.51	146.64
1089.4	180.761
1092.29	226.681
1095.19	148.13
1098.08	186.538
1100.97	148.444
1103.86	189.707
1106.76	94.71
1109.65	150.064
1112.54	144.355
1115.43	60.6162
1118.33	118.038
1121.22	82.5
1124.11	71.6133
1127.01	7.71973
1129.9	66.7432
1132.79	92.6719
1135.68	119.255
1138.58	91.6309
1141.47	74.1572
1144.36	133.096
1147.25	106.734
1150.15	22.8506
1153.04	8.72168
1155.93	90.6436
1158.83	77.0127
1161.72	64.1289
1164.61	83.4102
1167.5	71.7783
1170.4	3.91406
1173.29	1.58008
