Measurement: Raman, 532 nm, unoriented, Raman Data Processed
Mineral: Sofiite
Rruff sample: R070045
Ideal chemistry: Zn_2_(Se^4+^O_3_)Cl_2_
Locality: Great Tolbachik Eruption (1975-6), Tolbachik Volcano, Kamchatka Peninsula, Russia
Source: Michael Scott
Description: White or colorless thin psuedohexagonal plates, co-type material
Raman shift (cm-1)	intensity
155.484	0
158.859	19.4053
162.234	182.103
165.608	228.031
168.983	397.565
172.358	523.08
175.733	523.724
179.108	702.737
182.482	1010.1
185.857	1178.81
189.232	1286.49
192.607	1240.68
195.982	1059.85
199.357	1107.9
202.731	1095.29
206.106	1035.42
209.481	935.367
212.856	545.02
216.231	224.399
219.606	77.4981
222.98	77.6006
226.355	40.0723
229.73	221.234
233.105	305.704
236.48	413.841
239.854	415.112
243.229	312.307
246.604	82.9199
249.979	26.5068
253.354	10.2373
256.728	68.8818
260.103	7.93652
263.478	130.964
266.853	147.444
270.228	242.726
273.603	432.167
276.977	561.313
280.352	689.122
283.727	884.355
287.102	1174.33
290.477	1418.26
293.851	1590.37
297.226	1712.75
300.601	1622.29
303.976	1472.3
307.351	1156.54
310.726	967.106
314.1	666.509
317.475	493.897
320.85	370.433
324.225	284.467
327.6	257.709
330.974	287.351
334.349	255.424
337.724	239.347
341.099	157.114
344.474	129.519
347.849	5.87012
351.223	78.3535
354.598	40.1074
357.973	14.4414
361.348	31.5518
364.723	180.552
368.098	371.918
371.472	556.845
374.847	698.449
378.222	655.173
381.597	612.445
384.972	480.695
388.346	431.471
391.721	414.977
395.096	501.818
398.471	521.123
401.846	529.121
405.221	580.36
408.595	404.959
411.97	359.521
415.345	257.99
418.72	47.7266
422.094	64.2666
425.469	11.209
428.844	14.5332
432.219	17.4443
435.594	22.1504
438.969	58.2998
442.344	182.468
445.718	425.394
449.093	477.477
452.468	638.982
455.843	765.91
459.218	697.852
462.592	664.622
465.967	633.068
469.342	533.547
472.717	435.106
476.092	458.174
479.466	474.315
482.841	625.865
486.216	611.277
489.591	657.262
492.966	731.42
496.341	738.285
499.715	576.059
503.09	530.697
506.465	473.898
509.84	421.481
513.215	362.836
516.59	365.465
519.964	316.414
523.339	292.533
526.714	217.098
530.089	108.676
533.464	102.818
536.838	92.375
540.213	8.00586
543.588	38.5879
546.963	49.1367
550.338	72.6387
553.712	42.5254
557.087	50.832
560.462	157.75
563.837	4.43359
567.212	81.1445
570.587	94.8242
573.961	112.617
577.336	2.37305
580.711	11.3457
584.086	86.1758
587.461	77.2812
590.835	50.3027
594.21	100.404
597.585	124.631
600.96	143.574
604.335	119.461
607.71	87.0391
611.084	160.664
614.459	116.51
617.834	115.928
621.209	133.566
624.584	87.5469
627.958	24.9199
631.333	37.2656
634.708	36.1348
638.083	50.5586
641.458	14.041
644.833	56.6777
648.207	15.0762
651.582	47.5312
654.957	14.1836
658.332	82.0606
661.707	62.6641
665.082	35.4199
668.456	145.045
671.831	289.422
675.206	477.498
678.581	782.693
681.956	1247.55
685.33	1362.68
688.705	1675.65
692.08	2045.54
695.455	2255.69
698.83	2636.59
702.205	2819.07
705.579	2749
708.954	2383.91
712.329	1803.71
715.704	1386.6
719.079	1518.88
722.453	1551.15
725.828	2034.6
729.203	2336.4
732.578	2447.95
735.953	1955.56
739.327	1150.93
742.702	516.182
746.077	176.19
749.452	80.6758
752.827	99.0352
756.202	70.2207
759.576	137.865
762.951	548.264
766.326	741.014
769.701	830.709
773.076	859.312
776.451	674.561
779.825	316.625
783.2	170.609
786.575	12.4121
789.95	24.6523
793.325	28.8066
796.699	389.894
800.074	874.236
803.449	1563.9
806.824	2371.21
810.199	3261.04
813.573	4532.29
816.948	5551.83
820.323	6201
823.698	6034.45
827.073	5394.07
830.448	5238.57
833.822	5949.57
837.197	8334.79
840.572	12077.9
843.947	16063.8
847.322	18247.6
850.697	15770.6
854.071	11212.5
857.446	7096.05
860.821	4070.81
864.196	2152.68
867.571	1347.35
870.945	641.426
874.32	367.098
877.695	101.531
881.07	5.57031
884.445	110.603
887.819	146.315
891.194	63.4512
894.569	19.2422
897.944	88.5019
901.319	55.8379
904.694	4.02148
908.068	8.1875
911.443	98.2637
914.818	99.6328
918.193	11.7871
921.568	126.752
924.942	218.059
928.317	221.508
931.692	137.221
935.067	168.19
938.442	140.717
941.817	310.022
945.191	232.971
948.566	256.416
951.941	186.631
955.316	262.516
958.691	190.242
962.066	86.9902
965.44	101.904
968.815	184.398
972.19	211.535
975.565	46.9375
978.94	167.291
982.314	39.873
985.689	149.211
989.064	146.025
992.439	162.826
995.814	98.4121
999.188	148.695
1002.56	95.0664
1005.94	90.8574
1009.31	85.4981
1012.69	29.3711
1016.06	68.418
1019.44	41.0684
1022.81	17.6504
1026.19	150.699
1029.56	184.504
1032.94	89.2285
1036.31	100.879
1039.69	96.1719
1043.06	89.6973
1046.44	88.0762
1049.81	160.607
1053.19	56.0332
1056.56	66.9707
1059.93	58.4004
1063.31	7.80859
1066.68	44.4336
1070.06	97.4824
1073.43	29.7227
1076.81	80.0293
1080.18	2.21289
1083.56	68.9082
1086.93	160.603
1090.31	166.754
1093.68	30.1797
1097.06	57.0273
1100.43	183.477
1103.81	133.506
1107.18	86.1914
1110.56	17.6797
1113.93	19.4121
1117.31	145.6
1120.68	9.20312
1124.06	17.2285
1127.43	178.779
1130.81	100.234
1134.18	156.144
1137.56	42.4375
1140.93	29.0566
1144.31	0.107422
1147.68	54.2734
1151.06	96.9492
1154.43	100.391
1157.81	166.83
1161.18	74.6738
1164.56	77.2676
1167.93	56.6016
1171.3	109.637
1174.68	41.7988
1178.05	140.615
1181.43	200.512
1184.8	70.8262
1188.18	152.629
1191.55	41.2344
1194.93	24.1719
1198.3	69.8809
1201.68	23.5684
1205.05	118.062
1208.43	7.59961
1211.8	117.176
1215.18	8.15625
1218.55	6.07812
1221.93	131.389
1225.3	81.2344
1228.68	58.2734
1232.05	147.467
1235.43	28.5254
1238.8	61.4375
1242.17	104.018
1245.55	92.2305
1248.92	157.92
1252.3	129.045
1255.67	94.6152
1259.05	117.598
1262.42	73.4316
1265.8	137.443
1269.17	184.291
1272.55	84.2285
1275.92	81.916
1279.3	0.357422
1282.67	46.7988
1286.05	231.51
1289.42	88.2168
1292.8	93.1133
1296.17	167.807
1299.55	75.6992
1302.92	83.3438
1306.3	31.3438
1309.67	59.6113
1313.05	28.9961
