Measurement: Raman, 532 nm, unoriented, Raman Data Processed
Mineral: Sogdianite
Rruff sample: R050648
Ideal chemistry: KZr_2_(Li_3_Si_12_)O_30_
Locality: Dara-i-Pioz, Tadjikistan
Source: Dmitri Belakyovski
Description: Purple tabular fragment
Measured chemistry: ([box]_1.13_Na_0.87_)_Σ=2_K_1.00_Li_3.00_(Zr_0.76_Fe^3+^_0.73_Ti_0.37_Al_0.14_)_Σ=2_Si_12.00_O_30_ ; Li not measured but estimated by difference and charge balance.
Raman shift (cm-1)	intensity
106.656	0
110.031	6.32351
113.405	4.03895
116.78	96.691
120.155	293.924
123.53	670.452
126.905	1170.38
130.279	1697.04
133.654	1987.38
137.029	1826.02
140.404	1561.14
143.779	1516.24
147.154	2135.29
150.528	2314.39
153.903	1248.29
157.278	857.854
160.653	700.487
164.028	602.644
167.402	557.821
170.777	519.482
174.152	486.257
177.527	445.762
180.902	403.046
184.277	392.519
187.651	330.769
191.026	256.912
194.401	180.128
197.776	159.177
201.151	113.679
204.525	102.041
207.9	71.0912
211.275	41.3178
214.65	12.7996
218.025	16.7439
221.4	14.4284
224.774	8.97961
228.149	22.6499
231.524	11.7944
234.899	5.45172
238.274	7.43451
241.649	48.3691
245.023	86.7014
248.398	156.276
251.773	210.785
255.148	321.877
258.523	463.372
261.897	587.507
265.272	488.265
268.647	328.92
272.022	306.717
275.397	397.137
278.772	488.632
282.146	476.342
285.521	276.327
288.896	71.3445
292.271	0.115112
295.646	0.703613
299.02	40.1527
302.395	2.57922
305.77	13.2703
309.145	27.442
312.52	91.3804
315.895	172.693
319.269	341.754
322.644	552.739
326.019	813.052
329.394	1138.76
332.769	1488.37
336.144	1748.81
339.518	1720.84
342.893	1356.56
346.268	890.772
349.643	550.6
353.018	351.233
356.392	258.784
359.767	192.552
363.142	157.624
366.517	116.7
369.892	125.299
373.267	108.314
376.641	123.764
380.016	158.787
383.391	172.321
386.766	117.502
390.141	25.3827
393.515	8.58868
396.89	34.5868
400.265	22.6446
403.64	7.15271
407.015	11.2464
410.39	49.8361
413.764	79.3294
417.139	151.975
420.514	255.204
423.889	431.988
427.264	683.242
430.639	1089.8
434.013	1711.19
437.388	2572.83
440.763	3489.47
444.138	4535.18
447.513	6090.88
450.887	7532.73
454.262	6484.14
457.637	4002.7
461.012	2673.62
464.387	2184.36
467.762	2067.94
471.136	2055.11
474.511	1743.06
477.886	1177.14
481.261	761.983
484.636	578.633
488.01	498.739
491.385	455.053
494.76	430.916
498.135	371.014
501.51	281.494
504.885	182.671
508.259	99.0856
511.634	44.2334
515.009	27.681
518.384	3.4071
521.759	2.95785
525.134	3.83856
528.508	17.0189
531.883	15.5146
535.258	37.3774
538.633	23.0698
542.008	23.6021
545.382	15.3893
548.757	14.2881
552.132	6.43036
555.507	0.693665
558.882	13.2288
562.256	10.4663
565.631	11.0832
569.006	5.58432
572.381	8.17969
575.756	18.8033
579.131	33.7932
582.505	43.3224
585.88	75.8868
589.255	85.456
592.63	138.515
596.005	154.475
599.38	193.372
602.754	207.996
606.129	205.914
609.504	206.929
612.879	173.184
616.254	134.378
619.629	127.546
623.003	110.504
626.378	131.037
629.753	155.556
633.128	190.663
636.503	218.926
639.877	214.214
643.252	156.518
646.627	119.71
650.002	99.0634
653.377	75.2727
656.751	60.6872
660.126	51.0607
663.501	43.8007
666.876	46.3732
670.251	57.2747
673.626	35.055
677	23.2511
680.375	18.1899
683.75	8.90375
687.125	10.1172
690.5	19.28
693.875	14.321
697.249	10.5356
700.624	11.588
703.999	0.006165
707.374	3.97736
710.749	0.094727
714.124	6.91458
717.498	2.46075
720.873	6.66315
724.248	1.57214
727.623	6.76086
730.998	22.159
734.372	27.4008
737.747	19.7995
741.122	15.4097
744.497	22.8358
747.872	28.0826
751.246	33.0412
754.621	38.1719
757.996	28.7723
761.371	42.6558
764.746	25.2284
768.121	15.2222
771.495	14.4628
774.87	0.432587
778.245	0.14798
781.62	7.49182
784.995	15.4
788.37	0.752258
791.744	15.0595
795.119	31.9168
798.494	37.6805
801.869	53.5692
805.244	88.6518
808.619	108.336
811.993	136.177
815.368	174.614
818.743	219.425
822.118	246.292
825.493	273.045
828.867	278.904
832.242	232.554
835.617	160.939
838.992	141.234
842.367	116.379
845.741	107.639
849.116	74.5738
852.491	70.9198
855.866	47.0649
859.241	46.9785
862.616	25.7709
865.99	18.7605
869.365	12.7542
872.74	7.31342
876.115	5.91367
879.49	0.588287
882.865	9.39642
886.239	2.48843
889.614	12.2251
892.989	13.7337
896.364	10.575
899.739	18.1558
903.113	15.3115
906.488	3.2431
909.863	4.59464
913.238	37.1776
916.613	68.7898
919.987	100.131
923.362	157.281
926.737	222.299
930.112	282.047
933.487	341.98
936.862	414.775
940.236	482.999
943.611	582.52
946.986	697.918
950.361	791.209
953.736	882.335
957.111	952.546
960.485	1006.13
963.86	1084.81
967.235	1121.43
970.61	1173.46
973.985	1218.52
977.36	1287.37
980.734	1391.94
984.109	1566.44
987.484	1739.42
990.859	1842.03
994.234	1834.4
997.608	1760.38
1000.98	1674.26
1004.36	1568.71
1007.73	1411.53
1011.11	1190.11
1014.48	929.774
1017.86	678.292
1021.23	531.453
1024.61	435.498
1027.98	363.876
1031.36	296.05
1034.73	199.815
1038.11	131.819
1041.48	53.1128
1044.86	7.31811
1048.23	21.6204
1051.61	30.8971
1054.98	26.6598
1058.36	10.8116
1061.73	10.249
1065.11	12.627
1068.48	23.2405
1071.85	47.5947
1075.23	70.9549
1078.6	90.2238
1081.98	117.729
1085.35	129.822
1088.73	123.136
1092.1	111.313
1095.48	126.986
1098.85	139.588
1102.23	167.006
1105.6	190.916
1108.98	230.709
1112.35	248.155
1115.73	240.022
1119.1	199.29
1122.48	179.867
1125.85	239.088
1129.23	290.525
1132.6	368.112
1135.98	482.796
1139.35	445.284
1142.73	306.445
1146.1	235.689
1149.47	190.678
1152.85	163.337
1156.22	135.824
1159.6	100.535
1162.97	82.3053
1166.35	51.2383
1169.72	24.9429
1173.1	13.3063
1176.47	9.75073
1179.85	20.1449
1183.22	48.4844
1186.6	41.7216
1189.97	31.1918
1193.35	11.2466
1196.72	6.87061
1200.1	1.98917
1203.47	4.19409
1206.85	15.1122
1210.22	2.33234
1213.6	0.025726
1216.97	17.1825
1220.35	18.1464
1223.72	17.8152
1227.1	26.0524
1230.47	20.072
1233.85	13.5543
1237.22	8.16882
1240.6	6.02014
1243.97	17.3607
1247.35	10.9413
1250.72	18.2834
1254.1	13.895
1257.47	3.47653
1260.84	2.93472
1264.22	4.85681
1267.59	8.51718
1270.97	0.29274
1274.34	7.49803
1277.72	8.14702
1281.09	13.355
1284.47	15.7909
1287.84	11.8158
1291.22	19.4887
1294.59	16.6185
1297.97	13.5975
1301.34	2.92651
