Measurement: Raman, 532 nm, unoriented, Raman Data Processed
Mineral: Sohngeite
Rruff sample: R120117
Ideal chemistry: Ga(OH)_3_
Locality: Tsumeb, Namibia
Source: William W. Pinch
Description: Twinned, pale yellow orthorhombic crystals
Raman shift (cm-1)	intensity
170.524	0
173.416	0.44268
176.309	3.8004
179.202	5.94106
182.094	6.77963
184.987	12.5976
187.88	20.0291
190.773	25.3544
193.665	27.3927
196.558	28.9596
199.451	21.6722
202.343	18.3533
205.236	16.136
208.129	16.4466
211.021	17.6844
213.914	20.1965
216.807	21.5871
219.699	23.2097
222.592	22.7304
225.485	22.0672
228.377	25.104
231.27	26.2524
234.163	29.8936
237.056	35.8607
239.948	42.0779
242.841	49.3699
245.734	61.7654
248.626	75.8318
251.519	88.9245
254.412	106.218
257.305	119.758
260.197	130.642
263.09	130.731
265.983	113.835
268.875	91.9564
271.768	73.8856
274.661	57.6087
277.553	44.7309
280.446	34.4514
283.339	24.9713
286.232	13.2414
289.124	3.09964
292.017	4.03511
294.91	5.39128
297.802	1.58137
300.695	2.71048
303.588	10.9785
306.481	22.0926
309.373	39.9576
312.266	65.3431
315.159	108.176
318.051	194.741
320.944	303.101
323.837	404.08
326.729	527.937
329.622	740.41
332.515	1081.14
335.408	1334.87
338.3	935.884
341.193	462.687
344.086	258.144
346.978	164.27
349.871	109.151
352.764	74.8547
355.656	52.151
358.549	34.5815
361.442	23.0227
364.334	14.9198
367.227	6.89212
370.12	5.20532
373.012	0.946854
375.905	0.9664
378.798	1.65553
381.691	1.1358
384.583	0.215302
387.476	0.493774
390.369	3.39366
393.261	5.06734
396.154	5.98377
399.047	6.94389
401.94	7.73292
404.832	9.43448
407.725	11.0101
410.618	13.0392
413.51	14.9402
416.403	14.6893
419.296	13.0322
422.188	11.5703
425.081	10.0504
427.974	11.1772
430.866	11.1471
433.759	13.0506
436.652	15.2888
439.545	20.8783
442.437	28.1924
445.33	34.0895
448.223	43.1601
451.115	52.0322
454.008	59.2864
456.901	54.9102
459.793	35.5783
462.686	19.7032
465.579	11.1664
468.472	5.27478
471.364	2.32334
474.257	1.76765
477.15	0.407753
480.042	0.176476
482.935	1.10338
485.828	0.276794
488.721	1.26775
491.613	0.784309
494.506	1.7366
497.399	2.55901
500.291	4.108
503.184	4.2421
506.077	3.74046
508.969	4.33663
511.862	4.60697
514.755	5.11792
517.648	3.93455
520.54	4.83461
523.433	4.25259
526.326	3.78082
529.218	4.28398
532.111	3.94884
535.004	2.87504
537.896	0.796219
540.789	0.518227
543.682	0.315811
546.575	0.342621
549.467	0.373329
552.36	0.616211
555.253	0.141533
558.145	0.494904
561.038	1.41019
563.931	1.66393
566.823	0.650063
569.716	1.44281
572.609	1.4343
575.502	1.30624
578.394	1.83015
581.287	1.87996
584.18	3.48733
587.072	3.87256
589.965	4.04719
592.858	3.89056
595.75	3.22741
598.643	3.01804
601.536	3.15585
604.428	3.39938
607.321	1.92646
610.214	2.14288
613.107	1.91602
615.999	2.27944
618.892	1.91984
621.785	0.425354
624.677	1.94868
627.57	0.630318
630.463	0.356682
633.356	1.03928
636.248	0.378845
639.141	0.017189
642.034	0.010796
644.926	0.244339
647.819	1.33496
650.712	1.99841
653.604	3.18868
656.497	5.14146
659.39	8.52055
662.283	11.7169
665.175	15.2397
668.068	18.8882
670.961	22.8262
673.853	24.6827
676.746	24.0911
679.639	20.9899
682.531	19.0581
685.424	15.0691
688.317	12.3387
691.21	10.791
694.102	9.64246
696.995	8.83086
699.888	7.32711
702.78	4.57168
705.673	3.25075
708.566	3.22102
711.458	3.36369
714.351	3.22848
717.244	1.47871
720.136	0.210609
723.029	0.478477
725.922	0.994713
728.815	0.366531
731.707	0.50486
734.6	0.649353
737.493	0.180115
740.385	0.325287
743.278	0.603409
746.171	0.168198
749.063	0.258522
751.956	1.59874
754.849	0.739487
757.742	1.20059
760.634	1.05836
763.527	1.44579
766.42	2.86675
769.312	2.85371
772.205	2.32523
775.098	4.84445
777.99	5.1889
780.883	5.72486
783.776	5.23151
786.669	7.37112
789.561	7.41656
792.454	10.916
795.347	11.7425
798.239	11.5989
801.132	13.4692
804.025	14.0926
806.918	16.2745
809.81	16.443
812.703	17.6391
815.596	18.667
818.488	20.2211
821.381	19.7077
824.274	20.2519
827.166	19.3966
830.059	18.8125
832.952	18.2201
835.845	17.0038
838.737	14.6919
841.63	14.4158
844.523	12.5472
847.415	9.61021
850.308	7.30803
853.201	6.52014
856.093	5.29723
858.986	2.93827
861.879	3.01807
864.771	0.971771
867.664	1.00417
870.557	0.140587
873.45	0.43766
876.342	0.073708
879.235	0.439392
882.128	0.000595
885.02	1.42304
887.913	1.23803
890.806	3.1639
893.698	3.4171
896.591	5.67513
899.484	7.55666
902.377	11.4224
905.269	17.2426
908.162	24.6791
911.055	35.0104
913.947	47.8063
916.84	63.6717
919.733	80.1969
922.625	93.5042
925.518	97.5296
928.411	90.3603
931.304	70.5195
934.196	49.9886
937.089	35.1828
939.982	24.1966
942.875	18.5009
945.767	13.6569
948.66	10.6557
951.553	7.14935
954.445	5.58271
957.338	3.29309
960.231	2.37513
963.123	1.87123
966.016	1.68189
968.909	0.679581
971.802	0.212646
974.694	0.408844
977.587	0.325157
980.48	1.25581
983.372	0.127724
986.265	0.845795
989.158	0.954117
992.05	0.060005
994.943	0.47583
997.836	0.743904
1000.73	0.121506
1003.62	0.287476
1006.51	0.831551
1009.41	1.37933
1012.3	1.96729
1015.19	2.21784
1018.09	1.64011
1020.98	2.90232
1023.87	3.12843
1026.76	3.22939
1029.66	3.42545
1032.55	4.76794
1035.44	5.48734
1038.33	6.42052
1041.23	6.00795
1044.12	5.73328
1047.01	6.7157
1049.9	7.46398
1052.8	6.94239
1055.69	6.52222
1058.58	8.32436
1061.47	9.64823
1064.37	10.4681
1067.26	9.54114
1070.15	10.1246
1073.05	10.9542
1075.94	12.4533
1078.83	13.8511
1081.72	14.3572
1084.62	14.6497
1087.51	16.7076
1090.4	17.4002
1093.3	18.5029
1096.19	18.0877
1099.08	17.4545
1101.97	14.0714
1104.87	12.3298
1107.76	10.1067
1110.65	9.03036
1113.54	7.80631
1116.44	5.69955
1119.33	3.951
1122.22	4.87308
1125.12	2.96717
1128.01	3.50783
1130.9	2.33389
1133.79	2.46437
1136.68	3.51966
1139.58	2.68837
1142.47	2.70149
1145.36	3.13726
1148.26	4.02496
1151.15	2.06117
1154.04	1.87449
1156.93	1.77135
1159.83	1.69579
1162.72	1.6898
1165.61	1.89986
1168.51	0.194817
1171.4	0.14695
1174.29	1.38626
1177.18	0.104134
1180.08	0.235794
1182.97	0.128853
1185.86	1.29588
1188.75	1.43707
1191.65	2.63531
1194.54	4.17393
1197.43	5.25359
1200.33	7.11478
1203.22	6.44533
1206.11	6.88929
1209	7.47021
1211.9	7.97961
1214.79	6.82042
1217.68	4.82026
1220.57	5.59056
1223.47	6.24019
1226.36	4.67603
1229.25	4.42787
1232.14	5.2317
1235.04	3.82452
1237.93	2.38892
1240.82	0.991295
1243.71	1.31738
1246.61	1.69356
1249.5	0.666687
1252.39	1.14502
1255.29	0.749565
1258.18	0.814598
1261.07	1.22344
1263.96	2.74207
1266.86	1.56309
1269.75	1.18229
1272.64	1.20929
1275.54	1.3418
1278.43	0.367104
1281.32	0.332596
1284.21	2.27305
1287.11	1.23975
1290	1.65736
1292.89	1.85548
1295.78	0.025902
1298.68	0.47805
1301.57	0.165077
