Measurement: Raman, 780 nm, unoriented, Raman Data Processed
Mineral: Sohngeite
Rruff sample: R120117
Ideal chemistry: Ga(OH)_3_
Locality: Tsumeb, Namibia
Source: William W. Pinch
Description: Twinned, pale yellow orthorhombic crystals
Raman shift (cm-1)	intensity
140.297	0
143.19	3.96018
146.083	0.526764
148.975	2.1153
151.868	2.36313
154.761	2.92999
157.654	0.089233
160.546	3.08975
163.439	8.38767
166.332	6.62012
169.224	6.82339
172.117	8.73065
175.01	11.4015
177.902	16.7266
180.795	22.8584
183.688	21.6344
186.581	25.9565
189.473	22.9735
192.366	22.2484
195.259	13.9928
198.151	8.85355
201.044	3.4072
203.937	1.52274
206.829	3.03412
209.722	0.015076
212.615	0.386353
215.507	12.0576
218.4	16.3208
221.293	22.1074
224.186	28.4318
227.078	32.443
229.971	41.2495
232.864	50.809
235.756	64.3803
238.649	86.3962
241.542	109.252
244.435	138.479
247.327	175.862
250.22	210.777
253.113	245.051
256.005	291.339
258.898	328.496
261.791	352.32
264.683	327.27
267.576	266.825
270.469	205.314
273.361	155.804
276.254	117.048
279.147	92.2045
282.04	72.8559
284.932	46.925
287.825	19.8457
290.718	1.13394
293.61	6.4277
296.503	4.4978
299.396	6.86548
302.288	28.2958
305.181	56.2569
308.074	100.244
310.967	165.406
313.859	277.205
316.752	486.516
319.645	736.955
322.537	920.684
325.43	1202.43
328.323	1642.31
331.216	2361.15
334.108	3411.52
337.001	3356.24
339.894	1865.53
342.786	932.37
345.679	547.317
348.572	356.634
351.464	237.533
354.357	162.781
357.25	111.705
360.142	70.6093
363.035	43.7402
365.928	26.2666
368.821	12.5869
371.713	4.25098
374.606	0.230225
377.499	5.02615
380.391	1.1463
383.284	0.94281
386.177	3.29153
389.07	12.924
391.962	18.7718
394.855	22.0771
397.748	28.6248
400.64	26.6712
403.533	24.0205
406.426	24.0397
409.318	26.6966
412.211	32.7884
415.104	31.8958
417.997	23.412
420.889	13.2976
423.782	15.2031
426.675	16.8073
429.567	17.1341
432.46	16.6449
435.353	17.7447
438.245	29.3492
441.138	37.3978
444.031	51.0003
446.923	60.697
449.816	75.392
452.709	93.6334
455.602	98.2704
458.494	79.8764
461.387	44.5828
464.28	21.1101
467.172	11.3132
470.065	6.70023
472.958	0.429871
475.851	0.851013
478.743	4.28833
481.636	2.30212
484.529	0.052582
487.421	0.962219
490.314	4.2272
493.207	4.04248
496.099	8.09692
498.992	12.0196
501.885	14.1871
504.777	13.4083
507.67	14.1302
510.563	15.3689
513.456	16.4739
516.348	13.5982
519.241	18.7106
522.134	13.8354
525.026	15.2803
527.919	16.7545
530.812	13.98
533.705	13.055
536.597	6.79361
539.49	2.51495
542.383	2.66589
545.275	1.85043
548.168	1.22815
551.061	0.131989
553.953	4.66592
556.846	3.2356
559.739	2.30295
562.631	4.24008
565.524	6.4028
568.417	5.18939
571.31	4.02075
574.202	5.16293
577.095	5.9769
579.988	7.75238
582.88	6.97421
585.773	7.93722
588.666	6.42133
591.558	6.73672
594.451	4.94464
597.344	5.58823
600.237	6.14438
603.129	0.177124
606.022	3.23981
608.915	5.00757
611.807	1.63397
614.7	5.33304
617.593	4.07175
620.486	1.62561
623.378	2.59226
626.271	5.99298
629.164	2.83771
632.056	1.69464
634.949	1.15393
637.842	0.901886
640.734	0.714783
643.627	1.39438
646.52	2.35596
649.413	2.73026
652.305	2.87213
655.198	5.88892
658.091	9.99683
660.983	18.2898
663.876	21.7136
666.769	28.3994
669.661	35.2234
672.554	41.1942
675.447	43.7452
678.34	39.187
681.232	34.9063
684.125	32.4034
687.018	26.5829
689.91	21.0918
692.803	17.7096
695.696	18.2634
698.588	15.3213
701.481	6.2818
704.374	9.06299
707.266	9.32532
710.159	9.41775
713.052	6.22849
715.945	5.36597
718.837	2.44495
721.73	1.85144
724.623	1.72406
727.515	0.09433
730.408	0.529388
733.301	0.30127
736.193	2.55704
739.086	1.74643
741.979	0.153748
744.872	0.390503
747.764	0.641327
750.657	0.01001
753.55	0.469574
756.442	2.58579
759.335	3.37286
762.228	4.83899
765.12	3.35367
768.013	0.692139
770.906	6.97696
773.799	9.2821
776.691	9.70175
779.584	10.4378
782.477	14.0319
785.369	14.0219
788.262	21.0167
791.155	17.7271
794.048	18.2803
796.94	23.1686
799.833	24.8525
802.726	28.9191
805.618	29.3443
808.511	31.349
811.404	29.5519
814.296	28.8891
817.189	30.2418
820.082	33.0532
822.975	34.4877
825.867	31.4771
828.76	30.4212
831.653	33.5866
834.545	28.2257
837.438	25.6701
840.331	21.0585
843.223	21.0804
846.116	19.6295
849.009	15.4547
851.902	9.20462
854.794	7.60938
857.687	5.57175
860.58	3.75854
863.472	3.02301
866.365	2.91132
869.258	0.816132
872.15	0.044281
875.043	0.308563
877.936	2.59091
880.829	1.44196
883.721	0.756805
886.614	1.51666
889.507	1.96112
892.399	6.01016
895.292	7.21271
898.185	12.0635
901.077	20.6545
903.97	33.4126
906.863	48.5137
909.756	62.9607
912.648	96.2875
915.541	129.122
918.434	166.493
921.326	209.929
924.219	237.007
927.112	236.037
930.005	202.632
932.897	151.801
935.79	101.7
938.683	69.2388
941.575	55.0917
944.468	38.3082
947.361	30.1708
950.253	19.3293
953.146	15.4843
956.039	12.589
958.932	8.77747
961.824	1.64803
964.717	5.86118
967.61	3.40537
970.502	0.987167
973.395	2.09465
976.288	0.548477
979.18	0.114212
982.073	1.17688
984.966	1.74744
987.859	0.236053
990.751	0.031601
993.644	2.51906
996.537	0.197357
999.429	0.017838
1002.32	4.60879
1005.22	5.03223
1008.11	1.90204
1011	2.0417
1013.89	5.20224
1016.78	1.80536
1019.68	3.83412
1022.57	5.76753
1025.46	8.61852
1028.36	7.5894
1031.25	9.12781
1034.14	8.07298
1037.03	10.109
1039.93	6.52959
1042.82	13
1045.71	9.71854
1048.61	10.445
1051.5	12.0929
1054.39	10.9418
1057.28	11.1869
1060.18	13.0793
1063.07	10.8592
1065.96	14.4698
1068.85	17.6821
1071.75	14.8877
1074.64	18.1679
1077.53	21.75
1080.42	23.7414
1083.32	29.8178
1086.21	29.0472
1089.1	30.7534
1092	31.4157
1094.89	26.2473
1097.78	30.424
1100.67	26.7013
1103.57	18.7212
1106.46	20.1493
1109.35	15.2785
1112.24	8.14227
1115.14	10.3223
1118.03	4.23509
1120.92	9.85628
1123.82	8.21591
1126.71	4.30238
1129.6	5.54289
1132.49	7.01921
1135.39	11.2878
1138.28	4.87122
1141.17	9.34815
1144.06	4.2001
1146.96	10.6045
1149.85	12.4725
1152.74	9.27695
1155.63	4.00009
1158.53	11.0801
1161.42	4.71025
1164.31	6.13077
1167.21	2.56839
1170.1	1.98994
1172.99	1.93027
1175.88	4.98381
1178.78	4.27319
1181.67	1.44168
1184.56	0.013245
1187.45	7.44791
1190.35	7.33702
1193.24	8.73698
1196.13	15.2939
1199.03	21.4948
1201.92	20.3215
1204.81	22.7697
1207.7	16.7727
1210.6	18.8931
1213.49	15.0011
1216.38	13.9069
1219.27	10.8125
1222.17	11.0434
1225.06	7.03384
1227.95	8.63187
1230.85	13.3256
1233.74	2.79817
1236.63	7.75395
1239.52	7.01144
1242.42	7.27231
1245.31	7.08612
1248.2	5.23669
1251.09	0.52742
1253.99	7.78905
1256.88	1.72305
1259.77	0.918518
1262.66	0.009933
1265.56	2.81847
1268.45	2.45393
1271.34	1.41365
1274.24	2.96353
1277.13	1.33716
1280.02	4.43021
1282.91	0.141998
