Measurement: Raman, 780 nm, unoriented, Raman Data Processed
Mineral: Sonolite
Rruff sample: R070752
Ideal chemistry: Mn^2+^_9_(SiO_4_)_4_(OH)_2_
Locality: Fujii mine, Wakasa, Fukui Prefecture, Chubu Region, Honshu Island, Japan
Source: Michael Scott
Description: Reddish brown, vitreous, massive. NOTE PHOTO WRONG
Raman shift (cm-1)	intensity
92.6459	18.359
96.0207	15.6154
99.3956	4.63379
102.77	3.74527
106.145	4.70285
109.52	1.71658
112.895	0.094788
116.27	2.81851
119.644	7.52762
123.019	11.0072
126.394	13.4588
129.769	20.4746
133.144	29.0429
136.518	36.3379
139.893	46.5896
143.268	53.3101
146.643	46.5061
150.018	33.2595
153.393	20.9768
156.767	15.4205
160.142	11.0429
163.517	4.60292
166.892	2.97993
170.267	1.44203
173.642	0.721558
177.016	1.77431
180.391	0.052261
183.766	0.212326
187.141	0.99556
190.516	1.44862
193.89	0.276352
197.265	0.281998
200.64	1.59128
204.015	1.23409
207.39	1.19482
210.764	1.68568
214.139	2.03244
217.514	2.83447
220.889	6.13802
224.264	6.07709
227.638	5.54736
231.013	8.67053
234.388	9.90346
237.763	10.6461
241.138	11.9962
244.513	15.9146
247.887	18.01
251.262	17.5835
254.637	18.0379
258.012	15.3779
261.387	14.2337
264.762	11.6721
268.136	12.5061
271.511	12.7048
274.886	13.4472
278.261	13.6855
281.635	14.7757
285.01	15.0168
288.385	17.1844
291.76	19.3956
295.135	18.6477
298.51	18.3091
301.884	17.4908
305.259	16.0477
308.634	15.7392
312.009	15.2158
315.384	13.3756
318.759	8.58815
322.133	6.01157
325.508	3.79561
328.883	2.35811
332.258	1.41615
335.633	0.767105
339.007	0.990707
342.382	1.62581
345.757	3.06227
349.132	2.51875
352.507	0.449402
355.882	0.891083
359.256	0.029388
362.631	0.557648
366.006	3.61697
369.381	6.93015
372.755	10.8492
376.13	14.7033
379.505	22.4224
382.88	28.7903
386.255	33.6055
389.63	33.4889
393.004	32.9413
396.379	32.4237
399.754	31.8169
403.129	32.0418
406.504	32.2509
409.878	34.6319
413.253	36.7043
416.628	36.8052
420.003	37.5959
423.378	39.9812
426.753	38.2079
430.127	38.7559
433.502	38.7346
436.877	35.4215
440.252	34.8246
443.627	31.8927
447.001	29.6087
450.376	28.4244
453.751	25.4181
457.126	21.8989
460.501	18.0045
463.875	15.7231
467.25	16.4182
470.625	12.3826
474	11.867
477.375	11.7186
480.75	9.20639
484.124	6.59699
487.499	5.53748
490.874	6.32568
494.249	7.15637
497.624	4.91165
500.998	5.45578
504.373	5.43054
507.748	6.68546
511.123	8.32489
514.498	8.51492
517.873	5.14209
521.247	1.43683
524.622	0.32608
527.997	0.993805
531.372	0.787766
534.747	1.91235
538.121	0.428314
541.496	0.778564
544.871	0.304092
548.246	1.89043
551.621	1.65784
554.995	1.96312
558.37	1.05962
561.745	0.012329
565.12	2.02145
568.495	2.30316
571.87	2.30806
575.244	1.97849
578.619	0.59053
581.994	0.9077
585.369	0.024902
588.744	0.356628
592.119	0.491119
595.493	0.775574
598.868	1.84137
602.243	1.7356
605.618	2.46159
608.993	3.44237
612.367	4.25056
615.742	4.2666
619.117	2.41913
622.492	3.97675
625.867	4.41811
629.241	5.9081
632.616	6.60114
635.991	6.02657
639.366	7.43823
642.741	6.90463
646.115	5.62936
649.49	7.09898
652.865	5.70638
656.24	4.66478
659.615	4.88422
662.99	4.49361
666.364	5.52164
669.739	3.82088
673.114	3.78142
676.489	4.90903
679.864	3.8921
683.239	2.61343
686.613	3.69209
689.988	1.26131
693.363	1.23697
696.738	0.012268
700.112	0.80188
703.487	1.98003
706.862	1.15451
710.237	3.41606
713.612	2.42555
716.987	1.62344
720.361	0.802048
723.736	1.20676
727.111	0.385223
730.486	1.59541
733.861	2.89555
737.236	4.19562
740.61	4.96101
743.985	8.4868
747.36	6.37981
750.735	3.64568
754.11	0.65802
757.484	0.761749
760.859	1.26099
764.234	0.662476
767.609	0.361481
770.984	0.205887
774.359	2.26088
777.733	2.60275
781.108	3.9317
784.483	4.87506
787.858	7.31796
791.232	11.6878
794.607	22.7363
797.982	40.0694
801.357	65.8168
804.732	112.891
808.107	196.856
811.481	235.352
814.856	180.032
818.231	170.589
821.606	213.11
824.981	205.001
828.356	161.705
831.73	131.529
835.105	139.368
838.48	183.6
841.855	195.679
845.23	125.347
848.604	66.0346
851.979	37.6806
855.354	23.2967
858.729	14.8511
862.104	8.20052
865.479	3.19228
868.853	0.357086
872.228	0.729294
875.603	0.778809
878.978	0.449341
882.352	4.13889
885.727	5.12912
889.102	7.34102
892.477	10.7146
895.852	11.8218
899.227	11.612
902.601	7.59795
905.976	3.15578
909.351	0.269196
912.726	1.56389
916.101	0.473999
919.476	0.75647
922.85	3.50316
926.225	6.91792
929.6	14.2841
932.975	23.8079
936.35	16.994
939.724	6.00456
943.099	2.96555
946.474	0.269943
949.849	0.172897
953.224	0.705597
956.598	0.537857
959.973	0.304672
963.348	0.018723
966.723	0.971054
970.098	0.343506
973.472	1.7205
976.847	1.19122
980.222	2.27692
983.597	2.17493
986.972	1.86667
990.347	2.43759
993.721	1.9832
997.096	2.08121
1000.47	3.36798
1003.85	2.97092
1007.22	2.23142
1010.6	3.90157
1013.97	2.58728
1017.35	4.25084
1020.72	2.88307
1024.1	2.51862
1027.47	1.95854
1030.84	1.74629
1034.22	0.551666
1037.59	2.64523
1040.97	2.0985
1044.34	1.86027
1047.72	2.17955
1051.09	1.25568
1054.47	1.95854
1057.84	0.871384
1061.22	1.27387
1064.59	1.73416
1067.97	1.09808
1071.34	1.90576
1074.72	1.66264
1078.09	3.07428
1081.47	4.15118
1084.84	7.24509
1088.22	6.41573
1091.59	3.2662
1094.97	1.3429
1098.34	1.98276
1101.71	2.90723
1105.09	2.28461
1108.46	3.67274
1111.84	2.51781
1115.21	2.66428
1118.59	2.35619
1121.96	2.20872
1125.34	1.35672
1128.71	1.61997
1132.09	0.732788
1135.46	0.964005
1138.84	1.68539
1142.21	1.23572
1145.59	0.824692
1148.96	1.17569
1152.34	2.3671
1155.71	0.438568
1159.09	0.87674
1162.46	0.237549
1165.84	0.117401
1169.21	0.011292
1172.59	0.569031
1175.96	1.52884
1179.34	2.63058
1182.71	0.317078
1186.09	0.367096
1189.46	0.789673
1192.84	1.50348
1196.21	3.46387
1199.59	5.33814
1202.96	7.13034
1206.34	4.95252
1209.71	5.93375
1213.08	7.64215
1216.46	6.8562
1219.83	6.43332
1223.21	9.02277
1226.58	9.39746
1229.96	7.05212
1233.33	4.92267
1236.71	5.89825
1240.08	3.10931
1243.46	5.08392
1246.83	2.86627
1250.21	1.31708
