Measurement: Raman, 532 nm, unoriented, Raman Data Processed
Mineral: Sonoraite
Rruff sample: R070745
Ideal chemistry: Fe^3+^Te^4+^O_3_(OH)H_2_O
Locality: Tombstone, Tombstone District, Cochise Co., Arizona, USA
Source: Michael Scott
Description: Massive, lime-yellow crystals associated with calcite and jarosite
Raman shift (cm-1)	intensity
130.252	0
133.627	91.2544
137.001	3.625
140.376	208.715
143.751	503.956
147.126	614.502
150.501	1492.67
153.875	1751.14
157.25	2334.32
160.625	2463.34
164	652.249
167.375	228
170.75	211.993
174.124	216.946
177.499	1243.44
180.874	2303.43
184.249	1422.37
187.624	596.585
190.998	482.168
194.373	671.507
197.748	1043.22
201.123	1429.5
204.498	2042.52
207.873	3019.65
211.247	2796.12
214.622	1751.36
217.997	1297.12
221.372	1485.81
224.747	1975.34
228.121	2137.38
231.496	1941.14
234.871	2152.19
238.246	3019.86
241.621	3810.69
244.995	4706.2
248.37	6943.5
251.745	9470.49
255.12	9111.52
258.495	7436.68
261.87	7871.99
265.244	9043.88
268.619	8046.46
271.994	4845.31
275.369	2063.59
278.744	935.365
282.118	788.061
285.493	854.198
288.868	1202.11
292.243	1962.46
295.618	2585.93
298.993	2991.19
302.367	3582.69
305.742	4728.89
309.117	5872.56
312.492	6000.64
315.867	4492.23
319.241	2593.05
322.616	1177.96
325.991	486.141
329.366	160.595
332.741	132.718
336.115	265.643
339.49	282.16
342.865	300.019
346.24	214.078
349.615	24.833
352.99	264.705
356.364	625.528
359.739	989.826
363.114	1568.47
366.489	2396.57
369.864	3378.34
373.238	4023.5
376.613	4011.56
379.988	3671.13
383.363	3445.73
386.738	3201.23
390.113	2569.68
393.487	1756.86
396.862	1293.14
400.237	1068.37
403.612	1315.88
406.987	1869.59
410.361	2729.73
413.736	3815.53
417.111	4949.14
420.486	6235.69
423.861	7009.95
427.236	6711.36
430.61	5206.41
433.985	3531.44
437.36	2267.17
440.735	1657.5
444.11	1517.81
447.484	1732.92
450.859	2155.87
454.234	2897.75
457.609	3909.6
460.984	5448.75
464.358	6598.17
467.733	5245.09
471.108	3566.01
474.483	2655.63
477.858	2158.52
481.233	1675.72
484.607	1248.59
487.982	834.822
491.357	631.876
494.732	353.069
498.107	244.152
501.481	187.706
504.856	155.598
508.231	151.37
511.606	166.288
514.981	151.344
518.356	202.178
521.73	154.811
525.105	69.6562
528.48	0.772705
531.855	63.0256
535.23	124.72
538.604	68.1465
541.979	118.511
545.354	62.7642
548.729	62.2803
552.104	55.7676
555.479	52.3301
558.853	5.15503
562.228	44.98
565.603	38.2886
568.978	81.416
572.353	132.044
575.727	159.131
579.102	133.102
582.477	218.177
585.852	217.527
589.227	255.947
592.601	263.137
595.976	264.26
599.351	318.744
602.726	303.541
606.101	303.7
609.476	377.419
612.85	382.214
616.225	491.938
619.6	698.944
622.975	901.868
626.35	1251.17
629.725	1632.16
633.099	2017.37
636.474	2310.72
639.849	2478.53
643.224	2586.84
646.599	2874.59
649.973	3513.23
653.348	4544.91
656.723	5876.48
660.098	7278.28
663.473	8714.25
666.847	8788.78
670.222	7047.7
673.597	4707.01
676.972	3018.78
680.347	1962.57
683.721	1292.86
687.096	862.616
690.471	529.832
693.846	391.882
697.221	295.584
700.596	187.406
703.97	157.443
707.345	137.605
710.72	98.4094
714.095	57.9678
717.47	13.8186
720.845	48.0127
724.219	70.5144
727.594	2.42212
730.969	37.9248
734.344	1.45996
737.719	84.4045
741.093	168.982
744.468	236.867
747.843	339.397
751.218	546.191
754.593	764.396
757.967	1105.44
761.342	1528.11
764.717	2051.84
768.092	2647.05
771.467	3295.06
774.842	3729.09
778.216	3820.23
781.591	3464.98
784.966	2831.95
788.341	2147.99
791.716	1576.46
795.091	1178.14
798.465	1024.82
801.84	850.075
805.215	698.683
808.59	496.216
811.965	348.03
815.339	255.271
818.714	144.464
822.089	113.827
825.464	36.9585
828.839	59.7063
832.213	17.3037
835.588	18.4492
838.963	8.67358
842.338	10.3685
845.713	17.7964
849.087	3.67212
852.462	11.4639
855.837	7.63318
859.212	81.619
862.587	43.3909
865.962	34.1891
869.336	25.4513
872.711	65.1023
876.086	68.3742
879.461	102.791
882.836	102.486
886.21	102.213
889.585	153.113
892.96	165.62
896.335	171.05
899.71	186.29
903.085	196.971
906.459	178.734
909.834	179.009
913.209	157.244
916.584	119.045
919.959	126.558
923.333	81.5196
926.708	96.9026
930.083	68.4677
933.458	59.7322
936.833	54.6246
940.207	28.8425
943.582	31.0499
946.957	23.458
950.332	16.2955
953.707	1.23108
957.082	93.7334
960.456	46.0765
963.831	23.2012
967.206	62.1841
970.581	44.8846
973.956	64.7164
977.331	103.965
980.705	106.016
984.08	107.531
987.455	192.615
990.83	202.568
994.205	163.661
997.579	133.335
1000.95	120.708
1004.33	94.0107
1007.7	61.8516
1011.08	62.2567
1014.45	41.062
1017.83	9.22668
1021.2	28.8176
1024.58	33.7169
1027.95	2.26038
1031.33	0.819336
1034.7	31.2655
1038.08	38.5367
1041.45	26.9949
1044.83	13.3992
1048.2	12.9933
1051.58	43.7906
1054.95	42.9794
1058.33	18.6467
1061.7	30.8364
1065.08	24.7335
1068.45	38.644
1071.83	52.1316
1075.2	41.3219
1078.58	64.3394
1081.95	42.473
1085.33	41.3717
1088.7	24.0094
1092.07	44.5015
1095.45	4.36511
1098.82	47.5863
1102.2	1.01819
1105.57	32.2671
1108.95	20.618
1112.32	35.4945
1115.7	12.4752
1119.07	17.9736
1122.45	37.5207
1125.82	12.5159
1129.2	25.8799
1132.57	34.8397
1135.95	20.0314
1139.32	24.4039
1142.7	22.9407
1146.07	2.42188
1149.45	9.97583
1152.82	75.7819
1156.2	73.7465
1159.57	41.4153
1162.94	76.7891
1166.32	25.9302
1169.69	18.1981
1173.07	3.11768
1176.44	22.3251
1179.82	24.0193
1183.19	4.19873
1186.57	48.3446
1189.94	6.03723
1193.32	17.2402
1196.69	30.9476
1200.07	4.06738
1203.44	1.21582
1206.82	16.1411
1210.19	38.115
1213.57	24.3377
1216.94	26.0022
1220.32	10.3135
1223.69	52.4294
1227.07	11.6841
1230.44	47.1027
1233.82	50.243
1237.19	21.9243
1240.57	48.6835
1243.94	73.8289
1247.32	19.7377
1250.69	43.6226
1254.07	32.2311
1257.44	44.0857
1260.82	48.6404
1264.19	28.036
1267.57	12.2078
1270.94	28.8511
1274.31	6.57544
1277.69	62.7029
1281.06	30.1229
1284.44	27.7217
1287.81	42.7953
1291.19	32.3137
1294.56	26.4395
1297.94	21.9236
