Measurement: Raman, 780 nm, unoriented, Raman Data Processed
Mineral: Sonoraite
Rruff sample: R070745
Ideal chemistry: Fe^3+^Te^4+^O_3_(OH)H_2_O
Locality: Tombstone, Tombstone District, Cochise Co., Arizona, USA
Source: Michael Scott
Description: Massive, lime-yellow crystals associated with calcite and jarosite
Raman shift (cm-1)	intensity
131.576	0
134.951	24.8691
138.326	40.3565
141.701	228.631
145.076	477.524
148.45	776.034
151.825	1414.13
155.2	1252.56
158.575	1167.17
161.95	763.716
165.325	34.9111
168.699	101.234
172.074	8.177
175.449	377.854
178.824	916.487
182.199	1172.24
185.573	638.016
188.948	288.543
192.323	213.118
195.698	279.365
199.073	538.622
202.447	778.241
205.822	1133.9
209.197	1312.77
212.572	1011.8
215.947	508.111
219.322	324.309
222.696	280.988
226.071	348.59
229.446	375.244
232.821	509.069
236.196	897.074
239.571	1744.77
242.945	2833.35
246.32	4191.27
249.695	6118.58
253.07	7695.1
256.445	7545.8
259.819	7239.62
263.194	7479.4
266.569	7087.47
269.944	5310.75
273.319	2948.21
276.693	1282.26
280.068	602.458
283.443	452.077
286.818	423.618
290.193	640.364
293.567	1002.88
296.942	1455.88
300.317	1991.56
303.692	2748.46
307.067	3786.41
310.442	4662.5
313.816	4777.43
317.191	3562.97
320.566	2080.03
323.941	1042.36
327.316	473.965
330.69	120.691
334.065	66.1145
337.44	156.115
340.815	166.967
344.19	143.142
347.565	70.6834
350.939	89.7366
354.314	241.055
357.689	441.115
361.064	646.621
364.439	926.943
367.813	1375.07
371.188	1769.38
374.563	2070.14
377.938	2154
381.313	2130.7
384.688	2068.89
388.062	1943.02
391.437	1627.95
394.812	1245.74
398.187	991.338
401.562	867.601
404.937	988.576
408.311	1281.86
411.686	1704.43
415.061	2211.98
418.436	2751.04
421.811	3375.21
425.185	3548.51
428.56	3204.42
431.935	2463.61
435.31	1703.46
438.685	1164.07
442.06	879.894
445.434	854.311
448.809	850.357
452.184	1019.88
455.559	1311.04
458.934	1743.97
462.308	2392.99
465.683	2575.69
469.058	1900.08
472.433	1234.94
475.808	788.176
479.182	640.171
482.557	479.735
485.932	314.006
489.307	189.108
492.682	126.427
496.057	53.4437
499.431	21.4177
502.806	5.64343
506.181	0.404907
509.556	6.61023
512.931	16.8464
516.305	7.89856
519.68	5.38196
523.055	36.1188
526.43	37.2474
529.805	31.7564
533.179	54.9056
536.554	22.8613
539.929	33.2134
543.304	30.8009
546.679	16.9724
550.054	15.7395
553.428	43.5879
556.803	53.8514
560.178	64.7772
563.553	73.4297
566.928	80.489
570.303	92.2509
573.677	84.239
577.052	127.425
580.427	123.215
583.802	105.833
587.177	114.652
590.551	93.8178
593.926	95.322
597.301	61.8481
600.676	60.6424
604.051	55.1875
607.426	56.3451
610.8	32.4266
614.175	104.453
617.55	95.4884
620.925	183.855
624.3	255.562
627.674	320.3
631.049	414.964
634.424	510.607
637.799	595.142
641.174	586.152
644.548	650.32
647.923	720.539
651.298	933.409
654.673	1253.53
658.048	1752.97
661.423	2057.9
664.797	2379.2
668.172	2246.83
671.547	1667.04
674.922	1074.6
678.297	673.31
681.671	410.71
685.046	235.724
688.421	107.189
691.796	62.1414
695.171	31.3054
698.545	28.9724
701.92	21.3744
705.295	7.98462
708.67	5.3385
712.045	6.23572
715.42	1.21265
718.794	15.8054
722.169	24.2744
725.544	22.3436
728.919	54.2315
732.294	54.8196
735.668	115.616
739.043	147.827
742.418	213.916
745.793	297.719
749.168	401.522
752.543	539.553
755.917	741.847
759.292	1016.85
762.667	1331.05
766.042	1736.51
769.417	2154.99
772.792	2539.32
776.166	2747.45
779.541	2709.73
782.916	2390.6
786.291	1853.21
789.666	1379.72
793.04	1023.38
796.415	750.01
799.79	592.066
803.165	444.016
806.54	362.293
809.914	252.759
813.289	179.047
816.664	118.922
820.039	61.9855
823.414	17.9028
826.789	34.5117
830.163	16.5701
833.538	6.11218
836.913	8.36414
840.288	6.12293
843.663	4.3277
847.037	5.12598
850.412	17.9183
853.787	2.1546
857.162	5.50885
860.537	31.3906
863.912	0.160278
867.286	0.408997
870.661	11.218
874.036	14.4921
877.411	31.9703
880.786	44.0082
884.16	43.4861
887.535	67.8192
890.91	52.3114
894.285	78.8012
897.66	57.4746
901.034	60.731
904.409	63.3082
907.784	54.3391
911.159	42.0288
914.534	83.2996
917.909	47.5594
921.283	30.0608
924.658	47.8375
928.033	30.1993
931.408	57.2164
934.783	28.9711
938.158	48.2012
941.532	23.1914
944.907	8.21173
948.282	12.5291
951.657	24.1171
955.032	23.9072
958.406	11.9902
961.781	22.6906
965.156	9.73761
968.531	17.001
971.906	34.2051
975.28	22.0418
978.655	42.1161
982.03	30.4033
985.405	30.3396
988.78	42.2714
992.154	57.6742
995.529	49.227
998.904	28.0588
1002.28	19.1469
1005.65	29.1233
1009.03	11.0002
1012.4	7.08551
1015.78	12.2534
1019.15	19.1108
1022.53	15.5762
1025.9	10.2334
1029.28	20.2393
1032.65	14.2803
1036.03	11.6644
1039.4	11.3887
1042.78	24.4248
1046.15	16.0303
1049.53	18.0739
1052.9	21.4187
1056.28	38.2216
1059.65	3.15497
1063.03	22.5896
1066.4	15.9419
1069.78	20.0574
1073.15	31.8896
1076.53	10.5143
1079.9	15.2954
1083.28	29.1007
1086.65	19.0147
1090.02	20.4531
1093.4	18.2944
1096.77	14.5407
1100.15	16.7962
1103.52	7.58814
1106.9	5.68665
1110.27	25.294
1113.65	16.9217
1117.02	1.35986
1120.4	21.6658
1123.77	28.0616
1127.15	0.813599
1130.52	16.5298
1133.9	7.60669
1137.27	14.2281
1140.65	16.8909
1144.02	0.380432
1147.4	25.6436
1150.77	9.854
1154.15	31.0068
1157.52	34.4219
1160.89	40.1492
1164.27	28.7273
1167.64	7.28888
1171.02	16.8713
1174.39	21.9465
1177.77	26.2239
1181.14	22.0015
1184.52	6.768
1187.89	3.24866
1191.27	2.67596
1194.64	5.59149
1198.02	15.8592
1201.39	5.40582
1204.77	3.68353
1208.14	31.3289
1211.52	23.1626
1214.89	16.2004
1218.27	41.0754
1221.64	38.2692
1225.02	43.4006
1228.39	20.3648
1231.77	70.4834
1235.14	53.2346
1238.52	42.7778
1241.89	36.2637
1245.27	53.937
1248.64	40.9696
1252.02	19.5599
1255.39	32.2623
1258.77	56.3454
1262.14	10.8788
1265.52	32.7277
1268.89	11.836
1272.26	28.7673
1275.64	15.9114
1279.01	3.09985
1282.39	19.1686
1285.76	10.1917
