Measurement: Raman, 532 nm, unoriented, Raman Data Processed
Mineral: Sonolite
Rruff sample: R070752
Ideal chemistry: Mn^2+^_9_(SiO_4_)_4_(OH)_2_
Locality: Fujii mine, Wakasa, Fukui Prefecture, Chubu Region, Honshu Island, Japan
Source: Michael Scott
Description: Reddish brown, vitreous, massive. NOTE PHOTO WRONG
Raman shift (cm-1)	intensity
235.925	0
238.818	0.778885
241.71	3.93471
244.603	5.92879
247.496	8.5034
250.389	11.5942
253.281	11.0608
256.174	8.96501
259.067	7.14319
261.959	4.98937
264.852	4.70285
267.745	5.28365
270.637	5.32474
273.53	6.55377
276.423	5.92314
279.316	6.19441
282.208	8.90506
285.101	13.5235
287.994	10.8169
290.886	10.0953
293.779	11.3423
296.672	10.4198
299.565	10.6238
302.457	12.8577
305.35	11.2128
308.243	10.7976
311.135	9.49788
314.028	8.67932
316.921	6.43906
319.813	4.64273
322.706	0.455399
325.599	1.9484
328.491	0.281921
331.384	0.427307
334.277	1.40627
337.17	1.3605
340.062	0.564575
342.955	1.99011
345.848	2.73669
348.74	2.4119
351.633	4.67267
354.526	4.39456
357.418	4.89865
360.311	5.15985
363.204	6.34039
366.097	7.94702
368.989	10.8637
371.882	12.8342
374.775	15.8741
377.667	22.1133
380.56	26.5938
383.453	30.478
386.346	34.0341
389.238	34.085
392.131	27.8682
395.024	24.3404
397.916	18.193
400.809	14.5118
403.702	13.9855
406.594	13.0931
409.487	13.7199
412.38	12.8438
415.272	11.5959
418.165	12.7767
421.058	9.80923
423.951	10.2105
426.843	9.04059
429.736	8.29987
432.629	7.54999
435.521	6.68256
438.414	6.29993
441.307	3.74881
444.2	3.13342
447.092	2.82098
449.985	2.08853
452.878	0.602173
455.77	1.16708
458.663	0.354736
461.556	1.51852
464.448	0.913666
467.341	0.168091
470.234	0.441223
473.127	0.64093
476.019	1.8858
478.912	1.30701
481.805	1.22739
484.697	1.20294
487.59	1.16275
490.483	0.842651
493.375	3.27722
496.268	3.63092
499.161	4.38443
502.053	5.42828
504.946	7.64624
507.839	7.92108
510.732	10.5406
513.624	10.0916
516.517	9.42941
519.41	5.78323
522.302	5.35721
525.195	4.01395
528.088	3.36215
530.981	3.44589
533.873	3.58966
536.766	3.75525
539.659	2.66254
542.551	2.28119
545.444	5.61932
548.337	6.67007
551.229	5.11044
554.122	5.41089
557.015	4.42761
559.908	2.62894
562.8	3.09772
565.693	2.17944
568.586	3.2478
571.478	3.51401
574.371	4.78415
577.264	1.55545
580.156	1.37537
583.049	1.20312
585.942	2.87836
588.835	1.77686
591.727	3.94775
594.62	2.30631
597.513	3.19412
600.405	4.24564
603.298	4.81821
606.191	3.3443
609.083	4.81726
611.976	3.76459
614.869	2.57236
617.761	3.06631
620.654	1.66419
623.547	2.01746
626.44	1.24081
629.332	0.530151
632.225	0.386353
635.118	2.56128
638.01	0.120026
640.903	0.50708
643.796	1.67331
646.688	1.61176
649.581	3.5387
652.474	2.70007
655.367	3.41382
658.259	5.3685
661.152	4.13318
664.045	5.55783
666.937	5.06165
669.83	6.75729
672.723	5.03125
675.615	7.20718
678.508	7.61386
681.401	5.26077
684.294	5.79254
687.186	4.5051
690.079	5.31274
692.972	4.58847
695.864	1.99191
698.757	1.36523
701.65	0.268463
704.543	0.360779
707.435	1.34689
710.328	0.973297
713.221	1.50043
716.113	3.60013
719.006	2.06067
721.899	2.41217
724.791	1.13995
727.684	2.66055
730.577	3.32089
733.47	4.68839
736.362	7.67343
739.255	10.8976
742.148	11.5862
745.04	15.5508
747.933	15.9278
750.826	9.79507
753.718	5.16049
756.611	2.9906
759.504	0.266418
762.396	0.022858
765.289	1.30991
768.182	0.624298
771.075	1.39703
773.967	0.0914
776.86	0.688904
779.753	1.37799
782.645	3.57663
785.538	5.71661
788.431	5.87625
791.323	11.6238
794.216	21.8184
797.109	43.3154
800.002	76.0549
802.894	119.082
805.787	182.338
808.68	276.684
811.572	345.553
814.465	310.662
817.358	261.265
820.25	282.315
823.143	321.004
826.036	303.806
828.929	247.467
831.821	204.897
834.714	201.721
837.607	234.147
840.5	281.19
843.392	263.698
846.285	177.804
849.178	103.591
852.07	62.2345
854.963	40.5796
857.856	26.4109
860.748	16.3123
863.641	10.4163
866.534	4.96036
869.427	1.3678
872.319	1.80774
875.212	0.886871
878.105	2.62341
880.997	3.24658
883.89	5.57498
886.783	8.85974
889.675	15.1291
892.568	19.6036
895.461	22.9379
898.354	24.2505
901.246	22.0742
904.139	14.4601
907.032	10.7202
909.924	4.77655
912.817	3.34921
915.71	3.08224
918.602	2.16205
921.495	4.19904
924.388	8.26761
927.28	14.7842
930.173	21.5456
933.066	34.9367
935.959	31.9072
938.851	19.8867
941.744	6.04022
944.637	4.71329
947.529	2.09631
950.422	0.689087
953.315	0.476288
956.207	1.54038
959.1	1.90079
961.993	1.69028
964.886	2.25708
967.778	4.23132
970.671	2.63431
973.564	2.91226
976.456	4.66666
979.349	4.0697
982.242	3.32767
985.135	3.94061
988.027	3.03699
990.92	4.59216
993.813	5.00052
996.705	4.70837
999.598	4.21619
1002.49	4.65012
1005.38	4.90988
1008.28	5.14105
1011.17	5.10971
1014.06	3.3472
1016.95	4.78388
1019.85	0.741638
1022.74	0.54071
1025.63	1.55847
1028.53	2.67667
1031.42	0.670776
1034.31	0.223114
1037.2	1.15912
1040.1	0.732727
1042.99	1.33322
1045.88	1.92279
1048.77	0.517303
1051.67	0.643768
1054.56	0.245392
1057.45	0.090637
1060.35	0.59668
1063.24	1.41132
1066.13	0.658295
1069.02	0.253052
1071.92	0.348938
1074.81	1.97351
1077.7	4.68155
1080.59	6.89459
1083.49	10.9965
1086.38	13.3839
1089.27	8.37936
1092.16	5.85471
1095.06	3.86298
1097.95	5.18991
1100.84	4.02918
1103.73	3.61215
1106.63	4.09326
1109.52	5.14218
1112.41	4.79575
1115.31	2.84503
1118.2	4.84296
1121.09	2.2948
1123.98	0.797302
1126.88	2.58752
1129.77	1.96631
1132.66	1.19308
1135.56	4.77374
1138.45	4.03531
1141.34	1.71536
1144.23	2.33325
1147.13	3.4101
1150.02	2.65469
1152.91	2.57925
1155.8	2.76181
1158.7	2.60394
1161.59	2.55966
1164.48	2.19153
1167.38	0.253021
1170.27	2.12576
1173.16	1.25537
1176.05	2.09332
1178.94	1.32922
1181.84	1.535
1184.73	0.946716
1187.62	0.569244
1190.52	0.223907
1193.41	0.904694
1196.3	0.452698
1199.19	2.00296
1202.09	0.841309
1204.98	0.673492
1207.87	2.06357
1210.77	2.05408
1213.66	3.89337
1216.55	0.720978
1219.44	0.65448
1222.34	0.25531
1225.23	2.89035
1228.12	1.81516
1231.01	3.07272
1233.91	3.41043
1236.8	0.8591
1239.69	2.99307
1242.59	1.57889
1245.48	0.924683
1248.37	2.40762
1251.26	2.44098
1254.16	1.56177
1257.05	2.04929
1259.94	4.09628
1262.83	3.1832
1265.73	2.87421
1268.62	3.76862
1271.51	2.16089
1274.4	3.25787
1277.3	2.28506
1280.19	1.90717
1283.08	4.3255
1285.97	2.0141
1288.87	0.75177
1291.76	0.510681
1294.65	0.780579
1297.55	1.38031
1300.44	0.886108
