Measurement: Raman, 532 nm, unoriented, Raman Data Processed
Mineral: Sorensenite
Rruff sample: R070576
Ideal chemistry: Na_4_Be_2_Sn(Si_3_O_9_)_2_2H_2_O
Locality: Kvanefjeld, Ilimaussaq, Narsaq, Kitaa, Greenland
Source: James Shigley
Description: Striated colorless laths
Measured chemistry: (Na_3.98_[box]_0.02_)_Σ=4_Be_2.00_(Sn_0.91_Ti_0.07_Nb^5+^_0.02_)_Σ=1_(Si_3.00_O_9_)_2_·2H_2_O; Be and H_2_O not measured but assumed by stoichiometry
Raman shift (cm-1)	intensity
149.063	0
151.956	734.049
154.849	2655.05
157.741	2852.17
160.634	814.541
163.527	1276.06
166.419	1212.27
169.312	755.283
172.205	2350.59
175.098	3739.8
177.99	2538.73
180.883	1262.96
183.776	133.31
186.668	94.9238
189.561	563.099
192.454	132.728
195.346	526.535
198.239	83.1973
201.132	887.225
204.025	2654.66
206.917	4824.42
209.81	7476
212.703	8578.85
215.595	9071.96
218.488	10726.6
221.381	10072
224.274	7932.56
227.166	6457.87
230.059	4957.49
232.952	3536.67
235.844	2458.21
238.737	2094.1
241.63	2518.81
244.522	3662.78
247.415	5487.58
250.308	7916.24
253.201	10985.6
256.093	15269.9
258.986	18955.5
261.879	17956.3
264.771	13906.2
267.664	10419.5
270.557	8131.71
273.449	6186.77
276.342	5572.96
279.235	6154.72
282.127	5596.47
285.02	3722.59
287.913	2046.44
290.806	1449.6
293.698	1535.61
296.591	2285.34
299.484	3336.88
302.376	4112.6
305.269	4446.64
308.162	3947.85
311.055	2716.78
313.947	1419.28
316.84	507.696
319.733	51.0615
322.625	186.186
325.518	279.696
328.411	230.086
331.303	138.146
334.196	357.006
337.089	1181.37
339.981	2529.52
342.874	4371.52
345.767	6982.29
348.66	10797
351.552	14387.6
354.445	12179.6
357.338	6179.23
360.23	2669.87
363.123	1050.07
366.016	460.606
368.909	356.683
371.801	608.099
374.694	1148.94
377.587	2218.42
380.479	4095.64
383.372	6388.94
386.265	5736.11
389.158	3847.32
392.05	2654.58
394.943	2506.63
397.836	2885.26
400.728	3491.29
403.621	3374.71
406.514	2247.82
409.406	1180.19
412.299	609.352
415.192	265.82
418.084	128.096
420.977	196.035
423.87	314.955
426.763	429.198
429.655	696.934
432.548	916.285
435.441	845.332
438.333	370.185
441.226	30.188
444.119	165.585
447.012	200.844
449.904	169.089
452.797	103.728
455.69	99.7803
458.582	65.8369
461.475	124.462
464.368	321.21
467.26	493.289
470.153	769.408
473.046	1106.13
475.938	1382.41
478.831	1394.55
481.724	1463.28
484.617	1935.85
487.509	3058.84
490.402	4548.58
493.295	6825.81
496.187	10769.4
499.08	16478.3
501.973	19408.6
504.865	12531.9
507.758	5960.26
510.651	3742.04
513.544	3656.12
516.436	4995.59
519.329	8308.13
522.222	13199
525.114	20766.2
528.007	32501.4
530.9	43258.9
533.793	37321.2
536.685	20921.8
539.578	10743.3
542.471	6048.68
545.363	3470.34
548.256	2162.49
551.149	1379.36
554.041	972.467
556.934	771.809
559.827	627.051
562.72	630.354
565.612	845.566
568.505	1278.93
571.398	1975.03
574.29	2887.39
577.183	4312.89
580.076	5846.84
582.968	5702.47
585.861	3512.84
588.754	1763.51
591.646	879.869
594.539	454.455
597.432	125.434
600.325	23.771
603.217	94.6968
606.11	23.9048
609.003	143.071
611.895	114.461
614.788	113.378
617.681	6.39307
620.573	55.4619
623.466	245.164
626.359	333.993
629.252	470.025
632.144	760.51
635.037	971.207
637.93	1450.4
640.822	2142.27
643.715	2917.72
646.608	3968.21
649.5	5000.21
652.393	5563.7
655.286	4716.61
658.179	3221.35
661.071	1871.33
663.964	1135.92
666.857	680.198
669.75	447.676
672.642	211.82
675.535	149.303
678.428	4.36279
681.32	31.7031
684.213	6.65918
687.106	68.3144
689.998	104.415
692.891	146.334
695.784	197.395
698.677	254.181
701.569	451.965
704.462	616.189
707.355	1041.42
710.247	1514.26
713.14	1352.24
716.033	1106.59
718.925	683.795
721.818	417.849
724.711	215.126
727.604	134.217
730.496	91.9751
733.389	18.792
736.282	301.893
739.174	28.3423
742.067	20.6025
744.96	81.2573
747.852	85.1426
750.745	83.3096
753.638	43.9351
756.53	64.9927
759.423	29.2866
762.316	94.8091
765.209	73.5488
768.101	47.146
770.994	46.4731
773.887	28.4702
776.779	74.0332
779.672	84.1631
782.565	42.8442
785.457	53.1094
788.35	8.64404
791.243	35.2612
794.136	61.4531
797.028	11.3267
799.921	12.2129
802.814	0.964844
805.706	100.04
808.599	225.565
811.492	368.166
814.385	494.345
817.277	366.425
820.17	333.219
823.063	267.124
825.955	223.955
828.848	154.798
831.741	121.148
834.634	104.022
837.526	127.828
840.419	102.807
843.312	133.045
846.204	209.42
849.097	272.58
851.99	380.877
854.882	562.778
857.775	606.729
860.668	647.547
863.561	725.506
866.453	802.045
869.346	743.972
872.239	700.091
875.131	802.946
878.024	903.858
880.917	900.15
883.809	937.746
886.702	878.168
889.595	964.557
892.487	1103.34
895.38	1350.35
898.273	1545.62
901.166	1622.81
904.058	1540.95
906.951	1139.57
909.844	777.624
912.736	486.242
915.629	274.713
918.522	192.729
921.414	97.6787
924.307	71.6728
927.2	30.5454
930.093	23.4155
932.985	10.6128
935.878	32.4805
938.771	20.3145
941.663	22.8516
944.556	8.36182
947.449	58.7886
950.341	73.4399
953.234	66.9756
956.127	91.8745
959.02	166.66
961.912	130.494
964.805	251.323
967.698	327.769
970.59	480.553
973.483	819.907
976.376	1133.18
979.269	1394.26
982.161	1183.51
985.054	792.161
987.947	651.251
990.839	549.821
993.732	472.033
996.625	225.062
999.518	131.73
1002.41	26.625
1005.3	10.0684
1008.2	23.4097
1011.09	4.62988
1013.98	61.7368
1016.87	258.8
1019.77	545.488
1022.66	963.544
1025.55	1366.57
1028.44	1678.83
1031.34	1421.48
1034.23	995.446
1037.12	756.96
1040.02	609.852
1042.91	597.297
1045.8	617.241
1048.69	752.422
1051.59	624.648
1054.48	433.162
1057.37	332.386
1060.26	158.643
1063.16	96.4399
1066.05	45.0879
1068.94	38.5298
1071.84	27.0005
1074.73	22.6558
1077.62	14.3711
1080.51	1.74268
1083.41	22.6929
1086.3	107.706
1089.19	185.644
1092.08	427.801
1094.98	697.195
1097.87	1039.39
1100.76	1459.47
1103.65	1785.3
1106.55	1584.6
1109.44	1412.64
1112.33	1340.94
1115.22	1287.29
1118.12	1061.98
1121.01	851.902
1123.9	932.288
1126.8	1081.24
1129.69	1227.15
1132.58	1382.44
1135.47	1182.16
1138.37	922.802
1141.26	774.32
1144.15	553.732
1147.05	462.962
1149.94	331.82
1152.83	302.748
1155.72	178.901
1158.62	187.695
1161.51	104.316
1164.4	100.232
1167.29	35.5029
1170.19	14.0107
1173.08	30.2627
1175.97	14.6528
1178.87	13.3911
1181.76	10.519
1184.65	36.9932
1187.54	1.56445
1190.44	74.959
1193.33	8.56543
1196.22	7.48926
1199.11	49.8105
1202.01	8.74805
1204.9	27.8467
1207.79	19.1064
1210.68	3.23438
1213.58	3.82227
1216.47	46.5752
1219.36	4.396
1222.26	62.0532
1225.15	37.0161
1228.04	98.3872
1230.93	60.4077
1233.83	51.2788
1236.72	53.7705
1239.61	65.5513
1242.5	65.2417
1245.4	92.5244
1248.29	115.804
1251.18	88.0229
1254.08	68.4541
1256.97	90.1475
1259.86	87.2803
1262.75	67.7837
1265.65	74.771
1268.54	71.9888
1271.43	87.1397
1274.32	16.4224
1277.22	52.8838
1280.11	38.8267
1283	41.2095
1285.89	41.2344
1288.79	15.4434
