Measurement: Raman, 785 nm, unoriented, Raman Data Processed
Mineral: Sorensenite
Rruff sample: R070576
Ideal chemistry: Na_4_Be_2_Sn(Si_3_O_9_)_2_2H_2_O
Locality: Kvanefjeld, Ilimaussaq, Narsaq, Kitaa, Greenland
Source: James Shigley
Description: Striated colorless laths
Measured chemistry: (Na_3.98_[box]_0.02_)_Σ=4_Be_2.00_(Sn_0.91_Ti_0.07_Nb^5+^_0.02_)_Σ=1_(Si_3.00_O_9_)_2_·2H_2_O; Be and H_2_O not measured but assumed by stoichiometry
Raman shift (cm-1)	intensity
140.374	0
143.267	39.2019
146.16	402.788
149.052	1016.28
151.945	2163.15
154.838	2081.75
157.73	1190.03
160.623	900.476
163.516	653.937
166.409	429.304
169.301	502.189
172.194	519.469
175.087	437.933
177.979	346.826
180.872	149.409
183.765	104.861
186.657	289.272
189.55	20.0571
192.443	129.878
195.335	101.512
198.228	66.5625
201.121	292.808
204.014	836.162
206.906	1511.46
209.799	1776.87
212.692	2077.12
215.584	2474.89
218.477	2220.21
221.37	1559.72
224.262	1120.39
227.155	800.673
230.048	522.875
232.941	334.596
235.833	185.344
238.726	290.076
241.619	450.772
244.511	809.567
247.404	1315.15
250.297	1957.62
253.19	2850.31
256.082	3846.87
258.975	3720.29
261.868	2900.51
264.76	2097.38
267.653	1538.57
270.546	1108.58
273.438	1040.19
276.331	1213.29
279.224	1220.67
282.116	844.553
285.009	512.081
287.902	438.281
290.795	627.513
293.687	826.852
296.58	1118.17
299.473	1366.19
302.365	1437.35
305.258	1317.33
308.151	981.398
311.043	695.685
313.936	357.386
316.829	172.403
319.722	63.8596
322.614	21.5964
325.507	76.9731
328.4	76.4968
331.292	34.5466
334.185	93.7022
337.078	399.978
339.971	729.434
342.863	1230.67
345.756	1989.07
348.649	2753.56
351.541	2147.16
354.434	1100.42
357.327	398.613
360.219	122.05
363.112	22.8452
366.005	9.25244
368.897	48.1704
371.79	114.205
374.683	304.409
377.576	728.5
380.468	1139.07
383.361	1108.57
386.254	774.322
389.146	612.973
392.039	712.207
394.932	895.115
397.825	1063
400.717	1033.46
403.61	727.904
406.503	375.993
409.395	223.574
412.288	120.049
415.181	80.7161
418.073	92.4407
420.966	140.763
423.859	148.554
426.752	207.47
429.644	199.323
432.537	183.6
435.43	33.9446
438.322	4.74316
441.215	65.1235
444.108	58.7944
447	62.6423
449.893	36.1421
452.786	3.90478
455.678	50.8923
458.571	71.8889
461.464	104.085
464.357	223.025
467.249	279.409
470.142	365.674
473.035	433.218
475.927	370.025
478.82	468.612
481.713	536.078
484.606	738.534
487.498	1080.75
490.391	1620.44
493.284	2550.3
496.176	4033.04
499.069	4348.4
501.962	2662.64
504.854	1319.82
507.747	870.466
510.64	833.687
513.533	1002.77
516.425	1532.08
519.318	2535.26
522.211	4026.99
525.103	6505.91
527.996	8535.54
530.889	6986.69
533.781	3964.49
536.674	2209.43
539.567	1309.24
542.46	903.377
545.352	669.121
548.245	561.746
551.138	444.906
554.03	375.004
556.923	358.196
559.816	317.898
562.708	291.538
565.601	335.521
568.494	378.291
571.386	471.533
574.279	614.229
577.172	791.234
580.065	705.69
582.957	432.385
585.85	179.218
588.743	90.5923
591.635	32.6065
594.528	6.81567
597.421	16.8912
600.313	7.85352
603.206	31.9419
606.099	19.2516
608.992	32.0491
611.884	30.6719
614.777	0.255127
617.67	25.8455
620.562	76.0928
623.455	76.5529
626.348	102.107
629.24	158.312
632.133	205.456
635.026	258.074
637.919	375.94
640.811	526.148
643.704	690.352
646.597	876.977
649.489	897.704
652.382	747.144
655.275	495.816
658.168	312.625
661.06	220.761
663.953	151.098
666.846	92.577
669.738	34.4954
672.631	23.4629
675.524	32
678.416	13.6294
681.309	7.74573
684.202	20.1129
687.095	11.8827
689.987	16.7085
692.88	34.1802
695.773	61.8099
698.665	101.946
701.558	197.022
704.451	261.397
707.343	345.086
710.236	301.531
713.129	186.259
716.021	113.573
718.914	79.1011
721.807	49.2507
724.7	6.33691
727.592	4.74793
730.485	33.4675
733.378	4.4779
736.27	7.35583
739.163	31.3063
742.056	14.4451
744.948	22.964
747.841	23.7506
750.734	32.203
753.627	46.6046
756.519	49.1853
759.412	17.5699
762.305	49.0311
765.197	71.4487
768.09	67.7151
770.983	45.3204
773.875	84.1691
776.768	33.3071
779.661	74.7291
782.554	48.5593
785.446	91.1777
788.339	60.3799
791.232	22.2653
794.125	46.5853
797.017	15.122
799.91	8.11108
802.803	34.9567
805.695	33.998
808.588	71.9039
811.481	29.8103
814.373	85.0255
817.266	69.6483
820.159	61.464
823.052	24.7566
825.944	79.1675
828.837	12.8474
831.73	3.72742
834.622	4.20947
837.515	22.0033
840.408	28.9836
843.3	55.3187
846.193	0.925903
849.086	45.3873
851.979	9.16187
854.871	65.629
857.764	57.4592
860.657	94.6814
863.549	69.7192
866.442	64.1931
869.335	74.6055
872.227	103.426
875.12	119.827
878.013	124.157
880.905	124.219
883.798	143.981
886.691	145.512
889.584	194.164
892.476	311.212
895.369	405.661
898.262	432.617
901.154	375.938
904.047	286.857
906.94	237.603
909.832	164.17
912.725	157.268
915.618	145.113
918.511	110.165
921.403	78.4988
924.296	77.9587
927.189	89.9221
930.081	71.8564
932.974	34.7808
935.867	15.8166
938.76	27.2925
941.652	30.502
944.545	4.38794
947.438	8.67383
950.33	21.1875
953.223	27.7302
956.116	45.8616
959.008	29.6428
961.901	75.021
964.794	49.5332
967.687	106.892
970.579	237.345
973.472	322.019
976.365	338.73
979.257	254.042
982.15	221.436
985.043	217.23
987.935	201.639
990.828	201.746
993.721	175.725
996.614	167.289
999.506	105.337
1002.4	174.154
1005.29	91.5493
1008.18	112.095
1011.08	98.3423
1013.97	72.4273
1016.86	86.8877
1019.75	140.872
1022.65	156.078
1025.54	178.677
1028.43	91.021
1031.33	10.585
1034.22	1.3833
1037.11	31.041
1040	21.7109
1042.9	47.1191
1045.79	36.4902
1048.68	113.718
1051.58	158.119
1054.47	208.402
1057.36	206.873
1060.25	274.948
1063.15	341.973
1066.04	369.327
1068.93	369.407
1071.82	399.958
1074.72	380.418
1077.61	381.197
1080.5	438.356
1083.39	403.829
1086.29	474.212
1089.18	507.022
1092.07	490.755
1094.96	523.577
1097.86	542.35
1100.75	488.011
1103.64	324.83
1106.54	232.034
1109.43	155.649
1112.32	112.662
1115.21	35.4248
1118.11	13.8779
1121	3.90625
1123.89	190.742
1126.79	363.755
1129.68	397.168
1132.57	510.733
1135.46	325.981
1138.36	228.778
1141.25	200.654
1144.14	98.4648
1147.03	65.4394
1149.93	1.02344
