Measurement: Raman, 532 nm, unoriented, Raman Data Processed
Mineral: Spangolite
Rruff sample: R060135
Ideal chemistry: Cu_6_AlSO_4_(OH)_12_Cl3H_2_O
Locality: Blanchard mine, Hansonburg District, Socorro County, New Mexico, USA
Source: University of Arizona Mineral Museum
Description: Bluish-green stubby hexagonal pyramids
Measured chemistry: Cu_6.00_Al_1.00_(S_1.00_O_4_)Cl_1.00_(OH)_12_Â·3H_2_O
Raman shift (cm-1)	intensity
145.707	0
148.6	9.79764
151.493	60.4037
154.385	94.7489
157.278	122.904
160.171	147.889
163.063	182.989
165.956	225.766
168.849	277.602
171.742	278.527
174.634	190.81
177.527	101.336
180.42	55.4242
183.312	34.1257
186.205	20.3702
189.098	5.62564
191.99	4.01856
194.883	5.95288
197.776	4.95151
200.668	0.338501
203.561	5.59061
206.454	9.69452
209.347	14.0632
212.239	16.7057
215.132	30.3981
218.025	42.0518
220.917	44.9069
223.81	57.266
226.703	65.6009
229.596	84.0785
232.488	104.676
235.381	95.4095
238.274	52.0332
241.166	33.3133
244.059	28.0206
246.952	26.9395
249.845	35.78
252.737	48.9665
255.63	65.3046
258.523	81.3558
261.415	100.027
264.308	119.753
267.201	140.305
270.093	159.976
272.986	171.446
275.879	150.672
278.772	108.357
281.664	67.1731
284.557	38.6283
287.45	22.0527
290.342	14.1671
293.235	4.94441
296.128	2.39125
299.021	0.103912
301.913	1.65318
304.806	3.84689
307.699	5.7733
310.591	9.34076
313.484	13.3788
316.377	16.0923
319.269	17.4285
322.162	17.3713
325.055	15.2114
327.947	16.8579
330.84	16.7552
333.733	14.7247
336.626	13.8315
339.518	11.5874
342.411	11.5755
345.304	9.476
348.196	10.904
351.089	6.30746
353.982	3.11209
356.875	0.055283
359.767	2.80801
362.66	6.19272
365.553	3.14284
368.445	5.97386
371.338	2.94006
374.231	0.479202
377.123	5.59431
380.016	12.6674
382.909	25.8368
385.802	40.6777
388.694	55.905
391.587	84.2712
394.48	117.959
397.372	156.847
400.265	203.411
403.158	250.214
406.05	299.855
408.943	327.321
411.836	322.883
414.729	268.611
417.621	193.638
420.514	123.594
423.407	70.4296
426.299	39.8043
429.192	19.045
432.085	7.02335
434.978	3.89102
437.87	4.88431
440.763	9.56229
443.656	14.9785
446.548	26.1764
449.441	36.8801
452.334	50.2594
455.226	57.3821
458.119	62.6381
461.012	56.5866
463.905	45.554
466.797	33.5467
469.69	27.401
472.583	27.6437
475.475	36.4132
478.368	42.5204
481.261	46.1605
484.154	51.4425
487.046	53.7043
489.939	61.7481
492.832	69.4475
495.724	88.0575
498.617	114.864
501.51	151.233
504.402	193
507.295	246.255
510.188	304.383
513.081	361.451
515.973	407.854
518.866	437.335
521.759	437.271
524.651	402.139
527.544	325.154
530.437	240.661
533.33	168.08
536.222	114.158
539.115	80.5018
542.008	54.2669
544.9	38.9575
547.793	26.1637
550.686	17.0558
553.578	9.41278
556.471	4.08067
559.364	1.48706
562.256	3.20059
565.149	4.74593
568.042	4.52557
570.935	4.67699
573.827	1.94138
576.72	0.295288
579.613	3.84341
582.505	9.20065
585.398	14.2715
588.291	20.3063
591.184	29.6437
594.076	41.6406
596.969	48.7261
599.862	59.9825
602.754	70.3694
605.647	80.3151
608.54	83.317
611.433	80.0748
614.325	70.3398
617.218	57.098
620.111	42.549
623.003	28.7734
625.896	18.5148
628.789	9.45299
631.682	3.82062
634.574	2.9462
637.467	2.83183
640.36	3.20078
643.252	1.87033
646.145	4.6517
649.038	2.14914
651.93	2.88411
654.823	1.79294
657.716	2.41942
660.609	3.04135
663.501	3.52147
666.394	3.46721
669.287	4.09132
672.179	4.2214
675.072	4.1609
677.965	3.6993
680.857	2.39876
683.75	2.81696
686.643	3.33037
689.535	3.38934
692.428	3.02029
695.321	2.04643
698.214	2.94042
701.106	2.16556
703.999	4.21065
706.892	1.76721
709.784	2.10439
712.677	2.75013
715.57	1.18161
718.462	0.786011
721.355	0.118668
724.248	0.768852
727.141	0.227486
730.033	0.159676
732.926	0.228165
735.819	0.652603
738.712	0.614204
741.604	1.49448
744.497	0.184128
747.39	0.204514
750.282	2.43843
753.175	0.775902
756.068	1.54229
758.96	3.15126
761.853	5.6798
764.746	4.7691
767.639	3.97171
770.531	8.09792
773.424	9.45721
776.317	8.226
779.209	10.387
782.102	13.6701
784.995	17.5828
787.888	20.0092
790.78	23.6356
793.673	27.5315
796.566	31.4525
799.458	33.7544
802.351	35.9822
805.244	36.3654
808.136	36.5001
811.029	32.9833
813.922	29.7329
816.814	24.6905
819.707	20.6897
822.6	16.402
825.493	12.0947
828.385	9.55139
831.278	6.05487
834.171	4.46944
837.063	2.4323
839.956	0.44783
842.849	0.309052
845.741	0.371445
848.634	2.48653
851.527	1.67123
854.42	1.81395
857.312	0.315521
860.205	0.502167
863.098	0.167404
865.99	1.24985
868.883	1.01172
871.776	2.69456
874.669	5.07315
877.561	5.00018
880.454	6.59
883.347	5.81107
886.239	9.07565
889.132	11.9177
892.025	12.3885
894.918	15.2378
897.81	18.1726
900.703	20.4347
903.596	26.5981
906.488	34.2215
909.381	39.572
912.274	38.279
915.166	39.2008
918.059	34.5626
920.952	31.936
923.845	27.5916
926.737	26.1775
929.63	24.0223
932.523	24.4745
935.415	25.8674
938.308	27.6228
941.201	33.7835
944.093	42.3578
946.986	59.6758
949.879	90.8124
952.771	148.909
955.664	238.575
958.557	352.318
961.45	496.245
964.342	657.749
967.235	708.134
970.128	560.923
973.02	372.115
975.913	250.272
978.806	180.238
981.699	133.28
984.591	99.3344
987.484	73.4039
990.377	53.2282
993.269	37.5623
996.162	29.5351
999.055	21.8757
1001.95	15.9004
1004.84	8.30699
1007.73	5.07354
1010.63	1.68908
1013.52	2.64955
1016.41	1.55454
1019.3	1.05566
1022.2	1.90447
1025.09	2.15805
1027.98	1.42308
1030.88	0.516693
1033.77	1.6534
1036.66	0.136307
1039.55	2.19179
1042.44	3.79114
1045.34	5.48579
1048.23	7.22024
1051.12	8.78918
1054.02	10.7637
1056.91	15.0085
1059.8	19.1728
1062.69	24.5321
1065.59	30.8154
1068.48	36.9736
1071.37	42.1302
1074.27	49.8793
1077.16	56.6871
1080.05	64.7732
1082.94	73.1417
1085.84	85.3557
1088.73	96.3938
1091.62	111.96
1094.51	126.176
1097.41	132.502
1100.3	135.222
1103.19	127.186
1106.09	109.049
1108.98	89.1736
1111.87	71.6701
1114.76	55.8275
1117.66	45.6276
1120.55	36.4121
1123.44	28.6699
1126.33	22.1528
1129.23	18.723
1132.12	16.1878
1135.01	10.3801
1137.9	7.10282
1140.8	5.575
1143.69	5.47503
1146.58	3.85665
1149.47	2.39791
1152.37	1.84559
1155.26	1.65171
1158.15	0.145248
1161.05	1.24428
1163.94	0.551071
1166.83	0.681618
1169.72	0.733013
1172.62	1.17123
1175.51	0.378746
1178.4	1.76374
1181.3	0.995945
1184.19	0.074547
1187.08	0.098278
1189.97	0.11602
1192.87	0.547966
1195.76	1.07941
1198.65	2.30516
1201.54	1.55225
1204.44	0.75655
1207.33	0.101753
1210.22	1.88248
1213.12	2.50357
1216.01	2.74483
1218.9	2.62176
1221.79	5.12282
1224.69	2.92827
1227.58	6.17934
1230.47	3.23984
1233.36	3.47821
1236.26	3.40841
1239.15	3.94215
1242.04	2.91696
1244.93	2.82661
1247.83	2.16071
1250.72	2.60547
1253.61	2.23726
1256.51	1.83935
1259.4	1.58245
1262.29	2.13882
1265.18	0.956703
1268.08	3.50802
1270.97	1.96249
1273.86	0.622314
1276.75	1.04003
1279.65	0.46051
1282.54	0.584187
1285.43	1.52928
1288.33	1.34307
1291.22	0.900402
1294.11	0.460999
1297	0.047924
1299.9	1.81184
