Measurement: Raman, 532 nm, unoriented, Raman Data Processed
Mineral: Spangolite
Rruff sample: R080023
Ideal chemistry: Cu_6_AlSO_4_(OH)_12_Cl3H_2_O
Locality: Mex-Tex mine, Hansonberg Mining District, Bingham, Socorro County, New Mexico, USA
Source: William W. Pinch
Description: Deep bluish green doubly terminated and pyramidal crystals associated with quartz
Raman shift (cm-1)	intensity
143.546	0
146.921	1.26599
150.296	15.0048
153.671	69.7284
157.046	108.547
160.421	183.663
163.795	278.88
167.17	431.714
170.545	419.097
173.92	199.704
177.294	93.648
180.669	50.6596
184.044	29.1537
187.419	11.4971
190.794	1.43379
194.169	2.13419
197.543	2.75635
200.918	5.07047
204.293	17.9021
207.668	20.3714
211.043	22.1057
214.417	27.8164
217.792	41.4693
221.167	48.124
224.542	60.762
227.917	82.502
231.292	110.844
234.666	147.106
238.041	100.204
241.416	56.2541
244.791	60.7304
248.166	56.8567
251.541	68.5875
254.915	82.0455
258.29	85.9864
261.665	80.8603
265.04	92.3679
268.415	127.374
271.789	152.03
275.164	151.041
278.539	121.609
281.914	76.0601
285.289	41.1953
288.663	23.4852
292.038	14.637
295.413	10.4765
298.788	4.81096
302.163	7.09112
305.538	11.0379
308.912	12.5833
312.287	18.3403
315.662	23.3058
319.037	32.8421
322.412	32.689
325.786	37.5108
329.161	37.9412
332.536	40.0774
335.911	35.0754
339.286	26.731
342.661	23.6825
346.035	33.1832
349.41	21.7181
352.785	13.8473
356.16	3.52148
359.535	3.36002
362.909	12.3387
366.284	9.54182
369.659	8.89604
373.034	9.03059
376.409	7.66618
379.784	13.3894
383.158	30.0058
386.533	53.6996
389.908	92.218
393.283	140.364
396.658	210.775
400.032	275.253
403.407	381.304
406.782	485.238
410.157	531.962
413.532	467.421
416.906	340.232
420.281	209.599
423.656	112.187
427.031	51.3648
430.406	28.3402
433.781	30.1879
437.155	33.6355
440.53	58.0964
443.905	72.1421
447.28	88.3022
450.655	104.698
454.029	123.016
457.404	126.986
460.779	106.112
464.154	76.6662
467.529	73.9477
470.904	62.7167
474.278	76.2483
477.653	94.501
481.028	117.066
484.403	128.323
487.778	133.835
491.152	144.661
494.527	163.561
497.902	211.189
501.277	270.492
504.652	343.925
508.026	459.117
511.401	554.653
514.776	635.969
518.151	669.201
521.526	662.756
524.901	577.289
528.275	441.991
531.65	293.11
535.025	186.805
538.4	116.002
541.775	73.3162
545.149	36.0817
548.524	20.1804
551.899	7.5486
555.274	0.395462
558.649	8.81241
562.024	13.4057
565.398	9.2549
568.773	9.55786
572.148	3.09863
575.523	2.86038
578.898	3.57074
582.273	6.92813
585.647	19.3559
589.022	29.1913
592.397	50.67
595.772	73.6407
599.146	104.244
602.521	139.186
605.896	162.97
609.271	184.049
612.646	185.112
616.021	166.071
619.395	129.68
622.77	98.5042
626.145	63.3481
629.52	38.3151
632.895	23.5263
636.269	17.1695
639.644	7.95439
643.019	9.88401
646.394	10.5135
649.769	7.76539
653.144	13.0638
656.518	7.27213
659.893	4.26637
663.268	10.1642
666.643	5.55
670.018	6.63673
673.393	6.86596
676.767	8.50367
680.142	6.73325
683.517	1.61351
686.892	6.8354
690.267	6.54142
693.641	5.32042
697.016	3.72325
700.391	6.9081
703.766	8.05067
707.141	5.49574
710.515	2.15396
713.89	3.90702
717.265	4.53772
720.64	0.461327
724.015	2.87621
727.389	0.108295
730.764	4.91553
734.139	2.93792
737.514	2.298
740.889	2.85851
744.264	2.3625
747.638	1.87272
751.013	2.54424
754.388	1.6167
757.763	3.46305
761.138	0.100586
764.513	5.32061
767.887	2.81369
771.262	8.14018
774.637	6.80054
778.012	9.72046
781.387	11.2394
784.761	18.1222
788.136	22.2011
791.511	22.8461
794.886	25.8192
798.261	29.5467
801.635	29.9292
805.01	33.8046
808.385	31.0204
811.76	30.632
815.135	28.403
818.51	28.0981
821.884	22.8694
825.259	23.1611
828.634	15.3673
832.009	11.5856
835.384	8.08727
838.759	0.636826
842.133	2.2328
845.508	0.983147
848.883	4.881
852.258	1.13972
855.633	0.784958
859.007	0.098145
862.382	1.21342
865.757	0.42952
869.132	3.69774
872.507	0.319092
875.881	6.15223
879.256	8.40043
882.631	9.93507
886.006	14.138
889.381	13.7915
892.756	19.4247
896.13	19.2173
899.505	19.1893
902.88	23.4099
906.255	18.8368
909.63	20.0125
913.005	18.6398
916.379	17.3558
919.754	11.2106
923.129	17.4872
926.504	15.818
929.879	13.8971
933.253	13.2963
936.628	27.2824
940.003	34.0715
943.378	42.7113
946.753	67.9616
950.127	118.46
953.502	205.732
956.877	349.88
960.252	533.249
963.627	783.721
967.001	956.183
970.376	847.486
973.751	642.41
977.126	506.799
980.501	401.178
983.875	303.695
987.25	210.17
990.625	145.763
994	103.438
997.375	69.3696
1000.75	52.9119
1004.12	38.4486
1007.5	26.4985
1010.87	20.6877
1014.25	9.35201
1017.62	5.59131
1021	2.92099
1024.37	1.40947
1027.75	1.17876
1031.12	6.54031
1034.5	2.92358
1037.87	1.21819
1041.25	4.86376
1044.62	7.11927
1048	10.1085
1051.37	18.1238
1054.75	27.8869
1058.12	45.865
1061.5	60.2891
1064.87	73.524
1068.25	99.6162
1071.62	114.521
1075	127.559
1078.37	129.634
1081.74	119.857
1085.12	111.933
1088.49	93.8013
1091.87	79.2984
1095.24	64.0843
1098.62	58.488
1101.99	53.0797
1105.37	48.3646
1108.74	36.1202
1112.12	37.9323
1115.49	27.9213
1118.87	27.461
1122.24	24.4005
1125.62	23.4964
1128.99	15.3381
1132.37	14.3954
1135.74	8.4768
1139.12	7.48722
1142.49	7.39842
1145.87	0.596794
1149.24	0.758987
1152.62	0.318554
1155.99	0.204712
1159.37	1.26389
1162.74	1.02307
1166.12	6.11508
1169.49	4.55924
1172.87	2.82328
1176.24	0.888552
1179.62	1.44456
1182.99	3.9133
1186.37	2.34022
1189.74	4.15928
1193.11	1.03117
1196.49	0.924425
1199.86	4.4299
1203.24	5.63514
1206.61	3.78346
1209.99	3.57684
1213.36	5.80217
1216.74	7.29776
1220.11	5.08273
1223.49	8.1197
1226.86	9.47395
1230.24	8.14749
1233.61	7.36242
1236.99	9.38574
1240.36	8.16866
1243.74	8.80114
1247.11	7.71154
1250.49	3.76465
1253.86	6.24727
1257.24	4.23309
1260.61	3.20597
1263.98	2.29456
1267.36	5.42636
1270.73	3.07787
1274.11	2.49604
1277.48	2.97901
1280.86	6.12353
1284.23	1.90453
1287.61	4.57907
1290.98	4.48585
1294.36	4.8601
1297.73	5.08922
1301.11	1.60398
1304.48	1.20892
