Measurement: Raman, 780 nm, unoriented, Raman Data Processed
Mineral: Spencerite
Rruff sample: R050581
Ideal chemistry: Zn_4_(PO_4_)_2_(OH)_2_3H_2_O
Locality: Salmo, British Columbia, Canada
Source: University of Arizona Mineral Museum
Description: White aggregate of parallel bladed crystals
Raman shift (cm-1)	intensity
111.832	0
115.207	16.2178
118.582	13.1787
121.957	6.12402
125.332	42.8203
128.706	94.5303
132.081	108.961
135.456	138.458
138.831	151.283
142.206	123.677
145.58	160.761
148.955	130.932
152.33	81.3184
155.705	81.1699
159.08	89.3262
162.454	84.4121
165.829	98.1191
169.204	167.199
172.579	264.016
175.954	256.759
179.328	108.792
182.703	3.72168
186.078	11.7891
189.453	0.348633
192.828	7.92871
196.203	6.30176
199.577	14.7588
202.952	39.3223
206.327	58.9873
209.702	85.1885
213.077	118.536
216.451	173.314
219.826	220.247
223.201	291.621
226.576	359.106
229.951	358.946
233.326	336.801
236.7	266.209
240.075	198.091
243.45	200.386
246.825	200.809
250.2	209.547
253.574	224.833
256.949	295.088
260.324	349.494
263.699	355.842
267.074	287.022
270.449	221.76
273.823	138.717
277.198	99.9561
280.573	66.3916
283.948	65.8789
287.322	62.3018
290.697	58.8242
294.072	53.2773
297.447	54.3877
300.822	64.6553
304.197	49.2139
307.571	1.84277
310.946	1.43262
314.321	19.4365
317.696	11.2744
321.071	9.27832
324.445	10.9873
327.82	24.9575
331.195	72.3696
334.57	105.416
337.945	142.242
341.32	148.373
344.694	159.389
348.069	179.904
351.444	191.232
354.819	177.661
358.194	224.324
361.568	234.493
364.943	255.166
368.318	283.554
371.693	311.104
375.068	331.005
378.442	325.371
381.817	235.609
385.192	155.678
388.567	98.2334
391.942	80.5703
395.317	63.1616
398.691	37.7031
402.066	16.5073
405.441	29.8262
408.816	6.57275
412.191	8.93555
415.565	13.9521
418.94	14.6826
422.315	30.7065
425.69	19.5293
429.065	44.0986
432.44	52.0654
435.814	49.397
439.189	72.8735
442.564	96.6206
445.939	124.731
449.314	176.757
452.688	235.958
456.063	279.92
459.438	284.375
462.813	249.224
466.188	168.57
469.562	104.198
472.937	57.0024
476.312	37.0674
479.687	5.4126
483.062	4.68701
486.437	19.3306
489.811	4.18896
493.186	1.61279
496.561	12.0645
499.936	30.1758
503.311	27.623
506.685	61.2065
510.06	65.7095
513.435	67.8447
516.81	52.7637
520.185	41.855
523.56	31.1328
526.934	25.3477
530.309	37.5669
533.684	31.582
537.059	27.0093
540.434	39.8472
543.808	27.9961
547.183	36.7544
550.558	39.7764
553.933	45.145
557.308	68.0723
560.683	76.0352
564.057	89.9116
567.432	113.524
570.807	129.662
574.182	152.29
577.557	170.475
580.931	173.174
584.306	195.169
587.681	209.67
591.056	199.922
594.431	176.602
597.806	177.167
601.18	163.789
604.555	142.386
607.93	128.605
611.305	97.6709
614.68	65.5659
618.054	49.9873
621.429	44.082
624.804	41.501
628.179	32.7173
631.554	13.4712
634.928	0.402832
638.303	8.65785
641.678	1.48535
645.053	9.71289
648.428	15.0908
651.803	13.9019
655.177	10.3618
658.552	7.62305
661.927	18.5605
665.302	2.00391
668.677	36.979
672.051	38.2783
675.426	18.3252
678.801	19.2319
682.176	23.376
685.551	33.5845
688.926	21.7607
692.3	24.9785
695.675	24.8584
699.05	24.023
702.425	25.7876
705.8	14.4927
709.174	6.48438
712.549	8.16162
715.924	2.23193
719.299	6
722.674	2.35352
726.048	2.20361
729.423	5.62207
732.798	8.01807
736.173	4.69385
739.548	12.8023
742.923	5.63428
746.297	6.38623
749.672	0.535645
753.047	8.11768
756.422	12.5918
759.797	14.8804
763.171	24.5718
766.546	25.0112
769.921	27.4609
773.296	57.9477
776.671	47.3389
780.045	38.625
783.42	49.8525
786.795	56.7881
790.17	54.8633
793.545	70.624
796.919	68.3325
800.294	57.8247
803.669	52.3247
807.044	60.1528
810.419	72.4556
813.794	66.8569
817.168	74.061
820.543	73.8623
823.918	55.2417
827.293	56.2373
830.668	65.2661
834.043	53.2241
837.417	59.6685
840.792	62.6846
844.167	51.6362
847.542	47.1973
850.917	53.831
854.291	53.376
857.666	50.7915
861.041	46.6006
864.416	57.499
867.791	37.3506
871.165	25.6929
874.54	28.8179
877.915	20.8037
881.29	18.4443
884.665	17.8023
888.039	9.42627
891.414	6.95752
894.789	7.0083
898.164	3.60693
901.539	6.18896
904.914	3.19287
908.288	3.74512
911.663	6.15918
915.038	3.09082
918.413	13.9033
921.788	3.86554
925.163	1.2168
928.537	3.4624
931.912	18.3652
935.287	15.7725
938.662	20.0112
942.037	32.2212
945.411	24.6089
948.786	29.939
952.161	35.1694
955.536	38.9736
958.911	36.6255
962.285	30.667
965.66	38.9224
969.035	51.6655
972.41	65.0996
975.785	78.9336
979.159	109.296
982.534	177.161
985.909	312.491
989.284	550.625
992.659	826.354
996.034	1280.18
999.408	1642.42
1002.78	994.589
1006.16	387.855
1009.53	196.35
1012.91	107.986
1016.28	75.606
1019.66	73.3398
1023.03	71.5474
1026.41	34.7197
1029.78	15.9644
1033.16	3.59766
1036.53	13.3848
1039.91	1.76514
1043.28	6.51147
1046.66	7.52588
1050.03	7.56787
1053.4	0.786865
1056.78	16.1599
1060.15	4.59131
1063.53	12.688
1066.9	3.71289
1070.28	12.2598
1073.65	24.7383
1077.03	30.72
1080.4	51.644
1083.78	83.1045
1087.15	148.846
1090.53	225.682
1093.9	325.038
1097.28	322.295
1100.65	163.516
1104.03	73.6362
1107.4	29.135
1110.78	19.8294
1114.15	11.3687
1117.53	6.51611
1120.9	9.8208
1124.28	18.762
1127.65	3.18677
1131.03	1.87939
1134.4	0.779297
1137.78	0.612061
1141.15	4.89111
1144.53	1.84448
1147.9	2.37817
1151.28	0.910889
1154.65	3.05249
1158.03	18.2822
1161.4	12.9573
1164.77	29.9348
1168.15	31.4556
1171.52	27.8469
1174.9	32.7207
1178.27	35.8272
1181.65	42.6238
1185.02	45.2222
1188.4	48.0667
1191.77	44.0901
1195.15	45.3242
1198.52	55.9522
1201.9	54.9634
1205.27	45.6362
1208.65	43.936
1212.02	34.77
1215.4	25.1157
1218.77	27.4297
1222.15	19.5378
1225.52	9.87744
1228.9	8.22461
1232.27	14.7642
1235.64	23.0088
1239.02	30.782
1242.39	28.5569
1245.77	7.05273
1249.14	0.997803
1252.52	0.666281
1255.89	10.4546
1259.27	0.714355
1262.64	16.4851
1266.02	12.7363
1269.39	14.3342
1272.77	18.1179
1276.14	10.2493
1279.52	7.85938
1282.89	14.28
1286.27	0
