Measurement: Raman, 532 nm, unoriented, Raman Data Processed
Mineral: Spencerite
Rruff sample: R050581
Ideal chemistry: Zn_4_(PO_4_)_2_(OH)_2_3H_2_O
Locality: Salmo, British Columbia, Canada
Source: University of Arizona Mineral Museum
Description: White aggregate of parallel bladed crystals
Raman shift (cm-1)	intensity
152.344	0
155.237	32.1699
158.13	41.1582
161.022	117.314
163.915	153.175
166.808	285.356
169.7	439.492
172.593	816.025
175.486	1030.61
178.379	651.322
181.271	277.916
184.164	106.627
187.057	30.1836
189.949	16.6289
192.842	23.4746
195.735	24.6172
198.627	67.8691
201.52	97.7656
204.413	147.51
207.305	259.6
210.198	284.055
213.091	383.955
215.984	487.129
218.876	622.695
221.769	808.135
224.662	990.893
227.554	1148.88
230.447	1308.93
233.34	1278.44
236.232	1153.12
239.125	1032.69
242.018	1038.19
244.911	1134.58
247.803	1354.8
250.696	1580.53
253.589	1871.27
256.481	2276.62
259.374	2681.62
262.267	2981.53
265.16	2979.22
268.052	2574.67
270.945	1973.79
273.838	1508.68
276.73	1153.65
279.623	970.356
282.516	850.635
285.409	753.301
288.301	722.898
291.194	620.219
294.087	502.09
296.979	444.803
299.872	416.957
302.765	355.688
305.657	259.447
308.55	189.885
311.443	57.541
314.336	16.7383
317.228	16.3477
320.121	26.0078
323.014	45.2637
325.906	12.1816
328.799	120.078
331.692	291.996
334.584	454.303
337.477	543.721
340.37	559.408
343.263	642.717
346.155	713.92
349.048	817.451
351.941	804.986
354.833	795.1
357.726	831.312
360.619	916.324
363.512	981.846
366.404	1020.2
369.297	1100.87
372.19	1154.8
375.082	1199.9
377.975	1175.45
380.868	986.537
383.76	739.41
386.653	561.691
389.546	478.318
392.438	477.959
395.331	432.422
398.224	418.453
401.117	349.826
404.009	209.299
406.902	135.9
409.795	61.4824
412.688	21.9023
415.58	44.5215
418.473	18.5566
421.366	35.2188
424.258	28.6641
427.151	75.4316
430.044	141.363
432.936	151.535
435.829	161.043
438.722	195.791
441.615	240.408
444.507	334.473
447.4	440.584
450.293	579.705
453.185	793.031
456.078	1014.92
458.971	1069.26
461.863	977.219
464.756	775.85
467.649	577.75
470.541	383.367
473.434	178.188
476.327	28.291
479.22	8.42773
482.112	13.5977
485.005	45.2793
487.898	5.05469
490.791	19.6191
493.683	61.4629
496.576	130.648
499.469	196.619
502.361	242.203
505.254	331.188
508.147	401.303
511.039	446.219
513.932	413.465
516.825	324.148
519.717	273.029
522.61	188.801
525.503	175.359
528.396	177.912
531.288	54.8984
534.181	16.043
537.074	21.7207
539.966	1.40039
542.859	87.0312
545.752	142.051
548.644	170.897
551.537	173.012
554.43	211.035
557.323	270.459
560.215	355.672
563.108	349.383
566.001	374.682
568.894	469.19
571.786	527.564
574.679	607.15
577.572	753.994
580.464	954.963
583.357	1222.78
586.25	1440.27
589.142	1539.45
592.035	1409.55
594.928	1138.72
597.821	981.602
600.713	898.096
603.606	800.936
606.499	635.17
609.391	464.022
612.284	342.578
615.177	269.978
618.069	185.658
620.962	116.166
623.855	71.0684
626.748	27.0137
629.64	1.80859
632.533	109.728
635.426	47.9316
638.318	59.0527
641.211	161.268
644.104	261.697
646.996	292.336
649.889	256.252
652.782	217.863
655.675	211.023
658.567	182.144
661.46	197.668
664.353	257.838
667.245	308.709
670.138	469.113
673.031	483.887
675.923	548.805
678.816	561.713
681.709	579.566
684.602	530.231
687.494	438.363
690.387	435.352
693.28	358.443
696.172	322.4
699.065	364.934
701.958	376.568
704.851	433.435
707.743	430.725
710.636	373.338
713.529	379.406
716.421	347.791
719.314	279.926
722.207	220.26
725.1	157.715
727.992	193.629
730.885	170.697
733.778	137.119
736.67	122.75
739.563	167.912
742.456	142.15
745.348	135.545
748.241	118.838
751.134	64.4297
754.027	116.332
756.919	124.939
759.812	82.5215
762.705	86.543
765.597	45.3535
768.49	101.672
771.383	84.0898
774.275	57.4746
777.168	2.50204
780.061	60.3477
782.954	38.2988
785.846	13.6719
788.739	19.5293
791.632	69.0977
794.524	88.3984
797.417	52.7109
800.31	61.5273
803.202	105.777
806.095	112.658
808.988	106.754
811.881	53.5234
814.773	66.1289
817.666	47.4414
820.559	38.0879
823.451	99.4668
826.344	107.213
829.237	181.199
832.13	228.246
835.022	186.25
837.915	150.478
840.808	162.769
843.7	125.76
846.593	96.0469
849.486	38.4805
852.378	35.8027
855.271	14.127
858.164	83.1152
861.057	146.326
863.949	163.252
866.842	211.269
869.735	264.406
872.627	293.746
875.52	256.201
878.413	133.244
881.306	151.273
884.198	114.824
887.091	91.709
889.984	141.129
892.876	135.863
895.769	228.312
898.662	211.309
901.554	190.635
904.447	159.473
907.34	157.644
910.232	207.932
913.125	194.195
916.018	146.488
918.911	106.668
921.803	12.1172
924.696	5.27344
927.589	14.4375
930.481	69.2852
933.374	39.2227
936.267	74.5801
939.159	85.6016
942.052	104.994
944.945	28.7051
947.838	7.05469
950.73	31.332
953.623	65.1113
956.516	36.1367
959.409	46.2461
962.301	57.7617
965.194	50.1621
968.087	24.4219
970.979	1.30664
973.872	169.953
976.765	353.594
979.657	685.658
982.55	1034.22
985.443	1872.96
988.336	3453.33
991.228	5560.77
994.121	8557.66
997.014	12635.5
999.906	14060.8
1002.8	8322.56
1005.69	3714.49
1008.58	1812
1011.48	1114.18
1014.37	805.693
1017.26	691.363
1020.15	639.475
1023.05	556.402
1025.94	349.076
1028.83	331.496
1031.73	211.935
1034.62	193.586
1037.51	62.6777
1040.4	23.3887
1043.3	17.6016
1046.19	29.9785
1049.08	129.252
1051.97	141.412
1054.87	138.953
1057.76	124.344
1060.65	39.1895
1063.55	68.7148
1066.44	32.3418
1069.33	31.6035
1072.22	151.254
1075.12	194.369
1078.01	314.195
1080.9	441.139
1083.8	682.449
1086.69	1071.52
1089.58	1586.19
1092.47	2559.08
1095.37	3356.33
1098.26	2516.23
1101.15	1263.86
1104.04	574.416
1106.94	335.873
1109.83	188.492
1112.72	156.75
1115.62	151.809
1118.51	112.758
1121.4	63.3105
1124.29	33.7266
1127.18	21.5645
1130.08	7.04492
1132.97	48.1797
1135.86	145.639
1138.76	226.719
1141.65	250.066
1144.54	213.057
1147.43	281.422
1150.33	239.254
1153.22	231.877
1156.11	180.826
1159.01	96.5137
1161.9	98.2188
1164.79	120.889
1167.68	177.916
1170.58	210.68
1173.47	286.269
1176.36	314.07
1179.25	267.961
1182.15	335.086
1185.04	225.08
1187.93	185.791
1190.83	129.742
1193.72	152.865
1196.61	164.057
1199.5	192.656
1202.4	194.254
1205.29	190.531
1208.18	155.988
1211.07	97.0273
1213.97	96.5293
1216.86	67.6953
1219.75	39.9551
1222.64	59.8906
1225.54	99.3984
1228.43	96.3769
1231.32	113.252
1234.21	100.012
1237.11	15.9375
1240	12.8164
1242.89	20.3263
1245.79	31.959
1248.68	70.3867
1251.57	152.137
1254.46	179.203
1257.36	207.445
1260.25	195.91
1263.14	219.65
1266.04	221.324
1268.93	290.914
1271.82	223.09
1274.71	138.16
1277.61	108.193
1280.5	38.8223
1283.39	45.2441
1286.28	66.7734
1289.18	47.6973
1292.07	53.7754
1294.96	39.2715
1297.86	18.4609
1300.75	8.26172
