Measurement: Raman, 532 nm, unoriented, Raman Data Processed
Mineral: Sperrylite
Rruff sample: R070214
Ideal chemistry: PtAs_2_
Locality: Vermilion Mine, Denison Township, Sudbury District, Ontario, Canada
Source: Michael Scott
Description: Loose aggregate of bright silver cubes, some with octahedral modifications
Raman shift (cm-1)	intensity
164.607	0
167.5	19.6664
170.393	39.8696
173.286	4.56457
176.178	27.2706
179.071	2.64771
181.964	11.4876
184.856	11.4447
187.749	30.281
190.642	32.7246
193.535	33.1068
196.427	142.322
199.32	316.739
202.213	405.135
205.105	631.784
207.998	1083.84
210.891	1617.71
213.783	1322.53
216.676	434.546
219.569	376.318
222.462	432.54
225.354	103.836
228.247	30.8051
231.14	15.572
234.032	1.26599
236.925	1.67041
239.818	23.9061
242.71	45.3737
245.603	47.4722
248.496	63.0251
251.388	55.5023
254.281	97.6168
257.174	103.368
260.067	162.039
262.959	196.108
265.852	213.175
268.745	262.674
271.637	414.61
274.53	577.589
277.423	594.793
280.315	197.038
283.208	157.891
286.101	160.108
288.994	168.631
291.886	225.1
294.779	90.0965
297.672	51.8283
300.564	32.1183
303.457	1.79614
306.35	3.36377
309.243	23.8362
312.135	3.39514
315.028	11.6235
317.921	0.216125
320.813	15.7757
323.706	11.6574
326.599	22.785
329.491	7.01623
332.384	9.92517
335.277	21.642
338.17	56.2632
341.062	81.9426
343.955	76.999
346.848	47.1701
349.74	12.5777
352.633	8.09125
355.526	29.2198
358.418	36.0426
361.311	26.9027
364.204	38.0333
367.097	44.738
369.989	64.4208
372.882	53.9917
375.775	91.3791
378.667	105.261
381.56	45.2148
384.453	33.9825
387.346	8.43097
390.238	9.84699
393.131	9.08478
396.024	10.6224
398.916	29.3539
401.809	21.0364
404.702	11.7075
407.594	22.4503
410.487	35.8805
413.38	13.5847
416.272	4.25952
419.165	5.93896
422.058	23.7311
424.951	19.0665
427.843	28.6351
430.736	13.0883
433.629	39.1899
436.521	28.4954
439.414	38.5189
442.307	27.5637
445.2	36.6575
448.092	42.1933
450.985	22.2253
453.878	37.0223
456.77	50.7703
459.663	16.6904
462.556	32.4245
465.448	26.7036
468.341	1.88519
471.234	35.838
474.127	25.7297
477.019	36.1863
479.912	55.4815
482.805	46.9641
485.697	65.131
488.59	46.419
491.483	27.6532
494.375	49.5521
497.268	74.5254
500.161	64.5226
503.053	67.5861
505.946	73.5449
508.839	46.8375
511.732	52.213
514.624	44.7165
517.517	46.4025
520.41	2.34204
523.302	24.0941
526.195	7.36084
529.088	15.288
531.981	17.2585
534.873	3.25623
537.766	22.4279
540.659	11.8752
543.551	46.6995
546.444	30.1517
549.337	3.61243
552.229	12.3268
555.122	16.7095
558.015	31.9518
560.908	29.9866
563.8	21.5156
566.693	14.433
569.586	4.20544
572.478	12.8585
575.371	25.5112
578.264	15.759
581.156	36.5336
584.049	19.4523
586.942	34.47
589.835	40.7574
592.727	48.9628
595.62	60.4996
598.513	46.7953
601.405	35.0288
604.298	28.479
607.191	30.7193
610.083	43.6771
612.976	18.6465
615.869	11.8925
618.762	11.9639
621.654	27.113
624.547	26.2851
627.44	41.7272
630.332	15.4144
633.225	18.934
636.118	15.8488
639.01	0.986145
641.903	37.0284
644.796	4.21509
647.689	14.5016
650.581	24.558
653.474	1.42322
656.367	11.7457
659.259	37.2737
662.152	16.8899
665.045	0.146362
667.938	44.8577
670.83	31.772
673.723	0.053894
676.616	16.8229
679.508	28.9849
682.401	0.168152
685.294	32.0802
688.186	27.984
691.079	22.7612
693.972	29.9196
696.865	35.2371
699.757	15.361
702.65	14.8667
705.543	8.69269
708.435	35.4631
711.328	17.5776
714.221	21.605
717.113	33.4802
720.006	18.8957
722.899	30.1719
725.792	27.4354
728.684	39.3685
731.577	23.1647
734.47	30.2413
737.362	26.0805
740.255	31.2199
743.148	45.4973
746.04	40.6577
748.933	10.1572
751.826	59.9061
754.719	46.1299
757.611	25.3995
760.504	24.6022
763.397	23.7067
766.289	40.3251
769.182	8.49097
772.075	26.9627
774.967	1.85938
777.86	26.267
780.753	50.2841
783.646	28.4908
786.538	32.259
789.431	26.2777
792.324	42.0508
795.216	43.3916
798.109	60.9558
801.002	32.5415
803.894	12.5155
806.787	7.90723
809.68	52.5519
812.573	45.8689
815.465	3.32349
818.358	22.3926
821.251	62.6274
824.143	46.2549
827.036	14.6478
829.929	37.8704
832.822	22.0008
835.714	28.5803
838.607	40.3937
841.5	40.673
844.392	21.6445
847.285	18.485
850.178	18.7875
853.07	10.4447
855.963	12.7455
858.856	8.89062
861.749	8.40625
864.641	25.2651
867.534	32.666
870.427	21.3531
873.319	63.4022
876.212	27.3607
879.105	29.3365
881.997	7.71655
884.89	25.0172
887.783	39.4427
890.676	30.9203
893.568	25.1343
896.461	29.8562
899.354	16.1322
902.246	20.1339
905.139	8.75464
908.032	13.221
910.924	15.5463
913.817	13.6999
916.71	2.47961
919.602	5.75586
922.495	38.1456
925.388	34.0223
928.281	39.9048
931.173	19.3564
934.066	34.2819
936.959	9.59827
939.851	18.484
942.744	37.3624
945.637	19.9956
948.529	19.0901
951.422	23.5277
954.315	25.871
957.208	5.58386
960.1	8.17957
962.993	18.6528
965.886	32.9114
968.778	20.9711
971.671	15.8579
974.564	26.2963
977.457	8.7699
980.349	22.9793
983.242	34.7982
986.135	12.9745
989.027	21.3125
991.92	15.1396
994.813	9.34448
997.705	21.0283
1000.6	35.946
1003.49	52.8575
1006.38	50.5243
1009.28	94.9915
1012.17	114.548
1015.06	143.259
1017.95	202.058
1020.85	235.175
1023.74	259.599
1026.63	185.457
1029.53	88.8633
1032.42	43.3005
1035.31	59.1005
1038.2	46.6644
1041.1	34.2662
1043.99	36.7019
1046.88	34.3307
1049.77	56.5265
1052.67	42.8425
1055.56	35.2706
1058.45	12.4172
1061.35	20.3441
1064.24	40.522
1067.13	0.819458
1070.02	21.9659
1072.92	23.5066
1075.81	15.8036
1078.7	3.28674
1081.59	35.0746
1084.49	37.3005
1087.38	34.5912
1090.27	38.9271
1093.16	22.1815
1096.06	57.9487
1098.95	17.3857
1101.84	40.4476
1104.73	35.5687
1107.63	4.4314
1110.52	43.1857
1113.41	9.55469
1116.31	16.8129
1119.2	18.2763
1122.09	42.1792
1124.98	17.5572
1127.88	3.53442
1130.77	20.0079
1133.66	16.4928
1136.56	1.25427
1139.45	37.9005
1142.34	0.530396
1145.23	9.47522
1148.13	21.6893
1151.02	29.2299
1153.91	42.7611
1156.8	22.3064
1159.7	50.1337
1162.59	16.0668
1165.48	19.2601
1168.38	23.3414
1171.27	46.9109
1174.16	28.0734
1177.05	15.0265
1179.95	32.0498
1182.84	28.043
1185.73	38.1577
1188.62	58.8248
1191.52	13.3899
1194.41	81.9388
1197.3	60.1282
1200.19	47.09
1203.09	34.8738
1205.98	16.6848
1208.87	50.3641
1211.77	8.0437
1214.66	35.2903
1217.55	38.9219
1220.44	22.3734
1223.34	6.23596
1226.23	5.58618
1229.12	7.24316
1232.01	12.8945
1234.91	44.7526
1237.8	33.3412
1240.69	13.4232
1243.59	17.5037
1246.48	44.0772
1249.37	28.3489
1252.26	11.2827
1255.16	41.1597
1258.05	5.35718
1260.94	16.4851
1263.83	15.4401
1266.73	44.0465
1269.62	8.79639
1272.51	44.6224
1275.4	39.7987
1278.3	36.6832
1281.19	31.8158
1284.08	50.544
1286.98	35.2916
1289.87	30.543
1292.76	4.99439
1295.65	25.1947
1298.55	27.6077
1301.44	28.1943
1304.33	17.9155
