Measurement: Raman, 785 nm, unoriented, Raman Data Processed
Mineral: Sperrylite
Rruff sample: R070214
Ideal chemistry: PtAs_2_
Locality: Vermilion Mine, Denison Township, Sudbury District, Ontario, Canada
Source: Michael Scott
Description: Loose aggregate of bright silver cubes, some with octahedral modifications
Raman shift (cm-1)	intensity
169.231	0
172.124	54.9191
175.017	68.6007
177.909	67.0026
180.802	29.0065
183.695	28.8917
186.587	28.553
189.48	70.9807
192.373	10.971
195.265	53.7152
198.158	128.078
201.051	168.157
203.944	268.664
206.836	303.432
209.729	512.291
212.622	663.919
215.514	292.179
218.407	133.666
221.3	153.582
224.192	110.827
227.085	20.9169
229.978	0.937683
232.87	3.7406
235.763	9.698
238.656	0.848511
241.549	54.1993
244.441	61.5498
247.334	69.0266
250.227	50.8254
253.119	102.091
256.012	138.224
258.905	166.659
261.798	246.261
264.69	261.83
267.583	179.648
270.476	183.374
273.368	253.381
276.261	356.514
279.154	233.081
282.046	123.895
284.939	119.014
287.832	131.27
290.724	134.044
293.617	128.056
296.51	71.5807
299.403	53.6258
302.295	19.9073
305.188	23.0352
308.081	22.09
310.973	23.7054
313.866	29.7519
316.759	12.8186
319.651	45.239
322.544	25.1734
325.437	24.2005
328.33	19.3408
331.222	60.8579
334.115	60.6431
337.008	61.0431
339.9	110.53
342.793	125.147
345.686	58.32
348.579	40.9256
351.471	30.3805
354.364	18.0625
357.257	11.5259
360.149	19.9609
363.042	25.3525
365.935	7.9765
368.827	22.5729
371.72	48.0397
374.613	43.1056
377.505	67.7485
380.398	42.4825
383.291	38.0076
386.184	17.6603
389.076	21.5281
391.969	17.8517
394.862	10.6799
397.754	3.97919
400.647	4.45898
403.54	24.306
406.433	3.73908
409.325	7.84992
412.218	17.623
415.111	39.8897
418.003	8.68359
420.896	22.3975
423.789	16.1656
426.681	20.8434
429.574	5.78033
432.467	6.12671
435.36	36.4294
438.252	9.02838
441.145	24.1436
444.038	29.7895
446.93	35.3645
449.823	13.3585
452.716	21.8271
455.608	29.1697
458.501	26.7958
461.394	10.2006
464.286	21.583
467.179	9.09406
470.072	16.2446
472.965	15.6586
475.857	3.78369
478.75	9.53406
481.643	6.58575
484.535	16.7228
487.428	25.3723
490.321	21.2639
493.214	27.0561
496.106	36.9205
498.999	32.6754
501.892	37.4699
504.784	34.5711
507.677	28.9862
510.57	22.5192
513.462	29.2007
516.355	13.4057
519.248	26.4253
522.14	20.5967
525.033	18.9901
527.926	33.6302
530.819	12.1325
533.711	16.477
536.604	26.5836
539.497	14.4423
542.389	25.6032
545.282	7.78564
548.175	4.5993
551.067	0.247437
553.96	11.2593
556.853	9.40918
559.745	7.71564
562.638	22.2295
565.531	24.2349
568.424	1.33264
571.316	13.3372
574.209	22.4318
577.102	12.0518
579.994	12.3103
582.887	22.5362
585.78	8.70007
588.673	37.8397
591.565	13.0831
594.458	20.8054
597.351	8.57526
600.243	11.9173
603.136	18.2784
606.029	8.63678
608.921	22.2026
611.814	13.7307
614.707	19.3059
617.6	3.4378
620.492	6.20233
623.385	34.4853
626.278	29.0761
629.17	25.1301
632.063	20.2488
634.956	3.49585
637.848	34.6014
640.741	0.483093
643.634	12.9734
646.527	3.36224
649.419	23.8381
652.312	33.4227
655.205	21.4504
658.097	25.9228
660.99	16.283
663.883	10.0324
666.775	38.8939
669.668	1.26788
672.561	22.3811
675.454	32.6213
678.346	23.9389
681.239	16.0909
684.132	16.8879
687.024	15.7508
689.917	28.6737
692.81	8.10523
695.702	39.03
698.595	19.2208
701.488	17.5561
704.381	25.713
707.273	18.1592
710.166	16.5911
713.059	23.6515
715.951	11.8243
718.844	12.7139
721.737	11.1564
724.63	14.0243
727.522	7.57959
730.415	9.62128
733.308	18.3013
736.2	31.3612
739.093	23.2822
741.986	46.0489
744.878	16.2143
747.771	7.00659
750.664	19.9357
753.557	39.2872
756.449	20.7568
759.342	40.5827
762.235	3.97858
765.127	18.0974
768.02	6.03461
770.913	28.7548
773.805	15.7747
776.698	43.0487
779.591	33.8915
782.484	49.3862
785.376	32.9247
788.269	15.6611
791.162	17.6497
794.054	23.4819
796.947	11.2009
799.84	18.7597
802.732	12.291
805.625	17.923
808.518	21.3453
811.41	18.3389
814.303	11.3153
817.196	16.7213
820.089	29.0589
822.981	3.84638
825.874	7.42737
828.767	25.7876
831.659	28.053
834.552	16.9636
837.445	19.8364
840.337	11.6112
843.23	5.47003
846.123	3.82562
849.016	12.1776
851.908	16.3446
854.801	17.0679
857.694	30.7482
860.586	16.5286
863.479	31.2918
866.372	28.4317
869.264	14.684
872.157	26.3388
875.05	32.1495
877.943	23.8087
880.835	18.3937
883.728	12.3705
886.621	25.3175
889.513	20.2808
892.406	29.1207
895.299	20.6498
898.192	0.76709
901.084	23.6183
903.977	27.187
906.87	25.1915
909.762	52.8738
912.655	10.322
915.548	19.5024
918.44	17.4614
921.333	23.3975
924.226	19.4938
927.119	20.1504
930.011	31.2044
932.904	10.6668
935.797	9.00494
938.689	7.25513
941.582	31.9371
944.475	18.9331
947.367	22.259
950.26	13.7563
953.153	25.9528
956.045	5.35498
958.938	44.9689
961.831	2.42127
964.724	4.26526
967.616	26.4471
970.509	19.2739
973.402	12.2293
976.294	23.0855
979.187	3.57263
982.08	27.2573
984.972	17.5301
987.865	15.7727
990.758	8.96851
993.651	26.4784
996.543	14.6254
999.436	25.2357
1002.33	36.6386
1005.22	22.7853
1008.11	23.3378
1011.01	26.6548
1013.9	31.3431
1016.79	11.9368
1019.68	44.9174
1022.58	14.3712
1025.47	29.0649
1028.36	32.7938
1031.26	27.2084
1034.15	14.3797
1037.04	9.38599
1039.93	12.2058
1042.83	6.93549
1045.72	4.0415
1048.61	14.8384
1051.51	8.24689
1054.4	12.8258
1057.29	25.5615
1060.18	33.8052
1063.08	27.0129
1065.97	20.1348
1068.86	29.8315
1071.75	11.4211
1074.65	1.7016
1077.54	16.0203
1080.43	22.1326
1083.32	14.7195
1086.22	27.1459
1089.11	28.048
1092	43.7223
1094.89	24.9924
1097.79	34.6768
1100.68	39.2192
1103.57	26.8669
1106.47	8.28192
1109.36	17.6094
1112.25	21.8101
1115.14	16.7026
1118.04	31.6282
1120.93	37.4747
1123.82	14.3616
1126.71	46.8998
1129.61	36.1462
1132.5	22.9406
1135.39	23.7972
1138.29	16.0844
1141.18	30.3265
1144.07	20.6345
1146.96	40.9597
1149.86	35.1326
1152.75	22.9574
1155.64	0.772339
1158.53	18.2193
1161.43	29.2515
1164.32	12.5523
1167.21	32.8018
1170.11	9.78064
1173	31.7216
1175.89	20.7669
1178.78	2.46143
1181.68	1.65936
1184.57	21.2451
1187.46	0.729553
1190.35	15.8195
1193.25	36.0217
1196.14	57.2799
1199.03	18.2654
1201.92	24.5746
1204.82	20.5679
1207.71	11.4717
1210.6	5.96527
1213.5	17.3882
1216.39	0.701904
1219.28	20.0104
1222.17	2.03192
1225.07	31.0382
1227.96	0
