Measurement: Raman, 780 nm, unoriented, Raman Data Processed
Mineral: Spessartine
Rruff sample: R060447
Ideal chemistry: Mn^2+^_3_Al_2_(SiO_4_)_3_
Locality: unknown
Source: Gemological Institute of America
Description: Orange fragment
Measured chemistry: (Mn^2+^_2.85_Fe^2+^_0.07_Mg_0.05_Ca_0.03_)_Î£=3_Al_2.00_(Si_1.00_O_4_)_3_
Raman shift (cm-1)	intensity
102.331	0
105.705	0.809254
109.08	0.089531
112.455	0.475346
115.83	1.10878
119.205	2.82872
122.579	1.36452
125.954	0.615807
129.329	0.078838
132.704	0.186943
136.079	0.206657
139.453	1.08264
142.828	4.2686
146.203	5.03537
149.578	6.08064
152.953	9.02958
156.327	12.7608
159.702	16.5327
163.077	31.0719
166.452	25.5832
169.827	15.9613
173.202	21.885
176.576	22.1293
179.951	12.3734
183.326	8.702
186.701	7.07878
190.076	8.33853
193.451	10.9278
196.825	13.4754
200.2	11.0198
203.575	9.15165
206.95	9.64043
210.325	12.5911
213.699	18.6392
217.074	28.8495
220.449	37.8931
223.824	28.5155
227.199	13.5991
230.573	6.74672
233.948	4.53555
237.323	2.86877
240.698	2.03715
244.073	1.52034
247.447	0.238918
250.822	0.101807
254.197	1.0177
257.572	0.648781
260.947	0.175091
264.322	0.062115
267.696	0.019054
271.071	0.033722
274.446	0.746841
277.821	1.03532
281.196	1.83205
284.57	3.04831
287.945	3.03301
291.32	4.89559
294.695	7.01767
298.07	9.23154
301.445	10.9561
304.819	11.3353
308.194	12.4942
311.569	17.0758
314.944	23.0465
318.319	30.8541
321.693	29.4162
325.068	22.1749
328.443	20.6489
331.818	26.7438
335.193	32.5878
338.567	45.255
341.942	63.9609
345.317	93.025
348.692	119.823
352.067	100.692
355.442	59.708
358.816	36.0777
362.191	29.4092
365.566	32.3636
368.941	42.9845
372.316	49.9126
375.69	37.8606
379.065	20.1893
382.44	12.2917
385.815	7.03308
389.19	5.19318
392.565	3.62479
395.939	2.79393
399.314	1.92136
402.689	0.339703
406.064	0.96896
409.439	0.328808
412.813	0.647263
416.188	0.141743
419.563	0.161263
422.938	0.275974
426.313	0.392284
429.688	0.219906
433.062	0.05587
436.437	0.173794
439.812	0.275536
443.187	0.024612
446.562	1.15324
449.936	1.84269
453.311	1.83888
456.686	4.30484
460.061	5.44532
463.436	6.22678
466.81	8.58825
470.185	11.0736
473.56	13.7042
476.935	10.9691
480.31	5.49905
483.685	6.61177
487.059	7.1425
490.434	8.17321
493.809	9.6639
497.184	16.2684
500.559	19.014
503.933	11.4622
507.308	5.20725
510.683	1.67365
514.058	0.656948
517.433	0.878613
520.808	0.598755
524.182	0.896805
527.557	1.33144
530.932	2.57375
534.307	5.38051
537.682	8.73064
541.056	13.9728
544.431	22.1116
547.806	31.7845
551.181	38.7906
554.556	31.4958
557.93	17.8018
561.305	8.7994
564.68	3.85926
568.055	0.894386
571.43	0.014622
574.804	0.576263
578.179	0.12048
581.554	0.539192
584.929	0.046661
588.304	0.01944
591.679	0.892754
595.053	0.201233
598.428	0.800251
601.803	0.873291
605.178	0.052647
608.553	0.65966
611.928	1.8108
615.302	3.48706
618.677	3.83871
622.052	4.87346
625.427	7.73003
628.802	10.8536
632.176	9.4208
635.551	6.78353
638.926	4.43864
642.301	4.75425
645.676	5.11436
649.05	5.53547
652.425	5.88065
655.8	7.47964
659.175	7.28653
662.55	8.31248
665.924	7.66929
669.299	6.72173
672.674	6.72006
676.049	5.37343
679.424	4.61681
682.799	4.37997
686.173	4.54176
689.548	4.26054
692.923	2.61305
696.298	3.39901
699.673	2.90181
703.048	3.3042
706.422	1.99457
709.797	2.25303
713.172	2.44991
716.547	2.13586
719.922	1.47163
723.296	1.74786
726.671	1.45361
730.046	0.910625
733.421	1.27859
736.796	1.1294
740.17	0.467552
743.545	0.242474
746.92	0.640152
750.295	0.779362
753.67	0.026382
757.044	0.635773
760.419	0.093346
763.794	0.562546
767.169	0.498459
770.544	0.015724
773.919	1.23715
777.293	0.409805
780.668	0.8241
784.043	0.43232
787.418	0.779125
790.793	0.931946
794.167	0.938049
797.542	0.670479
800.917	0.248009
804.292	0.741463
807.667	1.77798
811.042	1.60001
814.416	0.813202
817.791	0.847
821.166	2.12343
824.541	2.04853
827.916	2.42149
831.29	4.62002
834.665	6.33361
838.04	9.48074
841.415	14.5144
844.79	19.7892
848.164	22.9857
851.539	19.2587
854.914	14.1232
858.289	10.3851
861.664	8.0033
865.039	9.45585
868.413	12.2034
871.788	15.026
875.163	20.907
878.538	24.5605
881.913	30.6449
885.287	39.5793
888.662	55.1182
892.037	84.4211
895.412	122.274
898.787	172.738
902.162	239.215
905.536	282.543
908.911	231.021
912.286	141.072
915.661	81.8743
919.036	49.4987
922.41	30.2335
925.785	17.1096
929.16	11.6186
932.535	6.021
935.91	3.63026
939.284	2.68521
942.659	1.08653
946.034	0.415298
949.409	0.015972
952.784	0.472061
956.159	0.992249
959.533	0.317585
962.908	0.287445
966.283	1.12772
969.658	1.55984
973.033	1.98653
976.407	0.873062
979.782	0.512951
983.157	0.30357
986.532	0.293564
989.907	1.11045
993.282	0.930401
996.656	1.4696
1000.03	1.4663
1003.41	1.65401
1006.78	2.73759
1010.16	4.1929
1013.53	5.19043
1016.9	7.46691
1020.28	8.38825
1023.65	12.026
1027.03	13.5557
1030.4	13.8973
1033.78	9.85778
1037.15	6.00256
1040.53	4.76877
1043.9	2.86735
1047.28	2.06492
1050.65	1.6738
1054.03	1.54194
1057.4	0.995659
1060.78	1.36743
1064.15	1.14768
1067.53	0.304478
1070.9	0.87056
1074.28	1.27999
1077.65	0.904205
1081.03	1.12022
1084.4	2.25472
1087.78	0.578232
1091.15	0.212391
1094.53	0.545578
1097.9	0.840019
1101.28	0.564445
1104.65	0.487892
1108.03	0.043556
1111.4	0.495312
1114.78	0.798698
1118.15	0.864655
1121.52	1.0317
1124.9	0.633923
1128.27	0.529877
1131.65	0.128735
1135.02	1.39212
1138.4	0.547989
1141.77	0.366318
1145.15	0.760815
1148.52	1.12646
1151.9	0.606438
1155.27	0.388748
1158.65	1.16741
1162.02	0.077484
1165.4	0.012615
1168.77	1.59858
1172.15	0.805485
1175.52	1.30558
1178.9	1.10904
1182.27	0.91465
1185.65	0.886967
1189.02	0.775627
1192.4	0.829823
1195.77	0.495766
1199.14	0.007866
1202.52	0.360527
1205.89	0.325584
1209.27	0.950466
1212.64	0.201519
1216.02	1.90922
1219.39	2.04134
1222.77	3.15553
1226.14	3.58214
1229.52	2.33903
1232.89	1.11719
1236.27	1.56262
1239.64	2.09692
1243.02	2.00416
1246.39	2.18161
1249.77	2.21184
1253.14	1.35957
1256.52	0.691467
1259.89	0.364864
1263.27	1.38775
1266.64	0.516953
1270.02	1.5658
1273.39	1.20843
1276.77	0.913738
