Measurement: Raman, 514 nm, unoriented, Raman Data Processed
Mineral: Spessartine
Rruff sample: R060279
Ideal chemistry: Mn^2+^_3_Al_2_(SiO_4_)_3_
Locality: Shigar Valley, northeast of Skardu, Baltistan, Pakistan
Source: Herb Obodda
Description: Reddish-brown fine grained fragment
Measured chemistry: (Mn^2+^_1.64_Ca_0.82_Fe^2+^_0.46_Mg_0.08_)_Σ=3_(Al_1.98_Fe^3+^_0.02_)_Σ=2_(Si_1.00_O_4_)_3_
Raman shift (cm-1)	intensity
103.82	0
107.995	20.074
112.168	51.246
116.339	35.712
120.508	78.252
124.675	25.25
128.84	6.05
133.003	13.705
137.164	9.039
141.323	21.514
145.48	8.154
149.635	2.746
153.788	16.15
157.939	82.221
162.088	202.864
166.235	474.01
170.38	612.611
174.523	351.629
178.664	123.038
182.803	90.818
186.94	91.04
191.076	164.623
195.209	204.528
199.34	239.549
203.47	273.676
207.597	348.93
211.722	423.329
215.846	360.197
219.967	316.586
224.087	417.45
228.204	451.471
232.32	444.651
236.434	452.993
240.545	329.507
244.655	246.195
248.763	197.06
252.869	144.1
256.973	78.312
261.075	83.689
265.175	96.484
269.273	77.316
273.369	64.815
277.463	80.97
281.556	109.299
285.646	61.879
289.734	102.061
293.821	143.501
297.905	183.168
301.988	132.948
306.069	146.007
310.147	186.236
314.224	236.622
318.299	342.129
322.372	437.795
326.443	591.588
330.512	742.501
334.579	908.527
338.645	1111.66
342.708	1504.9
346.769	2222.24
350.829	3545.71
354.887	5284.28
358.942	5944.98
362.996	5218.85
367.048	3944.88
371.098	2975.14
375.146	2387.52
379.192	1911.07
383.236	1556.72
387.279	1274.48
391.319	991.365
395.358	680.356
399.394	488.424
403.429	360.59
407.462	223.813
411.493	129.091
415.522	75.414
419.549	6.222
423.575	34.179
427.598	0.403
431.619	1.029
435.639	39.632
439.657	7.278
443.673	14.464
447.687	20.386
451.699	66.762
455.709	69.178
459.717	123.628
463.724	131.109
467.728	173.617
471.731	227.148
475.732	254.698
479.731	334.265
483.728	269.844
487.723	187.434
491.716	214.031
495.708	263.632
499.697	530.317
503.685	708.136
507.671	769.194
511.655	561.224
515.637	391.435
519.617	386.124
523.596	350.361
527.572	413.569
531.547	406.879
535.52	520.186
539.491	693.356
543.46	1039.46
547.427	1675.75
551.393	2456.91
555.356	2519.72
559.318	1683.49
563.278	1018.11
567.236	564.831
571.192	440.16
575.147	346.191
579.099	312.278
583.05	242.155
586.999	239.926
590.946	231.562
594.891	217.239
598.834	211.37
602.776	148.579
606.715	118.803
610.653	165.038
614.589	240.095
618.523	213.069
622.456	306.959
626.386	418.766
630.315	473.486
634.242	556.121
638.167	401.668
642.09	278.128
646.012	204.5
649.931	110.785
653.849	60.981
657.765	39.089
661.679	12.104
665.592	8.993
669.502	10.111
673.411	2.338
677.318	9.257
681.223	46.109
685.126	59.291
689.028	29.79
692.927	13.507
696.825	2.307
700.721	11.573
704.616	17.284
708.508	13.623
712.399	18.019
716.288	21.18
720.175	12.245
724.06	11.734
727.944	19.095
731.825	38.04
735.705	17.618
739.584	42.263
743.46	19.867
747.334	36.419
751.207	5.063
755.078	59.43
758.947	38.907
762.815	41.334
766.68	84.703
770.544	54.018
774.406	122.282
778.267	87.496
782.125	125.664
785.982	197.784
789.837	207.86
793.69	202.899
797.542	249.928
801.391	325.933
805.239	356.93
809.085	441.934
812.93	550.84
816.772	618.26
820.613	692.797
824.452	801.576
828.29	912.752
832.125	1150.07
835.959	1339.26
839.791	1653.97
843.621	2009.26
847.45	2015.7
851.277	1949.22
855.102	1730.9
858.925	1590.87
862.746	1458.82
866.566	1530.98
870.384	1680.28
874.2	1807.98
878.015	2151.62
881.828	2504.67
885.639	3115.98
889.448	4303.77
893.256	6656.16
897.061	10746.6
900.865	15703.5
904.668	18087.8
908.468	14645.3
912.267	9652.99
916.064	5964.65
919.86	3789.28
923.653	2578.24
927.445	1821.49
931.236	1414.14
935.024	1141.82
938.811	945.325
942.596	815.201
946.379	732.92
950.161	667.272
953.94	599.314
957.719	575.671
961.495	563.35
965.27	560.3
969.043	515.54
972.814	438.933
976.583	382.823
980.351	350.192
984.117	258.725
987.882	262.752
991.644	312.413
995.405	422.873
999.165	543.487
1002.92	659.677
1006.68	735.716
1010.43	778.833
1014.18	830.09
1017.93	905.329
1021.68	1001.62
1025.43	1185.94
1029.18	1172.29
1032.92	953.639
1036.66	590.999
1040.4	418.375
1044.14	305.844
1047.88	246.311
1051.62	169.734
1055.35	151.011
1059.08	91.477
1062.81	19.877
1066.54	63.479
1070.27	6.735
1073.99	6.11
1077.72	32.538
1081.44	36.039
1085.16	41.826
1088.88	11.25
1092.59	17.61
1096.31	44.152
1100.02	0.979
1103.73	12.821
1107.44	14.837
1111.15	0.102
1114.86	2.807
1118.57	4.332
1122.27	31.309
1125.97	58.869
1129.67	16.003
1133.37	18.055
1137.07	3.006
1140.76	5.873
1144.45	0.349
1148.15	15.412
1151.84	57.115
1155.53	86.728
1159.21	88.314
1162.9	79.397
1166.58	57.995
1170.26	58.544
1173.94	106.031
1177.62	89.332
1181.3	61.805
1184.97	74.994
1188.65	58.155
1192.32	36.242
1195.99	49.252
1199.66	48.201
1203.33	60.086
1206.99	55.564
1210.65	33.628
1214.32	70.3
1217.98	12.717
1221.64	82.294
1225.29	66.758
1228.95	21.936
1232.6	33.461
1236.26	63.548
1239.91	57.475
1243.56	46.297
1247.2	49.085
1250.85	112.773
1254.49	103.303
1258.13	99.537
1261.78	67.705
1265.41	104.481
1269.05	102.938
1272.69	61.377
1276.32	77.009
1279.95	132.545
1283.59	104.5
1287.21	29.613
1290.84	29.987
1294.47	20.21
1298.09	45.529
1301.72	69.891
1305.34	39.22
1308.96	41.449
1312.58	1.693
1316.19	6.903
1319.81	108.068
1323.42	1.198
1327.03	44.298
1330.64	16.372
1334.25	28.412
1337.86	31.178
1341.46	68.007
1345.07	62.8
1348.67	66.751
1352.27	58.44
1355.87	42.109
1359.46	55.666
1363.06	7.475
1366.65	83.476
1370.25	67.075
1373.84	44.351
1377.43	8.7
1381.02	34.253
1384.6	12.66
1388.18	32.188
1391.77	55.774
1395.35	18.466
1398.93	19.489
1402.51	37.658
1406.08	49.907
1409.66	75.162
1413.23	50.34
1416.8	31.583
1420.37	82.375
1423.94	74.351
1427.51	16.838
1431.08	14.25
1434.64	12.789
1438.2	90.853
1441.76	39.972
1445.32	119.007
1448.88	85.209
1452.43	88.349
1455.99	74.58
1459.54	59.814
1463.09	66.328
1466.64	23.623
1470.19	127.945
1473.74	99.173
1477.28	78.323
1480.83	80.683
1484.37	97.531
1487.91	51.295
1491.45	27.775
1494.98	60.461
1498.52	79.897
1502.05	46.095
1505.59	3.463
1509.12	13.077
1512.65	45.099
1516.17	26.215
1519.7	71.882
1523.23	59.76
