Measurement: Raman, 780 nm, unoriented, Raman Data Processed
Mineral: Spessartine
Rruff sample: R060177
Ideal chemistry: Mn^2+^_3_Al_2_(SiO_4_)_3_
Locality: Fujian Province, China
Source: Rock Currier
Description: Orange trapezohedral crystals
Measured chemistry: (Mn_2.86_Fe^2+^_0.10_Ca_0.04_)_Î£=3_Al_2.00_(Si_1.00_O_4_)_3_
Raman shift (cm-1)	intensity
101.366	0
104.741	0.005661
108.116	0.650398
111.491	1.82922
114.865	1.62824
118.24	0.189514
121.615	1.53841
124.99	0.387939
128.365	1.06151
131.74	0.933197
135.114	1.8056
138.489	1.1079
141.864	1.4109
145.239	4.03255
148.614	6.26022
151.988	9.45729
155.363	14.8518
158.738	21.0571
162.113	19.2545
165.488	16.2158
168.863	18.0522
172.237	17.9331
175.612	18.9435
178.987	15.3253
182.362	11.0402
185.737	10.8259
189.111	7.80058
192.486	6.60597
195.861	6.60776
199.236	7.79153
202.611	9.08144
205.986	11.0614
209.36	10.9566
212.735	13.1123
216.11	15.4346
219.485	14.9163
222.86	15.32
226.234	15.0328
229.609	11.0953
232.984	9.12809
236.359	6.3
239.734	4.19564
243.108	3.6171
246.483	1.6665
249.858	0.972061
253.233	0.474754
256.608	0.789352
259.983	0.820347
263.357	1.16989
266.732	0.286743
270.107	0.661469
273.482	0.929882
276.857	1.81929
280.231	3.72795
283.606	5.13029
286.981	9.09151
290.356	11.5001
293.731	13.8982
297.106	15.3166
300.48	17.6743
303.855	18.1598
307.23	19.1249
310.605	20.8643
313.98	24.543
317.354	27.0559
320.729	28.411
324.104	32.5063
327.479	36.2457
330.854	39.9304
334.228	39.867
337.603	39.5316
340.978	37.6053
344.353	37.8015
347.728	33.6435
351.103	32.0423
354.477	32.014
357.852	32.9822
361.227	32.1837
364.602	31.4792
367.977	30.7184
371.351	26.7306
374.726	26.1296
378.101	21.6435
381.476	17.8291
384.851	13.7372
388.226	11.4253
391.6	9.06747
394.975	7.68497
398.35	6.40127
401.725	4.24394
405.099	3.58224
408.474	2.11095
411.849	2.2019
415.224	2.25266
418.599	0.929775
421.974	0.119728
425.348	0.456146
428.723	0.053341
432.098	1.13316
435.473	0.674679
438.848	0.313396
442.223	0.919189
445.597	0.941406
448.972	0.466454
452.347	3.01442
455.722	3.80877
459.097	5.43733
462.471	6.93201
465.846	8.5208
469.221	8.98647
472.596	9.80771
475.971	9.12964
479.346	8.45542
482.72	7.49582
486.095	7.62359
489.47	8.27596
492.845	7.37673
496.219	8.06165
499.594	6.5896
502.969	6.66499
506.344	6.17509
509.719	5.5171
513.094	5.43628
516.468	5.89956
519.843	7.74943
523.218	10.9295
526.593	15.5631
529.968	19.7826
533.342	27.1508
536.717	30.5143
540.092	33.4655
543.467	32.4186
546.842	24.3551
550.217	15.6264
553.591	9.77006
556.966	5.77785
560.341	3.91126
563.716	2.09494
567.091	0.955814
570.466	0.133549
573.84	0.04483
577.215	0.629608
580.59	0.355721
583.965	0.231041
587.34	0.675785
590.714	0.653522
594.089	0.445017
597.464	1.16762
600.839	0.788324
604.214	0.927677
607.588	1.76071
610.963	2.26075
614.338	3.88246
617.713	4.27296
621.088	5.00342
624.462	5.74031
627.837	6.45063
631.212	4.92947
634.587	2.13073
637.962	1.55764
641.337	1.19476
644.711	1.15418
648.086	0.807381
651.461	0.59211
654.836	0.149593
658.211	1.04393
661.585	1.04211
664.96	0.262369
668.335	0.110672
671.71	0.262505
675.085	0.768429
678.46	0.070856
681.834	1.04671
685.209	1.43334
688.584	1.99832
691.959	1.2473
695.334	2.4539
698.708	2.26456
702.083	2.53324
705.458	3.76707
708.833	4.68254
712.208	4.90226
715.582	6.16282
718.957	5.89925
722.332	7.13743
725.707	6.71788
729.082	5.93506
732.457	5.94126
735.831	3.62294
739.206	4.06455
742.581	3.87502
745.956	4.07854
749.331	3.43101
752.705	2.35965
756.08	1.61202
759.455	1.02358
762.83	1.53328
766.205	0.874987
769.58	0.668495
772.954	0.317614
776.329	0.419308
779.704	0.158024
783.079	0.605791
786.454	0.134497
789.828	0.867935
793.203	0.566992
796.578	0.882843
799.953	0.222408
803.328	0.314926
806.702	0.808409
810.077	0.441271
813.452	0.428913
816.827	0.301239
820.202	1.04893
823.577	1.81031
826.951	3.36692
830.326	5.29333
833.701	8.22951
837.076	11.4708
840.451	13.8245
843.825	17.9666
847.2	17.1812
850.575	17.2972
853.95	15.7363
857.325	14.473
860.699	13.5398
864.074	13.056
867.449	14.403
870.824	18.685
874.199	22.1823
877.573	28.3388
880.948	38.4012
884.323	51.6776
887.698	71.0041
891.073	100.614
894.448	135.213
897.822	174.512
901.197	211.974
904.572	231.365
907.947	215.791
911.322	163.671
914.697	112.207
918.071	72.1179
921.446	48.9114
924.821	32.7489
928.196	22.7333
931.571	15.4986
934.945	11.0009
938.32	8.4426
941.695	5.61147
945.07	5.07601
948.445	2.58798
951.819	1.88754
955.194	1.16294
958.569	0.080431
961.944	0.09841
965.319	0.196884
968.693	0.288168
972.068	0.451
975.443	0.303623
978.818	0.397694
982.193	0.841902
985.568	1.19448
988.942	1.37646
992.317	3.01827
995.692	2.75122
999.067	4.1143
1002.44	6.42338
1005.82	8.17009
1009.19	10.6016
1012.57	14.0762
1015.94	17.1332
1019.32	18.5123
1022.69	20.7606
1026.07	17.4021
1029.44	14.1791
1032.82	9.28304
1036.19	6.03413
1039.57	4.12891
1042.94	2.14735
1046.31	1.93047
1049.69	1.65912
1053.06	1.24322
1056.44	1.69962
1059.81	1.503
1063.19	1.39061
1066.56	1.04665
1069.94	1.66996
1073.31	0.236777
1076.69	0.30415
1080.06	0.176409
1083.44	0.109231
1086.81	0.310601
1090.19	0.298163
1093.56	0.151011
1096.94	0.041039
1100.31	0.456619
1103.69	0.878325
1107.06	0.305326
1110.44	0.385649
1113.81	0.540808
1117.18	0.627392
1120.56	1.14097
1123.93	0.742355
1127.31	0.201232
1130.68	0.338281
1134.06	0.374783
1137.43	0.190757
1140.81	0.577599
1144.18	0.863713
1147.56	0.512859
1150.93	0.717096
1154.31	0.000245
1157.68	0.715691
1161.06	1.1629
1164.43	0.032785
1167.81	0.694545
1171.18	0.057793
1174.56	0.842772
1177.93	0.419072
1181.31	1.17283
1184.68	1.13813
1188.06	0.743792
1191.43	0.476413
1194.81	1.20964
1198.18	1.09138
1201.56	0.650036
1204.93	0.935514
1208.31	1.76413
1211.68	2.20779
1215.06	1.21345
1218.43	1.37869
1221.81	1.59997
1225.18	0.78757
1228.55	1.54526
1231.93	0.843286
1235.3	0.14586
1238.68	1.1305
1242.05	1.18399
1245.43	0.493123
1248.8	1.85471
1252.18	1.48727
1255.55	1.56711
1258.93	0.927027
1262.3	2.14847
1265.68	2.18488
1269.05	2.40205
1272.43	0.523129
1275.8	0.846443
1279.18	0.403058
1282.55	0.502076
1285.93	0
