Measurement: Raman, 785 nm, unoriented, Raman Data Processed
Mineral: Spessartine
Rruff sample: R050063
Ideal chemistry: Mn^2+^_3_Al_2_(SiO_4_)_3_
Locality: Fujian Province, China
Source: Rock Currier
Description: Reddish brown crystals
Measured chemistry: (Mn_2.72_Fe_0.24_Ca_0.04_)_Σ=3_(Al_1.95_Fe^3+^_0.05_)_Σ=2_(Si_1.00_O_4_)_2.75_(F_0.58_(OH)_0.42_)_Σ=1_; trace amounts of Mg; OH estimated by charge balance
Raman shift (cm-1)	intensity
128.251	0
131.144	115.69
134.037	287.162
136.929	160.017
139.822	31.6514
142.715	18.379
145.607	107.459
148.5	382.643
151.393	617.766
154.286	569.34
157.178	476.548
160.071	588.593
162.964	678.605
165.856	593.827
168.749	594.926
171.642	700.7
174.534	749.343
177.427	686.931
180.32	544.421
183.212	456.348
186.105	407.834
188.998	368.163
191.891	363.055
194.783	309.183
197.676	271.789
200.569	318.293
203.461	276.244
206.354	314.685
209.247	373.454
212.139	488.799
215.032	556.318
217.925	665.455
220.818	721.746
223.71	732.072
226.603	622.422
229.496	536.571
232.388	433.4
235.281	331.894
238.174	247.803
241.066	197.659
243.959	157.503
246.852	141.272
249.745	82.5081
252.637	53.2937
255.53	42.3925
258.423	9.83093
261.315	8.90771
264.208	11.2557
267.101	53.0881
269.993	53.8036
272.886	30.819
275.779	11.8683
278.672	8.33826
281.564	27.5023
284.457	75.7041
287.35	141.404
290.242	180.314
293.135	265.205
296.028	376.243
298.921	440.236
301.813	500.323
304.706	582.881
307.599	601.081
310.491	642.319
313.384	590
316.277	660.312
319.169	684.069
322.062	720.851
324.955	830.657
327.847	995.109
330.74	1181.32
333.633	1419.32
336.526	1601.76
339.418	1775.09
342.311	1775.19
345.204	1694.64
348.096	1598.47
350.989	1458.03
353.882	1307.6
356.774	1241.57
359.667	1251.65
362.56	1290.08
365.452	1307.58
368.345	1347.92
371.238	1375.96
374.131	1310.88
377.023	1141.6
379.916	908.761
382.809	728.494
385.701	557.974
388.594	445.122
391.487	351.635
394.38	275.961
397.272	234.002
400.165	190.101
403.058	184.306
405.95	142.456
408.843	91.8499
411.736	83.3612
414.628	82.9537
417.521	63.5229
420.414	10.0399
423.307	29.175
426.199	6.00995
429.092	29.1699
431.985	39.8742
434.877	14.3031
437.77	20.957
440.663	0.899902
443.555	29.145
446.448	3.2547
449.341	8.55573
452.234	19.2957
455.126	52.5838
458.019	91.3832
460.912	132.842
463.804	215.796
466.697	277.468
469.59	341.67
472.483	409.006
475.375	363.488
478.268	338.347
481.161	276.911
484.053	275.897
486.946	252.025
489.839	281.475
492.731	291.874
495.624	332.291
498.517	347.875
501.409	320.434
504.302	301.572
507.195	238.618
510.088	193.986
512.98	174.981
515.873	156.644
518.766	156.175
521.658	160.787
524.551	173.902
527.444	223.927
530.337	336.462
533.229	453.531
536.122	650.827
539.015	890.449
541.907	1201.7
544.8	1365.25
547.693	1311.43
550.585	994.074
553.478	665.981
556.371	467.586
559.263	254.849
562.156	151.477
565.049	113.034
567.942	73.7108
570.834	32.2541
573.727	29.1622
576.62	4.03265
579.512	14.6641
582.405	14.4026
585.298	0.74408
588.19	2.6554
591.083	10.753
593.976	0.647156
596.869	8.19006
599.761	6.67694
602.654	11.8143
605.547	8.88519
608.439	11.1913
611.332	1.25879
614.225	26.5939
617.117	83.4768
620.01	120.621
622.903	167.453
625.795	236.537
628.688	240.601
631.581	202.054
634.474	128.875
637.366	100.215
640.259	47.2993
643.152	30.4097
646.044	0.763885
648.937	26.3635
651.83	2.37967
654.722	0.746399
657.615	0.31604
660.508	6.06543
663.401	5.60358
666.293	1.9133
669.186	16.4334
672.079	17.1439
674.971	16.0403
677.864	18.1234
680.757	6.40683
683.649	18.2149
686.542	36.0875
689.435	26.9735
692.328	38.334
695.22	52.3374
698.113	65.5206
701.006	75.2448
703.898	74.5141
706.791	87.9636
709.684	115.326
712.577	138.549
715.469	144.235
718.362	149.172
721.255	175.874
724.147	179.818
727.04	164.596
729.933	159.817
732.825	148.982
735.718	156.244
738.611	109.367
741.504	121.515
744.396	116.092
747.289	98.4677
750.182	76.3465
753.074	69.1117
755.967	64.1942
758.86	60.5904
761.752	51.2407
764.645	46.5776
767.538	10.5177
770.431	13.2167
773.323	22.9901
776.216	1.57816
779.109	8.98587
782.001	3.93304
784.894	1.2829
787.787	3.01373
790.679	12.816
793.572	13.3761
796.465	10.4946
799.357	1.97803
802.25	1.28235
805.143	10.5264
808.036	13.2842
810.928	9.42322
813.821	0.632446
816.714	3.15839
819.606	1.20148
822.499	9.94898
825.392	25.8135
828.284	55.3048
831.177	105.352
834.07	215.244
836.963	319.211
839.855	505.261
842.748	615.09
845.641	710.654
848.533	769.888
851.426	759.397
854.319	705.049
857.212	596.636
860.104	497.284
862.997	451.265
865.89	438.645
868.782	487.158
871.675	550.921
874.568	655.479
877.46	774.731
880.353	941.514
883.246	1164.64
886.139	1459.68
889.031	1880.71
891.924	2533.98
894.817	3517.89
897.709	5093.4
900.602	7021.44
903.495	8998.33
906.388	10089.9
909.28	9144.71
912.173	6893.22
915.066	4788.84
917.958	3257.53
920.851	2162.64
923.744	1469.94
926.636	1027.1
929.529	732.249
932.422	506.848
935.314	397.178
938.207	277.268
941.1	266.437
943.993	197.151
946.885	138.62
949.778	86.079
952.671	58.9205
955.563	29.6869
958.456	42.9279
961.349	15.303
964.241	12.0938
967.134	8.94891
970.027	2.84405
972.92	27.6706
975.812	24.2281
978.705	18.8207
981.598	2.04663
984.49	3.04901
987.383	8.98023
990.276	48.1018
993.168	39.6412
996.061	75.6522
998.954	122.669
1001.85	114.056
1004.74	167
1007.63	227.491
1010.52	270.324
1013.42	332.3
1016.31	434.336
1019.2	511.981
1022.1	605.923
1024.99	663.694
1027.88	636.153
1030.77	518.627
1033.67	360.787
1036.56	227.89
1039.45	137.731
1042.34	90.8637
1045.24	58.9146
1048.13	58.946
1051.02	41.7721
1053.91	15.8166
1056.81	17.534
1059.7	23.7134
1062.59	38.5987
1065.49	19.4969
1068.38	15.51
1071.27	16.3781
1074.16	3.27685
1077.06	7.73291
1079.95	22.9352
1082.84	2.83502
1085.73	1.11362
1088.63	11.4312
1091.52	6.24167
1094.41	0.5495
1097.31	6.85245
1100.2	5.26035
1103.09	21.4124
1105.98	14.7404
1108.88	32.5215
1111.77	3.73733
1114.66	18.5415
1117.56	21.4683
1120.45	3.9505
1123.34	13.9467
1126.23	12.9405
1129.12	34.0293
1132.02	45.3733
1134.91	37.5809
1137.8	44.3396
1140.7	46.9343
1143.59	41.4961
1146.48	50.9154
1149.37	69.9567
1152.27	53.9145
1155.16	55.0524
1158.05	51.7703
1160.94	47.0446
1163.84	48.6477
1166.73	41.9722
1169.62	48.0722
1172.52	39.3043
1175.41	39.6738
1178.3	38.0672
1181.19	50.3686
1184.09	39.1463
1186.98	42.114
1189.87	41.9907
1192.77	36.9438
1195.66	30.3828
1198.55	9.80206
1201.44	21.328
1204.34	10.8102
1207.23	29.0778
1210.12	28.8712
1213.01	4.96359
1215.91	10.9122
1218.8	30.0627
1221.69	22.1796
1224.58	15.4722
1227.48	19.8612
1230.37	2.85803
1233.26	23.7771
1236.15	0
