Measurement: Raman, 780 nm, unoriented, Raman Data Processed
Mineral: Spessartine
Rruff sample: R060451
Ideal chemistry: Mn^2+^_3_Al_2_(SiO_4_)_3_
Locality: unknown
Source: Gemological Institute of America
Description: Reddish orange fragment
Measured chemistry: (Mn_1.26_Mg_0.98_Fe^2+^_0.39_Ca_0.37_)_Î£=3_Al_2.00_(Si_1.00_O_4_)_3_; trace amounts of Ti
Raman shift (cm-1)	intensity
162.43	0
165.323	0.031503
168.216	0.620088
171.108	1.78856
174.001	2.72381
176.894	1.81606
179.786	0.733466
182.679	0.900516
185.572	2.01768
188.465	3.29805
191.357	5.59076
194.25	7.03503
197.143	8.49314
200.035	9.49312
202.928	10.7245
205.821	11.2285
208.714	11.8772
211.606	11.7514
214.499	10.8798
217.392	9.54104
220.284	8.31731
223.177	6.52063
226.07	5.78501
228.962	4.68769
231.855	4.17076
234.748	3.6844
237.641	3.73808
240.533	2.77367
243.426	2.60895
246.319	1.99046
249.211	1.55431
252.104	1.6617
254.997	0.758712
257.889	0.17345
260.782	0.403665
263.675	0.412269
266.567	0.330578
269.46	0.010326
272.353	0.298676
275.246	0.268126
278.138	0.236305
281.031	0.174155
283.924	0.219362
286.816	0.026122
289.709	0.181895
292.602	0.768485
295.495	0.707789
298.387	1.15506
301.28	1.42508
304.173	1.66457
307.065	2.40746
309.958	3.29966
312.851	4.33684
315.743	5.71425
318.636	6.08798
321.529	6.82315
324.421	8.16077
327.314	9.41391
330.207	11.7328
333.1	15.0787
335.992	19.9096
338.885	25.0923
341.778	29.7726
344.67	38.0749
347.563	50.3443
350.456	64.4847
353.349	82.121
356.241	87.8113
359.134	71.642
362.027	50.8068
364.919	36.976
367.812	27.9326
370.705	22.4886
373.597	19.6549
376.49	16.545
379.383	12.9787
382.276	10.267
385.168	8.14506
388.061	6.15458
390.954	4.15716
393.846	3.19339
396.739	2.45232
399.632	1.82006
402.524	1.50701
405.417	1.03924
408.31	0.926243
411.202	0.471423
414.095	0.645444
416.988	0.25496
419.881	0.152564
422.773	0.281008
425.666	0.149777
428.559	0.069963
431.451	0.229522
434.344	0.204045
437.237	0.276265
440.13	0.237389
443.022	0.121016
445.915	0.244419
448.808	0.018176
451.7	0.641924
454.593	0.627892
457.486	0.845932
460.378	1.33544
463.271	2.16494
466.164	2.34061
469.057	3.07129
471.949	3.65804
474.842	5.58126
477.735	7.28487
480.627	8.70805
483.52	7.05375
486.413	4.81802
489.305	4.46327
492.198	4.94196
495.091	6.3099
497.983	9.29192
500.876	13.9744
503.769	18.9984
506.662	14.9313
509.554	8.43761
512.447	4.85001
515.34	3.57612
518.232	2.96578
521.125	2.45408
524.018	2.69881
526.91	3.15126
529.803	3.33379
532.696	3.77886
535.589	5.1123
538.481	7.71537
541.374	11.0171
544.267	14.262
547.159	19.2346
550.052	26.1139
552.945	33.7243
555.837	37.705
558.73	30.4333
561.623	18.4662
564.516	10.1037
567.408	5.49481
570.301	3.31551
573.194	1.77194
576.086	1.16409
578.979	0.408053
581.872	0.72305
584.764	0.206678
587.657	0.067278
590.55	0.029541
593.443	0.117511
596.335	0.293993
599.228	0.216681
602.121	0.334194
605.013	0.05579
607.906	0.278304
610.799	0.295958
613.692	0.048908
616.584	0.318156
619.477	1.41155
622.37	2.11264
625.262	3.30859
628.155	4.88896
631.048	6.88374
633.94	10.1325
636.833	10.228
639.726	7.34243
642.619	5.18697
645.511	3.63863
648.404	2.5944
651.297	1.46459
654.189	1.35047
657.082	0.646955
659.975	0.89647
662.867	0.96337
665.76	0.565689
668.653	0.617998
671.545	0.181262
674.438	0.087976
677.331	0.300347
680.224	0.10376
683.116	0.132693
686.009	0.159614
688.902	0.369656
691.794	0.467298
694.687	0.343924
697.58	0.579783
700.472	0.654391
703.365	0.494831
706.258	0.76752
709.15	0.796286
712.043	0.770245
714.936	0.853542
717.829	1.08979
720.721	1.00466
723.614	1.05799
726.507	1.16475
729.399	0.940365
732.292	1.22266
735.185	1.12603
738.077	1.13985
740.97	1.24522
743.863	1.4636
746.756	1.38577
749.648	1.22013
752.541	1.25525
755.434	1.26798
758.326	0.943367
761.219	0.804503
764.112	0.79305
767.005	0.4421
769.897	0.520425
772.79	0.120366
775.683	0.106443
778.575	0.094615
781.468	0.194775
784.361	0.345132
787.253	0.24447
790.146	0.158926
793.039	0.327676
795.932	0.300287
798.824	0.030558
801.717	0.547983
804.61	0.170084
807.502	0.07602
810.395	0.462622
813.288	0.571257
816.18	0.748318
819.073	1.20411
821.966	0.996786
824.859	1.48116
827.751	2.44439
830.644	2.67179
833.537	3.72308
836.429	6.27725
839.322	8.89919
842.215	12.2467
845.107	16.2703
848	21.3479
850.893	25.5664
853.785	24.2486
856.678	19.9927
859.571	14.3398
862.464	10.227
865.356	8.38426
868.249	6.84649
871.142	7.72802
874.034	8.53074
876.927	9.92344
879.82	12.5756
882.712	16.4639
885.605	19.9066
888.498	24.2694
891.391	30.8279
894.283	41.6429
897.176	60.5181
900.069	86.767
902.961	118.578
905.854	159.756
908.747	196.933
911.639	204.931
914.532	163.544
917.425	110.357
920.318	71.4804
923.21	46.9237
926.103	30.7542
928.996	21.1504
931.888	14.0618
934.781	9.55217
937.674	6.23555
940.567	4.22215
943.459	2.88761
946.352	1.77433
949.245	1.02827
952.137	0.406594
955.03	0.066401
957.923	0.245718
960.815	0.33798
963.708	0.720542
966.601	0.192694
969.494	0.036415
972.386	0.459164
975.279	0.098933
978.172	0.036248
981.064	0.128563
983.957	0.039179
986.85	0.026956
989.742	0.060428
992.635	0.057922
995.528	0.415842
998.42	0.578245
1001.31	1.07174
1004.21	1.55629
1007.1	1.72113
1009.99	2.57203
1012.88	3.44792
1015.78	3.77858
1018.67	4.51378
1021.56	5.58447
1024.45	6.35837
1027.35	8.10412
1030.24	9.42407
1033.13	10.7798
1036.03	12.5476
1038.92	13.224
1041.81	12.8699
1044.7	10.948
1047.6	8.29686
1050.49	5.7672
1053.38	3.73287
1056.28	2.55729
1059.17	1.85586
1062.06	1.39091
1064.95	0.924203
1067.85	1.01653
1070.74	0.584542
1073.63	0.417053
1076.52	0.354011
1079.42	0.608721
1082.31	0.124125
1085.2	0.316981
1088.09	0.34543
1090.99	0.383466
1093.88	0.288831
1096.77	0.549865
1099.66	0.020889
1102.56	0.152683
1105.45	0.024889
1108.34	0.148592
1111.24	0.056897
1114.13	0.168593
1117.02	0.125855
1119.91	0.000535
1122.81	0.169056
1125.7	0.167922
1128.59	0.143735
1131.48	0.001512
1134.38	0.193809
1137.27	0.232633
1140.16	0.159485
1143.06	0.078689
1145.95	0.352466
1148.84	0.429303
1151.73	0.328194
1154.63	0.585185
1157.52	0.565542
1160.41	0.594786
1163.3	0.731723
1166.2	0.609568
1169.09	0.700721
1171.98	0.687475
1174.88	0.678483
1177.77	0.598789
1180.66	0.933579
1183.55	0.697801
1186.45	0.881308
1189.34	0.984708
1192.23	0.656518
1195.12	0.919456
1198.02	0.699995
1200.91	0.838265
1203.8	0.875957
1206.69	1.12045
1209.59	1.13568
1212.48	1.41566
1215.37	1.37316
1218.27	1.91969
1221.16	1.72602
1224.05	1.97566
1226.94	1.96689
1229.84	2.18333
1232.73	2.09886
1235.62	1.88639
1238.52	1.89739
1241.41	1.95345
1244.3	1.95201
1247.19	2.06574
1250.09	1.86484
1252.98	2.18618
1255.87	2.34506
1258.76	2.6443
1261.66	2.42621
1264.55	2.89556
1267.44	2.79201
1270.33	2.87983
1273.23	3.15676
1276.12	3.36121
1279.01	3.25522
1281.9	3.65504
1284.8	3.47726
1287.69	0.110529
1290.58	0.05685
1293.48	0.237255
1296.37	0.306052
1299.26	0.140651
1302.15	0.04186
1305.05	0
