Measurement: Raman, 532 nm, unoriented, Raman Data Processed
Mineral: Spessartine
Rruff sample: R050063
Ideal chemistry: Mn^2+^_3_Al_2_(SiO_4_)_3_
Locality: Fujian Province, China
Source: Rock Currier
Description: Reddish brown crystals
Measured chemistry: (Mn_2.72_Fe_0.24_Ca_0.04_)_Σ=3_(Al_1.95_Fe^3+^_0.05_)_Σ=2_(Si_1.00_O_4_)_2.75_(F_0.58_(OH)_0.42_)_Σ=1_; trace amounts of Mg; OH estimated by charge balance
Raman shift (cm-1)	intensity
131.823	0
135.198	6.21716
138.573	42.9991
141.948	23.1449
145.323	41.1733
148.698	73.6737
152.072	147.541
155.447	245.146
158.822	423.349
162.197	455.771
165.572	371.653
168.946	461.148
172.321	525.885
175.696	525.177
179.071	438.66
182.446	330.135
185.821	306.373
189.195	264.762
192.57	218.531
195.945	199.114
199.32	157.651
202.695	190.559
206.07	217.935
209.444	281.091
212.819	362.176
216.194	470.554
219.569	523.696
222.944	527.215
226.318	461.489
229.693	397.342
233.068	281.376
236.443	236.954
239.818	165.704
243.192	112.223
246.567	77.1766
249.942	45.9861
253.317	42.2769
256.692	10.9413
260.067	5.62207
263.441	2.3606
266.816	26.9627
270.191	22.2034
273.566	28.8189
276.941	10.8038
280.315	8.69415
283.69	38.128
287.065	70.6859
290.44	137.332
293.815	166.85
297.19	233.595
300.564	283.531
303.939	351.606
307.314	350.139
310.689	411.562
314.064	477.911
317.438	527.81
320.813	599.463
324.188	732.213
327.563	922.347
330.938	1132.9
334.313	1342.42
337.687	1485.59
341.062	1512.31
344.437	1468
347.812	1326.93
351.187	1143.69
354.562	1040.2
357.936	957.312
361.311	913.842
364.686	969.08
368.061	999.454
371.436	975.407
374.81	883.775
378.185	744.251
381.56	626.258
384.935	506.927
388.31	388.436
391.685	324.768
395.059	244.321
398.434	181.327
401.809	159.313
405.184	133.884
408.559	116.001
411.933	95.1824
415.308	58.3285
418.683	38.8616
422.058	6.83502
425.433	11.7324
428.808	10.391
432.182	13.3888
435.557	14.9882
438.932	26.6598
442.307	9.12744
445.682	4.81763
449.056	20.1633
452.431	52.2194
455.806	84.7428
459.181	122.396
462.556	186.941
465.93	274.376
469.305	354.216
472.68	384.496
476.055	362.728
479.43	263.732
482.805	234.843
486.179	227.117
489.554	265.628
492.929	310.225
496.304	341.735
499.679	357.305
503.053	309.094
506.428	250.694
509.803	207.194
513.178	157.106
516.553	162.28
519.928	122.216
523.302	171.177
526.677	192.183
530.052	324.992
533.427	476.457
536.802	706.431
540.177	937.543
543.551	1172.27
546.926	1130.53
550.301	814.751
553.676	502.987
557.051	297.765
560.425	166.7
563.8	134.09
567.175	65.4195
570.55	46.2937
573.925	20.9725
577.299	15.3441
580.674	1.24683
584.049	8.5379
587.424	2.42133
590.799	6.66235
594.174	19.1141
597.548	5.76996
600.923	4.28082
604.298	2.93152
607.673	11.3316
611.048	40.1946
614.423	97.6042
617.797	138.072
621.172	214.788
624.547	282.639
627.922	274.204
631.297	241.597
634.671	148.81
638.046	97.0167
641.421	62.8435
644.796	36.7071
648.171	35.5314
651.545	26.4782
654.92	12.1367
658.295	4.37271
661.67	0.133606
665.045	0.819946
668.42	4.64194
671.794	11.0894
675.169	8.43555
678.544	13.644
681.919	31.0825
685.294	33.2218
688.668	30.8643
692.043	29.9446
695.418	58.5643
698.793	62.8698
702.168	81.7545
705.543	102.78
708.917	118.054
712.292	147.274
715.667	140.301
719.042	162.637
722.417	185.219
725.792	181.172
729.166	154.922
732.541	151.092
735.916	138.482
739.291	129.139
742.666	124.925
746.04	118.352
749.415	90.9143
752.79	96.121
756.165	67.8587
759.54	64.1883
762.915	46.4008
766.289	27.32
769.664	10.4373
773.039	28.6024
776.414	14.0197
779.789	7.46536
783.163	7.93555
786.538	7.39319
789.913	26.9421
793.288	19.1398
796.663	23.4458
800.038	1.21234
803.412	4.60547
806.787	6.836
810.162	2.34979
813.537	7.72815
816.912	16.2205
820.286	24.7485
823.661	37.6895
827.036	81.8185
830.411	153.909
833.786	311.264
837.16	510.911
840.535	668.178
843.91	849.254
847.285	958.391
850.66	918.964
854.035	802.598
857.409	656.207
860.784	578.438
864.159	526.857
867.534	567.1
870.909	598.939
874.284	731.367
877.658	923.264
881.033	1148.56
884.408	1501.01
887.783	1939.71
891.158	2728.45
894.533	3993.61
897.907	5906.7
901.282	8246.42
904.657	9908.65
908.032	9395.44
911.407	6898.04
914.781	4494.91
918.156	2789.84
921.531	1795.27
924.906	1130.65
928.281	739.009
931.655	505.368
935.03	375.998
938.405	291.012
941.78	207.015
945.155	167.688
948.529	125.324
951.904	84.1006
955.279	59.0374
958.654	56.4921
962.029	20.9304
965.404	1.32391
968.778	14.4379
972.153	10.9841
975.528	28.3538
978.903	25.165
982.278	29.4465
985.653	8.0379
989.027	55.1554
992.402	76.194
995.777	125.949
999.152	180.278
1002.53	244.69
1005.9	315.732
1009.28	432.705
1012.65	553.213
1016.03	677.055
1019.4	871.941
1022.78	987.08
1026.15	999.524
1029.53	785.743
1032.9	533.494
1036.28	315.933
1039.65	201.165
1043.02	135.649
1046.4	86.1073
1049.77	40.3362
1053.15	52.2407
1056.52	41.1545
1059.9	33.6905
1063.27	11.6682
1066.65	19.7087
1070.02	13.8456
1073.4	8.93487
1076.77	13.9746
1080.15	26.2354
1083.52	12.7253
1086.9	10.3778
1090.27	15.328
1093.65	13.8417
1097.02	0.415344
1100.4	16.7648
1103.77	19.6262
1107.15	6.27508
1110.52	26.4877
1113.9	26.2128
1117.27	13.4479
1120.64	19.1882
1124.02	27.9837
1127.39	25.3791
1130.77	24.2463
1134.14	19.4515
1137.52	2.09528
1140.89	14.5036
1144.27	20.6371
1147.64	47.0855
1151.02	14.4925
1154.39	19.2617
1157.77	33.3773
1161.14	27.2213
1164.52	40.0297
1167.89	31.1934
1171.27	30.8442
1174.64	33.5123
1178.02	42.3408
1181.39	23.8072
1184.77	20.7649
1188.14	35.1359
1191.52	15.1479
1194.89	11.2144
1198.27	11.6602
1201.64	23.7615
1205.02	6.63159
1208.39	9.92749
1211.77	5.96619
1215.14	2.22546
1218.52	8.1806
1221.89	0.273438
1225.27	9.50079
1228.64	18.4249
1232.01	8.29132
1235.39	21.8309
1238.76	30.4851
1242.14	14.1443
1245.51	18.0553
1248.89	4.51666
1252.26	27.8857
1255.64	28.3082
1259.01	19.0534
1262.39	33.1602
1265.76	19.6913
1269.14	22.4373
1272.51	16.7825
1275.89	18.6712
1279.26	9.01685
1282.64	6.10205
1286.01	28.8598
1289.39	4.35663
1292.76	8.09808
