Measurement: Raman, 532 nm, unoriented, Raman Data Processed
Mineral: Spessartine
Rruff sample: R060177
Ideal chemistry: Mn^2+^_3_Al_2_(SiO_4_)_3_
Locality: Fujian Province, China
Source: Rock Currier
Description: Orange trapezohedral crystals
Measured chemistry: (Mn_2.86_Fe^2+^_0.10_Ca_0.04_)_Î£=3_Al_2.00_(Si_1.00_O_4_)_3_
Raman shift (cm-1)	intensity
135.018	0
138.393	0.229561
141.767	5.71024
145.142	9.30664
148.517	15.6505
151.892	24.7191
155.267	39.1116
158.642	58.1625
162.016	56.2084
165.391	37.2381
168.766	31.5357
172.141	32.9297
175.516	35.804
178.89	28.3104
182.265	23.293
185.64	19.5743
189.015	17.0368
192.39	14.2837
195.764	12.774
199.139	11.9001
202.514	11.6335
205.889	12.1718
209.264	13.6017
212.638	15.7838
216.013	18.0701
219.388	19.971
222.763	20.3652
226.138	16.4815
229.513	13.6
232.887	9.27965
236.262	7.47752
239.637	3.82196
243.012	2.11784
246.387	1.26613
249.762	0.834686
253.136	0.699875
256.511	2.18769
259.886	1.42522
263.261	1.02217
266.636	2.20035
270.01	0.885551
273.385	1.07935
276.76	4.02669
280.135	8.50216
283.51	12.8159
286.885	19.3034
290.259	25.4277
293.634	33.727
297.009	39.6141
300.384	46.4071
303.759	49.8422
307.133	50.3469
310.508	49.0729
313.883	49.0583
317.258	49.8256
320.633	53.9363
324.007	61.3936
327.382	64.1654
330.757	74.8407
334.132	76.1415
337.507	80.3991
340.882	77.7509
344.256	74.7414
347.631	71.4129
351.006	68.1226
354.381	69.7652
357.756	72.0746
361.13	77.0682
364.505	83.6322
367.88	90.8641
371.255	90.7636
374.63	87.46
378.005	83.3405
381.379	62.4164
384.754	50.1473
388.129	39.2414
391.504	33.2419
394.879	27.4139
398.253	23.067
401.628	20.6258
405.003	16.1231
408.378	13.5327
411.753	10.816
415.127	9.33048
418.502	6.02272
421.877	3.20657
425.252	2.17985
428.627	0.005608
432.002	0.823326
435.376	1.18105
438.751	2.36831
442.126	1.37906
445.501	1.61811
448.876	0.46888
452.25	1.01485
455.625	3.66057
459	5.73727
462.375	8.26101
465.75	11.2395
469.125	12.9067
472.499	14.9832
475.874	12.9603
479.249	11.8369
482.624	11.216
485.999	11.7764
489.373	11.5844
492.748	10.7175
496.123	12.5815
499.498	12.3385
502.873	11.5141
506.248	10.8567
509.622	9.81303
512.997	7.95416
516.372	9.96405
519.747	10.5193
523.122	15.6921
526.496	21.4014
529.871	29.762
533.246	43.6895
536.621	55.4425
539.996	69.1922
543.371	73.309
546.745	64.2213
550.12	43.6892
553.495	27.3948
556.87	16.0802
560.245	9.99355
563.62	7.3179
566.994	4.40182
570.369	2.49381
573.744	0.609314
577.119	0.300858
580.494	0.540039
583.868	1.20034
587.243	0.814636
590.618	0.277359
593.993	0.906982
597.368	1.21121
600.742	0.251328
604.117	1.23098
607.492	0.916946
610.867	1.59213
614.242	4.31765
617.616	6.0286
620.991	8.83737
624.366	10.5645
627.741	10.4341
631.116	10.1606
634.491	6.60349
637.865	5.05074
641.24	3.18964
644.615	2.46441
647.99	0.675827
651.365	0.538094
654.74	0.3927
658.114	1.12538
661.489	0.05751
664.864	0.473839
668.239	0.262299
671.614	0.22596
674.988	1.66349
678.363	1.18982
681.738	0.63356
685.113	0.925148
688.488	1.65916
691.862	3.26971
695.237	3.50065
698.612	5.20083
701.987	5.08312
705.362	6.67551
708.737	8.34124
712.111	9.27921
715.486	12.2717
718.861	13.0473
722.236	12.9104
725.611	12.3635
728.986	11.214
732.36	10.8911
735.735	9.88124
739.11	8.97494
742.485	8.68687
745.86	6.62079
749.234	6.17672
752.609	5.49835
755.984	5.15466
759.359	3.73434
762.734	2.59188
766.109	1.86311
769.483	1.44032
772.858	0.018654
776.233	1.42318
779.608	0.771782
782.982	0.670059
786.357	0.328217
789.732	0.325554
793.107	1.29916
796.482	0.79425
799.857	0.344841
803.231	0.454262
806.606	1.32407
809.981	0.709816
813.356	1.18508
816.731	1.04204
820.106	0.732605
823.48	0.667778
826.855	1.09837
830.23	3.94423
833.605	10.5903
836.98	16.4233
840.354	23.0998
843.729	30.6987
847.104	31.8933
850.479	32.3533
853.854	30.1977
857.229	27.6856
860.603	24.7412
863.978	25.8134
867.353	26.1512
870.728	32.2703
874.103	40.8217
877.477	52.83
880.852	70.1931
884.227	94.3916
887.602	129.412
890.977	184.155
894.351	264.497
897.726	372.6
901.101	501.338
904.476	616.169
907.851	629.426
911.226	512.111
914.6	349.443
917.975	232.689
921.35	154.35
924.725	103.263
928.1	71.1644
931.475	49.486
934.849	38.0743
938.224	25.9719
941.599	20.8922
944.974	15.4985
948.349	12.4437
951.723	9.42051
955.098	5.94579
958.473	3.70659
961.848	2.84937
965.223	2.43651
968.597	0.389877
971.972	1.16567
975.347	1.36301
978.722	1.38045
982.097	1.26502
985.472	0.571838
988.846	1.28463
992.221	2.60671
995.596	5.9023
998.971	8.58965
1002.35	10.228
1005.72	13.7311
1009.1	19.1952
1012.47	23.6054
1015.85	29.2476
1019.22	34.0094
1022.6	36.8192
1025.97	36.6558
1029.34	30.8891
1032.72	20.9462
1036.09	13.9915
1039.47	8.00267
1042.84	4.88895
1046.22	3.27654
1049.59	2.68838
1052.97	1.45902
1056.34	2.03133
1059.72	1.31688
1063.09	1.83791
1066.47	0.448486
1069.84	0.021255
1073.22	1.21391
1076.59	1.94471
1079.97	0.442062
1083.34	1.06344
1086.72	0.297836
1090.09	1.40698
1093.47	0.380051
1096.84	0.842735
1100.21	0.888504
1103.59	0.277405
1106.96	1.49397
1110.34	0.892136
1113.71	0.083687
1117.09	1.24564
1120.46	0.081749
1123.84	1.12432
1127.21	1.30821
1130.59	0.604568
1133.96	0.737473
1137.34	1.49957
1140.71	1.28225
1144.09	1.84788
1147.46	0.043297
1150.84	0.766823
1154.21	1.98773
1157.59	1.27995
1160.96	1.9118
1164.34	2.68751
1167.71	1.66879
1171.09	1.31435
1174.46	1.96367
1177.84	1.79144
1181.21	1.37469
1184.59	0.880417
1187.96	0.699776
1191.34	0.4813
1194.71	0.508392
1198.09	1.28822
1201.46	0.744812
1204.84	0.291237
1208.21	0.990067
1211.58	0.125
1214.96	0.471138
1218.33	0.4907
1221.71	1.44936
1225.08	1.38514
1228.46	0.189919
1231.83	0.825546
1235.21	1.63667
1238.58	1.90224
1241.96	1.62219
1245.33	1.99596
1248.71	1.87957
1252.08	0.39875
1255.46	1.81997
1258.83	0.714951
1262.21	1.25352
1265.58	2.635
1268.96	1.48496
1272.33	3.01896
1275.71	1.21217
1279.08	1.77425
1282.45	1.30502
1285.83	2.36636
1289.2	0.370888
1292.58	0.559334
1295.95	1.8612
1299.33	2.3866
1302.7	2.46738
