Measurement: Raman, 514 nm, unoriented, Raman Data Processed
Mineral: Spessartine
Rruff sample: R050063
Ideal chemistry: Mn^2+^_3_Al_2_(SiO_4_)_3_
Locality: Fujian Province, China
Source: Rock Currier
Description: Reddish brown crystals
Measured chemistry: (Mn_2.72_Fe_0.24_Ca_0.04_)_Σ=3_(Al_1.95_Fe^3+^_0.05_)_Σ=2_(Si_1.00_O_4_)_2.75_(F_0.58_(OH)_0.42_)_Σ=1_; trace amounts of Mg; OH estimated by charge balance
Raman shift (cm-1)	intensity
122.592	0
126.758	8.471
130.922	104.327
135.083	28.179
139.243	130.897
143.401	8.518
147.557	10.884
151.711	163.657
155.863	428.582
160.013	1383.64
164.161	922.366
168.308	524.729
172.452	559.609
176.594	504.913
180.734	430.589
184.872	347.375
189.008	326.656
193.143	341.481
197.275	376.253
201.405	416.346
205.534	593.07
209.66	486.035
213.784	222.024
217.907	259.065
222.027	234.185
226.146	261.413
230.263	216.757
234.377	142.222
238.49	67.817
242.601	67.55
246.709	31.438
250.816	7.38
254.921	8.256
259.024	37.179
263.125	6.203
267.224	3.568
271.321	9.526
275.416	71.594
279.51	174.032
283.601	273.881
287.69	433.56
291.778	633.756
295.863	880.379
299.947	1133.21
304.029	1337.24
308.108	1474.17
312.186	1550.93
316.262	1582.01
320.336	1581.77
324.408	1823.67
328.478	2104.69
332.546	2752.83
336.612	3269.08
340.677	3652.45
344.739	3727.93
348.799	3290.55
352.858	2933.32
356.915	2739.27
360.969	2782.42
365.022	3097.81
369.073	3456.43
373.122	3415.29
377.169	2929.39
381.215	2171.72
385.258	1597.6
389.299	1206.76
393.339	920.427
397.376	756.146
401.412	594.906
405.446	458.7
409.478	356.521
413.508	271.253
417.536	191.117
421.562	140.564
425.586	93.725
429.609	0.614
433.629	2.506
437.648	22.653
441.665	33.844
445.68	6.142
449.693	14.536
453.704	43.047
457.713	76.64
461.721	91.234
465.726	149.826
469.73	253.178
473.731	280.988
477.731	213.548
481.729	212.087
485.725	259.601
489.72	274.09
493.712	387.839
497.703	463.164
501.691	474.984
505.678	479.816
509.663	420.906
513.646	490.708
517.627	486.795
521.607	555.304
525.584	629.105
529.56	793.366
533.534	1045.63
537.506	1493.68
541.476	2335.9
545.444	3054.2
549.41	2625.1
553.375	1733.07
557.337	1108.74
561.298	811.011
565.257	672.798
569.214	587.42
573.17	501.894
577.123	470.25
581.075	421.437
585.024	395.473
588.972	386.635
592.918	350.913
596.863	323.753
600.805	273.417
604.746	313.077
608.685	315.733
612.621	361.682
616.557	367.475
620.49	469.111
624.421	532.59
628.351	624.91
632.279	539.071
636.205	335.074
640.129	279.917
644.051	201.601
647.972	163.127
651.89	67.491
655.807	55.678
659.722	31.674
663.636	10.459
667.547	11.036
671.457	24.888
675.365	9.136
679.271	38.816
683.175	46.996
687.077	41.682
690.978	57.862
694.877	37.574
698.774	14.739
702.669	6.193
706.562	5.103
710.454	51.194
714.344	70.876
718.232	97.929
722.118	101.6
726.002	103.149
729.885	86.038
733.766	93.9
737.645	105.107
741.522	133.206
745.397	132.047
749.271	147.113
753.143	139.958
757.013	147.731
760.881	136.462
764.748	119.124
768.613	100.713
772.476	127.223
776.337	186.658
780.196	257.021
784.054	261.324
787.91	325.572
791.764	289.776
795.616	336.943
799.467	441.117
803.316	614.269
807.163	763.86
811.008	783.049
814.851	835.513
818.693	776.635
822.533	749.85
826.371	760.68
830.208	840.025
834.042	955.051
837.875	1265.11
841.706	1575.5
845.536	1831.5
849.363	1881.96
853.189	1877.35
857.013	1865.69
860.836	1774.47
864.656	1641.93
868.475	1731.15
872.292	1899.74
876.108	2117.62
879.922	2513.59
883.733	3018.65
887.544	3770.79
891.352	4931.03
895.159	7131.36
898.964	11413.8
902.767	17580.3
906.568	22969
910.368	20650.7
914.166	13877.5
917.962	8509.46
921.757	5539.52
925.55	3694.68
929.341	2583.95
933.13	1993.68
936.918	1678.42
940.703	1454.72
944.488	1292.18
948.27	1141.2
952.051	999.248
955.83	905.44
959.607	821.813
963.383	714.734
967.156	640.488
970.928	553.635
974.699	473.444
978.468	409.093
982.234	370.276
986	339.379
989.763	387.488
993.525	439.945
997.285	519.943
1001.04	647.585
1004.8	663.46
1008.55	733.504
1012.31	824.965
1016.06	952.048
1019.81	1099.52
1023.56	1315.09
1027.31	1291.78
1031.05	1074.61
1034.79	693.56
1038.53	432.62
1042.27	269.025
1046.01	195.032
1049.75	162.378
1053.48	106.812
1057.22	80.345
1060.95	27.969
1064.68	79.668
1068.4	22.442
1072.13	27.292
1075.86	27.236
1079.58	24.227
1083.3	0.71
1087.02	11.624
1090.74	20.507
1094.45	25.376
1098.17	45.26
1101.88	11.216
1105.59	56.194
1109.3	28.276
1113.01	36.073
1116.71	19.658
1120.42	17.958
1124.12	100.699
1127.82	1.626
1131.52	2.97
1135.22	24.306
1138.91	19.247
1142.61	14.2
1146.3	19.36
1149.99	32.225
1153.68	40.193
1157.37	34.383
1161.06	60.816
1164.74	66.958
1168.42	77.312
1172.1	61.815
1175.78	58.176
1179.46	71.518
1183.14	46.64
1186.81	71.387
1190.48	52.71
1194.15	53.811
1197.83	76.754
1201.49	40.295
1205.16	61.737
1208.82	68.481
1212.49	69.48
1216.15	73.093
1219.81	52.307
1223.46	67.192
1227.12	68.874
1230.78	94.037
1234.43	104.974
1238.08	112.401
1241.73	75.188
1245.38	91.516
1249.03	107.197
1252.67	93.809
1256.31	106.263
1259.95	88.568
1263.6	96.844
1267.23	95.157
1270.87	74.675
1274.51	104.749
1278.14	40.353
1281.77	60.599
1285.4	62.725
1289.03	50.981
1292.66	34.356
1296.28	15.678
1299.91	13.855
1303.53	11.338
1307.15	11.484
1310.77	6.502
1314.38	31.332
1318	8.033
1321.61	8.566
1325.23	5.058
1328.84	3.695
1332.45	20.924
1336.06	7.742
1339.66	17.107
1343.27	7.862
1346.87	22.492
1350.47	1.045
1354.07	26.492
1357.67	19.07
1361.26	22.54
1364.86	21.658
1368.45	20.601
1372.04	35.445
1375.63	55.275
1379.22	28.165
1382.81	76.173
1386.39	26.267
1389.98	47.307
1393.56	59.314
1397.14	59.245
1400.72	99.96
1404.3	59.227
1407.87	52.723
1411.45	30.103
1415.02	23.268
1418.59	14.092
1422.16	61.838
1425.73	48.921
1429.29	34.204
1432.86	30.259
1436.42	64.866
1439.98	53.734
1443.54	41.255
1447.1	75.359
1450.66	21.27
1454.21	40.475
1457.77	18.335
1461.32	41.077
1464.87	75.704
1468.42	18.221
1471.96	48.079
1475.51	43.755
1479.06	66.941
1482.6	53.054
1486.14	30.832
1489.68	11.249
1493.22	34.514
1496.75	1.034
1500.29	0
