Measurement: Raman, 532 nm, unoriented, Raman Data Processed
Mineral: Spessartine
Rruff sample: R080053
Ideal chemistry: Mn^2+^_3_Al_2_(SiO_4_)_3_
Locality: East Africa
Source: www.multicolour.com
Description: Transparent orange fragments
Measured chemistry: (Mn^2+^_1.32_Mg_0.96_Fe^2+^_0.38_Fe^3+^_0.04_)_Σ=3_Al_2.00_((Si_2.96_Al_0.04_)_Σ=1_O_4_)_3_; Fe^2+^ and Fe^3+^ splitted by charge balance
Raman shift (cm-1)	intensity
147.743	0
151.118	0.363525
154.493	8.26502
157.868	12.2901
161.242	18.3323
164.617	35.5585
167.992	65.0066
171.367	127.441
174.742	173.398
178.117	93.284
181.491	36.8596
184.866	25.5535
188.241	43.9142
191.616	71.1474
194.991	100.578
198.365	123.14
201.74	154.261
205.115	171.923
208.49	183.863
211.865	186.998
215.239	174.483
218.614	151.855
221.989	126.002
225.364	101.818
228.739	84.1396
232.114	64.9133
235.488	50.3993
238.863	44.2443
242.238	32.8184
245.613	21.0956
248.988	12.6616
252.362	7.30743
255.737	3.54431
259.112	0.004578
262.487	0.010193
265.862	6.34497
269.236	0.860718
272.611	1.11487
275.986	1.00159
279.361	0.676758
282.736	1.46899
286.111	1.51312
289.485	3.87982
292.86	8.95862
296.235	16.8338
299.61	21.2213
302.985	27.3884
306.36	43.6381
309.734	63.9766
313.109	93.9171
316.484	124.851
319.859	148.28
323.234	176.899
326.608	225.279
329.983	295.526
333.358	373.817
336.733	443.857
340.108	529.788
343.483	655.471
346.857	852.704
350.232	1172.96
353.607	1572.43
356.982	1718.24
360.357	1348.91
363.731	942.689
367.106	722.233
370.481	611.384
373.856	539.341
377.231	462.533
380.606	367.64
383.98	278.604
387.355	202
390.73	139.638
394.105	92.6204
397.48	63.1065
400.854	39.9541
404.229	27.225
407.604	21.9708
410.979	13.0837
414.354	11.7665
417.728	4.89667
421.103	1.06793
424.478	3.29022
427.853	0.355713
431.228	1.8447
434.603	3.58935
437.977	3.36758
441.352	5.11267
444.727	5.03183
448.102	1.47833
451.477	2.59778
454.851	10.2466
458.226	15.7638
461.601	29.9728
464.976	41.77
468.351	55.4919
471.726	75.9782
475.1	112.59
478.475	160.496
481.85	183.095
485.225	131.644
488.6	95.4537
491.974	95.624
495.349	122.963
498.724	192.838
502.099	313.104
505.474	372.648
508.849	252.472
512.223	134.577
515.598	89.111
518.973	75.0503
522.348	71.0372
525.722	72.1308
529.097	77.3168
532.472	79.5713
535.847	100.176
539.222	147.225
542.597	217.906
545.971	306.959
549.346	440.962
552.721	631.298
556.096	771.771
559.471	660.86
562.846	398.513
566.22	207.244
569.595	105.977
572.97	53.4243
576.345	29.5252
579.72	18.6682
583.094	9.69922
586.469	4.9881
589.844	2.34399
593.219	0.231018
596.594	0.524536
599.968	1.89978
603.343	6.98138
606.718	1.38019
610.093	6.4693
613.468	3.58337
616.843	2.08789
620.217	16.4283
623.592	36.7111
626.967	67.8037
630.342	113.61
633.717	173.429
637.091	193.554
640.466	147.872
643.841	91.5964
647.216	61.3488
650.591	37.7805
653.966	25.5532
657.34	20.5298
660.715	14.7828
664.09	9.07611
667.465	3.04156
670.84	0.235046
674.215	1.06378
677.589	2.6261
680.964	1.91815
684.339	8.9989
687.714	8.53375
691.089	6.11316
694.463	12.6668
697.838	13.8008
701.213	16.5864
704.588	18.2965
707.963	23.7178
711.337	23.5321
714.712	30.8649
718.087	26.3061
721.462	26.6351
724.837	27.3234
728.212	26.3666
731.586	28.8175
734.961	33.637
738.336	37.8981
741.711	40.2898
745.086	39.78
748.46	35.7467
751.835	32.793
755.21	32.9984
758.585	24.4155
761.96	19.9799
765.335	15.2291
768.709	15.4382
772.084	7.93811
775.459	5.67957
778.834	3.12378
782.209	2.2926
785.583	3.96667
788.958	4.93158
792.333	7.67676
795.708	9.63648
799.083	10.0911
802.457	6.88879
805.832	0.254944
809.207	9.15955
812.582	19.0638
815.957	21.0608
819.332	25.5521
822.706	23.762
826.081	20.8621
829.456	28.0475
832.831	46.0316
836.206	80.0087
839.58	137.933
842.955	219.601
846.33	321.526
849.705	444.768
853.08	537.943
856.455	496.759
859.829	367.957
863.204	257.851
866.579	189.506
869.954	167.189
873.329	178.153
876.703	215.77
880.078	283.447
883.453	373.493
886.828	490.725
890.203	624.119
893.577	840.898
896.952	1242.65
900.327	1923.17
903.702	2943.43
907.077	4317.6
910.452	5619.81
913.826	5558.48
917.201	3988.32
920.576	2442.49
923.951	1475.8
927.326	922.316
930.701	583.948
934.075	375.973
937.45	243.415
940.825	152.871
944.2	97.4592
947.575	58.3304
950.949	28.5133
954.324	9.52301
957.699	1.37561
961.074	4.89752
964.449	7.59992
967.823	8.16443
971.198	9.28406
974.573	4.98236
977.948	1.14661
981.323	2.8515
984.697	0.241455
988.072	3.76367
991.447	5.93604
994.822	1.3338
998.197	9.92438
1001.57	22.2758
1004.95	34.659
1008.32	51.6517
1011.7	73.0494
1015.07	87.3828
1018.45	112.183
1021.82	138.901
1025.19	164.478
1028.57	200.643
1031.94	248.816
1035.32	296.822
1038.69	332.677
1042.07	326.413
1045.44	276.831
1048.82	208.734
1052.19	136.131
1055.57	86.7822
1058.94	59.6808
1062.32	36.4426
1065.69	24.9512
1069.07	21.5077
1072.44	17.0924
1075.82	12.5098
1079.19	8.48084
1082.57	6.14838
1085.94	6.90167
1089.32	7.40631
1092.69	5.48639
1096.07	7.34039
1099.44	3.76318
1102.82	2.36316
1106.19	4.87964
1109.57	2.07422
1112.94	0.15271
1116.32	0.813843
1119.69	1.18073
1123.07	4.625
1126.44	1.74628
1129.82	2.4613
1133.19	3.15576
1136.56	0.70459
1139.94	0.405029
1143.31	2.5531
1146.69	6.56921
1150.06	7.03461
1153.44	8.30878
1156.81	14.2561
1160.19	19.6303
1163.56	20.1981
1166.94	18.9393
1170.31	22.3775
1173.69	21.6474
1177.06	21.8445
1180.44	27.2657
1183.81	20.9787
1187.19	20.1322
1190.56	20.4134
1193.94	19.7838
1197.31	17.676
1200.69	13.1881
1204.06	13.9903
1207.43	13.7881
1210.81	12.0289
1214.18	8.87988
1217.56	6.65265
1220.93	7.18597
1224.31	5.69958
1227.68	5.22516
1231.06	2.71387
1234.43	0.750183
1237.81	1.78363
1241.18	0.352356
1244.56	0.558228
1247.93	2.97943
1251.31	8.49487
1254.68	7.36145
1258.06	7.56134
1261.43	10.193
1264.81	11.6334
1268.18	13.54
1271.56	11.6193
1274.93	8.8197
1278.31	7.65607
1281.68	8.40527
1285.06	8.50488
1288.43	5.49164
1291.81	6.84277
1295.18	3.00501
1298.56	0.252747
1301.93	1.76221
1305.31	0
