Measurement: Raman, 532 nm, unoriented, Raman Data Processed
Mineral: Spessartine
Rruff sample: R060279
Ideal chemistry: Mn^2+^_3_Al_2_(SiO_4_)_3_
Locality: Shigar Valley, northeast of Skardu, Baltistan, Pakistan
Source: Herb Obodda
Description: Reddish-brown fine grained fragment
Measured chemistry: (Mn^2+^_1.64_Ca_0.82_Fe^2+^_0.46_Mg_0.08_)_Σ=3_(Al_1.98_Fe^3+^_0.02_)_Σ=2_(Si_1.00_O_4_)_3_
Raman shift (cm-1)	intensity
134.054	0
137.428	0.22435
140.803	4.92136
144.178	10.8166
147.553	18.2229
150.928	25.6578
154.302	32.6971
157.677	39.1148
161.052	49.6023
164.427	74.0008
167.802	97.1556
171.177	50.0849
174.551	18.5671
177.926	7.98483
181.301	8.45902
184.676	13.8925
188.051	13.8544
191.425	17.201
194.8	20.912
198.175	24.3063
201.55	29.2061
204.925	36.4308
208.299	37.4013
211.674	49.3733
215.049	56.9451
218.424	64.4508
221.799	73.575
225.174	77.1949
228.548	75.595
231.923	69.118
235.298	55.7129
238.673	42.0935
242.048	30.3087
245.423	20.0936
248.797	12.9561
252.172	6.79222
255.547	3.71558
258.922	0.245392
262.297	1.1956
265.671	1.01891
269.046	1.81169
272.421	2.98981
275.796	0.784821
279.171	0.486191
282.546	0.847443
285.92	0.961319
289.295	2.67262
292.67	2.72197
296.045	2.8725
299.42	5.46426
302.794	7.87413
306.169	10.2027
309.544	14.5973
312.919	22.8268
316.294	31.3036
319.668	43.4269
323.043	54.8741
326.418	71.0931
329.793	84.7909
333.168	103.99
336.543	131.644
339.917	169.738
343.292	228.603
346.667	305.041
350.042	409.914
353.417	508.076
356.791	528.189
360.166	441.77
363.541	348.181
366.916	284.422
370.291	236.854
373.666	204.612
377.04	177.269
380.415	150.777
383.79	126.947
387.165	101.845
390.54	78.3983
393.914	57.822
397.289	42.4248
400.664	31.4456
404.039	18.5758
407.414	12.751
410.788	8.79686
414.163	4.16077
417.538	2.53104
420.913	0.75695
424.288	1.60647
427.663	2.62969
431.037	2.38524
434.412	2.525
437.787	1.91684
441.162	0.447334
444.537	2.54829
447.911	5.22642
451.286	9.131
454.661	11.8465
458.036	15.3924
461.411	17.5936
464.786	20.4196
468.16	23.9056
471.535	30.5669
474.91	39.9662
478.285	33.8637
481.66	23.627
485.034	18.8614
488.409	19.0491
491.784	27.9699
495.159	40.3972
498.534	64.5168
501.909	86.2763
505.283	76.8945
508.658	43.7732
512.033	25.8702
515.408	17.2756
518.783	15.6687
522.158	15.2481
525.532	18.6884
528.907	23.3755
532.282	32.7452
535.657	52.16
539.032	77.057
542.406	109.592
545.781	158.032
549.156	193.645
552.531	184.954
555.906	120.552
559.28	60.8293
562.655	30.1887
566.03	17.5653
569.405	8.6774
572.78	5.54556
576.154	3.11022
579.529	1.14848
582.904	1.70715
586.279	1.50723
589.654	0.932976
593.029	0.905716
596.403	2.65081
599.778	0.311157
603.153	1.9069
606.528	1.06391
609.903	5.75263
613.278	12.3668
616.652	19.8053
620.027	26.5327
623.402	32.8948
626.777	43.5999
630.152	48.1745
633.526	39.9555
636.901	25.9269
640.276	17.1631
643.651	9.67752
647.026	6.43742
650.4	4.88827
653.775	3.01801
657.15	2.92683
660.525	2.7524
663.9	1.32716
667.274	2.46558
670.649	1.15393
674.024	0.45797
677.399	3.46507
680.774	2.26611
684.149	2.78648
687.523	4.36
690.898	4.85648
694.273	5.79182
697.648	6.64546
701.023	6.67856
704.398	7.28885
707.772	9.34208
711.147	9.86221
714.522	9.89992
717.897	11.4088
721.272	10.6742
724.646	11.2555
728.021	12.0672
731.396	12.1616
734.771	11.7173
738.146	12.0821
741.52	10.4874
744.895	9.2756
748.27	6.38017
751.645	6.87709
755.02	5.98719
758.395	3.80331
761.769	2.77727
765.144	0.844826
768.519	0.282997
771.894	0.489975
775.269	0.22274
778.644	0.197342
782.018	1.4351
785.393	1.97418
788.768	1.90493
792.143	2.97381
795.518	1.86497
798.892	0.659531
802.267	1.37656
805.642	7.15894
809.017	12.6538
812.392	16.3826
815.766	17.1523
819.141	23.5339
822.516	29.8684
825.891	47.6668
829.266	64.7199
832.641	90.1251
836.015	114.49
839.39	137.308
842.765	144.293
846.14	131.701
849.515	107.164
852.889	82.5396
856.264	70.3828
859.639	60.5363
863.014	67.107
866.389	76.2687
869.764	92.8516
873.138	111.139
876.513	135.352
879.888	176.392
883.263	245.119
886.638	374.229
890.013	570.551
893.387	840.484
896.762	1142.4
900.137	1327.61
903.512	1213.78
906.886	868.551
910.261	542.161
913.636	327.816
917.011	200.063
920.386	125.13
923.761	78.3874
927.135	49.3748
930.51	32.0357
933.885	17.5367
937.26	9.58341
940.635	4.72253
944.01	1.91592
947.384	0.846222
950.759	0.102493
954.134	0.051712
957.509	1.93066
960.884	2.9471
964.258	2.72894
967.633	0.109024
971.008	3.5983
974.383	3.55745
977.758	5.14851
981.133	1.39378
984.507	1.07534
987.882	8.38047
991.257	15.029
994.632	25.393
998.007	34.2841
1001.38	42.9187
1004.76	48.7442
1008.13	57.3272
1011.51	65.8918
1014.88	75.4476
1018.25	87.8008
1021.63	99.2038
1025.01	101.678
1028.38	88.9664
1031.76	65.3276
1035.13	41.6007
1038.5	26.8565
1041.88	15.3369
1045.25	11.108
1048.63	7.31126
1052	5.94321
1055.38	3.67487
1058.75	3.59686
1062.13	4.21841
1065.5	3.53135
1068.88	1.9082
1072.25	1.85815
1075.63	1.23354
1079	0.773727
1082.38	1.95441
1085.75	1.16454
1089.13	0.723831
1092.5	0.254669
1095.88	1.80548
1099.25	0.741333
1102.63	1.83569
1106	1.08142
1109.38	0.477745
1112.75	0.685898
1116.12	0.884911
1119.5	2.20335
1122.88	0.546837
1126.25	0.92749
1129.62	3.91972
1133	3.30804
1136.37	2.92175
1139.75	3.64573
1143.12	4.08888
1146.5	5.57497
1149.87	4.76556
1153.25	7.17346
1156.62	5.16782
1160	5.7476
1163.37	7.72601
1166.75	5.02826
1170.12	4.66901
1173.5	4.39348
1176.87	4.91035
1180.25	4.60799
1183.62	4.86581
1187	2.68006
1190.37	3.32135
1193.75	1.06494
1197.12	1.59626
1200.5	0.461937
1203.87	0.913857
1207.24	1.19899
1210.62	0.306473
1213.99	0.779518
1217.37	1.21749
1220.74	0.040848
1224.12	0.355522
1227.49	1.70821
1230.87	0.165047
1234.24	2.2816
1237.62	1.7853
1240.99	2.91403
1244.37	3.50327
1247.74	3.9445
1251.12	3.18398
1254.49	4.75488
1257.87	3.94559
1261.24	4.8123
1264.62	4.72067
1267.99	4.38409
1271.37	4.97208
1274.74	3.87415
1278.12	6.82517
1281.49	3.34037
1284.87	1.13287
1288.24	1.09038
1291.62	1.74316
1294.99	1.12071
1298.37	0.297607
1301.74	0.777229
