Measurement: Raman, 532 nm, unoriented, Raman Data Processed
Mineral: Spessartine
Rruff sample: R060451
Ideal chemistry: Mn^2+^_3_Al_2_(SiO_4_)_3_
Locality: unknown
Source: Gemological Institute of America
Description: Reddish orange fragment
Measured chemistry: (Mn_1.26_Mg_0.98_Fe^2+^_0.39_Ca_0.37_)_Î£=3_Al_2.00_(Si_1.00_O_4_)_3_; trace amounts of Ti
Raman shift (cm-1)	intensity
162.743	0
165.635	1.4282
168.528	5.20659
171.421	11.6071
174.313	19.9948
177.206	12.9575
180.099	3.65011
182.992	0.720932
185.884	0.206387
188.777	3.15353
191.67	5.42672
194.562	8.85333
197.455	10.0823
200.348	14.3151
203.24	17.424
206.133	17.6535
209.026	17.7413
211.918	17.9668
214.811	17.3651
217.704	15.5127
220.596	13.0925
223.489	9.90054
226.382	8.03083
229.275	7.40908
232.167	5.82319
235.06	4.23526
237.953	5.65684
240.845	4.81756
243.738	2.91325
246.631	1.11339
249.524	1.6544
252.416	0.76918
255.309	0.394859
258.202	1.27187
261.094	0.161587
263.987	0.750473
266.88	0.320263
269.772	0.614868
272.665	0.296127
275.558	0.456841
278.451	0.402439
281.343	0.308758
284.236	1.65343
287.129	1.04704
290.021	1.7013
292.914	2.07888
295.807	2.89581
298.7	3.45449
301.592	4.71458
304.485	5.63456
307.378	8.11015
310.27	10.7992
313.163	14.7625
316.056	17.7797
318.948	19.6926
321.841	24.7134
324.734	27.3999
327.627	35.8991
330.519	46.5088
333.412	54.9961
336.305	63.6496
339.197	74.7481
342.09	89.9715
344.983	110.716
347.875	141.571
350.768	180.718
353.661	225.593
356.553	246.836
359.446	216.905
362.339	162.887
365.231	124.279
368.124	102.584
371.017	91.0117
373.91	81.9462
376.802	68.5775
379.695	60.1773
382.588	47.7943
385.48	36.9967
388.373	27.9747
391.266	20.4917
394.159	14.6302
397.051	10.435
399.944	6.81043
402.837	5.56007
405.729	3.71238
408.622	2.6624
411.515	1.82667
414.407	0.559641
417.3	0.240847
420.193	0.445761
423.086	0.85388
425.978	0.436468
428.871	0.604181
431.764	0.019756
434.656	0.616035
437.549	0.444176
440.442	0.167826
443.334	0.090731
446.227	0.298891
449.12	0.028118
452.012	0.523397
454.905	1.39826
457.798	2.20482
460.691	3.0856
463.583	4.33649
466.476	5.25891
469.369	7.4036
472.261	10.3165
475.154	13.0171
478.047	16.7643
480.94	19.4757
483.832	16.1991
486.725	10.2771
489.618	9.96812
492.51	10.9883
495.403	14.3459
498.296	22.0722
501.188	33.1314
504.081	41.9004
506.974	36.9227
509.866	21.6771
512.759	13.5694
515.652	11.1102
518.545	10.1357
521.437	9.25402
524.33	9.82115
527.223	10.4656
530.115	9.90642
533.008	11.3691
535.901	14.5705
538.794	20.8716
541.686	28.9412
544.579	41.4728
547.472	54.9299
550.364	74.7247
553.257	96.3406
556.15	107.532
559.043	91.7037
561.935	56.4908
564.828	32.1771
567.721	18.2081
570.613	9.81339
573.506	6.07986
576.399	3.78906
579.291	2.26274
582.184	1.1225
585.077	0.674198
587.969	0.829271
590.862	0.057684
593.755	0.17853
596.648	0.357063
599.54	0.188351
602.433	1.26436
605.326	0.290545
608.218	0.183962
611.111	1.1236
614.004	0.668597
616.896	0.196868
619.789	1.87636
622.682	4.00797
625.574	7.1497
628.467	12.0724
631.36	17.2288
634.253	22.8043
637.145	23.8433
640.038	19.6208
642.931	13.2073
645.823	9.82215
648.716	7.2831
651.609	5.41362
654.501	3.86965
657.394	3.01631
660.287	2.40491
663.18	1.55761
666.072	1.40219
668.965	0.681014
671.858	0.22789
674.75	0.506147
677.643	0.288466
680.536	0.613579
683.428	0.318945
686.321	0.029474
689.214	0.88649
692.107	1.03161
694.999	1.18533
697.892	1.40795
700.785	1.82883
703.677	2.43171
706.57	2.27974
709.463	2.61517
712.356	2.78155
715.248	3.11753
718.141	2.94902
721.034	3.02635
723.926	2.91637
726.819	3.70126
729.712	3.91621
732.604	3.8944
735.497	4.52946
738.39	4.80786
741.283	5.50848
744.175	5.4473
747.068	5.16651
749.961	4.83314
752.853	3.96271
755.746	4.03203
758.639	3.20729
761.531	3.16487
764.424	2.68055
767.317	1.9929
770.21	1.50902
773.102	0.80361
775.995	1.37058
778.888	0.325976
781.78	0.518044
784.673	0.25673
787.566	0.292867
790.458	0.470329
793.351	1.69283
796.244	0.663971
799.136	1.17298
802.029	1.40165
804.922	1.14691
807.815	0.553322
810.707	2.67086
813.6	3.22078
816.493	4.88931
819.385	5.04725
822.278	5.62887
825.171	5.45672
828.063	5.53179
830.956	7.13723
833.849	9.41039
836.742	13.9349
839.634	20.8188
842.527	29.9698
845.42	41.8819
848.312	55.1985
851.205	65.8555
854.098	64.3199
856.99	52.6189
859.883	38.2202
862.776	27.5221
865.669	21.2714
868.561	18.9654
871.454	20.4272
874.347	22.0396
877.239	28.1878
880.132	37.4074
883.025	47.0128
885.918	60.481
888.81	74.7568
891.703	96.8114
894.596	134.24
897.488	195.32
900.381	287.664
903.274	419.463
906.166	573.898
909.059	725.502
911.952	761.771
914.845	636.333
917.737	437.56
920.63	281.188
923.523	184.099
926.415	121.128
929.308	80.1782
932.201	53.9397
935.093	36.5617
937.986	24.8342
940.879	16.107
943.771	11.1333
946.664	6.75018
949.557	2.92532
952.45	1.72001
955.342	0.642191
958.235	0.275387
961.128	1.68976
964.02	1.19304
966.913	1.13904
969.806	0.750681
972.698	0.16737
975.591	0.954838
978.484	0.41226
981.377	0.452118
984.269	0.346035
987.162	0.800543
990.055	0.895582
992.947	0.135788
995.84	0.696733
998.733	0.633642
1001.63	1.88637
1004.52	4.37632
1007.41	6.72346
1010.3	9.38372
1013.2	10.9628
1016.09	14.4265
1018.98	16.8897
1021.87	18.9115
1024.77	22.1618
1027.66	24.3716
1030.55	29.7439
1033.44	34.7321
1036.34	39.1555
1039.23	40.5162
1042.12	38.6489
1045.02	34.5734
1047.91	25.7532
1050.8	18.188
1053.69	13.0725
1056.59	8.27351
1059.48	5.86179
1062.37	3.65865
1065.27	3.34317
1068.16	2.12006
1071.05	1.64522
1073.94	1.27556
1076.84	1.42746
1079.73	1.10089
1082.62	1.49751
1085.51	0.957255
1088.41	0.944402
1091.3	0.619026
1094.19	0.562474
1097.09	0.620916
1099.98	0.861686
1102.87	0.350635
1105.76	0.46447
1108.65	0.267245
1111.55	0.087001
1114.44	0.219618
1117.33	0.159572
1120.23	0.211079
1123.12	0.258526
1126.01	0.118341
1128.9	0.218424
1131.8	0.153848
1134.69	0.079535
1137.58	0.109492
1140.47	0.402761
1143.37	0.448962
1146.26	0.595479
1149.15	0.577615
1152.05	0.943691
1154.94	1.03191
1157.83	1.40679
1160.72	1.59033
1163.62	1.88758
1166.51	2.14156
1169.4	2.46819
1172.3	2.4024
1175.19	2.93903
1178.08	2.31839
1180.97	2.06666
1183.87	2.36889
1186.76	2.63409
1189.65	2.03378
1192.54	1.57541
1195.44	1.51196
1198.33	1.50439
1201.22	1.7245
1204.12	1.41
1207.01	1.1502
1209.9	0.902187
1212.79	0.781492
1215.68	0.344833
1218.58	0.336874
1221.47	0.45893
1224.36	0.26759
1227.26	0.033328
1230.15	0.3576
1233.04	0.306646
1235.93	0.036209
1238.83	0.195128
1241.72	0.186069
1244.61	0.765115
1247.51	0.393362
1250.4	0.487604
1253.29	0.873236
1256.18	0.986641
1259.08	0.80972
1261.97	1.24451
1264.86	1.12143
1267.75	1.04924
1270.65	1.18561
1273.54	1.12473
1276.43	1.16498
1279.33	1.54878
1282.22	1.19241
1285.11	1.01867
1288	1.08309
1290.9	0.743546
1293.79	0.770009
1296.68	0.672378
1299.57	0.102351
1302.47	0.484416
