Measurement: Raman, 532 nm, unoriented, Raman Data Processed
Mineral: Spessartine
Rruff sample: R060447
Ideal chemistry: Mn^2+^_3_Al_2_(SiO_4_)_3_
Locality: unknown
Source: Gemological Institute of America
Description: Orange fragment
Measured chemistry: (Mn^2+^_2.85_Fe^2+^_0.07_Mg_0.05_Ca_0.03_)_Î£=3_Al_2.00_(Si_1.00_O_4_)_3_
Raman shift (cm-1)	intensity
100.305	0
103.68	0.171851
107.055	0.63997
110.43	0.73764
113.805	0.138658
117.179	0.649587
120.554	1.3632
123.929	1.47363
127.304	1.7754
130.679	4.681
134.054	4.3211
137.428	4.618
140.803	5.57045
144.178	7.14467
147.553	11.9482
150.928	13.0962
154.302	16.0518
157.677	23.0269
161.052	35.5481
164.427	89.0264
167.802	51.2051
171.177	28.5562
174.551	37.968
177.926	32.8408
181.301	12.0361
184.676	8.51864
188.051	8.25491
191.425	10.3181
194.8	17.456
198.175	20.3569
201.55	14.2074
204.925	13.528
208.299	15.8439
211.674	23.6415
215.049	38.0412
218.424	60.4209
221.799	75.8001
225.174	51.6154
228.548	26.0307
231.923	15.2036
235.298	9.96989
238.673	7.65636
242.048	4.54767
245.423	2.94755
248.797	1.21736
252.172	0.802788
255.547	0.373722
258.922	0.713581
262.297	1.26807
265.671	0.929304
269.046	0.958849
272.421	1.5791
275.796	0.052563
279.171	1.37731
282.546	4.00712
285.92	5.74012
289.295	10.6956
292.67	14.8061
296.045	19.546
299.42	26.7335
302.794	30.1724
306.169	29.3248
309.544	34.3743
312.919	48.2974
316.294	69.1281
319.668	92.0795
323.043	79.876
326.418	50.3903
329.793	40.9212
333.168	47.7264
336.543	65.9671
339.917	97.334
343.292	149.396
346.667	223.272
350.042	271.821
353.417	218.131
356.791	130.457
360.166	86.0181
363.541	80.3912
366.916	94.5015
370.291	128.734
373.666	146.391
377.04	101.526
380.415	53.43
383.79	29.226
387.165	16.9111
390.54	10.791
393.914	6.75304
397.289	3.92338
400.664	2.78799
404.039	1.29501
407.414	0.590811
410.788	0.634329
414.163	0.037956
417.538	0.408678
420.913	0.687225
424.288	0.140779
427.663	1.31962
431.037	0.635544
434.412	0.44829
437.787	0.425114
441.162	0.569408
444.537	0.016165
447.911	0.188961
451.286	1.57015
454.661	2.58579
458.036	3.76255
461.411	6.21471
464.786	9.30528
468.16	13.3617
471.535	21.9484
474.91	25.1742
478.285	14.7828
481.66	8.44194
485.034	7.82905
488.409	8.30298
491.784	10.7634
495.159	20.3364
498.534	33.0627
501.909	39.826
505.283	23.2428
508.658	10.8712
512.033	7.51114
515.408	5.68159
518.783	6.85311
522.158	8.0447
525.532	8.12773
528.907	8.19697
532.282	9.55966
535.657	15.0028
539.032	24.5545
542.406	39.1385
545.781	61.9607
549.156	90.1187
552.531	104.789
555.906	79.9536
559.28	44.6197
562.655	23.9721
566.03	13.6335
569.405	7.81046
572.78	4.03012
576.154	2.99252
579.529	2.62287
582.904	2.22825
586.279	1.95202
589.654	2.58533
593.029	2.97309
596.403	1.51668
599.778	0.078529
603.153	0.452644
606.528	0.805317
609.903	0.825747
613.278	1.2665
616.652	3.02006
620.027	4.12889
623.402	8.20296
626.777	12.9025
630.152	16.9544
633.526	12.2285
636.901	6.38238
640.276	3.37633
643.651	2.44277
647.026	1.58299
650.4	0.385069
653.775	1.25011
657.15	0.646259
660.525	0.303898
663.9	0.830776
667.274	0.167444
670.649	0.466312
674.024	0.06826
677.399	0.242661
680.774	0.424885
684.149	0.250574
687.523	0.348928
690.898	0.642492
694.273	0.734983
697.648	1.25561
701.023	1.89933
704.398	1.60687
707.772	2.71744
711.147	2.54774
714.522	3.21729
717.897	3.16392
721.272	2.72412
724.646	2.66807
728.021	2.55852
731.396	2.15671
734.771	2.85572
738.146	3.1163
741.52	2.89535
744.895	2.72962
748.27	2.52298
751.645	2.11097
755.02	2.38607
758.395	1.40699
761.769	1.48424
765.144	0.829435
768.519	0.329811
771.894	0.337666
775.269	0.845089
778.644	1.17035
782.018	0.712017
785.393	0.969074
788.768	1.23218
792.143	0.030437
795.518	0.670181
798.892	0.899303
802.267	0.904903
805.642	0.184959
809.017	0.870159
812.392	1.60667
815.766	0.106926
819.141	0.756939
822.516	0.733959
825.891	0.294998
829.266	1.55037
832.641	5.66853
836.015	11.6433
839.39	19.9851
842.765	30.2001
846.14	45.9745
849.515	52.8914
852.889	42.5121
856.264	28.9037
859.639	20.0615
863.014	17.4223
866.389	19.0809
869.764	25.4662
873.138	35.1476
876.513	48.8737
879.888	62.7061
883.263	74.225
886.638	95.4016
890.013	139.158
893.387	218.544
896.762	346.781
900.137	545.488
903.512	796.586
906.886	911.755
910.261	708.658
913.636	426.419
917.011	248.672
920.386	149.304
923.761	92.61
927.135	58.0562
930.51	36.373
933.885	22.2389
937.26	13.4418
940.635	7.4468
944.01	4.16638
947.384	1.49288
950.759	0.081776
954.134	0.757286
957.509	0.554604
960.884	1.21834
964.258	2.93868
967.633	4.56775
971.008	5.19381
974.383	4.96447
977.758	1.61267
981.133	1.09569
984.507	0.903767
987.882	1.27656
991.257	0.697346
994.632	0.956989
998.007	2.70171
1001.38	3.24847
1004.76	4.53412
1008.13	6.40853
1011.51	9.03844
1014.88	11.3903
1018.25	15.1289
1021.63	22.9344
1025.01	30.3278
1028.38	36.6585
1031.76	33.7456
1035.13	23.065
1038.5	14.7626
1041.88	9.36836
1045.25	6.46519
1048.63	3.84763
1052	2.04016
1055.38	1.29126
1058.75	1.46677
1062.13	0.674194
1065.5	0.266193
1068.88	0.404205
1072.25	0.007145
1075.63	0.522804
1079	0.685925
1082.38	0.680462
1085.75	1.44632
1089.13	0.697807
1092.5	0.156685
1095.88	0.512287
1099.25	0.827904
1102.63	0.054829
1106	0.086536
1109.38	0.380531
1112.75	0.120583
1116.12	1.25975
1119.5	0.062458
1122.88	0.995979
1126.25	0.045734
1129.62	0.094849
1133	0.890633
1136.37	0.789608
1139.75	1.09239
1143.12	1.26184
1146.5	1.8803
1149.87	3.02857
1153.25	3.16277
1156.62	3.54426
1160	2.23135
1163.37	3.58502
1166.75	3.26566
1170.12	2.62056
1173.5	2.42706
1176.87	2.93853
1180.25	2.6835
1183.62	2.20559
1187	2.48997
1190.37	1.57413
1193.75	1.62411
1197.12	1.47222
1200.5	1.19693
1203.87	1.37458
1207.24	1.15268
1210.62	0.577065
1213.99	0.446148
1217.37	0.029903
1220.74	0.090527
1224.12	0.130924
1227.49	0.854565
1230.87	0.087711
1234.24	1.19859
1237.62	1.5713
1240.99	1.00036
1244.37	1.32454
1247.74	1.38895
1251.12	2.00495
1254.49	1.58603
1257.87	1.65807
1261.24	1.61596
1264.62	1.87988
1267.99	2.73761
1271.37	2.20974
1274.74	3.35836
1278.12	1.72748
1281.49	1.91599
1284.87	1.47258
1288.24	0.564507
1291.62	0.691826
1294.99	0.895405
1298.37	0.590103
1301.74	1.24046
