Measurement: Raman, 780 nm, unoriented, Raman Data Processed
Mineral: Spessartine
Rruff sample: R080053
Ideal chemistry: Mn^2+^_3_Al_2_(SiO_4_)_3_
Locality: East Africa
Source: www.multicolour.com
Description: Transparent orange fragments
Measured chemistry: (Mn^2+^_1.32_Mg_0.96_Fe^2+^_0.38_Fe^3+^_0.04_)_Σ=3_Al_2.00_((Si_2.96_Al_0.04_)_Σ=1_O_4_)_3_; Fe^2+^ and Fe^3+^ splitted by charge balance
Raman shift (cm-1)	intensity
147.946	0
150.839	1.2311
153.731	0.041859
156.624	0.374696
159.517	0.342408
162.41	7.25544
165.302	12.3548
168.195	25.8555
171.088	44.5917
173.98	59.2957
176.873	34.7595
179.766	17.8298
182.658	15.7506
185.551	26.9677
188.444	44.7783
191.337	65.1452
194.229	85.3019
197.122	107.585
200.015	126.172
202.907	138.463
205.8	150.45
208.693	154.156
211.585	153.054
214.478	140.489
217.371	126.918
220.263	107.702
223.156	91.3208
226.049	76.8144
228.942	67.3551
231.834	55.7406
234.727	47.3229
237.62	42.0496
240.512	35.9822
243.405	29.4887
246.298	24.7749
249.19	16.827
252.083	13.1941
254.976	7.08625
257.869	4.01742
260.761	0.220248
263.654	0.569083
266.547	0.059141
269.439	1.84987
272.332	0.067823
275.225	0.28015
278.118	1.09362
281.01	1.23173
283.903	2.34401
286.796	0.556175
289.688	2.58349
292.581	1.99678
295.474	8.73449
298.366	10.6601
301.259	16.0614
304.152	21.7071
307.045	33.4455
309.937	43.0105
312.83	63.5949
315.723	83.607
318.615	84.1333
321.508	90.7908
324.401	102.354
327.293	131.035
330.186	168.786
333.079	221.074
335.971	278.047
338.864	346.068
341.757	416.305
344.649	521.048
347.542	669.812
350.435	875.29
353.328	1102.39
356.22	1165.4
359.113	946.974
362.006	662.114
364.898	468.227
367.791	355.951
370.684	288.05
373.577	246.445
376.469	205.058
379.362	162.561
382.255	126.165
385.147	95.1858
388.04	69.7653
390.933	47.5079
393.825	33.6088
396.718	21.4208
399.611	14.7002
402.503	6.7711
405.396	4.13724
408.289	2.6971
411.182	1.89422
414.074	1.884
416.967	2.13886
419.86	1.46289
422.752	0.396599
425.645	0.081357
428.538	0.67681
431.43	2.48575
434.323	2.12194
437.216	2.80185
440.109	2.14236
443.001	0.973831
445.894	1.84659
448.787	3.15248
451.679	6.46621
454.572	10.6968
457.465	17.287
460.358	22.7919
463.25	31.6817
466.143	36.9456
469.036	42.6546
471.928	56.3654
474.821	75.385
477.714	100.005
480.606	116.834
483.499	92.6427
486.392	67.012
489.284	53.8081
492.177	57.9526
495.07	76.9951
497.963	114.393
500.855	184.722
503.748	242.132
506.641	203.488
509.533	112.529
512.426	54.3267
515.319	33.1455
518.212	23.4759
521.104	21.921
523.997	26.6023
526.89	21.2298
529.782	28.62
532.675	39.2434
535.568	62.6059
538.46	93.6031
541.353	135.608
544.246	179.753
547.139	234.929
550.031	316.154
552.924	417.866
555.817	484.052
558.709	410.958
561.602	262.362
564.495	150.893
567.388	81.153
570.28	44.5157
573.173	23.2275
576.066	12.1447
578.958	4.04597
581.851	3.30012
584.744	1.72511
587.636	2.17512
590.529	0.820398
593.422	0.557787
596.314	1.87748
599.207	0.097054
602.1	1.17469
604.992	0.038854
607.885	0.56908
610.778	0.277879
613.671	2.65552
616.563	8.29475
619.456	19.9037
622.349	31.1372
625.241	45.5306
628.134	68.8099
631.027	100.561
633.919	138.234
636.812	145.705
639.705	112.782
642.598	74.3078
645.49	48.5196
648.383	36.0191
651.276	26.4786
654.168	19.5772
657.061	17.1963
659.954	13.9514
662.846	13.1986
665.739	11.3945
668.632	8.43165
671.525	9.30502
674.417	6.04727
677.31	6.7699
680.203	6.19845
683.095	6.484
685.988	3.70973
688.881	3.78377
691.774	3.20633
694.666	3.81725
697.559	3.98595
700.452	3.43613
703.344	2.88925
706.237	4.14538
709.13	4.98741
712.022	6.06054
714.915	4.0679
717.808	5.75944
720.701	7.06113
723.593	6.25908
726.486	7.43611
729.379	11.4366
732.271	8.65648
735.164	10.2811
738.057	13.0077
740.949	15.0811
743.842	16.0702
746.735	16.3943
749.628	16.1915
752.52	17.14
755.413	13.7819
758.306	12.3845
761.198	9.49746
764.091	9.42297
766.984	7.65651
769.876	5.4473
772.769	4.20438
775.662	0.907252
778.554	1.5381
781.447	0.175591
784.34	2.79994
787.233	2.67613
790.125	2.9953
793.018	2.17433
795.911	1.92941
798.803	1.61834
801.696	3.30677
804.589	6.2764
807.481	5.01227
810.374	0.546748
813.267	0.798363
816.16	1.8482
819.052	0.981234
821.945	2.40209
824.838	5.35308
827.73	10.6097
830.623	22.8634
833.516	43.0358
836.409	72.5923
839.301	110.714
842.194	155.802
845.087	217.268
847.979	287.753
850.872	354.252
853.765	366.458
856.657	302.01
859.55	225.758
862.443	156.523
865.336	112.163
868.228	90.2933
871.121	87.6465
874.014	100.292
876.906	127.759
879.799	164.117
882.692	216.741
885.584	274.371
888.477	341.368
891.37	438.073
894.263	593.737
897.155	828.661
900.048	1150.3
902.941	1577.13
905.833	2114.44
908.726	2658.15
911.619	2876.42
914.511	2438.74
917.404	1688.05
920.297	1091.96
923.189	701.249
926.082	457.61
928.975	302.673
931.868	199.297
934.76	129.056
937.653	83.1028
940.546	52.499
943.438	26.6555
946.331	11.8138
949.224	3.32268
952.116	4.94149
955.009	6.46644
957.902	2.46303
960.795	0.663752
963.687	1.56859
966.58	0.151169
969.473	1.55679
972.365	0.000912
975.258	1.32421
978.151	0.512863
981.043	0.793851
983.936	1.3376
986.829	2.16703
989.722	3.84156
992.614	6.98343
995.507	11.0998
998.4	15.5526
1001.29	21.4608
1004.18	29.6222
1007.08	34.5812
1009.97	42.7412
1012.86	48.8097
1015.76	62.3429
1018.65	71.6715
1021.54	87.3129
1024.43	105.424
1027.33	128.623
1030.22	151.037
1033.11	181.437
1036.01	205.981
1038.9	218.139
1041.79	211.075
1044.68	182.027
1047.58	139.002
1050.47	97.082
1053.36	69.0508
1056.25	48.4773
1059.15	33.4338
1062.04	24.3865
1064.93	16.5664
1067.82	15.102
1070.72	10.2272
1073.61	8.70874
1076.5	8.81467
1079.39	6.2397
1082.29	6.78357
1085.18	3.30593
1088.07	6.35661
1090.97	2.61785
1093.86	2.73488
1096.75	1.49346
1099.64	0.469522
1102.54	0.771606
1105.43	0.806363
1108.32	0.97343
1111.21	1.04347
1114.11	0.50687
1117	0.495649
1119.89	0.609931
1122.79	0.911364
1125.68	0.319152
1128.57	0.906531
1131.46	0.030551
1134.36	0.035481
1137.25	0.09789
1140.14	1.29432
1143.04	4.76126
1145.93	0.590348
1148.82	4.89304
1151.71	4.8399
1154.61	4.82965
1157.5	2.94358
1160.39	7.62889
1163.28	7.72744
1166.18	11.3429
1169.07	9.02961
1171.96	7.63899
1174.85	6.74011
1177.75	6.8882
1180.64	7.81477
1183.53	7.5863
1186.42	7.22874
1189.32	9.11125
1192.21	5.0333
1195.1	4.56513
1198	4.92614
1200.89	3.47657
1203.78	4.35908
1206.67	2.61266
1209.57	4.74088
1212.46	4.4726
1215.35	2.34611
1218.24	1.79806
1221.14	2.83234
1224.03	2.39945
1226.92	3.56824
1229.82	2.85782
1232.71	1.49551
1235.6	0.418357
1238.49	1.95576
1241.39	0.660645
1244.28	0.091518
1247.17	1.84837
1250.07	0.010697
1252.96	1.94018
1255.85	2.87551
1258.74	2.82312
1261.63	1.45368
1264.53	2.16985
1267.42	1.27103
1270.31	3.90379
1273.21	3.51921
1276.1	0.341459
1278.99	2.88283
1281.88	4.40194
1284.78	2.02807
