Measurement: Raman, 780 nm, unoriented, Raman Data Processed
Mineral: Spessartine
Rruff sample: R060279
Ideal chemistry: Mn^2+^_3_Al_2_(SiO_4_)_3_
Locality: Shigar Valley, northeast of Skardu, Baltistan, Pakistan
Source: Herb Obodda
Description: Reddish-brown fine grained fragment
Measured chemistry: (Mn^2+^_1.64_Ca_0.82_Fe^2+^_0.46_Mg_0.08_)_Σ=3_(Al_1.98_Fe^3+^_0.02_)_Σ=2_(Si_1.00_O_4_)_3_
Raman shift (cm-1)	intensity
114.865	0
118.24	0.034039
121.615	1.71446
124.99	1.55322
128.365	1.2683
131.74	0.562126
135.114	0.293568
138.489	0.46933
141.864	0.891262
145.239	2.76967
148.614	4.81968
151.988	5.38456
155.363	8.40927
158.738	10.9961
162.113	15.5106
165.488	22.0607
168.863	18.641
172.237	4.99116
175.612	1.91666
178.987	1.3841
182.362	1.90033
185.737	3.50363
189.111	4.21496
192.486	5.15616
195.861	8.18253
199.236	9.42563
202.611	13.2541
205.986	16.5984
209.36	18.1832
212.735	21.5129
216.11	22.9992
219.485	23.7661
222.86	27.0789
226.234	26.6369
229.609	23.9543
232.984	20.808
236.359	16.6419
239.734	12.7394
243.108	9.61321
246.483	6.86472
249.858	4.00343
253.233	2.33094
256.608	2.04507
259.983	0.521343
263.357	0.06794
266.732	0.215595
270.107	1.06013
273.482	0.563717
276.857	0.732128
280.231	0.191887
283.606	0.062733
286.981	0.564194
290.356	0.839443
293.731	1.07406
297.106	1.75904
300.48	3.31619
303.855	2.14837
307.23	4.26894
310.605	7.25771
313.98	9.862
317.354	12.6235
320.729	16.5136
324.104	20.1217
327.479	27.556
330.854	34.7213
334.228	46.366
337.603	60.1733
340.978	77.0706
344.353	95.6346
347.728	121.971
351.103	150.197
354.477	164.845
357.852	147.374
361.227	117.178
364.602	90.1956
367.977	72.7649
371.351	61.1785
374.726	53.0627
378.101	44.5002
381.476	37.3756
384.851	29.5974
388.226	24.084
391.6	17.2901
394.975	14.1119
398.35	9.94992
401.725	7.1077
405.099	4.20097
408.474	2.61311
411.849	2.18193
415.224	1.25357
418.599	1.16778
421.974	0.818417
425.348	0.123272
428.723	0.703384
432.098	1.04512
435.473	0.031216
438.848	0.240911
442.223	0.243626
445.597	1.58928
448.972	0.934959
452.347	2.80715
455.722	5.0542
459.097	6.03986
462.471	7.68471
465.846	7.51398
469.221	7.4273
472.596	9.51345
475.971	9.23993
479.346	7.11791
482.72	5.74737
486.095	6.17651
489.47	7.87147
492.845	10.1959
496.219	15.6946
499.594	19.2954
502.969	22.108
506.344	15.2119
509.719	7.74337
513.094	5.37262
516.468	3.99889
519.843	3.86108
523.218	5.18249
526.593	6.48271
529.968	9.96421
533.342	16.3944
536.717	21.203
540.092	29.7664
543.467	38.1105
546.842	46.8535
550.217	52.5935
553.591	42.3821
556.966	24.9969
560.341	11.7359
563.716	5.85109
567.091	2.39338
570.466	0.944067
573.84	1.12714
577.215	1.00089
580.59	0.127386
583.965	0.598637
587.34	0.256796
590.714	0.046005
594.089	1.36458
597.464	0.362427
600.839	0.041252
604.214	0.384487
607.588	0.822042
610.963	2.5685
614.338	4.25636
617.713	5.1551
621.088	6.88161
624.462	9.40729
627.837	11.1331
631.212	10.3614
634.587	7.5805
637.962	4.93222
641.337	3.21768
644.711	2.02708
648.086	1.22772
651.461	0.703211
654.836	0.399187
658.211	0.827196
661.585	0.518864
664.96	0.285716
668.335	0.112574
671.71	0.582927
675.085	1.39637
678.46	0.071542
681.834	0.568896
685.209	1.19377
688.584	1.51396
691.959	1.56128
695.334	1.47903
698.708	1.16433
702.083	1.29625
705.458	1.50036
708.833	1.93172
712.208	2.1425
715.582	2.50703
718.957	2.50823
722.332	2.5
725.707	3.44756
729.082	2.26246
732.457	2.51053
735.831	2.27078
739.206	2.11224
742.581	1.99498
745.956	2.18947
749.331	1.46989
752.705	1.49993
756.08	0.793862
759.455	0.687512
762.83	0.530546
766.205	0.460588
769.58	0.198454
772.954	0.169481
776.329	0.1095
779.704	0.906596
783.079	0.559715
786.454	0.121616
789.828	0.396059
793.203	0.276636
796.578	0.62896
799.953	1.45731
803.328	0.393166
806.702	2.30642
810.077	4.10744
813.452	5.27598
816.827	5.72222
820.202	7.88403
823.577	10.6644
826.951	15.4215
830.326	21.2053
833.701	26.8904
837.076	32.8836
840.451	36.1191
843.825	34.3779
847.2	29.8151
850.575	23.6249
853.95	19.2142
857.325	17.0428
860.699	18.444
864.074	20.7242
867.449	23.3834
870.824	29.4611
874.199	36.2345
877.573	47.2296
880.948	67.3012
884.323	94.8223
887.698	136.504
891.073	186.78
894.448	239.777
897.822	287.381
901.197	283.461
904.572	225.377
907.947	147.657
911.322	90.217
914.697	55.3165
918.071	34.9775
921.446	21.1044
924.821	14.9219
928.196	8.28966
931.571	5.5621
934.945	3.24032
938.32	2.64039
941.695	0.628263
945.07	0.044163
948.445	0.544321
951.819	0.181715
955.194	0.412939
958.569	0.441973
961.944	0.42474
965.319	0.021671
968.693	0.089793
972.068	0.161475
975.443	0.559077
978.818	0.276046
982.193	0.726333
985.568	2.24534
988.942	2.98588
992.317	4.93021
995.692	5.09235
999.067	6.92328
1002.44	8.84113
1005.82	10.3415
1009.19	11.8232
1012.57	14.7455
1015.94	16.1841
1019.32	19.0597
1022.69	21.8168
1026.07	20.1072
1029.44	16.0021
1032.82	10.1347
1036.19	6.52828
1039.57	3.97448
1042.94	2.57787
1046.31	1.91184
1049.69	1.35376
1053.06	0.834762
1056.44	1.46071
1059.81	0.961505
1063.19	0.241248
1066.56	0.092652
1069.94	0.730423
1073.31	0.023632
1076.69	1.12241
1080.06	0.258706
1083.44	0.832734
1086.81	1.19873
1090.19	1.77844
1093.56	1.26193
1096.94	1.75292
1100.31	1.75617
1103.69	2.17474
1107.06	2.43366
1110.44	1.84096
1113.81	2.35723
1117.18	2.03964
1120.56	2.6011
1123.93	2.03645
1127.31	1.45627
1130.68	1.38138
1134.06	1.20075
1137.43	0.718819
1140.81	1.75042
1144.18	1.25646
1147.56	1.13509
1150.93	1.32912
1154.31	0.708446
1157.68	1.53283
1161.06	1.83985
1164.43	1.39444
1167.81	0.887157
1171.18	0.497205
1174.56	0.913013
1177.93	0.44733
1181.31	0.97003
1184.68	1.34482
1188.06	1.02955
1191.43	1.46227
1194.81	0.54274
1198.18	0.159482
1201.56	0.076555
1204.93	0.293096
1208.31	0.606376
1211.68	0.535055
1215.06	0.298557
1218.43	0.39671
1221.81	0.187576
1225.18	0.064718
1228.55	0.859914
1231.93	0.152737
1235.3	0.126797
1238.68	1.56393
1242.05	1.12118
1245.43	1.44494
1248.8	1.53327
1252.18	0.776873
1255.55	1.35149
1258.93	0.865178
1262.3	1.10521
1265.68	1.31086
1269.05	1.04642
1272.43	0.531408
1275.8	0.123717
1279.18	0.667643
1282.55	0.184641
1285.93	0.169682
