Measurement: Raman, 532 nm, unoriented, Raman Data Processed
Mineral: Sphalerite
Rruff sample: R050140
Ideal chemistry: ZnS
Locality: Big Four mine, Summit County, Colorado, USA
Source: Dave Bunk Minerals
Description: Group of dark green tetrahedra
Measured chemistry: Zn_1.00_S_1.00_
Raman shift (cm-1)	intensity
146.435	0
149.81	3.34924
153.185	40.4249
156.56	99.3491
159.935	164.843
163.31	263.856
166.684	383.427
170.059	514.474
173.434	684.157
176.809	893.976
180.184	988.07
183.559	710.963
186.933	558.53
190.308	516.238
193.683	531.248
197.058	532.728
200.433	619.147
203.807	731.213
207.182	891.214
210.557	1163.68
213.932	1602.74
217.307	2031.83
220.681	1858.19
224.056	1360.08
227.431	1026.66
230.806	843.239
234.181	825.952
237.555	796.822
240.93	456.445
244.305	130.561
247.68	14.1498
251.055	39.0207
254.43	39.5964
257.804	2.03241
261.179	75.2686
264.554	198.197
267.929	374.216
271.304	685.697
274.678	835.79
278.053	654.235
281.428	460.082
284.803	350.062
288.178	291.618
291.553	271.614
294.927	284.773
298.302	324.969
301.677	325.673
305.052	206.439
308.427	126.57
311.801	43.3824
315.176	36.8288
318.551	61.7998
321.926	32.4066
325.301	42.7548
328.675	181.17
332.05	271.581
335.425	343.753
338.8	342.031
342.175	363.563
345.55	465.263
348.924	610.677
352.299	588.889
355.674	495.19
359.049	531.548
362.424	575.621
365.798	636.341
369.173	689.467
372.548	748.243
375.923	764.366
379.298	785.64
382.673	833.519
386.047	899.032
389.422	976.66
392.797	1069.97
396.172	1151.81
399.547	1163.79
402.921	1020.48
406.296	899.519
409.671	872.065
413.046	918.02
416.421	1050.13
419.796	1219.25
423.17	1179.52
426.545	1087.57
429.92	987.573
433.295	821.244
436.67	672.617
440.045	637.045
443.419	653.183
446.794	679.234
450.169	670.676
453.544	536.804
456.918	207.719
460.293	10.7817
463.668	26.8882
467.043	31.3311
470.418	25.3889
473.793	14.8621
477.167	3.76135
480.542	10.138
483.917	21.9839
487.292	37.7808
490.667	51.577
494.041	65.9444
497.416	79.3893
500.791	92.739
504.166	107.823
507.541	129.618
510.916	156.097
514.29	180.098
517.665	199.668
521.04	188.867
524.415	141.366
527.79	93.0627
531.164	51.4317
534.539	19.8482
537.914	7.9223
541.289	1.40225
544.664	4.98053
548.039	3.71692
551.413	4.5762
554.788	5.2886
558.163	1.77222
561.538	1.14441
564.913	2.64148
568.288	5.38119
571.662	9.05368
575.037	20.9718
578.412	31.0727
581.787	44.4668
585.162	60.0748
588.536	82.0844
591.911	114.805
595.286	153.216
598.661	215.983
602.036	297.269
605.41	394.774
608.785	479.316
612.16	513.236
615.535	529.823
618.91	445.716
622.284	222.356
625.659	137.2
629.034	175.316
632.409	281.063
635.784	429.795
639.159	512.932
642.533	404.525
645.908	203.752
649.283	71.9774
652.658	105.317
656.033	239.469
659.408	423.146
662.782	703.342
666.157	1090.08
669.532	1393.61
672.907	1160.27
676.282	828.203
679.656	680.709
683.031	592.514
686.406	529.822
689.781	472.907
693.156	395.965
696.53	300.155
699.905	170.004
703.28	76.9912
706.655	32.774
710.03	16.0019
713.404	7.61728
716.779	0.673615
720.154	4.40796
723.529	3.99335
726.904	7.52585
730.279	5.18353
733.653	4.91321
737.028	3.83585
740.403	2.42215
743.778	1.02878
747.153	0.40509
750.528	3.4082
753.902	5.97574
757.277	10.1381
760.652	10.0189
764.027	13.4811
767.402	14.9037
770.776	17.8292
774.151	19.4234
777.526	18.9215
780.901	20.7148
784.276	18.8947
787.65	20.9141
791.025	20.597
794.4	18.2914
797.775	13.7682
801.15	13.4089
804.525	14.2545
807.899	12.8449
811.274	13.7374
814.649	11.3562
818.024	12.0783
821.399	11.532
824.774	11.8992
828.148	11.8461
831.523	10.805
834.898	12.1037
838.273	12.2423
841.648	8.15115
845.022	6.92075
848.397	3.26974
851.772	4.99789
855.147	3.44684
858.522	1.88431
861.896	3.73898
865.271	2.84058
868.646	2.62665
872.021	1.75662
875.396	0.034607
878.771	2.15115
882.145	4.01224
885.52	1.88458
888.895	2.3602
892.27	3.29541
895.645	1.52835
899.019	4.11386
902.394	3.00653
905.769	5.27737
909.144	6.08926
912.519	4.07135
915.894	6.96777
919.268	9.38892
922.643	7.46555
926.018	3.93253
929.393	6.53635
932.768	7.1731
936.143	7.93228
939.517	5.34134
942.892	7.04456
946.267	3.08929
949.642	4.34674
953.016	3.53723
956.391	1.61404
959.766	4.95084
963.141	1.87689
966.516	1.17258
969.891	0.243744
973.265	0.237457
976.64	0.613281
980.015	3.94269
983.39	1.71042
986.765	2.75345
990.139	3.37326
993.514	2.53772
996.889	2.01486
1000.26	1.89917
1003.64	7.56592
1007.01	3.28754
1010.39	0.384064
1013.76	3.66815
1017.14	3.72024
1020.51	1.26212
1023.89	3.01184
1027.26	3.34091
1030.64	1.19104
1034.01	4.70254
1037.39	1.11554
1040.76	3.9335
1044.14	3.7074
1047.51	4.254
1050.89	3.14133
1054.26	0.96521
1057.64	0.5336
1061.01	2.74255
1064.38	2.67328
1067.76	1.75558
1071.13	1.82718
1074.51	1.7713
1077.88	3.11087
1081.26	0.85318
1084.63	4.45981
1088.01	0.943634
1091.38	4.28192
1094.76	0.058136
1098.13	3.38095
1101.51	0.11554
1104.88	3.64777
1108.26	2.76343
1111.63	1.85211
1115.01	4.91852
1118.38	0.364838
1121.76	1.79904
1125.13	0.85788
1128.51	1.33395
1131.88	2.6257
1135.26	1.05942
1138.63	1.10968
1142.01	0.018036
1145.38	4.21252
1148.76	2.57983
1152.13	5.44132
1155.51	5.56009
1158.88	2.60065
1162.26	3.28925
1165.63	4.54544
1169.01	3.05701
1172.38	3.24274
1175.75	2.53497
1179.13	1.41541
1182.5	2.66943
1185.88	2.13415
1189.25	6.4054
1192.63	2.76169
1196	2.33185
1199.38	3.67245
1202.75	2.63022
1206.13	4.26395
1209.5	3.59717
1212.88	2.45093
1216.25	0.814575
1219.63	2.62405
1223	4.81863
1226.38	2.77097
1229.75	3.32898
1233.13	0.515839
1236.5	0.389465
1239.88	3.30411
1243.25	1.95767
1246.62	2.97891
1250	1.28177
1253.38	1.77087
1256.75	2.92596
1260.12	0.750916
1263.5	1.08069
1266.87	3.62442
1270.25	0.24585
1273.62	1.71799
1277	0.920258
1280.37	3.94464
1283.75	4.0105
1287.12	4.50781
1290.5	1.45416
1293.87	5.61002
1297.25	0.113068
1300.62	0.237427
1304	0.473022
