Measurement: Raman, 532 nm, unoriented, Raman Data Processed
Mineral: Sphalerite
Rruff sample: R060005
Ideal chemistry: ZnS
Locality: Trinacria mine, Lake Poopo, Oruro, Bolivia
Source: University of Arizona Mineral Museum
Description: Steel gray crystal associated with franckeite R050431
Measured chemistry: Zn_0.82_Fe_0.18_S
Raman shift (cm-1)	intensity
129.565	0
132.94	0.06205
136.315	1.12257
139.689	3.79906
143.064	2.29295
146.439	3.92006
149.814	3.43539
153.189	5.30954
156.564	5.06846
159.938	5.21987
163.313	5.97021
166.688	6.32101
170.063	7.63174
173.438	6.78526
176.812	5.9586
180.187	5.53017
183.562	4.64338
186.937	4.90952
190.312	3.39582
193.686	2.48701
197.061	1.76355
200.436	2.24999
203.811	1.67347
207.186	3.5918
210.561	2.27131
213.935	2.80473
217.31	2.57676
220.685	2.25343
224.06	1.87688
227.435	1.55735
230.81	0.972137
234.184	0.402527
237.559	0.381966
240.934	0.724792
244.309	0.655281
247.684	0.007996
251.058	0.049583
254.433	0.311516
257.808	0.452507
261.183	1.46079
264.558	1.96274
267.932	3.40933
271.307	4.8196
274.682	8.38293
278.057	12.9534
281.432	18.0381
284.807	25.4839
288.181	34.2862
291.556	45.7691
294.931	54.4809
298.306	53.8326
301.681	46.1823
305.055	40.113
308.43	35.0947
311.805	31.6813
315.18	32.2756
318.555	37.2557
321.93	38.5673
325.304	38.2495
328.679	33.2365
332.054	28.2193
335.429	23.3616
338.804	20.9891
342.178	20.1056
345.553	22.8011
348.928	24.8517
352.303	19.1158
355.678	12.0281
359.053	6.9047
362.427	3.68404
365.802	2.23159
369.177	1.11447
372.552	0.357445
375.926	0.211365
379.301	0.208473
382.676	0.211174
386.051	0.250778
389.426	0.268219
392.801	0.238998
396.175	0.435303
399.55	0.006485
402.925	0.156464
406.3	0.404266
409.675	0.756012
413.05	1.0793
416.424	1.33945
419.799	1.24624
423.174	0.673843
426.549	0.364349
429.924	0.39859
433.298	0.376122
436.673	0.65049
440.048	0.175415
443.423	0.254738
446.798	0.099144
450.173	0.176773
453.547	0.024391
456.922	0.143059
460.297	0.166031
463.672	0.05278
467.047	0.599983
470.421	0.360321
473.796	0.898209
477.171	0.556114
480.546	0.665817
483.921	0.875168
487.296	0.641876
490.67	0.888847
494.045	1.19205
497.42	1.30283
500.795	1.42756
504.17	1.69859
507.544	1.81087
510.919	1.38511
514.294	1.06402
517.669	0.994713
521.044	0.709
524.418	0.304291
527.793	0.434135
531.168	0.495102
534.543	0.363251
537.918	0.545425
541.293	0.069786
544.667	0.320274
548.042	0.091881
551.417	0.018562
554.792	0.252884
558.167	0.082962
561.541	0.395004
564.916	0.685204
568.291	0.332542
571.666	0.474678
575.041	0.449806
578.415	0.499321
581.79	0.571472
585.165	0.704361
588.54	1.66847
591.915	1.69694
595.29	1.41058
598.664	1.67036
602.039	1.68477
605.414	1.70992
608.789	1.6797
612.164	1.43542
615.538	1.26636
618.913	0.894264
622.288	1.32103
625.663	0.75985
629.038	1.60104
632.413	1.2411
635.787	1.11207
639.162	1.64632
642.537	1.56486
645.912	1.71616
649.287	1.65988
652.661	1.91163
656.036	2.44858
659.411	2.44761
662.786	2.51333
666.161	2.21514
669.535	2.29667
672.91	1.98388
676.285	1.58514
679.66	1.66937
683.035	1.33008
686.41	0.884926
689.784	0.880997
693.159	0.820374
696.534	0.313904
699.909	0.150009
703.284	0.133606
706.659	0.063286
710.033	0.158089
713.408	0.225075
716.783	0.05088
720.158	0.157097
723.533	0.116959
726.907	0.290268
730.282	0.125061
733.657	0.028397
737.032	0.176353
740.407	0.390305
743.782	0.180862
747.156	0.224792
750.531	0.454643
753.906	0.260185
757.281	0.828522
760.656	0.049957
764.03	0.65152
767.405	0.265739
770.78	0.70401
774.155	0.322845
777.53	0.652084
780.904	0.702293
784.279	0.961441
787.654	0.670876
791.029	0.431656
794.404	0.347656
797.779	0.473625
801.153	0.287117
804.528	0.527748
807.903	0.432648
811.278	0.641884
814.653	0.646889
818.027	0.392906
821.402	0.082924
824.777	0.611244
828.152	0.384804
831.527	0.920486
834.902	0.761757
838.276	0.615578
841.651	0.557533
845.026	0.867264
848.401	0.730705
851.776	0.994263
855.15	0.294044
858.525	0.9291
861.9	0.846687
865.275	0.30217
868.65	0.683502
872.024	0.792686
875.399	0.291016
878.774	0.417038
882.149	0.166779
885.524	0.764496
888.899	0.097054
892.273	0.583328
895.648	0.421509
899.023	0.580078
902.398	0.390572
905.773	0.604424
909.148	0.138863
912.522	0.289688
915.897	0.10984
919.272	0.442436
922.647	0.078056
926.021	0.128441
929.396	0.428444
932.771	0.458328
936.146	0.478851
939.521	0.442932
942.896	0.102745
946.27	0.307037
949.645	0.083206
953.02	0.225838
956.395	0.621346
959.77	0.095924
963.144	0.505661
966.519	0.340622
969.894	0.500999
973.269	0.276405
976.644	0.027565
980.019	0.36058
983.393	0.614197
986.768	0.282257
990.143	0.013046
993.518	0.616386
996.893	0.708061
1000.27	0.933876
1003.64	0.495865
1007.02	0.764328
1010.39	1.06903
1013.77	0.190308
1017.14	0.437401
1020.52	0.798599
1023.89	0.503815
1027.27	0.704231
1030.64	0.321953
1034.02	0.956482
1037.39	0.5467
1040.77	0.486641
1044.14	0.460396
1047.52	0.614166
1050.89	0.116089
1054.27	0.323181
1057.64	0.457733
1061.01	0.195457
1064.39	0.176437
1067.76	0.17292
1071.14	0.44976
1074.51	0.446518
1077.89	0.409454
1081.26	0.500748
1084.64	0.320297
1088.01	0.574768
1091.39	0.366669
1094.76	0.68232
1098.14	0.150398
1101.51	0.19381
1104.89	0.21003
1108.26	0.276955
1111.64	0.094078
1115.01	0.153091
1118.39	0.210197
1121.76	0.766716
1125.14	0.806938
1128.51	0.423538
1131.88	0.515938
1135.26	0.58828
1138.63	0.191261
1142.01	0.463875
1145.38	0.433067
1148.76	0.797844
1152.13	0.46769
1155.51	0.120636
1158.88	0.493614
1162.26	0.197136
1165.63	0.655731
1169.01	0.123634
1172.38	0.293266
1175.76	0.463135
1179.13	0.153656
1182.51	0.255386
1185.88	0.294746
1189.26	0.20192
1192.63	0.272194
1196.01	0.568665
1199.38	0.600105
1202.76	0.358681
1206.13	0.642441
1209.51	0.093575
1212.88	0.124344
1216.26	0.037285
1219.63	0.424675
1223.01	0.644508
1226.38	0.249626
1229.76	0.052185
1233.13	0.311043
1236.51	0.469971
1239.88	0.056694
1243.25	0.641426
1246.63	0.898705
1250	0.617004
1253.38	0.375526
1256.75	0.070801
1260.13	0.192039
1263.5	0.246651
1266.88	0.076294
1270.25	0.307579
1273.63	0.49247
1277	0.891953
1280.38	0.551353
1283.75	0.181793
1287.13	0.610001
1290.5	0.84903
1293.88	0.555206
1297.25	0.313438
1300.63	0.130302
