Measurement: Raman, 785 nm, unoriented, Raman Data Processed
Mineral: Sphalerite
Rruff sample: R040136
Ideal chemistry: ZnS
Locality: Hilltop mine, Paradise, Cochise County, Arizona, USA
Source: University of Arizona Mineral Museum
Description: Olive green fragments
Measured chemistry: Zn_0.98_S
Raman shift (cm-1)	intensity
149.66	0
153.75	1514.73
157.835	571.796
161.919	0
165.998	584.39
170.076	3615.56
174.151	8593.17
178.223	14016.2
182.292	11775.8
186.36	6354.39
190.423	6684.69
194.485	7510.33
198.544	8607.67
202.6	11377.2
206.653	18651.9
210.703	27097.5
214.751	41004
218.796	48059.4
222.839	36999.2
226.878	25804.6
230.914	20492.6
234.949	21884.3
238.981	16736.7
243.009	9423.09
247.035	3074.81
251.059	1514.88
255.08	1145.24
259.097	2102.01
263.114	1336.8
267.127	1275.02
271.136	0
275.144	0
279.148	0
283.151	308.109
287.151	978.687
291.148	3847.24
295.141	9517
299.132	14813.5
303.122	13254.9
307.108	8256.79
311.092	7933.71
315.072	1262.36
319.05	0
323.027	0
327	598.25
330.97	8441.38
334.937	16464.6
338.903	25673.1
342.865	50860.5
346.825	141580
350.782	213930
354.738	89157.2
358.69	28676.9
362.639	16216.1
366.585	10946.9
370.531	10248.9
374.471	11652.1
378.411	11826.9
382.347	13460.3
386.282	14353.3
390.213	18757.8
394.141	22497.7
398.067	27040.2
401.99	21184.3
405.911	18438.2
409.829	16002.4
413.746	24466.5
417.658	26815.5
421.57	27705.5
425.477	23676.5
429.382	18778.2
433.286	13878.4
437.187	11284
441.084	11979.4
444.98	13308
448.872	14158.1
452.763	11011.5
456.649	2851.36
460.535	0
464.417	0
468.298	0
472.174	0
476.049	0
479.921	657.601
483.791	1765.17
487.658	2316.77
491.523	2531.98
495.385	2495.84
499.246	3015.16
503.102	3522.76
506.958	4343.36
510.809	3303.52
514.658	3770.29
518.507	5544.88
522.351	3370.89
526.192	2327.01
530.033	1451.41
533.869	1876.7
537.703	1154.78
541.536	153.32
545.366	1723.75
549.192	1158.24
553.018	1394.21
556.84	695.812
560.659	0
564.476	0
568.291	1460.2
572.104	75.593
575.913	706.359
579.721	1529.55
583.525	0
587.328	938.39
591.127	1189.92
594.924	2050.31
598.719	4361.62
602.512	4907.25
606.302	9244.39
610.09	9351.19
613.875	9747.38
617.656	9581.88
621.437	4428.38
625.215	2573.98
628.991	3009.17
632.763	8424.73
636.533	12867.7
640.302	11486.6
644.067	7569.25
647.83	1516.33
651.591	0
655.348	2517.56
659.104	6965.84
662.859	15753.1
666.609	22332.2
670.357	27706.7
674.104	20724.8
677.848	15943.3
681.588	12134.6
685.328	8692.34
689.065	9026.67
692.799	5634.48
696.531	3983
700.26	1783.98
703.987	2076.47
707.71	379.234
711.432	256.39
715.153	0
718.869	0
722.585	87.343
726.297	0
730.007	0
733.716	846.765
737.421	1658.73
741.124	727.554
744.825	1157.77
748.523	1180.05
752.218	1645.58
755.913	1210.45
759.604	2151.2
763.293	2045.62
766.979	1852.81
770.663	1040.36
774.344	1869.13
778.025	1625.86
781.702	2841.39
785.375	2637.3
789.049	1710.18
792.718	2653.96
796.385	2343.66
800.052	1219.69
803.715	658.687
807.375	1224.37
811.033	760.335
814.69	0
818.343	681.921
821.994	1051.77
825.643	467.445
829.289	343.796
832.934	364.429
836.577	587.414
840.216	2956.74
843.854	2337.34
847.489	0
851.122	273.429
854.752	297.296
858.38	1757.73
862.005	1198.2
865.63	3909.26
869.25	1873.76
872.869	248.742
876.487	131.304
880.101	2489.84
883.713	110.195
887.322	430.203
890.931	2223.48
894.536	1701.19
898.138	2178.26
901.739	1271.77
905.338	2504.06
908.934	1469.16
912.528	1565.38
916.119	869.187
919.708	950.578
923.296	1629.58
926.88	2357.17
930.463	407.984
934.043	1439.45
937.62	1783.06
941.197	2212.62
944.77	2349.36
948.341	1466.23
951.911	3531.8
955.476	1589
959.041	3330.59
962.604	799.156
966.164	2806.53
969.721	0
973.276	172.859
976.83	2108.31
980.382	777.64
983.929	2727.89
987.476	2090.26
991.02	1372.25
994.562	907.062
998.103	2220.72
1001.64	2738.72
1005.18	561.078
1008.71	0
1012.24	758.656
1015.77	1632.58
1019.3	1647.89
1022.82	2885.89
1026.34	1084.19
1029.86	2656.72
1033.38	737.468
1036.89	1380.72
1040.41	2231.72
1043.92	1163.45
1047.43	1154.77
1050.94	1975.44
1054.44	120.875
1057.94	926.796
1061.44	2833.51
1064.94	1021.47
1068.44	636.375
1071.93	0
1075.42	176.453
1078.91	1415.08
1082.4	1155.08
1085.88	2075.97
1089.37	1558.73
1092.85	1824.84
1096.32	331.968
1099.8	2162.51
1103.28	530.25
1106.75	0
1110.22	1721.98
1113.68	1158.78
1117.15	1010.98
1120.61	466.281
1124.07	0
1127.53	511.078
1130.99	2244.42
1134.44	662.703
1137.9	1384.16
1141.35	591.421
1144.8	1879.38
1148.24	1109.03
1151.69	2837.56
1155.13	2226.47
1158.57	2582.45
1162.01	1618.83
1165.44	2912.26
1168.87	1655.8
1172.31	3021.44
1175.73	493.171
1179.16	2531.28
1182.59	1793.16
1186.01	1728.09
1189.43	2931.12
1192.85	1333.61
1196.26	2271.03
1199.68	2362.41
1203.09	1485.92
1206.5	0
1209.91	274.64
1213.31	3032.62
1216.72	1127.98
1220.12	2794.23
1223.52	1338.48
1226.92	1528.11
1230.31	2317.61
1233.7	1531.55
1237.1	3919.97
