Measurement: Raman, 780 nm, unoriented, Raman Data Processed
Mineral: Sphalerite
Rruff sample: R060005
Ideal chemistry: ZnS
Locality: Trinacria mine, Lake Poopo, Oruro, Bolivia
Source: University of Arizona Mineral Museum
Description: Steel gray crystal associated with franckeite R050431
Measured chemistry: Zn_0.82_Fe_0.18_S
Raman shift (cm-1)	intensity
104.635	0
108.009	2.14049
111.384	0.026703
114.759	1.25665
118.134	1.02043
121.509	2.91217
124.883	8.26697
128.258	15.3236
131.633	25.7877
135.008	35.6782
138.383	44.3469
141.757	50.3514
145.132	56.5444
148.507	62.7164
151.882	69.8196
155.257	76.6577
158.632	82.2974
162.006	90.1414
165.381	92.3504
168.756	96.2338
172.131	96.4362
175.506	93.6247
178.881	82.7755
182.255	75.8967
185.63	68.951
189.005	62.0949
192.38	51.9477
195.755	44.1189
199.129	36.154
202.504	32.3082
205.879	31.0162
209.254	33.2457
212.629	37.7871
216.004	37.5629
219.378	32.5701
222.753	24.692
226.128	18.2253
229.503	12.7144
232.877	7.25011
236.252	0.815445
239.627	5.98453
243.002	6.03343
246.377	2.87514
249.752	1.65283
253.126	5.3513
256.501	8.28038
259.876	14.1433
263.251	22.9215
266.626	36.0597
270	55.4122
273.375	83.4941
276.75	123.071
280.125	181.921
283.5	260.811
286.875	356.899
290.249	482.16
293.624	623.658
296.999	687.715
300.374	652.637
303.749	613.966
307.123	605.387
310.498	636.856
313.873	745.544
317.248	947.501
320.623	994.049
323.998	769.383
327.372	538.07
330.747	367.637
334.122	246.533
337.497	168.773
340.872	123.322
344.247	112.276
347.621	132.601
350.996	121.558
354.371	79.102
357.746	48.9591
361.12	26.2093
364.495	12.8245
367.87	5.18337
371.245	3.30769
374.62	0.4897
377.995	3.5347
381.369	3.68053
384.744	1.88821
388.119	0.726868
391.494	1.45612
394.869	1.82013
398.243	1.22459
401.618	3.43875
404.993	4.41036
408.368	7.45662
411.743	10.606
415.118	12.1719
418.492	11.8935
421.867	10.2188
425.242	8.89491
428.617	7.38641
431.992	7.20859
435.366	7.60363
438.741	6.55537
442.116	6.14998
445.491	4.49164
448.866	2.25746
452.241	0.865875
455.615	0.627975
458.99	0.215584
462.365	1.00862
465.74	1.7847
469.115	3.16006
472.49	4.32125
475.864	5.26449
479.239	6.21507
482.614	7.17752
485.989	8.274
489.364	8.98258
492.738	9.56915
496.113	9.85101
499.488	10.1951
502.863	10.5448
506.238	10.4749
509.613	10.1772
512.987	8.18269
516.362	6.14531
519.737	6.6438
523.112	4.4917
526.487	2.38814
529.861	1.37488
533.236	0.537636
536.611	0.108109
539.986	0.525032
543.361	0.976624
546.736	0.7855
550.11	0.523842
553.485	0.340508
556.86	0.049332
560.235	1.29031
563.61	1.70314
566.984	2.46584
570.359	3.66462
573.734	5.2215
577.109	7.52753
580.484	9.79713
583.859	12.4854
587.233	14.388
590.608	16.3334
593.983	17.7141
597.358	18.07
600.732	19.3317
604.107	19.4556
607.482	20.7263
610.857	20.2174
614.232	21.0409
617.607	21.509
620.981	21.9092
624.356	21.9522
627.731	21.7161
631.106	21.0961
634.481	19.7953
637.856	18.4879
641.23	17.8105
644.605	17.2741
647.98	18.7675
651.355	19.7247
654.73	21.5376
658.104	22.5613
661.479	21.3366
664.854	20.5045
668.229	18.7413
671.604	17.2195
674.979	16.2711
678.353	14.7099
681.728	13.5828
685.103	12.1734
688.478	11.3329
691.852	9.10619
695.227	7.46318
698.602	4.39668
701.977	2.10609
705.352	0.992317
708.727	0.27652
712.101	0.225983
715.476	0.057831
718.851	0.498543
722.226	0.193817
725.601	0.354965
728.976	0.697517
732.35	0.400436
735.725	0.275665
739.1	0.063911
742.475	0.152534
745.85	0.215218
749.224	0.468536
752.599	1.13811
755.974	1.23142
759.349	0.92202
762.724	1.84066
766.098	1.54604
769.473	1.6714
772.848	1.56936
776.223	1.70431
779.598	1.92649
782.973	1.83916
786.347	1.82806
789.722	1.80059
793.097	1.57165
796.472	0.903038
799.847	1.54899
803.221	1.48703
806.596	1.31551
809.971	1.40593
813.346	1.47378
816.721	1.34259
820.096	1.25123
823.47	1.19872
826.845	2.8872
830.22	1.19459
833.595	1.44696
836.97	1.25251
840.345	0.88662
843.719	0.978775
847.094	0.813217
850.469	1.17176
853.844	1.0415
857.219	0.557953
860.593	1.00059
863.968	0.098282
867.343	0.612907
870.718	0.560997
874.093	0.800362
877.467	0.730499
880.842	0.528694
884.217	0.286461
887.592	0.480354
890.967	0.076492
894.342	0.004982
897.716	0.192947
901.091	0.200722
904.466	0.012245
907.841	0.208755
911.216	0.708603
914.591	0.422661
917.965	0.155006
921.34	0.676239
924.715	0.10556
928.09	0.230408
931.465	0.654686
934.839	0.707039
938.214	0.853767
941.589	0.320061
944.964	0.543533
948.339	0.625221
951.713	0.54274
955.088	0.296371
958.463	0.483978
961.838	0.71579
965.213	0.065605
968.587	0.518875
971.962	0.14521
975.337	0.721191
978.712	0.301865
982.087	0.28027
985.462	0.246971
988.836	0.292099
992.211	0.07653
995.586	0.133808
998.961	0.290474
1002.34	0.295151
1005.71	0.087036
1009.09	0.525307
1012.46	0.043652
1015.84	0.369556
1019.21	0.62796
1022.59	0.484489
1025.96	0.608936
1029.33	0.491001
1032.71	0.903061
1036.08	0.104198
1039.46	0.75473
1042.83	0.519604
1046.21	0.132679
1049.58	0.539268
1052.96	0.978073
1056.33	0.578358
1059.71	0.198372
1063.08	0.623413
1066.46	0.915043
1069.83	0.286404
1073.21	0.831944
1076.58	0.036797
1079.96	0.492699
1083.33	0.252735
1086.71	0.462479
1090.08	4.0525
1093.46	0.615425
1096.83	0.233467
1100.2	0.162556
1103.58	0.014812
1106.95	0.217537
1110.33	0.296452
1113.7	0.545925
1117.08	0.089169
1120.45	0.315384
1123.83	0.356152
1127.2	0.331913
1130.58	0.225735
1133.95	0.504417
1137.33	0.041733
1140.7	0.205055
1144.08	0.309601
1147.45	0.214359
1150.83	0.529339
1154.2	0.097729
1157.58	0.411789
1160.95	0.059662
1164.33	0.223442
1167.7	0.182304
1171.08	2.28901
1174.45	6.68833
1177.83	0.079124
1181.2	0.140598
1184.58	0.455276
1187.95	0.612503
1191.33	0.588589
1194.7	0.537228
1198.08	0.444588
1201.45	0.481979
1204.83	0.259476
1208.2	0.247856
1211.57	1.97544
1214.95	0.323902
1218.32	0.337227
1221.7	0.411163
1225.07	0.557819
1228.45	0.256714
1231.82	0.264565
1235.2	0.080002
1238.57	0.392582
1241.95	0.318111
1245.32	0.012676
1248.7	0.383499
1252.07	0.380795
1255.45	0.116169
1258.82	0.036873
1262.2	0.164066
1265.57	0.030083
1268.95	0.827492
1272.32	0.58469
1275.7	0.423187
1279.07	0.603596
1282.44	0.661293
1285.82	0.185867
