Measurement: Raman, 532 nm, unoriented, Raman Data Processed
Mineral: Sphalerite
Rruff sample: R100145
Ideal chemistry: ZnS
Locality: Picos De Europa, Cantabria, Spain
Source: William W. Pinch
Description: Brown cut gemstone
Raman shift (cm-1)	intensity
127.194	0
130.569	11.0104
133.944	5.3166
137.318	4.21354
140.693	10.9335
144.068	61.2442
147.443	119.29
150.818	167.225
154.192	271.537
157.567	394.382
160.942	483.487
164.317	559.953
167.692	672.864
171.067	775.956
174.441	827.329
177.816	855.505
181.191	780.355
184.566	660.826
187.941	609.869
191.315	574.701
194.69	558.975
198.065	552.3
201.44	566.027
204.815	614.76
208.19	688.086
211.565	805.028
214.939	947.563
218.314	1001.42
221.689	837.4
225.064	627.85
228.439	492.156
231.813	420.506
235.188	393.416
238.563	309.396
241.938	149.013
245.313	40.32
248.688	1.86441
252.062	18.4694
255.437	19.4608
258.812	2.3999
262.187	34.3284
265.562	84.8225
268.936	157.266
272.311	238.889
275.686	235.208
279.061	148.864
282.436	90.9603
285.81	87.1398
289.185	109.478
292.56	160.832
295.935	247.782
299.31	318.533
302.685	246.9
306.059	130.447
309.434	71.3603
312.809	44.5933
316.184	26.291
319.559	56.4432
322.933	8.0954
326.308	157.95
329.683	345.035
333.058	600.027
336.433	816.092
339.808	1105.57
343.183	1578.55
346.557	2310.23
349.932	3164.76
353.307	1585.49
356.682	518.628
360.057	335.538
363.431	339.822
366.806	377.645
370.181	379.166
373.556	392.513
376.931	394.729
380.305	347.361
383.68	326.08
387.055	324.858
390.43	337.355
393.805	370.586
397.18	395.485
400.554	366.225
403.929	291.877
407.304	256.283
410.679	261.962
414.054	308.308
417.428	401.807
420.803	454.036
424.178	415.31
427.553	370.503
430.928	318.053
434.303	252.333
437.677	226.07
441.052	231.409
444.427	244.776
447.802	252.09
451.177	225.538
454.551	137.365
457.926	19.4763
461.301	21.128
464.676	24.1326
468.051	17.2423
471.426	7.39595
474.8	2.86047
478.175	10.0298
481.55	24.2447
484.925	32.0879
488.3	41.6635
491.675	50.3926
495.049	59.0476
498.424	66.3722
501.799	78.7083
505.174	87.9295
508.549	101.216
511.923	112.542
515.298	126.517
518.673	124.177
522.048	104.409
525.423	74.1474
528.798	47.0902
532.172	28.746
535.547	17.1563
538.922	6.65703
542.297	2.51082
545.672	0.938568
549.047	1.69107
552.421	2.80093
555.796	1.69414
559.171	3.36556
562.546	3.23547
565.921	0.118607
569.295	1.37437
572.67	2.51126
576.045	5.81082
579.42	10.1635
582.795	12.6817
586.17	22.2876
589.544	34.2159
592.919	52.7064
596.294	74.8935
599.669	106.063
603.044	145.687
606.418	183.969
609.793	206.871
613.168	212.154
616.543	201.567
619.918	134.862
623.293	67.6066
626.667	62.3818
630.042	91.5846
633.417	142.918
636.792	198.467
640.167	196.948
643.542	137.826
646.916	56.5653
650.291	35.0605
653.666	79.0388
657.041	161.702
660.416	261.466
663.79	395.395
667.165	541.278
670.54	588.468
673.915	450.049
677.29	356.479
680.664	317.307
684.039	296.027
687.414	275.024
690.789	240.857
694.164	192.116
697.539	130.001
700.913	67.5507
704.288	30.4565
707.663	16.9568
711.038	12.388
714.413	10.0075
717.788	8.25664
721.162	5.67477
724.537	5.41443
727.912	0.110626
731.287	1.70302
734.662	3.66901
738.036	2.38901
741.411	1.5201
744.786	1.48869
748.161	0.790436
751.536	1.91179
754.91	0.707169
758.285	4.16232
761.66	4.68516
765.035	4.20267
768.41	6.88419
771.785	7.8579
775.159	7.05766
778.534	10.7534
781.909	14.6666
785.284	10.9862
788.659	15.9445
792.034	12.7654
795.408	12.8469
798.783	12.3373
802.158	13.5252
805.533	14.4469
808.908	11.2454
812.283	10.3453
815.657	9.58366
819.032	10.5541
822.407	9.71298
825.782	10.3814
829.157	6.50876
832.531	8.70834
835.906	7.53673
839.281	6.08867
842.656	6.80952
846.031	6.03352
849.405	4.71651
852.78	4.65131
856.155	5.84512
859.53	2.66685
862.905	2.43776
866.28	3.25974
869.654	2.29642
873.029	3.95555
876.404	3.71258
879.779	1.82179
883.154	1.2552
886.529	1.52319
889.903	0.888901
893.278	0.847809
896.653	4.2699
900.028	1.1698
903.403	1.24992
906.778	1.87189
910.152	0.522903
913.527	2.535
916.902	2.2162
920.277	1.83006
923.652	2.41238
927.026	2.11661
930.401	1.43498
933.776	2.30197
937.151	2.10132
940.526	1.28333
943.9	0.761688
947.275	1.07651
950.65	2.65846
954.025	0.687164
957.4	2.17737
960.775	0.1091
964.149	0.36676
967.524	5.66798
970.899	0.606384
974.274	4.0177
977.649	2.12117
981.024	2.94041
984.398	3.72026
987.773	4.53491
991.148	4.88515
994.523	4.39371
997.898	7.23129
1001.27	4.85837
1004.65	8.01015
1008.02	5.98161
1011.4	9.09906
1014.77	9.23483
1018.15	9.79245
1021.52	9.09961
1024.9	9.2972
1028.27	11.1449
1031.65	12.7238
1035.02	11.8446
1038.4	13.2398
1041.77	8.92149
1045.14	6.53488
1048.52	6.63858
1051.89	4.28635
1055.27	3.56651
1058.64	3.93785
1062.02	2.48224
1065.39	5.99916
1068.77	4.02248
1072.14	3.32844
1075.52	4.287
1078.89	1.87878
1082.27	2.11264
1085.64	1.87552
1089.02	0.798935
1092.39	0.086609
1095.77	0.362213
1099.14	1.42334
1102.52	2.16144
1105.89	0.255676
1109.27	2.31743
1112.64	1.17819
1116.02	2.37875
1119.39	4.33806
1122.77	1.95962
1126.14	1.92755
1129.52	4.51639
1132.89	3.88239
1136.27	1.33865
1139.64	0.443237
1143.02	1.65593
1146.39	0.475067
1149.77	2.75627
1153.14	3.85229
1156.51	2.91362
1159.89	1.88847
1163.26	2.64732
1166.64	2.86452
1170.01	0.256226
1173.39	2.22166
1176.76	1.55656
1180.14	3.15718
1183.51	2.74651
1186.89	2.01373
1190.26	2.97087
1193.64	1.3091
1197.01	3.4182
1200.39	2.04437
1203.76	2.82736
1207.14	3.10187
1210.51	3.12627
1213.89	4.34143
1217.26	0.557602
1220.64	1.02025
1224.01	1.67374
1227.38	0.855774
1230.76	0.731003
1234.13	2.45357
1237.51	2.72513
1240.88	0.72995
1244.26	1.24716
1247.63	0.587845
1251.01	1.92381
1254.38	1.93132
1257.76	2.96384
1261.13	3.06163
1264.51	0.818573
1267.88	0.753235
1271.26	3.40079
1274.63	2.79927
1278.01	2.81354
1281.38	3.79498
1284.76	2.58481
1288.13	1.57893
1291.51	3.60358
1294.88	4.45778
1298.26	2.22762
1301.63	1.61122
