Measurement: Raman, 532 nm, unoriented, Raman Data Processed
Mineral: Sphalerite
Rruff sample: R040136
Ideal chemistry: ZnS
Locality: Hilltop mine, Paradise, Cochise County, Arizona, USA
Source: University of Arizona Mineral Museum
Description: Olive green fragments
Measured chemistry: Zn_0.98_S
Raman shift (cm-1)	intensity
163.643	0
166.536	129.721
169.429	587.338
172.321	1225.01
175.214	1993.28
178.107	2595.12
180.999	1933.09
183.892	1049.35
186.785	738.286
189.678	757.011
192.57	869.185
195.463	912.315
198.356	1027.79
201.248	1428.14
204.141	2024.72
207.034	3183.52
209.926	4904.71
212.819	6800.19
215.712	8378.6
218.605	8399.92
221.497	6574.19
224.39	4907.92
227.283	3888.8
230.175	3436.87
233.068	3373.58
235.961	3372.74
238.853	2430.93
241.746	966.078
244.639	233.269
247.532	16.521
250.424	172.421
253.317	224.699
256.21	94.4502
259.102	162.87
261.995	622.195
264.888	1237.11
267.781	2115.02
270.673	3262.54
273.566	3843.9
276.459	3206.95
279.351	2372.41
282.244	1875.68
285.137	1685.08
288.029	1735.99
290.922	1928.17
293.815	2413.71
296.707	3204.34
299.6	3609.1
302.493	2906.01
305.386	1998.33
308.278	1464.55
311.171	951.988
314.064	265.395
316.956	292.961
319.849	326.668
322.742	160.046
325.635	372.502
328.527	1117.47
331.42	1822.23
334.313	1559.17
337.205	1257
340.098	1335.45
342.991	1761.52
345.883	3067.23
348.776	8182.27
351.669	6461.6
354.562	2854.03
357.454	2382.83
360.347	2476.29
363.24	2743.71
366.132	3006.81
369.025	3209.76
371.918	3476.12
374.81	3510.58
377.703	3612.4
380.596	3741.96
383.488	4033.3
386.381	4352.22
389.274	4751.82
392.167	5222.85
395.059	5661.27
397.952	5842.06
400.845	5269.24
403.737	4615.24
406.63	4454.5
409.523	4511.58
412.416	4791.37
415.308	5479.14
418.201	6463.01
421.094	6379.27
423.986	5720.23
426.879	5096.46
429.772	4353.61
432.664	3562.99
435.557	2933.01
438.45	2740.36
441.343	2845.59
444.235	2928.84
447.128	2912.84
450.021	2739.39
452.913	2064.1
455.806	783.737
458.699	38.3726
461.591	136.369
464.484	153.811
467.377	166.235
470.27	108.648
473.162	53.2971
476.055	30.4823
478.948	99.4895
481.84	118.886
484.733	169.663
487.626	269.219
490.519	326.884
493.411	400.877
496.304	418.18
499.197	451.952
502.089	519.953
504.982	599.966
507.875	718.79
510.767	828.145
513.66	902.319
516.553	961.401
519.446	911.241
522.338	770.87
525.231	511.925
528.124	352.178
531.016	178.603
533.909	86.9821
536.802	7.81604
539.694	3.36572
542.587	7.60107
545.48	36.7206
548.372	23.5571
551.265	1.31311
554.158	9.57007
557.051	36.632
559.943	19.8315
562.836	18.6028
565.729	55.5442
568.621	89.3669
571.514	107.571
574.407	173.158
577.299	144.341
580.192	206.121
583.085	276.269
585.978	382.575
588.87	487.5
591.763	619.666
594.656	833.446
597.548	1069
600.441	1416.9
603.334	1765.71
606.227	2184.88
609.119	2393.8
612.012	2464.27
614.905	2488.18
617.797	2125.54
620.69	1258.14
623.583	888.402
626.476	1004.41
629.368	1406.4
632.261	2014.22
635.154	2676.11
638.046	2842.35
640.939	2392.58
643.832	1472.84
646.724	537.848
649.617	310.358
652.51	542.798
655.403	1081.97
658.295	1880.57
661.188	2943.12
664.081	4313.12
666.973	5681.9
669.866	5969.66
672.759	4462.73
675.651	3473.68
678.544	2959.99
681.437	2698.12
684.33	2427.96
687.222	2194.51
690.115	1980.95
693.008	1671.14
695.9	1256.41
698.793	769.716
701.686	331.123
704.578	136.631
707.471	93.1709
710.364	21.9236
713.256	5.95947
716.149	11.8518
719.042	6.65894
721.935	26.6641
724.827	15.5471
727.72	31.311
730.613	27.9812
733.505	34.291
736.398	6.02466
739.291	3.94824
742.183	1.29907
745.076	26.5645
747.969	14.9158
750.862	39.0737
753.754	29.1909
756.647	46.4956
759.54	59.1265
762.432	88.1931
765.325	85.2925
768.218	95.1035
771.111	122.848
774.003	106.4
776.896	126.201
779.789	98.0708
782.681	84.8054
785.574	93.8354
788.467	91.7266
791.359	69.0461
794.252	68.9309
797.145	106.303
800.038	54.78
802.93	91.2554
805.823	52.3843
808.716	48.1084
811.608	90.4795
814.501	69.449
817.394	92.9255
820.286	63.0818
823.179	60.4773
826.072	44.7307
828.965	86.4021
831.857	58.3945
834.75	53.7913
837.643	51.8162
840.535	16.8787
843.428	33.3127
846.321	17.0029
849.213	7.12476
852.106	1.81055
854.999	13.9126
857.891	36.2229
860.784	7.01709
863.677	49.7361
866.57	65.6445
869.462	0.350098
872.355	28.2722
875.248	9.66089
878.14	71.4353
881.033	28.9041
883.926	43.4624
886.819	20.3794
889.711	16.9202
892.604	27.0234
895.497	21.5256
898.389	46.7222
901.282	53.8901
904.175	5.46045
907.067	83.593
909.96	46.3733
912.853	37.8328
915.746	28.1357
918.638	43.1482
921.531	74.5986
924.424	19.2642
927.316	77.1873
930.209	80.1628
933.102	35.3674
935.995	93.2722
938.887	48.7532
941.78	32.0271
944.673	18.6184
947.565	88.0356
950.458	21.022
953.351	70.5945
956.243	20.1333
959.136	35.2749
962.029	11.3484
964.922	21.9399
967.814	34.2642
970.707	28.2681
973.6	14.7358
976.492	3.9834
979.385	64.5444
982.278	35.3679
985.17	16.4539
988.063	28.1401
990.956	9.03027
993.848	60.2056
996.741	22.2388
999.634	69.9155
1002.53	39.2593
1005.42	46.1753
1008.31	14.0542
1011.21	0.551758
1014.1	51.5962
1016.99	29.7007
1019.88	55.5181
1022.78	12.6172
1025.67	47.0508
1028.56	23.6973
1031.45	55.8911
1034.35	17.3159
1037.24	52.8935
1040.13	73.4468
1043.02	63.1172
1045.92	24.1011
1048.81	5.54883
1051.7	83.0986
1054.6	37.4624
1057.49	46.4233
1060.38	45.9346
1063.27	10.206
1066.17	68.0337
1069.06	27.2114
1071.95	48.0195
1074.84	55.4292
1077.74	44.8857
1080.63	79.939
1083.52	40.3931
1086.41	108.626
1089.31	75.9199
1092.2	45.9102
1095.09	35.3989
1097.99	43.1279
1100.88	30.1616
1103.77	30.5488
1106.66	27.6309
1109.56	62.2017
1112.45	57.3384
1115.34	83.521
1118.23	10.6348
1121.13	7.81494
1124.02	39.4605
1126.91	4.74121
1129.81	8.39502
1132.7	86.6816
1135.59	27.0376
1138.48	41.1938
1141.38	57.8145
1144.27	46.541
1147.16	30.3247
1150.05	34.1011
1152.95	103.773
1155.84	74.8657
1158.73	76.6231
1161.62	44.4028
1164.52	25.4453
1167.41	81.479
1170.3	77.0942
1173.2	6.21826
1176.09	71.2485
1178.98	110.68
1181.87	35.688
1184.77	40.6148
1187.66	78.3921
1190.55	16.0498
1193.44	70.6113
1196.34	80.772
1199.23	27.0064
1202.12	50.6475
1205.02	42.3823
1207.91	11.0688
1210.8	3.52197
1213.69	34.2217
1216.59	98.7866
1219.48	99.7602
1222.37	25.543
1225.27	17.686
1228.16	50.7163
1231.05	54.313
1233.94	40.938
1236.84	138.157
1239.73	8.13477
1242.62	53.4815
1245.51	63.1221
1248.41	66.605
1251.3	43.0786
1254.19	18.8726
1257.08	51.852
1259.98	52.1055
1262.87	37.7036
1265.76	89.3169
1268.65	25.564
1271.55	30.71
1274.44	84.5523
1277.33	68.2324
1280.23	73.4292
1283.12	26.0112
1286.01	51.4238
1288.9	38.2222
1291.8	2.32812
1294.69	45.7017
1297.58	38.7803
1300.47	55.4605
1303.37	52.3579
1306.26	45.4717
1309.15	3.81543
1312.05	38.4853
1314.94	0
