Measurement: Raman, 514 nm, unoriented, Raman Data Processed
Mineral: Sphalerite
Rruff sample: R050140
Ideal chemistry: ZnS
Locality: Big Four mine, Summit County, Colorado, USA
Source: Dave Bunk Minerals
Description: Group of dark green tetrahedra
Measured chemistry: Zn_1.00_S_1.00_
Raman shift (cm-1)	intensity
89.193	0
93.375	82.948
97.554	69.302
101.732	14.96
105.908	244.955
110.082	530.092
114.254	1034
118.424	1729.54
122.592	2051.95
126.758	3081.74
130.922	4585.68
135.083	6519.21
139.243	9922.09
143.401	11077.5
147.557	11538.6
151.711	11887.6
155.863	12571.9
160.013	13479.8
164.161	14610.8
168.308	16366.9
172.452	19023.4
176.594	21015.5
180.734	19268
184.872	16000.1
189.008	14101.2
193.143	13385.5
197.275	12770.3
201.405	12751.1
205.534	14658
209.66	18605.3
213.784	25098.1
217.907	26611.9
222.027	20546.4
226.146	15852.5
230.263	13606.1
234.377	12888.6
238.49	9164.48
242.601	4431.74
246.709	2128.65
250.816	952.406
254.921	394.201
259.024	342.159
263.125	752.496
267.224	2060.95
271.321	3996.98
275.416	3343.42
279.51	1895.52
283.601	1095.72
287.69	778.596
291.778	1203.8
295.863	2423.04
299.947	3183.1
304.029	1672.72
308.108	712.688
312.186	85.551
316.262	460.009
320.336	292.428
324.408	581.192
328.478	2053.55
332.546	3528.15
336.612	3668.71
340.677	5337.58
344.739	13941.6
348.799	25883.2
352.858	14770.4
356.915	8913.03
360.969	8198.16
365.022	8924.68
369.073	9742.75
373.122	10072.6
377.169	10678.9
381.215	11116.1
385.258	11798.2
389.299	12622.2
393.339	13914.9
397.376	14709.8
401.412	12708.6
405.446	10758.9
409.478	9289.52
413.508	9289.77
417.536	11005.9
421.562	11815.5
425.586	11756.5
429.609	10607.8
433.629	8946.33
437.648	7360.92
441.665	7457.55
445.68	8259.17
449.693	8005.83
453.704	5513.38
457.713	1355.81
461.721	125.062
465.726	167.897
469.73	257.813
473.731	117.351
477.731	119.271
481.729	89.07
485.725	80.698
489.72	24.947
493.712	136.729
497.703	9.902
501.691	378.504
505.678	613.676
509.663	932.49
513.646	1150.84
517.627	1461.71
521.607	1245.07
525.584	771.938
529.56	356.319
533.534	74.953
537.506	48.491
541.476	168.39
545.444	46.247
549.41	21.156
553.375	191.296
557.337	276.49
561.298	346.929
565.257	454.714
569.214	810.863
573.17	823.467
577.123	1047.98
581.075	1441.88
585.024	1606.91
588.972	2226.14
592.918	2628.85
596.863	3311.95
600.805	4624.97
604.746	6295.29
608.685	7310.69
612.621	8184.77
616.557	7981.56
620.49	4812.92
624.421	2787.48
628.351	2897.72
632.279	3989.64
636.205	5563.32
640.129	5711.4
644.051	3545.55
647.972	2009
651.89	2325.96
655.807	4080.69
659.722	6903.4
663.636	11940.2
667.547	17994.3
671.457	16034.1
675.365	11606.1
679.271	9399.99
683.175	8504.6
687.077	7612.47
690.978	6772.6
694.877	5572.23
698.774	3324.18
702.669	1789.31
706.562	1408.77
710.454	968.238
714.344	597.137
718.232	513.461
722.118	386.49
726.002	216.957
729.885	380.734
733.766	179.768
737.645	216.729
741.522	244.211
745.397	162.504
749.271	240.512
753.143	150.174
757.013	67.838
760.881	101.027
764.748	108.457
768.613	9.326
772.476	17.936
776.337	37.908
780.196	128.312
784.054	71.297
787.91	66.807
791.764	86.254
795.616	99.086
799.467	24.865
803.316	22.783
807.163	154.215
811.008	51.322
814.851	48.783
818.693	18.875
822.533	130.438
826.371	145.236
830.208	144.432
834.042	34.975
837.875	108.693
841.706	328.795
845.536	217.568
849.363	36.154
853.189	66.996
857.013	316.385
860.836	168.334
864.656	215.906
868.475	291.303
872.292	124.391
876.108	138.443
879.922	252.562
883.733	189.391
887.544	170.406
891.352	208.453
895.159	365.221
898.964	338.115
902.767	247.09
906.568	286.375
910.368	340.281
914.166	384.945
917.962	181.418
921.757	317.01
925.55	470.871
929.341	361.312
933.13	324.77
936.918	360.188
940.703	296.098
944.488	347.742
948.27	351.023
952.051	351.025
955.83	337.367
959.607	237.729
963.383	224.865
967.156	229.537
970.928	244.939
974.699	219.562
978.468	139.057
982.234	147.785
986	350.16
989.763	416.75
993.525	279.227
997.285	362.543
1001.04	617.902
1004.8	316.961
1008.55	225.301
1012.31	509.998
1016.06	355.104
1019.81	141.445
1023.56	83.789
1027.31	281.67
1031.05	421.27
1034.79	531.092
1038.53	306.283
1042.27	260.68
1046.01	381.256
1049.75	483.928
1053.48	552.518
1057.22	618.229
1060.95	311.344
1064.68	294.123
1068.4	578.969
1072.13	444.08
1075.86	459.07
1079.58	428.051
1083.3	335.223
1087.02	675.998
1090.74	201.438
1094.45	121.072
1098.17	92.225
1101.88	1.27
1105.59	177.863
1109.3	56.709
1113.01	15.768
1116.71	46.82
1120.42	2.227
1124.12	291.49
1127.82	152.129
1131.52	322.113
1135.22	313.307
1138.91	543.693
1142.61	206.039
1146.3	310.596
1149.99	223.656
1153.68	295.77
1157.37	34.912
1161.06	371.908
1164.74	51.041
1168.42	292.197
1172.1	150.598
1175.78	256.609
1179.46	300.281
1183.14	267.787
1186.81	299.338
1190.48	157.934
1194.15	265.898
1197.83	350.225
1201.49	88.576
1205.16	410.637
1208.82	31.312
1212.49	332.854
1216.15	307.318
1219.81	380.996
1223.46	447.164
1227.12	291.246
1230.78	426.293
1234.43	534.219
1238.08	614.74
1241.73	776.973
1245.38	130.348
1249.03	134.771
1252.67	260.234
1256.31	421.145
1259.95	513.697
1263.6	418.711
1267.23	461.443
1270.87	94.988
1274.51	333.277
1278.14	185.602
1281.77	291.439
1285.4	229.492
1289.03	435.039
1292.66	281.668
1296.28	350.039
1299.91	446.91
1303.53	181.143
1307.15	169.891
1310.77	406.039
1314.38	87.629
1318	313.449
1321.61	301.412
1325.23	335.818
1328.84	384.051
1332.45	358.244
1336.06	163.898
1339.66	121.473
1343.27	0
