Measurement: Raman, 780 nm, unoriented, Raman Data Processed
Mineral: Sphalerite
Rruff sample: R100145
Ideal chemistry: ZnS
Locality: Picos De Europa, Cantabria, Spain
Source: William W. Pinch
Description: Brown cut gemstone
Raman shift (cm-1)	intensity
109.89	0
113.265	1.48621
116.64	17.3943
120.015	8.96558
123.389	3.00024
126.764	5.14026
130.139	26.3777
133.514	64.1713
136.889	130.539
140.263	204.068
143.638	211.47
147.013	220.366
150.388	236.205
153.763	253.061
157.137	264.029
160.512	294.942
163.887	320.721
167.262	360.164
170.637	401.67
174.012	466.032
177.386	535.455
180.761	470.017
184.136	374.259
187.511	332.268
190.886	326.169
194.261	319.618
197.635	311.962
201.01	316.293
204.385	357.866
207.76	428.656
211.135	546.823
214.509	722.612
217.884	782.004
221.259	635.53
224.634	479.335
228.009	387.654
231.383	358.827
234.758	372.674
238.133	311.395
241.508	169.402
244.883	98.3728
248.257	63.8757
251.632	45.1234
255.007	32.9108
258.382	32.3696
261.757	35.8711
265.132	30.6526
268.506	19.3159
271.881	0.124268
275.256	17.8756
278.631	21.9149
282.006	15.6841
285.38	8.22705
288.755	14.5679
292.13	56.1869
295.505	122.526
298.88	185.143
302.255	150.371
305.629	86.916
309.004	78.2462
312.379	79.7708
315.754	8.21655
319.129	14.4329
322.503	15.8246
325.878	64.5247
329.253	132.417
332.628	195.569
336.003	162.058
339.377	185.135
342.752	300.719
346.127	681.102
349.502	1245.93
352.877	485.904
356.252	204.6
359.626	166.109
363.001	171.481
366.376	194.221
369.751	217.851
373.126	244.704
376.5	236.966
379.875	234.148
383.25	243.768
386.625	255.344
390	279.303
393.375	319.268
396.749	348.941
400.124	322.565
403.499	254.228
406.874	226.409
410.249	220.37
413.623	257.534
416.998	342.875
420.373	397.535
423.748	355.844
427.123	322.333
430.498	278.001
433.872	218.683
437.247	186.375
440.622	183.936
443.997	198.45
447.372	212.325
450.746	198.172
454.121	121.282
457.496	16.5421
460.871	9.37952
464.246	10.4154
467.62	12.6262
470.995	6.44958
474.37	5.64038
477.745	9.68091
481.12	6.54224
484.495	13.4296
487.869	18.2865
491.244	27.6973
494.619	32.4639
497.994	30.4131
501.369	35.728
504.743	44.6001
508.118	56.1121
511.493	60.1813
514.868	75.2258
518.243	73.8263
521.617	63.0895
524.992	36.9305
528.367	34.3386
531.742	22.743
535.117	10.3599
538.492	1.66272
541.866	0.919312
545.241	5.53271
548.616	2.46265
551.991	3.99829
555.366	4.11768
558.74	5.55774
562.115	2.42102
565.49	3.61438
568.865	4.2959
572.24	0.507935
575.615	8.40967
578.989	7.52612
582.364	8.47449
585.739	20.9745
589.114	20.6047
592.489	32.0162
595.863	46.7994
599.238	72.0571
602.613	87.3004
605.988	120.632
609.363	140.393
612.737	159.331
616.112	155.561
619.487	104.848
622.862	50.9061
626.237	52.2305
629.611	74.1392
632.986	115.431
636.361	165.396
639.736	174.65
643.111	112.237
646.486	41.4993
649.86	20.8917
653.235	38.5851
656.61	85.2246
659.985	138.902
663.36	222.379
666.735	344.768
670.109	372.567
673.484	258.866
676.859	192.079
680.234	165.414
683.609	140.01
686.983	120.647
690.358	104.583
693.733	81.2422
697.108	52.3415
700.483	18.7593
703.857	6.36609
707.232	6.45239
710.607	2.328
713.982	4.49085
717.357	3.57971
720.731	2.37927
724.106	0.37146
727.481	1.47595
730.856	5.76245
734.231	2.48315
737.606	5.09656
740.98	2.57471
744.355	1.41577
747.73	0.935669
751.105	2.29187
754.48	2.79639
757.855	0.077148
761.229	2.85254
764.604	1.63306
767.979	3.1029
771.354	9.38062
774.729	9.81848
778.103	6.8457
781.478	0.692993
784.853	12.5609
788.228	14.5526
791.603	6.15234
794.977	7.26758
798.352	7.35535
801.727	6.06433
805.102	7.68384
808.477	10.6875
811.851	7.75989
815.226	22.0207
818.601	14.9003
821.976	17.3697
825.351	12.854
828.726	6.83838
832.1	7.39368
835.475	2.97131
838.85	5.63306
842.225	9.35877
845.6	12.308
848.975	7.30212
852.349	9.48669
855.724	9.8645
859.099	10.2936
862.474	5.2334
865.849	12.03
869.223	8.3158
872.598	8.28247
875.973	4.73364
879.348	10.0028
882.723	6.776
886.097	6.69324
889.472	6.0907
892.847	16.0676
896.222	3.75366
899.597	1.09143
902.971	1.10815
906.346	3.65185
909.721	3.95447
913.096	6.64978
916.471	4.69153
919.846	0.512207
923.22	0.405396
926.595	5.0072
929.97	2.92212
933.345	2.89929
936.72	3.89062
940.095	6.23389
943.469	9.73901
946.844	8.69324
950.219	1.81982
953.594	1.98535
956.968	2.12854
960.343	7.31457
963.718	1.25855
967.093	3.23926
970.468	1.09924
973.843	1.38672
977.217	3.63623
980.592	0.556152
983.967	3.80542
987.342	0.324341
990.717	12.5459
994.091	12.7883
997.466	8.77258
1000.84	14.6322
1004.22	8.72339
1007.59	11.9036
1010.97	13.1451
1014.34	10.521
1017.72	7.33728
1021.09	5.05261
1024.46	7.474
1027.84	11.3711
1031.21	16.0471
1034.59	10.5708
1037.96	13.7389
1041.34	9.29224
1044.71	10.3831
1048.09	11.3383
1051.46	5.90247
1054.84	9.93506
1058.21	9.50562
1061.59	10.8727
1064.96	12.1313
1068.34	13.7515
1071.71	11.7024
1075.09	12.9148
1078.46	1.9325
1081.84	0.88562
1085.21	12.9412
1088.59	1.15552
1091.96	11.1339
1095.34	4.99817
1098.71	3.39075
1102.09	4.96057
1105.46	4.96582
1108.84	5.00256
1112.21	2.51147
1115.59	0.362671
1118.96	5.27356
1122.33	2.44043
1125.71	0.926636
1129.08	5.68518
1132.46	0.284302
1135.83	5.72107
1139.21	10.0206
1142.58	13.2543
1145.96	11.6223
1149.33	9.20557
1152.71	15.6235
1156.08	12.4387
1159.46	15.8348
1162.83	14.8776
1166.21	16.0176
1169.58	16.3245
1172.96	19.5034
1176.33	20.2349
1179.71	15.4282
1183.08	12.3444
1186.46	15.7391
1189.83	14.8957
1193.21	16.2377
1196.58	26.0272
1199.95	16.9475
1203.33	8.36023
1206.7	14.0791
1210.08	14.5895
1213.45	10.3494
1216.83	5.24207
1220.2	7.06494
1223.58	1.62195
1226.95	12.7926
1230.33	2.74072
1233.7	8.08118
1237.08	7.17017
1240.45	8.43896
1243.83	6.5625
1247.2	0.839355
1250.58	1.22693
1253.95	7.79333
1257.33	3.08569
1260.7	7.04211
1264.08	9.50745
1267.45	7.59644
1270.83	12.0704
1274.2	4.2113
1277.58	16.2082
1280.95	7.87842
1284.33	1.82019
