Measurement: Raman, 532 nm, unoriented, Raman Data Processed
Mineral: Spherocobaltite
Rruff sample: R060497
Ideal chemistry: CoCO_3_
Locality: Bou Azzer, Anti Atlas Mountains, Morocco
Source: Michael Scott
Description: Group of red rhombohedral crystals
Measured chemistry: (Co_0.68_Mg_0.15_Ni_0.07_Ca_0.05_Fe_0.04_Mn_0.01_)_Î£=1_CO_3_ ; C not measured but estimated by difference and stoichiometry
Raman shift (cm-1)	intensity
125.238	0
128.613	1.29977
131.988	0.590098
135.363	2.06389
138.737	4.04465
142.112	2.43875
145.487	2.58541
148.862	3.2914
152.237	4.93941
155.612	7.03051
158.986	6.71281
162.361	9.40799
165.736	9.69101
169.111	10.9576
172.486	14.1745
175.86	14.9856
179.235	18.2964
182.61	21.8902
185.985	26.0231
189.36	30.685
192.734	35.5165
196.109	41.6643
199.484	45.5804
202.859	49.89
206.234	45.8286
209.608	33.9906
212.983	19.2965
216.358	11.2044
219.733	5.83405
223.108	2.58401
226.483	0.539015
229.857	0.169218
233.232	0.226303
236.607	0.794415
239.982	0.324604
243.357	0.35593
246.732	0.224047
250.106	0.15554
253.481	1.76162
256.856	2.47609
260.231	3.12518
263.606	3.83358
266.98	6.05946
270.355	8.85889
273.73	11.8513
277.105	15.7902
280.48	22.3457
283.854	31.7054
287.229	45.9555
290.604	63.8212
293.979	88.9231
297.354	120.59
300.729	155.485
304.103	186.535
307.478	201.356
310.853	180.048
314.228	137.644
317.603	90.4355
320.978	57.344
324.352	35.8132
327.727	23.8184
331.102	16.7367
334.477	11.1832
337.852	7.00147
341.226	5.82293
344.601	3.85567
347.976	2.6354
351.351	1.5268
354.726	0.364509
358.1	0.536703
361.475	0.138679
364.85	0.299003
368.225	0.381476
371.6	0.31576
374.974	0.691208
378.349	0.085556
381.724	0.079661
385.099	0.000994
388.474	0.178915
391.849	0.089484
395.223	0.317903
398.598	0.891118
401.973	0.133485
405.348	0.611345
408.723	0.002742
412.098	0.449428
415.472	0.592829
418.847	0.114765
422.222	0.301079
425.597	0.343168
428.972	0.319012
432.346	0.197362
435.721	0.799997
439.096	0.493315
442.471	1.19633
445.846	0.515711
449.221	0.433255
452.595	0.530172
455.97	0.597777
459.345	0.265853
462.72	0.895595
466.095	0.521449
469.469	0.602466
472.844	1.01695
476.219	0.360724
479.594	0.552832
482.969	0.599576
486.344	0.817639
489.718	0.311564
493.093	0.181111
496.468	0.01621
499.843	0.075452
503.218	0.446896
506.592	0.661763
509.967	0.499928
513.342	0.298059
516.717	0.669001
520.092	0.586943
523.466	0.064838
526.841	0.601044
530.216	0.30025
533.591	0.195217
536.966	0.428444
540.341	0.503278
543.715	0.225311
547.09	0.231741
550.465	0.051624
553.84	0.013586
557.215	0.081751
560.59	0.472712
563.964	0.523308
567.339	0.278932
570.714	0.615931
574.089	0.452907
577.464	0.563171
580.838	1.05661
584.213	0.53797
587.588	0.779566
590.963	0.795528
594.338	1.34969
597.712	1.00222
601.087	0.777195
604.462	1.0262
607.837	0.820608
611.212	1.13711
614.587	1.2437
617.961	1.02077
621.336	0.721423
624.711	0.33119
628.086	0.822354
631.461	0.189565
634.835	1.0516
638.21	0.22189
641.585	0.103643
644.96	0.138943
648.335	0.30784
651.71	0.060325
655.084	0.434067
658.459	0.502705
661.834	0.126318
665.209	0.618395
668.584	0.307864
671.958	0.176446
675.333	0.161125
678.708	0.614489
682.083	0.669077
685.458	0.468729
688.832	1.10207
692.207	1.38488
695.582	1.52482
698.957	2.96468
702.332	3.65041
705.707	5.59471
709.081	7.68578
712.456	10.1605
715.831	15.1989
719.206	20.7598
722.581	26.1915
725.955	29.4316
729.33	24.949
732.705	16.5633
736.08	9.99582
739.455	6.67392
742.83	4.1561
746.204	3.12066
749.579	1.87948
752.954	1.01038
756.329	0.54175
759.704	0.040305
763.078	0.20059
766.453	0.087593
769.828	0.16469
773.203	0.38432
776.578	0.210146
779.952	0.301038
783.327	0.181499
786.702	1.06102
790.077	0.682532
793.452	0.651272
796.827	0.662903
800.201	0.703125
803.576	1.145
806.951	0.98395
810.326	0.641474
813.701	1.48492
817.076	1.01368
820.45	1.42472
823.825	1.50863
827.2	1.7059
830.575	1.15784
833.95	1.22064
837.324	1.6976
840.699	2.01675
844.074	2.02216
847.449	1.57307
850.824	2.5835
854.198	2.383
857.573	3.10745
860.948	3.39412
864.323	3.60115
867.698	3.39693
871.073	3.44007
874.447	2.27054
877.822	2.60068
881.197	2.21996
884.572	2.36864
887.947	2.03757
891.322	1.45796
894.696	1.67418
898.071	1.5975
901.446	1.27554
904.821	1.15902
908.196	0.749428
911.57	0.912663
914.945	0.151255
918.32	0.725524
921.695	0.170527
925.07	0.435496
928.444	0.169538
931.819	0.357823
935.194	0.101559
938.569	0.218093
941.944	0.044483
945.318	0.301489
948.693	0.485083
952.068	0.057228
955.443	0.855022
958.818	1.17975
962.193	1.85047
965.567	1.33239
968.942	1.81064
972.317	1.77649
975.692	1.84017
979.067	1.9134
982.442	1.7451
985.816	2.44441
989.191	1.6617
992.566	1.65002
995.941	0.327419
999.316	0.515762
1002.69	0.199146
1006.07	0.498297
1009.44	0.127605
1012.82	0.472281
1016.19	0.061193
1019.57	0.211929
1022.94	1.60227
1026.31	1.39554
1029.69	2.98118
1033.06	3.12048
1036.44	5.89937
1039.81	6.59914
1043.19	8.45533
1046.56	10.8948
1049.94	12.898
1053.31	16.2691
1056.69	21.0776
1060.06	26.8244
1063.44	35.9607
1066.81	48.6431
1070.19	68.8678
1073.56	102.188
1076.94	155.159
1080.31	233.733
1083.69	330.905
1087.06	403.981
1090.44	368.981
1093.81	247.975
1097.18	146.857
1100.56	91.015
1103.93	60.5688
1107.31	42.5881
1110.68	30.1404
1114.06	20.9964
1117.43	13.0037
1120.81	7.87959
1124.18	3.69148
1127.56	1.83862
1130.93	0.768377
1134.31	0.326444
1137.68	0.093211
1141.06	0.601094
1144.43	0.275144
1147.81	0.254669
1151.18	0.269318
1154.56	0.191067
1157.93	0.218641
1161.31	0.458048
1164.68	0.528437
1168.06	1.30404
1171.43	0.787171
1174.81	1.43152
1178.18	1.29782
1181.56	1.6217
1184.93	1.34521
1188.31	2.17614
1191.68	2.22412
1195.06	2.32087
1198.43	2.2091
1201.81	1.85692
1205.18	1.85943
1208.55	2.12915
1211.93	1.48095
1215.3	1.30395
1218.68	1.34432
1222.05	2.34199
1225.43	1.21905
1228.8	1.25812
1232.18	1.41873
1235.55	1.67905
1238.93	1.55321
1242.3	2.71929
1245.68	2.12619
1249.05	1.12761
1252.43	1.15958
1255.8	1.10331
1259.18	1.05607
1262.55	0.942569
1265.93	0.68924
1269.3	0.741269
1272.68	0.076361
1276.05	0.614327
1279.42	0.562009
1282.8	0.466117
1286.17	0.214368
1289.55	0.398817
1292.92	0.191966
1296.3	0.663896
1299.67	0.087449
1303.05	0.016364
