Measurement: Raman, 780 nm, unoriented, Raman Data Processed
Mineral: Spherocobaltite
Rruff sample: R060497
Ideal chemistry: CoCO_3_
Locality: Bou Azzer, Anti Atlas Mountains, Morocco
Source: Michael Scott
Description: Group of red rhombohedral crystals
Measured chemistry: (Co_0.68_Mg_0.15_Ni_0.07_Ca_0.05_Fe_0.04_Mn_0.01_)_Î£=1_CO_3_ ; C not measured but estimated by difference and stoichiometry
Raman shift (cm-1)	intensity
125.603	0
128.978	0.033707
132.353	0.716188
135.727	0.164564
139.102	0.887917
142.477	1.41821
145.852	2.66716
149.227	3.9798
152.601	7.4227
155.976	8.86255
159.351	12.5413
162.726	15.9399
166.101	19.5428
169.476	22.7759
172.85	26.7158
176.225	31.8954
179.6	38.151
182.975	45.2734
186.35	54.1806
189.725	63.9303
193.099	73.5722
196.474	85.841
199.849	99.1003
203.224	107.454
206.599	102.071
209.973	75.6235
213.348	48.831
216.723	27.6191
220.098	14.9717
223.473	8.76179
226.847	4.31248
230.222	2.27483
233.597	1.37557
236.972	0.148312
240.347	0.435333
243.722	0.556761
247.096	0.974674
250.471	0.05905
253.846	0.533112
257.221	1.46941
260.596	2.61652
263.971	4.20586
267.345	6.14174
270.72	8.88134
274.095	13.2281
277.47	18.2326
280.845	27.2877
284.219	39.1861
287.594	55.4398
290.969	79.0219
294.344	105.649
297.719	136.423
301.094	174.521
304.468	206.436
307.843	223.15
311.218	206.147
314.593	158.496
317.968	107.151
321.342	67.8801
324.717	42.322
328.092	28.3052
331.467	18.5616
334.842	12.624
338.216	8.40128
341.591	6.79183
344.966	3.61526
348.341	3.19607
351.716	2.01439
355.091	1.11353
358.465	1.20338
361.84	0.885271
365.215	0.085546
368.59	0.593573
371.965	0.064598
375.339	0.461432
378.714	0.241521
382.089	0.256317
385.464	0.026217
388.839	0.170043
392.214	0.086025
395.588	0.179502
398.963	0.380697
402.338	0.230252
405.713	0.604929
409.088	0.214583
412.463	0.363225
415.837	0.349358
419.212	0.251361
422.587	0.846171
425.962	0.91528
429.337	0.422015
432.712	0.35908
436.086	0.362518
439.461	1.15281
442.836	0.530884
446.211	0.864605
449.586	0.846823
452.96	0.419981
456.335	0.344923
459.71	0.617929
463.085	0.528826
466.46	0.750868
469.834	0.480033
473.209	1.02283
476.584	0.48198
479.959	0.513916
483.334	0.823293
486.709	0.787371
490.083	0.756255
493.458	0.677058
496.833	0.295644
500.208	0.414005
503.583	0.628223
506.957	0.79078
510.332	0.928735
513.707	0.225364
517.082	0.376292
520.457	0.649796
523.832	0.099229
527.206	0.052175
530.581	0.606035
533.956	0.072295
537.331	0.075111
540.706	0.041943
544.081	0.188212
547.455	0.104136
550.83	0.142297
554.205	0.064784
557.58	0.216501
560.955	0.038891
564.329	0.443732
567.704	0.274508
571.079	0.402966
574.454	0.218151
577.829	1.10756
581.203	0.635736
584.578	0.853942
587.953	0.811986
591.328	1.07466
594.703	1.27319
598.078	1.48707
601.452	1.51642
604.827	1.24817
608.202	1.37206
611.577	1.19505
614.952	1.09094
618.327	0.807057
621.701	0.996346
625.076	0.791366
628.451	0.565194
631.826	0.526401
635.201	0.484875
638.575	0.67948
641.95	0.256683
645.325	0.545768
648.7	0.730327
652.075	0.041842
655.449	0.35276
658.824	0.175812
662.199	0.134516
665.574	0.007705
668.949	0.167351
672.324	0.035611
675.698	0.326197
679.073	0.394262
682.448	0.917413
685.823	1.02854
689.198	1.63825
692.572	1.69397
695.947	2.04247
699.322	3.30308
702.697	5.04094
706.072	6.79681
709.447	9.66107
712.821	14.2748
716.196	20.0885
719.571	26.0147
722.946	34.7012
726.321	39.97
729.696	35.8435
733.07	24.4566
736.445	15.1766
739.82	9.25423
743.195	6.73043
746.57	4.10306
749.944	2.55181
753.319	1.61167
756.694	0.679683
760.069	0.275636
763.444	0.011087
766.818	0.076361
770.193	0.259029
773.568	0.313033
776.943	0.051472
780.318	0.41388
783.693	0.580247
787.067	0.157634
790.442	0.176371
793.817	0.362266
797.192	0.152687
800.567	0.664543
803.942	0.748242
807.316	0.632082
810.691	0.516904
814.066	0.714499
817.441	0.925355
820.816	0.982891
824.19	1.20031
827.565	0.958835
830.94	1.13149
834.315	0.902822
837.69	1.31985
841.065	1.48187
844.439	1.1091
847.814	1.34815
851.189	1.86862
854.564	2.29155
857.939	1.87881
861.313	3.10905
864.688	3.2562
868.063	3.27566
871.438	2.86799
874.813	2.11473
878.188	1.94159
881.562	2.22317
884.937	1.50597
888.312	1.14461
891.687	1.47416
895.062	1.28418
898.437	1.34804
901.811	1.46027
905.186	0.923435
908.561	0.458465
911.936	0.725549
915.311	0.561504
918.685	0.062842
922.06	0.039626
925.435	0.352509
928.81	0.027687
932.185	0.185621
935.559	0.140713
938.934	0.069346
942.309	0.238664
945.684	0.30424
949.059	0.459925
952.434	0.94988
955.808	1.0201
959.183	1.39131
962.558	2.0848
965.933	2.54301
969.308	2.61891
972.683	2.67793
976.057	2.80093
979.432	3.18934
982.807	3.01361
986.182	2.49792
989.557	1.45099
992.931	1.11415
996.306	0.697266
999.681	0.367611
1003.06	0.035145
1006.43	0.040552
1009.8	0.383144
1013.18	0.473387
1016.55	0.014254
1019.93	0.534933
1023.3	0.529543
1026.68	1.94454
1030.05	3.21052
1033.43	4.58374
1036.8	5.94198
1040.18	6.56365
1043.55	9.13274
1046.93	10.1496
1050.3	12.3673
1053.68	15.0763
1057.05	20.175
1060.43	25.2431
1063.8	34.2922
1067.18	47.1576
1070.55	65.8786
1073.93	100.32
1077.3	153.347
1080.68	226.8
1084.05	323.483
1087.43	418.959
1090.8	408.448
1094.18	277.368
1097.55	162.682
1100.93	95.3335
1104.3	61.1702
1107.67	40.9416
1111.05	29.434
1114.42	19.4425
1117.8	12.9772
1121.17	7.23819
1124.55	3.66784
1127.92	1.99199
1131.3	1.03087
1134.67	0.055104
1138.05	0.006628
1141.42	0.10761
1144.8	0.170894
1148.17	0.024072
1151.55	0.301157
1154.92	0.162787
1158.3	0.130269
1161.67	0.649659
1165.05	0.617668
1168.42	0.579494
1171.8	1.14146
1175.17	1.14089
1178.55	1.33763
1181.92	1.80196
1185.3	1.81123
1188.67	1.86161
1192.05	1.89646
1195.42	2.10435
1198.8	1.73709
1202.17	2.06822
1205.55	1.42675
1208.92	1.83085
1212.3	1.7152
1215.67	1.31381
1219.04	1.68968
1222.42	1.28847
1225.79	1.04023
1229.17	1.01021
1232.54	1.45999
1235.92	1.63876
1239.29	1.33684
1242.67	1.14822
1246.04	0.781586
1249.42	0.38069
1252.79	0.374574
1256.17	0.345074
1259.54	0.215691
1262.92	0.310593
1266.29	0.414768
1269.67	0.364179
1273.04	0.157289
1276.42	0.161068
1279.79	0.503046
1283.17	0.043126
