Measurement: Raman, 780 nm, unoriented, Raman Data Processed
Mineral: Spherocobaltite
Rruff sample: R140338
Ideal chemistry: CoCO_3_
Locality: Kakanda, Shaba, Zaire
Source: William Pinch
Description: Reddish purple rhombohedral crystals
Raman shift (cm-1)	intensity
95.0565	0
98.4313	3.09119
101.806	0.164307
105.181	2.1496
108.556	0.4422
111.931	1.3844
115.305	2.76343
118.68	2.01755
122.055	4.78424
125.43	1.9014
128.805	3.28098
132.179	5.24203
135.554	5.32724
138.929	9.4667
142.304	12.4303
145.679	14.5094
149.054	15.6474
152.428	20.0251
155.803	26.7508
159.178	33.7848
162.553	39.6904
165.928	44.9701
169.302	52.8707
172.677	62.855
176.052	69.8262
179.427	79.949
182.802	92.5061
186.177	110.514
189.551	127.451
192.926	147.157
196.301	171.828
199.676	201.816
203.051	227.199
206.425	213.495
209.8	147.796
213.175	80.8952
216.55	41.465
219.925	22.1248
223.299	11.7286
226.674	8.87329
230.049	4.4346
233.424	0.27887
236.799	0.001862
240.173	1.48221
243.548	1.44589
246.923	1.07452
250.298	0.677094
253.673	2.60605
257.048	1.77795
260.422	4.51181
263.797	7.14951
267.172	12.4677
270.547	20.458
273.922	29.0738
277.296	39.0261
280.671	58.2876
284.046	85.2328
287.421	126.545
290.796	180.607
294.171	241.092
297.545	315.76
300.92	402.767
304.295	492.352
307.67	530.732
311.045	464.474
314.42	329.403
317.794	197.346
321.169	116.406
324.544	71.1263
327.919	46.6864
331.293	29.5067
334.668	19.8432
338.043	15.0519
341.418	9.51953
344.793	7.21143
348.168	4.70285
351.542	2.57629
354.917	1.58795
358.292	0.602448
361.667	1.12918
365.042	0.879517
368.416	3.07498
371.791	0.904785
375.166	0.804932
378.541	1.3089
381.916	0.328552
385.291	0.4505
388.665	0.729004
392.04	0.549988
395.415	0.365143
398.79	0.953827
402.165	1.33362
405.539	0.661743
408.914	0.457367
412.289	2.31796
415.664	0.578064
419.039	0.326904
422.413	2.79831
425.788	1.05026
429.163	0.54306
432.538	2.10367
435.913	1.69858
439.288	2.22559
442.662	1.85422
446.037	0.775055
449.412	1.07974
452.787	2.60248
456.162	1.62058
459.536	1.44241
462.911	2.95676
466.286	1.64542
469.661	2.03201
473.036	1.84177
476.411	1.30478
479.785	4.24686
483.16	3.23616
486.535	2.54765
489.91	3.83441
493.285	3.33813
496.659	2.73857
500.034	3.01694
503.409	3.32448
506.784	2.35649
510.159	2.80417
513.534	2.61565
516.908	3.5316
520.283	3.43765
523.658	2.57694
527.033	2.01529
530.408	1.93393
533.782	1.69905
537.157	1.55789
540.532	0.779221
543.907	0.301804
547.282	0.079666
550.656	0.609604
554.031	1.32153
557.406	0.468048
560.781	0.471741
564.156	1.03607
567.53	2.00586
570.905	0.786774
574.28	0.796127
577.655	1.18085
581.03	2.83212
584.405	2.1976
587.779	2.11089
591.154	2.31625
594.529	3.11508
597.904	3.71298
601.279	3.59613
604.654	3.74411
608.028	2.66361
611.403	3.97057
614.778	3.86353
618.153	2.62083
621.528	4.15791
624.902	3.26653
628.277	1.90187
631.652	2.06949
635.027	1.95706
638.402	1.49872
641.776	1.51074
645.151	1.67453
648.526	1.39725
651.901	0.312759
655.276	0.875015
658.65	1.13048
662.025	0.229218
665.4	0.582275
668.775	0.506271
672.15	0.003448
675.525	1.73741
678.899	1.72617
682.274	1.32819
685.649	2.51276
689.024	2.58722
692.399	4.11906
695.774	5.10135
699.148	6.41696
702.523	9.51616
705.898	15.6607
709.273	20.7657
712.648	29.2679
716.022	41.3208
719.397	55.7039
722.772	75.6516
726.147	84.3256
729.522	75.4209
732.896	50.7874
736.271	31.8871
739.646	20.0469
743.021	13.5689
746.396	8.97174
749.77	6.6635
753.145	2.21643
756.52	0.879471
759.895	0.494064
763.27	0.248444
766.645	1.19311
770.019	0.631744
773.394	0.181793
776.769	0.251633
780.144	0.441757
783.519	1.43318
786.894	0.661896
790.268	2.45274
793.643	2.4747
797.018	1.51877
800.393	1.5468
803.768	1.87169
807.142	1.94287
810.517	1.21336
813.892	1.47206
817.267	1.46509
820.642	2.46475
824.016	2.20311
827.391	2.43359
830.766	2.29038
834.141	1.07884
837.516	2.53862
840.89	3.22214
844.265	2.62039
847.64	4.86192
851.015	3.61342
854.39	3.80087
857.765	4.08229
861.139	5.86348
864.514	6.44664
867.889	6.12152
871.264	4.18936
874.639	5.04952
878.013	2.81009
881.388	3.4411
884.763	4.23524
888.138	2.69604
891.513	2.95528
894.888	2.25415
898.262	3.47053
901.637	1.3578
905.012	2.0952
908.387	0.939453
911.762	0.36673
915.136	0.288223
918.511	0.241089
921.886	0.133484
925.261	0.6987
928.636	0.42099
932.01	0.422165
935.385	0.195374
938.76	0.491409
942.135	0.447891
945.51	1.56813
948.885	0.257217
952.259	1.76253
955.634	2.46503
959.009	5.51709
962.384	5.22588
965.759	6.02689
969.133	6.40512
972.508	6.13474
975.883	6.7433
979.258	6.35545
982.633	5.9496
986.008	4.83054
989.382	3.28125
992.757	1.93466
996.132	1.54289
999.507	0.871002
1002.88	0.125397
1006.26	0.27655
1009.63	1.40833
1013.01	0.482269
1016.38	1.7018
1019.76	1.59848
1023.13	2.97777
1026.51	5.37553
1029.88	7.98192
1033.26	8.84746
1036.63	12.4179
1040.01	13.8264
1043.38	19.5162
1046.75	23.9002
1050.13	27.7711
1053.5	35.8177
1056.88	45.8643
1060.25	58.5889
1063.63	80.1005
1067	112.879
1070.38	159.301
1073.75	235.518
1077.13	363.477
1080.5	549.204
1083.88	814.602
1087.25	1107.1
1090.63	1088.01
1094	713.222
1097.38	399.238
1100.75	226.656
1104.13	138.88
1107.5	92.7526
1110.88	61.0831
1114.25	38.7296
1117.62	27.2301
1121	15.1715
1124.38	6.83517
1127.75	3.32582
1131.12	1.011
1134.5	0.397125
1137.87	0.297195
1141.25	0.668289
1144.62	0.277496
1148	0.579712
1151.37	0.89209
1154.75	0.275269
1158.12	0.576279
1161.5	0.770355
1164.87	0.239548
1168.25	2.23007
1171.62	0.979218
1175	1.78513
1178.37	3.46468
1181.75	3.74185
1185.12	4.07242
1188.5	3.89545
1191.87	4.19266
1195.25	5.14917
1198.62	4.10585
1202	4.17641
1205.37	3.537
1208.74	3.77109
1212.12	3.24822
1215.49	2.61938
1218.87	5.17082
1222.24	4.38399
1225.62	3.2478
1228.99	2.50188
1232.37	1.75542
1235.74	2.98462
1239.12	3.66159
1242.49	2.01706
1245.87	2.14299
1249.24	0.991394
1252.62	0.628906
1255.99	1.73434
1259.37	2.81232
1262.74	0.103394
1266.12	0.639648
1269.49	0.560226
1272.87	0.865112
1276.24	0.064438
1279.62	0.195343
1282.99	0.302429
