Measurement: Raman, 532 nm, unoriented, Raman Data Processed
Mineral: Spherocobaltite
Rruff sample: R140338
Ideal chemistry: CoCO_3_
Locality: Kakanda, Shaba, Zaire
Source: William Pinch
Description: Reddish purple rhombohedral crystals
Raman shift (cm-1)	intensity
90.808	0
94.1828	0.076298
97.5576	0.863834
100.932	2.08272
104.307	2.79057
107.682	0.932816
111.057	2.98426
114.432	2.90144
117.806	2.18073
121.181	4.7576
124.556	4.15618
127.931	4.56956
131.306	3.38857
134.681	2.84712
138.055	3.32944
141.43	0.866173
144.805	0.692936
148.18	0.312336
151.555	0.358341
154.929	0.014862
158.304	0.253366
161.679	1.03565
165.054	0.005634
168.429	0.428068
171.804	0.518663
175.178	0.858968
178.553	0.207701
181.928	2.13085
185.303	7.00094
188.678	13.8837
192.053	22.0142
195.427	25.9546
198.802	28.1449
202.177	33.2856
205.552	37.2897
208.927	31.2155
212.301	20.1321
215.676	12.0314
219.051	7.66958
222.426	5.0016
225.801	5.27128
229.175	2.88323
232.55	1.82978
235.925	1.69839
239.3	1.75764
242.675	1.71994
246.05	0.961868
249.424	1.21444
252.799	1.59994
256.174	1.36666
259.549	1.23466
262.924	1.41911
266.298	2.33249
269.673	4.44762
273.048	5.28776
276.423	8.6037
279.798	12.525
283.173	18.8001
286.547	27.9135
289.922	43.7802
293.297	61.7674
296.672	84.8993
300.047	108.576
303.421	135.797
306.796	150.187
310.171	139.05
313.546	102.198
316.921	62.264
320.296	36.3104
323.67	21.7532
327.045	13.5142
330.42	9.5506
333.795	6.16792
337.17	3.79589
340.544	2.61232
343.919	2.13571
347.294	0.808605
350.669	0.301903
354.044	0.014208
357.418	0.594601
360.793	0.082291
364.168	0.379477
367.543	0.299662
370.918	0.035318
374.293	0.353113
377.667	0.157646
381.042	0.26622
384.417	0.214945
387.792	0.576094
391.167	1.21291
394.541	0.340433
397.916	0.617794
401.291	1.23006
404.666	0.999015
408.041	1.34344
411.416	1.53558
414.79	1.7516
418.165	1.03651
421.54	0.571057
424.915	1.00536
428.29	1.19356
431.664	0.932969
435.039	1.65951
438.414	1.24314
441.789	0.694907
445.164	0.773055
448.539	1.46738
451.913	1.31102
455.288	0.790577
458.663	0.200996
462.038	0.830657
465.413	0.590543
468.788	0.529444
472.162	1.17501
475.537	0.713085
478.912	1.27286
482.287	1.21734
485.662	1.44667
489.036	1.0296
492.411	2.10652
495.786	1.23693
499.161	1.37863
502.536	1.58102
505.911	1.21923
509.285	1.12618
512.66	1.79329
516.035	1.26043
519.41	0.836106
522.784	0.547305
526.159	0.486104
529.534	0.626103
532.909	0.203619
536.284	0.460041
539.659	0.958912
543.033	0.903958
546.408	0.713094
549.783	0.351979
553.158	0.536716
556.533	0.053566
559.908	0.058401
563.282	0.467059
566.657	0.60033
570.032	0.459735
573.407	0.939656
576.782	0.961626
580.156	1.2461
583.531	0.811769
586.906	1.2311
590.281	1.05814
593.656	1.26117
597.03	0.74782
600.405	1.09356
603.78	0.723239
607.155	1.36967
610.53	1.53812
613.905	1.10279
617.279	1.00131
620.654	1.25111
624.029	0.993707
627.404	0.526216
630.779	0.37257
634.154	0.394158
637.528	0.316915
640.903	0.13267
644.278	0.234701
647.653	0.143721
651.028	0.938061
654.402	0.296513
657.777	0.21349
661.152	0.079989
664.527	0.047102
667.902	0.125924
671.277	0.455663
674.651	0.329805
678.026	0.169168
681.401	0.332113
684.776	0.402176
688.151	0.764373
691.525	0.774506
694.9	1.19433
698.275	1.90432
701.65	2.52407
705.025	3.49813
708.399	4.7859
711.774	7.49966
715.149	11.444
718.524	15.6556
721.899	21.1451
725.274	25.2934
728.648	24.927
732.023	18.5553
735.398	12.302
738.773	7.66964
742.148	4.97886
745.523	3.73001
748.897	2.6582
752.272	1.61231
755.647	0.093019
759.022	0.35088
762.396	0.147894
765.771	0.609404
769.146	0.012327
772.521	0.183325
775.896	0.219242
779.271	0.454805
782.645	0.309113
786.02	0.878569
789.395	0.43232
792.77	1.00002
796.145	1.52942
799.519	0.919628
802.894	0.770065
806.269	0.787844
809.644	0.80459
813.019	1.2018
816.394	0.838932
819.768	1.22468
823.143	1.31568
826.518	1.63761
829.893	1.45337
833.268	1.46246
836.643	1.76289
840.017	1.54616
843.392	2.14927
846.767	2.40789
850.142	2.02043
853.517	1.65723
856.891	2.24006
860.266	2.03356
863.641	3.38105
867.016	3.32264
870.391	3.59527
873.765	2.95471
877.14	2.69934
880.515	2.04286
883.89	2.78285
887.265	2.30401
890.64	2.13087
894.014	1.08283
897.389	1.39926
900.764	1.66653
904.139	1.14094
907.514	1.49201
910.889	0.961414
914.263	0.457018
917.638	0.173609
921.013	0.061823
924.388	0.294037
927.763	0.333923
931.137	0.348185
934.512	0.271301
937.887	0.186054
941.262	0.152185
944.637	0.373169
948.011	0.038374
951.386	0.70842
954.761	1.84498
958.136	0.298164
961.511	1.72901
964.886	2.29502
968.26	2.55798
971.635	3.3826
975.01	2.95143
978.385	2.8756
981.76	3.15593
985.135	2.6561
988.509	1.65755
991.884	1.35548
995.259	1.07114
998.634	0.547947
1002.01	0.120892
1005.38	0.279224
1008.76	0.159752
1012.13	0.191151
1015.51	0.882675
1018.88	1.23365
1022.26	1.75736
1025.63	2.78739
1029.01	4.2785
1032.38	4.78372
1035.76	5.51403
1039.13	6.16179
1042.51	7.24474
1045.88	7.96839
1049.26	9.17306
1052.63	10.2385
1056.01	11.5868
1059.38	14.2715
1062.76	17.8426
1066.13	22.7228
1069.51	31.5976
1072.88	45.0887
1076.26	69.6131
1079.63	107.486
1083	158.991
1086.38	221.846
1089.75	255.705
1093.13	203.134
1096.5	118.328
1099.88	65.6856
1103.25	38.6062
1106.63	24.875
1110	16.2537
1113.38	11.3276
1116.75	6.58946
1120.13	3.65291
1123.5	1.23676
1126.88	0.788803
1130.25	0.502096
1133.63	0.259119
1137	0.117559
1140.38	0.40766
1143.75	0.0249
1147.13	0.943016
1150.5	0.680201
1153.88	0.0331
1157.25	0.176455
1160.62	0.76016
1164	1.30286
1167.38	0.741348
1170.75	1.14989
1174.12	1.86471
1177.5	2.13335
1180.87	1.45488
1184.25	1.53852
1187.62	1.89649
1191	1.70331
1194.37	2.57099
1197.75	1.4076
1201.12	1.99236
1204.5	1.84678
1207.87	0.909357
1211.25	1.87445
1214.62	1.97586
1218	1.53835
1221.37	1.60338
1224.75	1.41598
1228.12	1.28371
1231.5	1.26764
1234.87	1.21291
1238.25	1.90068
1241.62	1.81577
1244.99	1.73145
1248.37	0.989262
1251.74	1.17758
1255.12	1.09582
1258.49	0.640678
1261.87	0.583921
1265.24	1.19458
1268.62	0.578821
1271.99	0.207367
1275.37	0.490852
1278.74	0.585938
1282.12	0.333679
1285.49	0.210657
1288.87	0.354702
1292.24	0.097574
1295.62	0.395542
1298.99	0.43759
