Measurement: Raman, 532 nm, unoriented, Raman Data Processed
Mineral: Spinel
Rruff sample: R050184
Ideal chemistry: MgAl_2_O_4_
Locality: Pein Pyit, Mogok, Burma
Source: Marcus Origlieri
Description: Red crystal in calcite, associated with yellowish-green clinohumite, R050183
Measured chemistry: Mg_1.00_(Al_1.99_Cr_0.01_)_Î£=2_O_4_; trace amounts of V
Raman shift (cm-1)	intensity
145.362	0
148.255	1.62561
151.147	2.48608
154.04	2.2439
156.933	10.278
159.825	7.29199
162.718	4.43616
165.611	2.66223
168.504	6.55408
171.396	11.2511
174.289	13.9044
177.182	11.8892
180.074	11.931
182.967	9.74011
185.86	9.1521
188.752	4.03918
191.645	0.19873
194.538	3.24036
197.43	2.09363
200.323	0.410522
203.216	1.56848
206.109	4.11401
209.001	5.97583
211.894	4.67371
214.787	3.73303
217.679	11.6005
220.572	15.4537
223.465	13.8213
226.357	11.8293
229.25	11.0139
232.143	11.9091
235.036	12.2646
237.928	9.05615
240.821	15.014
243.714	19.1234
246.606	15.7602
249.499	15.5283
252.392	11.9457
255.284	14.8174
258.177	16.9319
261.07	15.0193
263.963	13.5092
266.855	14.2672
269.748	15.6175
272.641	14.1935
275.533	15.1631
278.426	16.1855
281.319	16.9913
284.211	16.4379
287.104	19.376
289.997	19.0858
292.889	23.1797
295.782	25.265
298.675	22.2678
301.568	27.2169
304.46	36.2034
307.353	44.6987
310.246	73.6431
313.138	83.797
316.031	37.6539
318.924	15.9248
321.817	8.93188
324.709	6.0741
327.602	0.006226
330.495	0.152954
333.387	0.222778
336.28	0.450073
339.173	2.11133
342.065	1.43665
344.958	0.404175
347.851	0.032227
350.743	0.193726
353.636	5.62439
356.529	8.24011
359.422	8.39783
362.314	14.1221
365.207	15.4452
368.1	13.7443
370.992	17.6735
373.885	20.7538
376.778	34.2705
379.671	44.1984
382.563	53.9664
385.456	59.1174
388.349	86.1731
391.241	123.92
394.134	173.494
397.027	242.332
399.919	354.468
402.812	523.212
405.705	690.657
408.598	659.351
411.49	417.913
414.383	229.239
417.276	132.268
420.168	79.9805
423.061	49.1786
425.954	34.1969
428.846	23.452
431.739	19.915
434.632	12.1545
437.524	9.29114
440.417	4.0979
443.31	1.30786
446.203	6.49634
449.095	2.1228
451.988	1.45593
454.881	1.67175
457.773	0.261108
460.666	1.29211
463.559	0.418823
466.452	3.49841
469.344	5.54797
472.237	5.44189
475.13	4.52625
478.022	10.2655
480.915	5.49133
483.808	2.28162
486.7	3.76611
489.593	0.349854
492.486	5.224
495.378	6.13794
498.271	5.651
501.164	6.66675
504.057	3.79346
506.949	2.3529
509.842	3.67285
512.735	3.82812
515.627	4.94739
518.52	2.08276
521.413	1.61975
524.306	3.27417
527.198	7.52588
530.091	6.70129
532.984	4.8999
535.876	3.57666
538.769	2.88586
541.662	2.44592
544.554	2.65076
547.447	1.05164
550.34	0.962769
553.232	5.75879
556.125	3.90845
559.018	2.78735
561.911	7.04553
564.803	9.27637
567.696	6.81091
570.589	4.98779
573.481	1.62891
576.374	6.2096
579.267	3.45947
582.159	2.38843
585.052	3.8302
587.945	5.4967
590.838	3.16943
593.73	4.05859
596.623	0.204834
599.516	7.20691
602.408	4.09216
605.301	5.80981
608.194	2.09937
611.087	4.98474
613.979	4.38159
616.872	0.217651
619.765	2.18603
622.657	2.65796
625.55	2.42871
628.443	7.83911
631.335	0.973999
634.228	0.602905
637.121	3.00891
640.014	5.57935
642.906	8.57165
645.799	12.4781
648.692	35.2884
651.584	49.5731
654.477	75.8397
657.37	101.759
660.262	147.733
663.155	189.71
666.048	193.24
668.941	159.084
671.833	112.868
674.726	75.5378
677.619	54.9139
680.511	33.4639
683.404	20.6844
686.297	19.0449
689.189	4.12268
692.082	5.46838
694.975	0.555176
697.867	0.238037
700.76	0.954834
703.653	5.64697
706.546	2.16492
709.438	3.99402
712.331	4.02356
715.224	4.65405
718.116	4.67432
721.009	4.67651
723.902	5.69653
726.794	1.02295
729.687	1.12573
732.58	1.55127
735.472	5.41333
738.365	13.9966
741.258	11.0212
744.151	22.28
747.043	30.1228
749.936	37.0981
752.829	55.5837
755.721	78.8745
758.614	109.638
761.507	160.043
764.399	178.671
767.292	180.592
770.185	144.717
773.078	94.5557
775.97	72.188
778.863	45.2898
781.756	29.4661
784.648	22.2886
787.541	14.3467
790.434	9.76709
793.327	8.55518
796.219	11.7502
799.112	9.2251
802.005	17.3574
804.897	7.66919
807.79	12.0295
810.683	11.2334
813.575	7.08765
816.468	7.16528
819.361	7.70606
822.254	9.72852
825.146	7.16626
828.039	4.71924
830.932	1.13232
833.824	1.77368
836.717	3.06665
839.61	0.083008
842.502	3.06128
845.395	1.70801
848.288	0.348877
851.181	14.4641
854.073	8.03101
856.966	5.29175
859.859	3.14526
862.751	6.70117
865.644	10.196
868.537	13.5225
871.429	14.2029
874.322	12.021
877.215	10.7712
880.107	8.06836
883	12.4251
885.893	16.332
888.786	9.86914
891.678	9.47705
894.571	9.74023
897.464	10.4973
900.356	13.7817
903.249	17.6855
906.142	15.3027
909.034	21.2034
911.927	24.772
914.82	24.0686
917.713	28.2859
920.605	29.6477
923.498	28.2141
926.391	29.4531
929.283	36.334
932.176	33.6191
935.069	16.8547
937.962	10.1294
940.854	3.31934
943.747	7.09302
946.64	2.11475
949.532	1.13355
952.425	0.280518
955.318	9.35962
958.21	1.06348
961.103	0.232666
963.996	2.00537
966.889	12.9148
969.781	8.65991
972.674	26.0271
975.567	25.1072
978.459	15.7073
981.352	17.5852
984.245	13.2275
987.137	7.11377
990.03	20.8967
992.923	19.3328
995.816	16.2336
998.708	17.425
1001.6	19.5647
1004.49	22.7073
1007.39	17.9595
1010.28	12.2981
1013.17	12.0754
1016.06	19.22
1018.96	12.0457
1021.85	4.44141
1024.74	7.15015
1027.63	3.39307
1030.53	3.6582
1033.42	12.6782
1036.31	9.38379
1039.21	16.9531
1042.1	6.43945
1044.99	5.00635
1047.88	9.62988
1050.78	16.167
1053.67	13.8062
1056.56	11.355
1059.45	15.6611
1062.35	0.456055
1065.24	5.22949
1068.13	0.622559
1071.03	2.44287
1073.92	7.55176
1076.81	6.81445
1079.7	10.6558
1082.6	24.2827
1085.49	20.4727
1088.38	18.1807
1091.28	7.07715
1094.17	8.80615
1097.06	19.4028
1099.95	30.0615
1102.85	29.3643
1105.74	11.4575
1108.63	19.0479
1111.52	14.4146
1114.42	22.2554
1117.31	14.667
1120.2	17.5054
1123.09	10.9609
1125.99	21.0884
1128.88	12.8433
1131.77	12.6025
1134.66	4.80273
1137.56	24.3628
1140.45	23.7451
1143.34	13.1328
1146.24	6.65186
1149.13	21.2056
1152.02	9.47949
1154.91	10.1294
1157.81	18.5674
1160.7	21.606
1163.59	21.0601
1166.48	17.6255
1169.38	1.47168
1172.27	7.60596
1175.16	16.0689
1178.06	3.74268
1180.95	7.40967
1183.84	20.3442
1186.73	5.50635
1189.63	6.95117
1192.52	1.75879
1195.41	4.84814
1198.3	9.17725
1201.2	8.93408
1204.09	12.5518
1206.98	13.8975
1209.88	1.21973
1212.77	2.22315
1215.66	2.4209
1218.55	3.80713
1221.45	15.1841
1224.34	18.7427
1227.23	14.6704
1230.12	1.39648
1233.02	1.13818
1235.91	7.36963
1238.8	5.30225
1241.69	24.6328
1244.59	35.4844
1247.48	41.5151
1250.37	25.8574
1253.27	9.41357
1256.16	24.7895
1259.05	29.8828
1261.94	38.2353
1264.84	49.1865
1267.73	30.8384
1270.62	3.39209
1273.52	11.5308
1276.41	5.68604
1279.3	26.8574
1282.19	10.9834
