Measurement: Raman, 532 nm, unoriented, Raman Data Processed
Mineral: Spinel
Rruff sample: R050259
Ideal chemistry: MgAl_2_O_4_
Locality: Mogok, Burma
Source: Marcus Origlieri
Description: Purple cut gemstone
Measured chemistry: (Mg_0.99_Zn_0.01_)_Σ=1_(Al_1.98_Fe^3+^_0.02_)_Σ=2_O_4_; trace amounts of Cr
Raman shift (cm-1)	intensity
152.324	0
155.216	0.919373
158.109	2.3071
161.002	0.651306
163.895	3.63776
166.787	2.58447
169.68	5.7731
172.573	4.43368
175.465	5.80624
178.358	4.50751
181.251	3.66006
184.143	3.73498
187.036	0.855316
189.929	2.98392
192.822	2.78818
195.714	2.60669
198.607	0.944946
201.5	2.82266
204.392	2.11401
207.285	0.618317
210.178	0.542969
213.071	1.01431
215.963	2.88141
218.856	2.92752
221.749	3.85837
224.641	0.89859
227.534	1.81692
230.427	3.1694
233.319	1.37921
236.212	0.749298
239.105	0.91687
241.998	1.8587
244.89	3.14807
247.783	1.87164
250.676	2.73218
253.568	1.8349
256.461	2.6947
259.354	3.50562
262.246	0.219452
265.139	1.77719
268.032	2.37131
270.924	1.62961
273.817	2.70944
276.71	4.143
279.603	4.80966
282.495	5.1669
285.388	3.94345
288.281	4.60297
291.173	5.64294
294.066	7.27753
296.959	9.00995
299.851	10.9428
302.744	13.7993
305.637	19.5149
308.529	24.806
311.422	29.8391
314.315	24.0506
317.208	11.025
320.1	6.6777
322.993	4.5336
325.886	2.30719
328.778	0.684937
331.671	0.24054
334.564	0.383667
337.457	0.671509
340.349	1.19321
343.242	0.846466
346.135	0.600403
349.027	3.30487
351.92	6.40634
354.813	7.83404
357.705	10.6797
360.598	10.5606
363.491	13.3335
366.384	14.8773
369.276	19.5692
372.169	21.4666
375.062	26.5273
377.954	30.9653
380.847	41.1969
383.74	54.7584
386.632	71.226
389.525	106.644
392.418	160.592
395.31	220.733
398.203	300.804
401.096	435.685
403.989	612.192
406.881	715.147
409.774	529.639
412.667	272.072
415.559	143.709
418.452	86.0188
421.345	54.2593
424.238	36.5972
427.13	23.72
430.023	16.5205
432.916	11.5538
435.808	8.25174
438.701	5.65634
441.594	2.0484
444.486	1.32849
447.379	0.129883
450.272	0.770477
453.164	1.03552
456.057	1.22583
458.95	0.072968
461.843	0.796967
464.735	0.446198
467.628	1.65833
470.521	0.845551
473.413	0.848511
476.306	1.80649
479.199	2.39889
482.091	0.12738
484.984	3.04422
487.877	1.09656
490.77	0.24234
493.662	0.075867
496.555	0.298187
499.448	0.259918
502.34	0.006943
505.233	0.081726
508.126	0.000107
511.019	0.80777
513.911	0.748413
516.804	2.86366
519.697	2.58426
522.589	1.59944
525.482	3.0195
528.375	2.65096
531.267	1.71695
534.16	1.74449
537.053	3.21553
539.946	3.31076
542.838	2.09482
545.731	5.12688
548.624	5.61978
551.516	3.17751
554.409	3.49828
557.302	3.22363
560.194	4.57596
563.087	3.32301
565.98	1.23438
568.872	0.823196
571.765	0.259491
574.658	1.50764
577.551	0.919342
580.443	1.59917
583.336	1.81869
586.229	1.97849
589.121	0.559845
592.014	1.27583
594.907	0.233612
597.799	1.49823
600.692	1.11235
603.585	0.88092
606.477	1.45813
609.37	1.41676
612.263	1.96942
615.156	0.711319
618.048	2.40079
620.941	1.09373
623.834	1.85849
626.726	2.18336
629.619	2.64491
632.512	3.2072
635.404	3.00285
638.297	3.92589
641.19	5.20837
644.083	8.0968
646.975	10.3945
649.868	17.0488
652.761	26.1816
655.653	38.0338
658.546	54.3235
661.439	70.9604
664.332	78.6501
667.224	72.5957
670.117	53.8885
673.01	35.9595
675.902	24.192
678.795	16.9388
681.688	9.16533
684.58	5.52651
687.473	2.05119
690.366	0.743729
693.259	0.806656
696.151	0.054749
699.044	0.51712
701.937	0.401245
704.829	0.813248
707.722	0.888046
710.615	3.66385
713.507	2.33562
716.4	3.85768
719.293	2.293
722.186	1.82385
725.078	0.867325
727.971	1.55432
730.864	1.74321
733.756	0.206635
736.649	1.52766
739.542	1.61217
742.434	3.74133
745.327	8.35991
748.22	10.8867
751.112	16.401
754.005	26.2708
756.898	39.196
759.791	53.8259
762.683	73.5382
765.576	85.7465
768.469	80.4702
771.361	58.5879
774.254	36.7525
777.147	23.5724
780.04	16.128
782.932	11.9201
785.825	9.53381
788.718	8.83418
791.61	8.35846
794.503	7.19789
797.396	5.52229
800.288	2.22421
803.181	3.71677
806.074	2.6371
808.966	2.25796
811.859	1.97214
814.752	1.37677
817.645	1.13707
820.537	1.60039
823.43	0.704056
826.323	0.873398
829.215	0.172775
832.108	1.34155
835.001	0.04306
837.894	0.209579
840.786	1.48236
843.679	2.71912
846.572	0.72934
849.464	1.11452
852.357	2.80124
855.25	1.83545
858.142	0.793839
861.035	2.33994
863.928	1.05794
866.821	2.06053
869.713	0.882751
872.606	1.16249
875.499	0.407013
878.391	0.320084
881.284	2.85814
884.177	1.82814
887.069	0.719696
889.962	0.844376
892.855	1.56035
895.747	1.40372
898.64	2.37357
901.533	1.56564
904.426	0.132507
907.318	0.221344
910.211	1.57248
913.104	1.68042
915.996	1.60605
918.889	2.7626
921.782	2.99847
924.674	3.76502
927.567	3.15219
930.46	2.56369
933.353	3.98798
936.245	1.4762
939.138	0.414398
942.031	0.436859
944.923	1.77197
947.816	0.125824
950.709	0.487091
953.601	0.301483
956.494	0.053406
959.387	2.65903
962.28	0.425385
965.172	1.90991
968.065	0.923157
970.958	1.284
973.85	2.45166
976.743	1.57953
979.636	1.92868
982.528	2.4238
985.421	3.63596
988.314	4.03442
991.207	1.03882
994.099	2.66641
996.992	1.68616
999.885	3.40408
1002.78	1.22821
1005.67	0.418213
1008.56	2.25857
1011.46	0.796844
1014.35	1.18234
1017.24	0.387085
1020.13	2.22195
1023.03	1.38736
1025.92	0.230042
1028.81	1.84381
1031.7	0.004608
1034.6	2.85419
1037.49	3.52045
1040.38	2.97604
1043.28	1.64768
1046.17	0.400665
1049.06	1.51273
1051.95	2.01666
1054.85	1.29288
1057.74	1.01532
1060.63	1.58795
1063.52	1.96378
1066.42	1.38467
1069.31	2.50214
1072.2	2.09311
1075.1	0.250824
1077.99	0.645782
1080.88	2.23212
1083.77	0.845184
1086.67	1.71551
1089.56	0.759125
1092.45	0.578522
1095.34	3.86496
1098.24	2.85687
1101.13	2.13434
1104.02	1.73267
1106.91	2.99658
1109.81	1.97763
1112.7	0.997742
1115.59	1.32312
1118.48	1.70456
1121.38	1.89999
1124.27	1.49756
1127.16	2.1141
1130.06	4.02774
1132.95	3.05747
1135.84	3.93369
1138.73	2.90735
1141.63	3.22406
1144.52	4.13037
1147.41	1.53095
1150.31	2.91342
1153.2	1.4191
1156.09	0.338623
1158.98	0.401764
1161.88	3.1412
1164.77	3.10034
1167.66	3.03073
1170.55	1.10346
1173.45	1.05316
1176.34	2.66235
1179.23	4.12482
1182.12	0.605713
1185.02	1.62579
1187.91	2.88394
1190.8	3.86572
1193.7	3.59476
1196.59	3.82419
1199.48	2.06857
1202.37	2.94833
1205.27	2.07352
1208.16	1.82864
1211.05	1.09436
1213.94	0.676147
1216.84	0.436584
1219.73	0.723083
1222.62	1.24402
1225.52	2.36206
1228.41	0.62558
1231.3	1.71497
1234.19	5.28873
1237.09	1.40027
1239.98	1.92828
1242.87	0.909576
1245.76	0.238525
1248.66	2.64639
1251.55	3.76883
1254.44	3.42908
1257.34	0.287537
1260.23	3.63351
1263.12	3.46817
1266.01	1.03772
1268.91	1.8234
1271.8	2.37338
1274.69	1.80615
1277.58	1.64679
1280.48	2.20657
