Measurement: Raman, 780 nm, unoriented, Raman Data Processed
Mineral: Spinel
Rruff sample: R060799
Ideal chemistry: MgAl_2_O_4_
Locality: Aliabad, Hunza Valley, Pakistan
Source: Marcus Origlieri
Description: A group of blue distorted octahedra
Measured chemistry: (Mg_0.97_Fe^2+^_0.03_)_1.00_Al_2.00_O_4_
Raman shift (cm-1)	intensity
103.295	0
106.669	0.567886
110.044	4.31097
113.419	1.34576
116.794	1.95628
120.169	0.196762
123.544	3.67309
126.918	5.36129
130.293	6.03513
133.668	5.38596
137.043	4.39162
140.418	3.83804
143.792	1.86152
147.167	1.82504
150.542	1.48963
153.917	0.230392
157.292	0.404629
160.667	0.978394
164.041	0.924343
167.416	1.98485
170.791	3.05177
174.166	2.97763
177.541	3.59441
180.916	2.77769
184.29	2.83998
187.665	4.07761
191.04	2.60004
194.415	4.16805
197.79	5.04594
201.164	4.90847
204.539	7.76158
207.914	3.42162
211.289	5.33268
214.664	5.16114
218.038	7.26664
221.413	2.44281
224.788	2.98719
228.163	1.76991
231.538	2.36845
234.912	0.148251
238.287	1.10165
241.662	2.48894
245.037	2.68179
248.412	0.821457
251.787	2.13076
255.161	1.13725
258.536	0.616962
261.911	0.020355
265.286	0.028061
268.661	0.140759
272.036	0.573616
275.41	1.61371
278.785	1.02244
282.16	1.66718
285.535	1.9638
288.909	3.85775
292.284	5.59614
295.659	8.34931
299.034	11.4114
302.409	15.8692
305.784	23.7965
309.158	42.7435
312.533	55.8756
315.908	26.9888
319.283	9.73548
322.658	4.57896
326.033	1.63189
329.407	1.3834
332.782	0.093605
336.157	0.098988
339.532	0.807831
342.907	1.02605
346.281	0.229465
349.656	0.48851
353.031	1.41126
356.406	3.1545
359.781	2.71504
363.155	4.4711
366.53	5.48849
369.905	6.76041
373.28	9.08541
376.655	13.5155
380.029	17.3761
383.404	28.7912
386.779	56.0402
390.154	95.6627
393.529	125.274
396.904	183.952
400.278	299.392
403.653	560.963
407.028	622.738
410.403	219.728
413.778	78.1141
417.152	36.5418
420.527	19.2834
423.902	11.2039
427.277	6.55042
430.652	3.51725
434.027	1.80063
437.401	0.894047
440.776	0.589195
444.151	1.1044
447.526	1.67578
450.901	0.865028
454.275	0.979652
457.65	0.277653
461.025	1.18486
464.4	0.159309
467.775	0.529537
471.149	0.984589
474.524	0.903492
477.899	0.080128
481.274	1.17774
484.649	1.29573
488.024	1.59327
491.398	0.380619
494.773	0.321316
498.148	0.344265
501.523	0.348179
504.898	0.208912
508.272	0.781475
511.647	1.17524
515.022	2.91545
518.397	1.99225
521.772	2.29402
525.146	1.71283
528.521	1.6121
531.896	2.32036
535.271	1.28943
538.646	1.17156
542.021	1.28999
545.395	0.779232
548.77	1.57563
552.145	2.42895
555.52	1.11999
558.895	0.370613
562.269	0.934933
565.644	1.36993
569.019	1.54123
572.394	0.419659
575.769	0.204544
579.144	0.314663
582.518	0.039063
585.893	0.554646
589.268	1.5042
592.643	2.19738
596.018	1.29407
599.393	2.05351
602.767	2.50605
606.142	2.31685
609.517	2.03484
612.892	2.89613
616.266	2.18075
619.641	1.93119
623.016	2.54184
626.391	2.7668
629.766	2.53293
633.141	2.93228
636.515	3.10301
639.89	6.11513
643.265	8.68222
646.64	15.8441
650.015	25.0472
653.389	37.9921
656.764	56.3734
660.139	86.5485
663.514	110.715
666.889	95.4349
670.264	61.2273
673.638	35.7368
677.013	20.3181
680.388	11.1047
683.763	5.64635
687.138	2.93369
690.513	1.06947
693.887	0.79174
697.262	0.344395
700.637	0.605709
704.012	0.264652
707.386	0.880543
710.761	0.096119
714.136	0.834614
717.511	0.774113
720.886	1.19056
724.261	0.056011
727.635	1.20857
731.01	0.48518
734.385	1.10166
737.76	3.90584
741.135	5.76422
744.51	8.90885
747.884	15.9279
751.259	26.9545
754.634	41.3897
758.009	63.0835
761.384	91.2039
764.758	115.899
768.133	109.876
771.508	70.8432
774.883	40.9361
778.258	25.9876
781.632	17.0052
785.007	12.4885
788.382	9.14654
791.757	7.71597
795.132	5.20665
798.506	2.9438
801.881	2.86161
805.256	1.76357
808.631	1.48775
812.006	1.52883
815.381	0.806141
818.755	0.713566
822.13	0.015701
825.505	0.594044
828.88	0.012268
832.255	0.120277
835.63	0.456747
839.004	0.839766
842.379	0.830503
845.754	0.374109
849.129	1.11214
852.504	2.08617
855.878	1.36773
859.253	1.16092
862.628	1.16732
866.003	0.732887
869.378	0.873512
872.752	0.560118
876.127	0.548447
879.502	0.487762
882.877	0.770823
886.252	0.146044
889.626	0.550236
893.001	0.875771
896.376	0.231962
899.751	0.324093
903.126	0.432503
906.5	0.876238
909.875	0.638557
913.25	0.667803
916.625	0.23176
920	0.175232
923.375	0.420034
926.75	0.217941
930.124	0.659157
933.499	1.29411
936.874	0.646236
940.249	0.636106
943.624	0.356382
946.998	0.343805
950.373	0.19681
953.748	0.823555
957.123	1.09014
960.498	0.725233
963.872	0.605021
967.247	0.750496
970.622	1.69276
973.997	1.49693
977.372	1.28997
980.746	0.976814
984.121	1.21732
987.496	0.911242
990.871	0.423174
994.246	1.86912
997.62	0.481602
1001	1.26348
1004.37	1.36681
1007.75	0.708759
1011.12	1.06196
1014.5	2.23148
1017.87	1.31191
1021.24	0.829538
1024.62	0.247816
1027.99	1.15403
1031.37	0.115496
1034.74	1.7327
1038.12	0.223806
1041.49	1.04639
1044.87	0.110458
1048.24	1.93832
1051.62	1.47158
1054.99	0.559034
1058.37	0.611767
1061.74	0.97793
1065.12	0.247349
1068.49	1.2084
1071.87	1.61831
1075.24	0.24711
1078.62	1.03322
1081.99	0.029449
1085.37	1.03105
1088.74	1.10306
1092.12	1.44337
1095.49	0.711184
1098.87	0.320261
1102.24	0.462267
1105.62	0.325821
1108.99	1.13538
1112.36	0.750975
1115.74	0.40572
1119.11	0.528288
1122.49	0.414196
1125.86	0.439642
1129.24	0.487541
1132.61	0.958633
1135.99	0.53273
1139.36	0.84165
1142.74	0.9559
1146.11	0.240404
1149.49	0.948101
1152.86	1.0521
1156.24	0.665945
1159.61	0.334423
1162.99	0.825859
1166.36	1.2467
1169.74	0.901186
1173.11	1.26055
1176.49	1.24721
1179.86	0.968142
1183.23	0.502092
1186.61	1.19551
1189.98	1.94537
1193.36	1.79709
1196.73	1.782
1200.11	2.44286
1203.48	1.7094
1206.86	2.0539
1210.23	2.8613
1213.61	1.11613
1216.98	2.28464
1220.36	1.64557
1223.73	0.819635
1227.11	0.355185
1230.48	2.00832
1233.86	1.25652
1237.23	0.14394
1240.61	0.120951
1243.98	0.009184
1247.36	0.368462
1250.73	1.12555
1254.11	3.12695
1257.48	2.13572
1260.86	2.25997
1264.23	2.70582
1267.61	1.01951
1270.98	0.38414
1274.36	0.598171
1277.73	0.933872
1281.11	0.592152
1284.48	0.005098
