Measurement: Raman, 780 nm, unoriented, Raman Data Processed
Mineral: Spinel
Rruff sample: R050411
Ideal chemistry: MgAl_2_O_4_
Locality: Mogok, Burma
Source: Marcus Origlieri
Description: Pale pink gemstone
Measured chemistry: Mg_0.93_Al_2.04_O_4_
Raman shift (cm-1)	intensity
142.664	0
145.556	1.10248
148.449	0.474228
151.342	1.27776
154.234	1.8027
157.127	0.481552
160.02	1.10873
162.912	1.30177
165.805	1.95525
168.698	2.23296
171.591	1.02215
174.483	0.801895
177.376	0.722511
180.269	1.39745
183.161	1.08475
186.054	4.18921
188.947	4.11031
191.839	0.039993
194.732	0.632858
197.625	2.3512
200.518	1.17767
203.41	1.25102
206.303	2.42838
209.196	0.983284
212.088	2.1023
214.981	1.81866
217.874	2.75649
220.766	3.37076
223.659	3.68751
226.552	3.26016
229.445	3.05033
232.337	2.6348
235.23	1.71967
238.123	1.48284
241.015	1.29182
243.908	0.726326
246.801	0.481247
249.694	0.611168
252.586	0.870102
255.479	0.300842
258.372	0.646469
261.264	1.10422
264.157	0.089478
267.05	0.589905
269.942	0.035271
272.835	0.197701
275.728	0.623047
278.62	0.353096
281.513	1.59401
284.406	3.00455
287.299	3.31026
290.191	4.14356
293.084	6.21967
295.977	6.05783
298.869	8.20578
301.762	9.91193
304.655	14.6909
307.548	18.4014
310.44	27.1298
313.333	34.4084
316.226	18.0995
319.118	4.4301
322.011	3.06098
324.904	1.01903
327.796	0.052368
330.689	0.082939
333.582	0.922455
336.474	1.8373
339.367	0.717651
342.26	0.695335
345.152	1.82005
348.045	3.22882
350.938	5.90724
353.831	8.94479
356.723	12.775
359.616	15.8293
362.509	19.0744
365.401	23.854
368.294	28.1537
371.187	31.9426
374.079	40.0314
376.972	47.2757
379.865	60.6872
382.758	77.1926
385.65	110.49
388.543	169.35
391.436	243.463
394.328	317.685
397.221	427.794
400.114	596.749
403.007	865.382
405.899	1182.39
408.792	1139.16
411.685	638.161
414.577	306.14
417.47	165.646
420.363	98.2026
423.255	63.4124
426.148	42.6934
429.041	27.6313
431.933	18.6281
434.826	11.8778
437.719	7.36571
440.612	4.4371
443.504	1.76929
446.397	2.05674
449.29	0.624771
452.182	0.660316
455.075	0.822502
457.968	0.288071
460.861	0.433929
463.753	0.003632
466.646	1.2088
469.539	0.161903
472.431	0.483719
475.324	1.20768
478.217	1.41801
481.109	2.19917
484.002	0.940346
486.895	0.823906
489.788	0.80249
492.68	1.14294
495.573	0.467087
498.466	0.908844
501.358	0.610497
504.251	0.230461
507.144	0.134415
510.036	0.196602
512.929	0.956398
515.822	2.48817
518.715	2.29468
521.607	2.72338
524.5	2.78445
527.393	3.13786
530.285	2.06976
533.178	2.79706
536.071	2.06057
538.963	1.39782
541.856	1.27867
544.749	1.16703
547.641	1.31446
550.534	1.18041
553.427	1.28223
556.32	1.21426
559.212	1.68278
562.105	0.487251
564.998	0.847626
567.89	0.907562
570.783	0.792114
573.676	1.80677
576.568	0.634239
579.461	0.643265
582.354	0.683235
585.247	1.43226
588.139	1.00568
591.032	0.528313
593.925	1.10665
596.817	1.37898
599.71	0.927181
602.603	0.146172
605.495	1.30066
608.388	0.96917
611.281	1.9557
614.174	1.70453
617.066	1.87747
619.959	1.00429
622.852	1.85766
625.744	0.541248
628.637	0.196701
631.53	0.831993
634.423	1.53945
637.315	1.33749
640.208	5.10519
643.101	4.50711
645.993	8.09416
648.886	12.565
651.779	18.6853
654.671	25.4073
657.564	37.8757
660.457	51.4323
663.35	65.2266
666.242	70.6169
669.135	57.6906
672.028	41.1505
674.92	28.6158
677.813	17.0438
680.706	11.5101
683.598	5.97053
686.491	2.89149
689.384	1.07554
692.277	0.376289
695.169	0.400913
698.062	0.698372
700.955	0.784626
703.847	0.299198
706.74	0.925896
709.633	0.20105
712.525	2.67681
715.418	2.16503
718.311	3.4212
721.203	4.31382
724.096	2.72869
726.989	3.25531
729.882	1.67372
732.774	2.40988
735.667	1.88444
738.56	3.42572
741.452	5.78533
744.345	8.91189
747.238	11.5326
750.13	19.6332
753.023	30.9622
755.916	44.1853
758.809	64.4826
761.701	90.557
764.594	118.904
767.487	132.857
770.379	112.476
773.272	73.0087
776.165	43.9534
779.058	28.2739
781.95	18.415
784.843	13.9262
787.736	9.12447
790.628	8.12953
793.521	5.64034
796.414	3.602
799.306	3.96432
802.199	2.68078
805.092	2.90455
807.985	1.08397
810.877	0.626976
813.77	1.599
816.663	0.009369
819.555	0.095608
822.448	0.026676
825.341	0.227386
828.233	0.676029
831.126	0.127426
834.019	0.011112
836.912	0.196285
839.804	0.199516
842.697	0.872711
845.59	1.16481
848.482	0.709438
851.375	0.361214
854.268	1.60795
857.16	1.58536
860.053	1.45458
862.946	0.045612
865.838	1.58156
868.731	0.830025
871.624	0.853424
874.517	1.54042
877.409	1.02579
880.302	0.648956
883.195	0.445511
886.087	0.592758
888.98	0.771873
891.873	0.710991
894.765	1.26009
897.658	0.701042
900.551	0.818691
903.444	0.445385
906.336	0.443878
909.229	0.229271
912.122	0.35804
915.014	0.048927
917.907	1.50228
920.8	0.625725
923.692	0.387257
926.585	0.918865
929.478	0.044956
932.37	0.237385
935.263	0.729115
938.156	0.235783
941.049	0.191437
943.941	1.06736
946.834	1.49214
949.727	2.40822
952.619	0.498226
955.512	1.4314
958.405	1.87098
961.298	0.578373
964.19	0.448658
967.083	0.568192
969.976	0.374527
972.868	1.5513
975.761	1.37873
978.654	0.340954
981.546	1.16537
984.439	0.884521
987.332	1.67273
990.225	0.64859
993.117	0.217381
996.01	0.533234
998.903	1.17992
1001.79	1.12404
1004.69	1.75456
1007.58	1.01051
1010.47	0.434204
1013.37	1.4776
1016.26	0.32523
1019.15	0.501308
1022.04	0.741894
1024.94	1.90044
1027.83	1.99229
1030.72	1.35945
1033.62	0.484966
1036.51	1.64837
1039.4	1.7741
1042.29	1.54115
1045.19	0.893757
1048.08	0.828033
1050.97	1.4497
1053.86	0.63493
1056.76	0.107811
1059.65	1.39054
1062.54	0.843788
1065.43	1.58081
1068.33	1.04512
1071.22	0.190914
1074.11	1.21801
1077.01	1.51336
1079.9	0.759699
1082.79	0.396261
1085.68	0.938171
1088.58	1.34276
1091.47	0.42214
1094.36	0.390585
1097.25	1.34458
1100.15	0.513786
1103.04	0.407188
1105.93	0.872612
1108.83	0.262154
1111.72	0.321545
1114.61	0.94948
1117.5	0.785967
1120.4	3.45358
1123.29	0.108006
1126.18	0.325766
1129.07	0.515577
1131.97	0.120241
1134.86	0.992956
1137.75	0.75773
1140.64	1.30153
1143.54	0.551168
1146.43	0.531715
1149.32	1.50039
1152.22	0.932659
1155.11	0.299276
1158	0.990473
1160.89	0.51333
1163.79	0.905178
1166.68	1.5597
1169.57	1.0538
1172.46	0.725241
1175.36	0.894249
1178.25	0.824556
1181.14	2.78736
1184.04	0.800209
1186.93	0.603527
1189.82	1.49071
1192.71	0.99884
1195.61	1.66198
1198.5	2.54896
1201.39	2.68411
1204.28	1.58619
1207.18	1.70388
1210.07	2.18377
1212.96	1.88573
1215.86	0.993315
1218.75	1.36287
1221.64	1.5803
1224.53	1.67934
1227.43	0.461103
1230.32	0.804729
1233.21	0.37529
1236.1	0.093988
1239	0.167883
1241.89	0.190784
1244.78	0.138346
1247.67	0.560078
1250.57	1.17865
1253.46	1.45386
1256.35	1.47336
1259.25	1.21416
1262.14	0.965538
1265.03	2.01117
1267.92	0.008257
1270.82	0.222834
1273.71	1.11385
1276.6	1.33198
