Measurement: Raman, 532 nm, unoriented, Raman Data Processed
Mineral: Spinel
Rruff sample: R060799
Ideal chemistry: MgAl_2_O_4_
Locality: Aliabad, Hunza Valley, Pakistan
Source: Marcus Origlieri
Description: A group of blue distorted octahedra
Measured chemistry: (Mg_0.97_Fe^2+^_0.03_)_1.00_Al_2.00_O_4_
Raman shift (cm-1)	intensity
140.321	0
143.696	6.13208
147.071	5.24623
150.446	0.540863
153.82	2.78557
157.195	1.92322
160.57	2.59235
163.945	3.21426
167.32	0.067245
170.694	0.192474
174.069	1.26338
177.444	0.704468
180.819	1.27258
184.194	3.16621
187.569	3.53783
190.943	1.69003
194.318	2.11469
197.693	5.31323
201.068	5.1217
204.443	5.54558
207.817	2.075
211.192	3.74879
214.567	2.73267
217.942	4.35597
221.317	2.33824
224.691	2.49809
228.066	0.21846
231.441	2.53648
234.816	0.903748
238.191	1.77451
241.566	0.6465
244.94	1.66209
248.315	0.957504
251.69	0.503387
255.065	2.0412
258.44	1.78584
261.815	2.21152
265.189	3.44414
268.564	4.74483
271.939	0.940094
275.314	3.43457
278.688	2.52411
282.063	4.36751
285.438	4.4595
288.813	6.26845
292.188	8.3392
295.563	12.9492
298.937	21.6014
302.312	30.8943
305.687	45.4287
309.062	73.9584
312.437	113.862
315.812	75.3107
319.186	26.9449
322.561	11.0643
325.936	4.94727
329.311	2.88621
332.686	0.049927
336.06	1.83954
339.435	0.331955
342.81	0.572601
346.185	0.830856
349.56	2.0612
352.935	3.70148
356.309	4.79854
359.684	7.88802
363.059	7.56894
366.434	11.1562
369.809	16.0198
373.183	20.263
376.558	23.4564
379.933	33.4452
383.308	47.1616
386.683	73.642
390.058	141.776
393.432	249.568
396.807	370.837
400.182	596.441
403.557	1039.88
406.932	1465.01
410.306	701.125
413.681	228.28
417.056	99.73
420.431	52.2916
423.806	31.0388
427.18	17.9107
430.555	11.3585
433.93	5.40216
437.305	3.5054
440.68	0.211563
444.055	0.53624
447.429	0.515137
450.804	2.11646
454.179	1.57439
457.554	0.95961
460.929	0.382843
464.303	0.257233
467.678	1.299
471.053	0.124191
474.428	2.72237
477.803	2.05922
481.178	2.32584
484.552	3.0679
487.927	1.05165
491.302	1.91576
494.677	0.516556
498.052	1.01904
501.426	0.276917
504.801	0.14299
508.176	0.827499
511.551	1.24684
514.926	2.82086
518.301	3.05772
521.675	3.93572
525.05	4.36923
528.425	3.55518
531.8	1.76517
535.175	5.47968
538.549	1.73514
541.924	2.06824
545.299	1.79593
548.674	1.24171
552.049	2.63031
555.423	0.537979
558.798	1.03813
562.173	0.580063
565.548	0.70929
568.923	1.69215
572.298	2.31647
575.672	0.254929
579.047	0.000687
582.422	1.09462
585.797	0.184296
589.172	2.56168
592.547	2.75047
595.921	2.53098
599.296	4.35957
602.671	4.15436
606.046	4.49972
609.421	4.69679
612.795	3.57588
616.17	4.30652
619.545	4.3929
622.92	3.19209
626.295	5.39258
629.669	5.49155
633.044	5.9964
636.419	7.0166
639.794	11.2322
643.169	16.1341
646.544	25.3436
649.918	45.374
653.293	77.0158
656.668	128.344
660.043	197.094
663.418	262.292
666.793	253.169
670.167	174.074
673.542	102.244
676.917	58.9546
680.292	31.945
683.667	18.0924
687.041	10.1442
690.416	4.57544
693.791	1.3575
697.166	0.940002
700.541	0.050903
703.915	0.32225
707.29	0.452469
710.665	1.83759
714.04	0.631042
717.415	2.78445
720.79	1.10806
724.164	1.77148
727.539	0.72908
730.914	1.2722
734.289	1.29265
737.664	2.99008
741.038	8.3212
744.413	12.7764
747.788	22.9491
751.163	38.6271
754.538	66.2264
757.913	103.974
761.287	159.154
764.662	216.501
768.037	224.849
771.412	161.861
774.787	95.5405
778.161	59.3045
781.536	40.2766
784.911	26.4316
788.286	20.4939
791.661	16.0511
795.035	11.8228
798.41	8.30965
801.785	4.9357
805.16	5.05943
808.535	2.50757
811.91	2.91495
815.284	3.01511
818.659	2.37263
822.034	2.1877
825.409	0.484131
828.784	1.04506
832.159	0.144119
835.533	1.81477
838.908	0.700775
842.283	2.35211
845.658	0.935638
849.033	0.101715
852.407	2.03146
855.782	2.25348
859.157	3.29713
862.532	2.77815
865.907	3.13365
869.282	2.91562
872.656	4.58498
876.031	4.37802
879.406	3.16893
882.781	4.11958
886.156	2.9288
889.53	0.674347
892.905	1.92445
896.28	0.52327
899.655	1.54941
903.03	2.83942
906.404	0.91832
909.779	0.589996
913.154	0.03302
916.529	2.28642
919.904	1.90997
923.279	0.44101
926.653	1.42313
930.028	1.49483
933.403	0.248306
936.778	0.296082
940.153	1.0638
943.528	1.93948
946.902	0.58223
950.277	0.935684
953.652	1.15646
957.027	2.16966
960.402	0.619324
963.776	1.85533
967.151	1.91391
970.526	0.771713
973.901	1.90126
977.276	2.92555
980.65	2.74442
984.025	1.41278
987.4	0.891312
990.775	2.10623
994.15	1.26865
997.524	1.35123
1000.9	0.688721
1004.27	0.609329
1007.65	0.216904
1011.02	2.40778
1014.4	2.85411
1017.77	0.246475
1021.15	2.01105
1024.52	0.958542
1027.9	1.3244
1031.27	1.50796
1034.65	0.870163
1038.02	2.78212
1041.4	2.02419
1044.77	2.64413
1048.15	1.00496
1051.52	2.883
1054.9	2.09044
1058.27	3.32005
1061.65	0.455612
1065.02	1.43706
1068.4	0.586258
1071.77	2.47536
1075.14	1.22317
1078.52	2.22284
1081.89	1.28253
1085.27	3.80998
1088.64	0.301331
1092.02	1.37
1095.39	0.177185
1098.77	0.934067
1102.14	2.92252
1105.52	2.48962
1108.89	1.66205
1112.27	0.670563
1115.64	2.74185
1119.02	1.65338
1122.39	1.53992
1125.77	0.852264
1129.14	2.90088
1132.52	1.05994
1135.89	0.823853
1139.27	0.431549
1142.64	1.3136
1146.02	2.05719
1149.39	0.861176
1152.77	1.66541
1156.14	4.67816
1159.52	2.22061
1162.89	2.95447
1166.27	0.381775
1169.64	0.811035
1173.02	2.77478
1176.39	2.54919
1179.77	2.31216
1183.14	1.54568
1186.51	2.86862
1189.89	3.77551
1193.26	4.26862
1196.64	3.50162
1200.01	2.76285
1203.39	3.35065
1206.76	3.2363
1210.14	0.571991
1213.51	3.51572
1216.89	1.11606
1220.26	0.352905
1223.64	2.39136
1227.01	3.75601
1230.39	1.03671
1233.76	3.17783
1237.14	1.00937
1240.51	0.554016
1243.89	1.03186
1247.26	3.06162
1250.64	1.57806
1254.01	2.55566
1257.38	1.56888
1260.76	4.42615
1264.13	5.19067
1267.51	3.49573
1270.88	4.70584
1274.26	2.65421
1277.63	2.83926
1281.01	0.941101
1284.38	1.763
1287.76	0.379822
1291.13	3.17658
1294.51	4.50037
1297.88	1.43298
1301.26	4.62613
