Measurement: Raman, 780 nm, unoriented, Raman Data Processed
Mineral: Spinel
Rruff sample: R050259
Ideal chemistry: MgAl_2_O_4_
Locality: Mogok, Burma
Source: Marcus Origlieri
Description: Purple cut gemstone
Measured chemistry: (Mg_0.99_Zn_0.01_)_Σ=1_(Al_1.98_Fe^3+^_0.02_)_Σ=2_O_4_; trace amounts of Cr
Raman shift (cm-1)	intensity
152.455	0
155.348	0.230644
158.241	0.326429
161.133	0.498501
164.026	1.70972
166.919	0.022259
169.811	0.498831
172.704	0.497719
175.597	1.52245
178.49	1.39593
181.382	0.984335
184.275	0.600109
187.168	0.73941
190.06	0.235737
192.953	0.734978
195.846	0.395817
198.738	1.12567
201.631	0.555359
204.524	1.32462
207.417	0.633663
210.309	1.24681
213.202	1.08171
216.095	2.00744
218.987	1.15966
221.88	2.17638
224.773	2.29288
227.666	1.41689
230.558	1.41195
233.451	0.742405
236.344	0.86647
239.236	0.707865
242.129	1.35918
245.022	1.04662
247.914	1.19618
250.807	1.9872
253.7	0.318121
256.592	0.825348
259.485	0.93405
262.378	0.257292
265.271	0.531511
268.163	0.185711
271.056	1.08419
273.949	0.625731
276.841	1.11248
279.734	2.13917
282.627	2.30001
285.519	2.25809
288.412	2.2387
291.305	3.49202
294.198	5.77424
297.09	6.56349
299.983	8.42867
302.876	10.0634
305.768	11.737
308.661	15.666
311.554	16.5654
314.447	9.98972
317.339	5.09069
320.232	1.71416
323.125	2.3132
326.017	0.255701
328.91	0.193102
331.803	0.647474
334.695	0.207951
337.588	0.27421
340.481	0.157907
343.373	0.049881
346.266	0.889898
349.159	2.3529
352.052	2.53548
354.944	3.74064
357.837	4.13933
360.73	5.05523
363.622	6.34617
366.515	7.55268
369.408	8.64301
372.3	10.9116
375.193	13.373
378.086	16.5504
380.979	23.2639
383.871	32.3678
386.764	49.2053
389.657	74.7193
392.549	95.9937
395.442	119.922
398.335	156.05
401.228	206.31
404.12	265.005
407.013	264.19
409.906	167.285
412.798	84.2211
415.691	46.1114
418.584	27.2279
421.476	18.2323
424.369	11.6602
427.262	8.02754
430.154	4.63898
433.047	3.8628
435.94	3.15056
438.833	1.6495
441.725	1.09217
444.618	1.09079
447.511	0.977011
450.403	0.515718
453.296	0.104294
456.189	0.021564
459.082	0.066696
461.974	0.391502
464.867	0.753286
467.76	0.232679
470.652	0.364672
473.545	0.907412
476.438	1.70715
479.33	0.958427
482.223	0.176493
485.116	0.482929
488.009	0.091333
490.901	0.003725
493.794	0.177021
496.687	0.325413
499.579	0.744722
502.472	0.907738
505.365	0.018415
508.257	0.716796
511.15	0.274985
514.043	0.440531
516.936	1.30823
519.828	0.354117
522.721	0.842518
525.614	0.652411
528.506	0.817142
531.399	0.275164
534.292	1.21272
537.184	1.28168
540.077	1.2243
542.97	1.02395
545.862	1.16754
548.755	1.48697
551.648	0.77007
554.541	1.09174
557.433	0.620723
560.326	1.00594
563.219	0.301469
566.111	0.21312
569.004	0.303116
571.897	0.353652
574.789	1.01726
577.682	0.021902
580.575	0.488917
583.468	0.417887
586.36	1.02776
589.253	0.610276
592.146	0.120097
595.038	0.3001
597.931	1.25219
600.824	0.181929
603.716	0.323997
606.609	0.517326
609.502	0.744563
612.394	1.16065
615.287	0.621252
618.18	1.09805
621.073	0.700974
623.965	1.56203
626.858	1.72617
629.751	1.57072
632.643	0.898796
635.536	2.2871
638.429	2.32217
641.322	4.03723
644.214	5.23231
647.107	7.40569
650	11.1759
652.892	16.0726
655.785	19.8736
658.678	25.5077
661.57	31.3407
664.463	31.6187
667.356	27.0637
670.249	18.5013
673.141	12.7435
676.034	7.55374
678.927	5.13553
681.819	3.99328
684.712	1.90469
687.605	0.38273
690.497	0.053011
693.39	0.052011
696.283	0.373928
699.176	0.446865
702.068	0.24947
704.961	0.350698
707.854	0.769674
710.746	1.55105
713.639	0.895605
716.532	0.512808
719.424	1.06231
722.317	1.07507
725.21	0.68259
728.102	0.077669
730.995	0.008211
733.888	0.443138
736.781	0.720688
739.673	2.1779
742.566	3.0225
745.459	4.99402
748.351	8.40584
751.244	12.1634
754.137	17.322
757.029	23.5315
759.922	30.2669
762.815	37.2545
765.708	39.1895
768.6	33.3122
771.493	23.3271
774.386	14.6304
777.278	9.33941
780.171	7.19533
783.064	5.72832
785.957	3.14079
788.849	2.85453
791.742	2.48205
794.635	1.52794
797.527	2.06893
800.42	0.863268
803.313	0.701878
806.205	1.1439
809.098	0.410645
811.991	0.620039
814.884	0.496478
817.776	0.527255
820.669	0.777585
823.562	0.011752
826.454	0.695283
829.347	0.684497
832.24	0.364039
835.132	0.718869
838.025	1.12296
840.918	0.125541
843.811	0.546296
846.703	0.343429
849.596	1.03353
852.489	1.37635
855.381	1.70954
858.274	1.81253
861.167	0.226115
864.059	0.058261
866.952	0.983739
869.845	0.508868
872.737	1.08547
875.63	0.637457
878.523	0.153269
881.416	0.073199
884.308	0.018119
887.201	0.53863
890.094	0.421724
892.986	0.525805
895.879	0.754498
898.772	0.185656
901.665	0.282471
904.557	0.168701
907.45	0.228388
910.343	0.998931
913.235	0.913499
916.128	1.31294
919.021	0.726756
921.913	0.813342
924.806	0.063585
927.699	0.693661
930.591	0.834321
933.484	1.122
936.377	1.06597
939.27	0.296044
942.162	0.531824
945.055	0.323664
947.948	0.104622
950.84	0.92069
953.733	1.1835
956.626	0.807593
959.519	0.16871
962.411	1.41928
965.304	0.407822
968.197	0.934104
971.089	0.543994
973.982	1.07447
976.875	2.03558
979.767	0.902309
982.66	1.04682
985.553	0.528037
988.446	0.942303
991.338	0.310558
994.231	0.051323
997.124	0.915985
1000.02	0.353872
1002.91	1.15596
1005.8	0.846583
1008.69	0.281582
1011.59	0.29521
1014.48	1.65566
1017.37	0.654615
1020.26	0.434206
1023.16	1.56881
1026.05	0.688208
1028.94	0.284555
1031.84	0.884109
1034.73	0.447128
1037.62	0.549646
1040.51	0.827697
1043.41	0.049828
1046.3	0.969212
1049.19	0.88158
1052.09	0.201999
1054.98	0.513865
1057.87	1.93233
1060.76	1.07899
1063.66	0.560627
1066.55	0.577757
1069.44	0.069247
1072.33	0.450052
1075.23	0.405491
1078.12	0.626693
1081.01	0.223729
1083.9	1.14975
1086.8	0.324519
1089.69	1.13496
1092.58	0.599868
1095.47	0.314445
1098.37	0.693934
1101.26	0.741266
1104.15	0.593277
1107.05	0.168936
1109.94	0.124183
1112.83	1.16505
1115.72	0.541052
1118.62	1.44625
1121.51	0.453573
1124.4	0.844117
1127.3	0.496525
1130.19	1.27456
1133.08	0.101691
1135.97	0.493558
1138.87	0.137952
1141.76	1.11701
1144.65	0.216786
1147.54	0.839362
1150.44	0.685304
1153.33	0.993423
1156.22	0.983817
1159.12	0.446205
1162.01	0.012279
1164.9	0.624212
1167.79	0.663875
1170.69	0.947207
1173.58	0.475954
1176.47	0.130074
1179.36	0.616784
1182.26	0.272221
1185.15	1.18668
1188.04	1.12541
1190.93	0.867922
1193.83	0.423665
1196.72	1.22457
1199.61	1.36069
1202.51	0.490243
1205.4	0.77569
1208.29	0.851981
1211.18	0.876909
1214.08	0.569501
1216.97	0.871759
1219.86	0.444174
1222.75	0.421894
1225.65	0.472666
1228.54	1.29376
1231.43	0.725166
1234.33	0.453376
1237.22	0.605527
1240.11	0.04124
1243	0.088582
1245.9	0.295587
1248.79	1.263
1251.68	0.882857
1254.57	0.930023
1257.47	0.801226
1260.36	0.042498
1263.25	0.717263
1266.14	0.393187
1269.04	1.23508
1271.93	0.422331
1274.82	1.08249
1277.71	0.935095
1280.61	0.774687
1283.5	1.55944
1286.39	0
