Measurement: Raman, 514 nm, unoriented, Raman Data Processed
Mineral: Spinel
Rruff sample: R050259
Ideal chemistry: MgAl_2_O_4_
Locality: Mogok, Burma
Source: Marcus Origlieri
Description: Purple cut gemstone
Measured chemistry: (Mg_0.99_Zn_0.01_)_Σ=1_(Al_1.98_Fe^3+^_0.02_)_Σ=2_O_4_; trace amounts of Cr
Raman shift (cm-1)	intensity
278.784	0
282.89	135.84
286.993	14.893
291.095	361.045
295.195	710.787
299.292	372.738
303.388	156.139
307.481	703.168
311.573	1023.14
315.663	245.482
319.75	70.146
323.836	266.002
327.919	543.539
332.001	192.223
336.08	152.051
340.158	563.176
344.233	924.959
348.307	357.443
352.379	40.705
356.448	674.684
360.516	989.889
364.581	545.424
368.645	540.875
372.707	976.52
376.766	1062.39
380.824	1008.46
384.88	724.684
388.933	1181.99
392.985	2107.23
397.035	2743.92
401.083	5270.9
405.128	10668.2
409.172	8595.75
413.214	3153.62
417.254	1635.35
421.292	1104.75
425.328	1254.18
429.362	935.975
433.394	416.629
437.424	552.553
441.452	872.207
445.478	768.518
449.502	281.641
453.524	558.367
457.545	787.637
461.563	735.176
465.579	243.098
469.594	143.059
473.606	822.045
477.617	371.098
481.625	298.027
485.632	537.672
489.637	277.586
493.639	747.746
497.64	288.135
501.639	248.738
505.636	150.451
509.631	460.484
513.624	411.621
517.615	3.107
521.604	264.783
525.591	346.633
529.577	148.684
533.56	290.984
537.541	163.566
541.521	76.301
545.498	289.195
549.474	572.227
553.448	295.342
557.42	31.469
561.39	211.857
565.358	145.424
569.324	279.252
573.288	103.203
577.25	72.736
581.21	531.396
585.169	245.666
589.125	189.947
593.08	165.539
597.033	48.877
600.983	43.328
604.932	407.93
608.879	62.703
612.824	157.705
616.767	272.822
620.709	38.039
624.648	13.391
628.586	168.828
632.521	204.361
636.455	399.996
640.387	175.756
644.316	171.645
648.244	387.635
652.171	313.148
656.095	569.312
660.017	885.555
663.938	1535.84
667.856	1492.5
671.773	1279.64
675.688	701.188
679.601	628.988
683.512	365.84
687.421	329.723
691.328	399.057
695.234	645.861
699.137	323.232
703.039	450.375
706.939	247.799
710.837	402.957
714.733	439.545
718.627	204.6
722.519	341.975
726.41	258.355
730.299	336.502
734.185	541.789
738.07	359.623
741.953	319.422
745.834	489.705
749.714	570.402
753.591	620.914
757.467	1128.87
761.341	1296.48
765.213	2378.02
769.083	2394.67
772.951	1509.56
776.817	837.205
780.682	483.557
784.545	468.742
788.405	325.025
792.264	462.318
796.122	418.783
799.977	296.541
803.83	112.721
807.682	188.877
811.532	135.135
815.38	141.291
819.226	37.346
823.07	4.223
826.913	58.4
830.754	67.053
834.592	183.055
838.429	11.406
842.265	46.217
846.098	248.646
849.93	103.117
853.759	97.367
857.587	211.57
861.413	55.1
865.238	149.432
869.06	73.262
872.881	76.711
876.7	320.027
880.517	123.074
884.332	125.639
888.145	57.938
891.957	40.016
895.767	51.455
899.575	283.326
903.381	204.416
907.185	245.158
910.988	65.959
914.788	146.258
918.587	347.391
922.385	177.205
926.18	417.264
929.974	297.201
933.765	146.68
937.555	146.385
941.344	457.293
945.13	446.91
948.915	417.121
952.697	316.104
956.478	215.225
960.258	183.645
964.035	281.576
967.811	559.92
971.585	358.336
975.357	364.713
979.127	288.529
982.896	115.822
986.663	211.566
990.428	177.059
994.191	296.223
997.952	454.93
1001.71	232.484
1005.47	68.018
1009.23	241.104
1012.98	128.113
1016.73	393.398
1020.48	548.631
1024.23	228.676
1027.98	106.059
1031.73	150.254
1035.47	352.869
1039.21	415.238
1042.95	614.082
1046.69	556.645
1050.43	418.678
1054.16	340.688
1057.9	200.74
1061.63	541.732
1065.36	382.312
1069.09	488.811
1072.81	509.609
1076.54	290.156
1080.26	349.096
1083.98	219.92
1087.7	59.697
1091.42	258.744
1095.13	446.369
1098.85	504.381
1102.56	550.287
1106.27	247.521
1109.98	264.604
1113.69	131.482
1117.39	268.32
1121.1	394.695
1124.8	560.449
1128.5	565.207
1132.19	199.918
1135.89	11.248
1139.59	144.395
1143.28	88.539
1146.97	125.268
1150.66	390.892
1154.35	314.611
1158.04	439.725
1161.72	156.113
1165.4	35.872
1169.09	19.434
1172.77	75.165
1176.44	417.332
1180.12	498.893
1183.79	558.644
1187.46	405.497
1191.14	272.282
1194.81	32.441
1198.47	138.188
1202.14	269.721
1205.8	467.217
1209.47	611.486
1213.13	614.554
1216.79	475.921
1220.44	328.663
1224.1	229.683
1227.75	139.826
1231.4	309.057
1235.06	506.436
1238.7	593.894
1242.35	742.371
1246	537.312
1249.64	472.992
1253.28	248.529
1256.92	123.536
1260.56	187.827
1264.2	232.626
1267.83	404.158
1271.47	595.342
1275.1	625.623
1278.73	705.077
1282.36	265.812
1285.98	72.588
1289.61	22.795
1293.23	13.097
1296.86	69.091
1300.47	363.359
1304.09	359.717
1307.71	499.046
1311.33	238.79
1314.94	127.041
1318.55	4.495
1322.16	16.37
1325.77	51.965
1329.38	20.24
1332.98	376.38
1336.59	411.966
1340.19	595.589
1343.79	520.186
1347.39	393.903
1350.98	207.202
1354.58	228.693
1358.17	100.513
1361.76	81.784
1365.35	391.865
1368.94	381.181
1372.53	659.909
1376.11	787.945
1379.7	737.31
1383.28	654.187
1386.86	357.422
1390.44	235.694
1394.02	31.802
1397.59	125.557
1401.16	226.626
1404.74	400.018
1408.31	650.611
1411.88	771.82
1415.44	713.641
1419.01	818.524
1422.57	579.935
1426.13	473.69
1429.69	160.277
1433.25	85.964
1436.81	4.439
1440.37	279.184
1443.92	508.277
1447.47	624.15
1451.02	630.939
1454.57	887.322
1458.12	829.942
1461.67	640.905
1465.21	459.783
1468.75	296.693
1472.3	225.538
1475.84	105.71
1479.37	187.565
1482.91	242.018
1486.44	549.73
1489.98	659.511
1493.51	749.128
1497.04	596.837
1500.57	777.515
1504.09	538.329
1507.62	348.284
1511.14	103.238
1514.66	75.385
1518.18	10.966
1521.7	31.245
1525.22	0
