Measurement: Raman, 532 nm, unoriented, Raman Data Processed
Mineral: Spinel
Rruff sample: R100133
Ideal chemistry: MgAl_2_O_4_
Locality: Sri Lanka
Source: William W. Pinch
Description: Blue and red cut gemstones. The bottom red stone is the one that was studied.
Raman shift (cm-1)	intensity
178.237	0
181.13	3.73077
184.023	7.80689
186.916	1.88007
189.808	4.61993
192.701	1.49622
195.594	9.85797
198.486	15.6299
201.379	9.57135
204.272	4.43133
207.164	8.13794
210.057	15.9213
212.95	11.0845
215.843	20.895
218.735	12.5651
221.628	18.1171
224.521	11.0687
227.413	11.455
230.306	10.4198
233.199	8.92841
236.091	5.72607
238.984	3.8291
241.877	4.71161
244.769	2.56989
247.662	0.583679
250.555	4.91809
253.448	3.99554
256.34	3.43567
259.233	1.92767
262.126	3.63495
265.018	1.05817
267.911	0.340393
270.804	3.21967
273.697	5.08002
276.589	3.86108
279.482	4.6557
282.375	7.16736
285.267	7.16425
288.16	6.33258
291.053	8.83313
293.945	16.4884
296.838	23.8201
299.731	34.4895
302.623	36.0488
305.516	45.313
308.409	55.27
311.302	73.3094
314.194	66.3868
317.087	34.2221
319.98	18.9512
322.872	11.2722
325.765	2.95575
328.658	1.3537
331.55	5.9917
334.443	1.60083
337.336	1.09393
340.229	0.337585
343.121	2.38879
346.014	1.49542
348.907	8.6181
351.799	12.5246
354.692	18.1146
357.585	25.7561
360.478	30.849
363.37	41.0364
366.263	51.5055
369.156	56.783
372.048	70.9774
374.941	77.3983
377.834	98.8845
380.726	131.977
383.619	177.848
386.512	258.995
389.404	428.122
392.297	706.033
395.19	992.852
398.083	1354.91
400.975	1957.3
403.868	2736.52
406.761	3086.5
409.653	1989.27
412.546	907.353
415.439	447.844
418.332	253.77
421.224	156.805
424.117	100.23
427.01	63.4846
429.902	46.0914
432.795	26.9123
435.688	15.5362
438.58	9.54602
441.473	5.33575
444.366	3.56958
447.259	6.20459
450.151	7.96899
453.044	0.237061
455.937	0.47821
458.829	4.05011
461.722	2.75501
464.615	1.0531
467.507	1.12353
470.4	1.40778
473.293	2.44501
476.185	4.25134
479.078	6.37366
481.971	4.85608
484.864	7.26703
487.756	10.271
490.649	8.16614
493.542	5.87604
496.434	1.08118
499.327	0.317322
502.22	2.15668
505.113	2.22229
508.005	1.80426
510.898	4.26959
513.791	2.19305
516.683	0.177002
519.576	1.66913
522.469	4.26917
525.361	8.66693
528.254	12.6665
531.147	12.0543
534.04	11.6215
536.932	12.1207
539.825	13.0553
542.718	11.5798
545.61	18.0712
548.503	17.0543
551.396	18.8306
554.288	15.1692
557.181	12.3256
560.074	11.0621
562.967	12.8983
565.859	5.43292
568.752	5.84271
571.645	4.79761
574.537	2.62732
577.43	3.37067
580.323	6.46411
583.216	2.69147
586.108	2.57208
589.001	6.24573
591.894	13.8645
594.786	9.31421
597.679	14.5159
600.572	13.724
603.464	5.79224
606.357	7.06561
609.25	10.4133
612.142	9.93073
615.035	6.34924
617.928	4.46021
620.821	2.0061
623.713	3.3335
626.606	1.39435
629.499	0.35614
632.391	1.4566
635.284	3.96399
638.177	6.10022
641.069	12.9924
643.962	15.4243
646.855	25.573
649.747	41.807
652.64	65.2032
655.533	97.4458
658.426	134.029
661.318	162.559
664.211	179.736
667.104	151.975
669.996	115.139
672.889	78.0797
675.782	47.4865
678.674	29.2949
681.567	17.2974
684.46	8.27734
687.353	2.67645
690.245	2.43408
693.138	2.43823
696.031	1.81213
698.923	2.28882
701.816	6.31317
704.709	0.754211
707.601	7.27057
710.494	7.56366
713.387	6.93292
716.28	4.77564
719.172	0.777954
722.065	0.165466
724.958	1.5058
727.85	3.24585
730.743	2.18091
733.636	2.21551
736.529	6.36383
739.421	11.0692
742.314	20.708
745.207	32.7406
748.099	52.1324
750.992	75.8967
753.885	110.105
756.777	153.272
759.67	199.824
762.563	250.863
765.456	284.902
768.348	260.596
771.241	191.103
774.134	125.833
777.026	83.0828
779.919	63.554
782.812	45.6539
785.704	37.3773
788.597	28.4293
791.49	20.4932
794.383	23.602
797.275	15.5058
800.168	17.3758
803.061	15.901
805.953	20.2653
808.846	27.0605
811.739	32.7288
814.631	28.3788
817.524	14.7628
820.417	11.1799
823.309	11.9566
826.202	3.49432
829.095	5.38532
831.988	2.20593
834.88	6.09424
837.773	3.64337
840.666	1.3996
843.558	4.98767
846.451	3.94745
849.344	4.29962
852.236	2.98438
855.129	2.28333
858.022	2.01092
860.915	0.103271
863.807	6.93457
866.7	0.396362
869.593	2.36084
872.485	7.49432
875.378	5.39587
878.271	5.17963
881.163	2.466
884.056	7.26141
886.949	3.80328
889.842	3.02118
892.734	5.82489
895.627	7.67346
898.52	4.0321
901.412	2.80371
904.305	7.56238
907.198	4.88641
910.091	7.58148
912.983	6.2099
915.876	4.34058
918.769	7.55792
921.661	3.52447
924.554	7.48993
927.447	1.92883
930.339	0.357361
933.232	3.80646
936.125	3.565
939.018	1.27509
941.91	1.19257
944.803	1.38385
947.696	1.48377
950.588	4.80945
953.481	6.15582
956.374	3.66577
959.266	8.90601
962.159	3.71728
965.052	11.1429
967.944	9.73425
970.837	8.97699
973.73	7.32465
976.623	9.83881
979.515	9.86255
982.408	12.2652
985.301	8.04565
988.193	8.64441
991.086	10.2263
993.979	8.73694
996.871	4.79303
999.764	4.37707
1002.66	2.31793
1005.55	2.74927
1008.44	4.53607
1011.34	4.08911
1014.23	0.300659
1017.12	2.06116
1020.01	5.3194
1022.91	6.59229
1025.8	2.02539
1028.69	4.81683
1031.58	3.67047
1034.48	4.4834
1037.37	3.90936
1040.26	0.220764
1043.15	4.30328
1046.05	4.23669
1048.94	3.99579
1051.83	6.92468
1054.73	5.75092
1057.62	7.91125
1060.51	7.41901
1063.4	11.4176
1066.3	7.27667
1069.19	4.24322
1072.08	1.33899
1074.97	0.837463
1077.87	0.331543
1080.76	4.69
1083.65	4.23846
1086.55	2.84656
1089.44	3.74036
1092.33	0.653076
1095.22	7.91138
1098.12	5.64239
1101.01	9.80609
1103.9	9.47662
1106.79	3.85828
1109.69	7.01721
1112.58	10.2614
1115.47	10.8514
1118.37	3.4989
1121.26	11.2354
1124.15	3.05597
1127.04	8.44074
1129.94	2.42535
1132.83	2.36719
1135.72	1.28625
1138.61	11.6847
1141.51	2.23242
1144.4	2.88062
1147.29	7.85266
1150.18	7.51917
1153.08	7.24988
1155.97	5.24548
1158.86	5.26538
1161.76	3.44812
1164.65	5.15271
1167.54	0.801514
1170.43	1.92895
1173.33	3.77246
1176.22	7.51404
1179.11	5.9823
1182	8.01453
1184.9	14.7019
1187.79	10.9126
1190.68	11.2694
1193.58	10.4675
1196.47	6.69897
1199.36	10.3068
1202.25	12.4031
1205.15	8.85498
1208.04	11.0111
1210.93	15.4087
1213.82	11.9266
1216.72	7.3999
1219.61	5.32349
1222.5	9.08801
1225.39	4.94397
1228.29	9.39783
1231.18	2.09375
1234.07	4.18005
1236.97	0.901733
1239.86	4.27869
1242.75	2.96362
1245.64	3.06653
1248.54	2.96094
1251.43	5.96265
1254.32	8.20947
1257.21	7.58582
1260.11	9.8219
1263	13.5446
1265.89	13.9904
1268.79	12.3957
1271.68	5.16614
1274.57	4.09753
1277.46	9.11511
1280.36	3.41162
1283.25	5.97766
1286.14	2.76099
1289.03	7.13879
1291.93	5.64954
1294.82	1.14966
1297.71	8.67322
1300.61	3.02759
