Measurement: Raman, 780 nm, unoriented, Raman Data Processed
Mineral: Spinel
Rruff sample: R050392
Ideal chemistry: MgAl_2_O_4_
Locality: Mogok, Burma
Source: Eric Van Valkenburg
Description: Pink octahedron
Measured chemistry: Mg_1.00_Al_1.96_Cr_0.04_O_4_
Raman shift (cm-1)	intensity
102.943	0
106.318	6.1626
109.693	11.3928
113.068	2.83704
116.443	6.33814
119.817	5.81445
123.192	4.34326
126.567	6.08862
129.942	2.67004
133.317	3.41943
136.692	1.59851
140.066	6.40369
143.441	5.24731
146.816	2.19043
150.191	4.81055
153.566	3.66956
156.94	8.24719
160.315	1.30176
163.69	3.87878
167.065	3.88855
170.44	1.61939
173.815	10.043
177.189	7.9762
180.564	5.05811
183.939	7.29224
187.314	6.89441
190.689	8.30396
194.064	14.0121
197.438	14.0555
200.813	16.9656
204.188	15.684
207.563	14.2029
210.938	18.3439
214.312	18.725
217.687	13.6895
221.062	10.6769
224.437	14.8259
227.812	9.82873
231.186	4.2074
234.561	1.31006
237.936	2.44031
241.311	2.39746
244.686	0.447266
248.061	5.6803
251.435	5.27405
254.81	5.62183
258.185	3.66858
261.56	9.04919
264.935	4.30811
268.31	4.95532
271.684	7.61047
275.059	6.94409
278.434	9.5044
281.809	13.9303
285.184	14.9349
288.558	15.4133
291.933	12.6492
295.308	15.8658
298.683	20.7294
302.058	31.38
305.433	40.1985
308.807	59.8556
312.182	112.685
315.557	73.2956
318.932	20.4269
322.307	9.09985
325.682	8.7616
329.056	0.384094
332.431	0.050232
335.806	0.748535
339.181	1.72351
342.556	1.57098
345.93	1.3255
349.305	1.47217
352.68	5.21014
356.055	6.82165
359.43	7.13055
362.805	8.20618
366.179	12.7231
369.554	15.7308
372.929	16.4689
376.304	24.8708
379.679	29.3459
383.053	45.854
386.428	62.7243
389.803	98.8465
393.178	137.349
396.553	202.926
399.928	318.166
403.302	526.378
406.677	764.412
410.052	614.322
413.427	295.867
416.802	146.233
420.176	83.6381
423.551	52.4758
426.926	31.7136
430.301	21.8624
433.676	13.4546
437.05	5.32428
440.425	7.88953
443.8	0.392456
447.175	3.84088
450.55	0.167725
453.925	0.535156
457.299	1.56128
460.674	0.01886
464.049	7.01996
467.424	0.190002
470.799	3.92029
474.173	1.10425
477.548	3.74225
480.923	1.4881
484.298	2.56213
487.673	7.74921
491.048	3.36346
494.422	0.510376
497.797	4.90735
501.172	2.59741
504.547	1.81653
507.922	2.83331
511.296	1.72913
514.671	5.51019
518.046	3.10376
521.421	2.59625
524.796	4.15362
528.171	5.3609
531.545	6.17261
534.92	3.28876
538.295	4.03534
541.67	0.867859
545.045	5.80646
548.419	0.53302
551.794	1.37537
555.169	4.09039
558.544	4.80054
561.919	1.80554
565.294	0.901428
568.668	1.36054
572.043	0.815979
575.418	2.13287
578.793	1.229
582.168	3.60754
585.543	0.402893
588.917	2.08905
592.292	2.44629
595.667	3.47607
599.042	2.91174
602.417	0.760803
605.791	4.82196
609.166	3.02692
612.541	5.04572
615.916	6.2619
619.291	5.86426
622.665	9.87518
626.04	10.9067
629.415	10.5944
632.79	8.96967
636.165	9.38135
639.54	17.2631
642.914	17.6539
646.289	33.9029
649.664	45.1305
653.039	62.9891
656.414	96.4724
659.788	143.622
663.163	202.399
666.538	211.847
669.913	153.642
673.288	98.7192
676.663	58.4526
680.037	28.6774
683.412	18.556
686.787	6.5592
690.162	6.63324
693.537	0.274597
696.912	0.838501
700.286	1.11163
703.661	1.37994
707.036	2.22632
710.411	1.20795
713.786	3.89612
717.16	1.94617
720.535	3.97876
723.91	1.46649
727.285	3.2522
730.66	5.54919
734.034	1.88763
737.409	9.32544
740.784	12.8859
744.159	18.9058
747.534	30.4753
750.909	53.6889
754.283	76.4613
757.658	114.79
761.033	169.404
764.408	219.855
767.783	210.74
771.158	144.217
774.532	89.2838
777.907	52.2786
781.282	30.2024
784.657	26.6935
788.032	17.9129
791.406	12.7979
794.781	12.3283
798.156	9.70306
801.531	4.70325
804.906	2.36859
808.281	5.76605
811.655	0.724548
815.03	0.856934
818.405	1.86511
821.78	0.447815
825.155	1.21161
828.529	1.05664
831.904	2.64813
835.279	3.08948
838.654	1.21301
842.029	3.45407
845.404	1.40317
848.778	6.95172
852.153	0.267426
855.528	1.2746
858.903	2.6301
862.278	2.63861
865.653	0.908752
869.027	3.85059
872.402	1.43295
875.777	1.67722
879.152	2.33548
882.527	0.697784
885.901	2.01205
889.276	4.76141
892.651	6.3905
896.026	2.68008
899.401	6.51184
902.775	5.75839
906.15	4.45953
909.525	3.96262
912.9	8.95071
916.275	9.13473
919.65	4.88409
923.024	8.5589
926.399	8.3313
929.774	5.4776
933.149	9.91226
936.524	9.02869
939.899	5.47351
943.273	5.4072
946.648	2.74573
950.023	2.81271
953.398	2.08462
956.773	4.02332
960.147	1.62384
963.522	0.42276
966.897	1.85684
970.272	0.224762
973.647	4.4859
977.021	4.8941
980.396	3.05551
983.771	1.43643
987.146	0.971252
990.521	2.93857
993.896	5.85657
997.27	4.84647
1000.64	5.13562
1004.02	4.01062
1007.39	2.95166
1010.77	5.74414
1014.14	4.08423
1017.52	1.17252
1020.89	3.26599
1024.27	4.77615
1027.64	4.76032
1031.02	2.2825
1034.39	4.03207
1037.77	2.94809
1041.14	3.06085
1044.52	6.45004
1047.89	7.86722
1051.27	4.16858
1054.64	7.09964
1058.02	4.80481
1061.39	3.04068
1064.77	5.98154
1068.14	3.70856
1071.52	2.7619
1074.89	2.33548
1078.27	7.20847
1081.64	4.79852
1085.02	3.77249
1088.39	2.96997
1091.77	1.02118
1095.14	0.492401
1098.52	0.316864
1101.89	5.35489
1105.27	1.02942
1108.64	2.51837
1112.01	3.10812
1115.39	3.3428
1118.76	4.7066
1122.14	2.06085
1125.51	1.07346
1128.89	3.0061
1132.26	2.79144
1135.64	1.82333
1139.01	4.20474
1142.39	4.00452
1145.76	6.58533
1149.14	1.50208
1152.51	4.96835
1155.89	3.71435
1159.26	4.38873
1162.64	2.93646
1166.01	1.69031
1169.39	6.46118
1172.76	6.0332
1176.14	6.91257
1179.51	6.59784
1182.88	2.50876
1186.26	5.51117
1189.63	4.13791
1193.01	4.30383
1196.38	7.55792
1199.76	4.19873
1203.13	5.99487
1206.51	9.36356
1209.88	8.5809
1213.26	6.4953
1216.63	1.49295
1220.01	3.33475
1223.38	1.72406
1226.76	0.151337
1230.13	1.80264
1233.51	3.40173
1236.88	2.25604
1240.26	1.8407
1243.63	1.06317
1247.01	2.76096
1250.38	4.79562
1253.76	12.6591
1257.13	11.0513
1260.51	6.07748
1263.88	8.20242
1267.26	6.73557
1270.63	4.37482
1274.01	5.04483
1277.38	1.78982
1280.76	0.080658
1284.13	2.06143
