Measurement: Raman, 514 nm, unoriented, Raman Data Processed
Mineral: Spinel
Rruff sample: R050184
Ideal chemistry: MgAl_2_O_4_
Locality: Pein Pyit, Mogok, Burma
Source: Marcus Origlieri
Description: Red crystal in calcite, associated with yellowish-green clinohumite, R050183
Measured chemistry: Mg_1.00_(Al_1.99_Cr_0.01_)_Î£=2_O_4_; trace amounts of V
Raman shift (cm-1)	intensity
121.203	0
125.369	202.57
129.534	155.379
133.696	159.277
137.857	243.668
142.016	131.363
146.172	286.168
150.327	320.859
154.48	251.367
158.63	248.824
162.779	232.285
166.926	529.574
171.07	406.77
175.213	444.004
179.354	571.301
183.493	615.656
187.63	641.266
191.765	696.785
195.898	735.355
200.029	785.402
204.158	858.918
208.285	733.977
212.41	906.594
216.533	793.781
220.654	814.461
224.773	578.75
228.891	470.285
233.006	576.891
237.119	505.625
241.231	276.992
245.34	271.824
249.448	320.07
253.553	415.633
257.657	256.473
261.758	127.117
265.858	205.461
269.956	140.301
274.052	62.035
278.146	76.449
282.237	98.418
286.327	31.137
290.416	7.992
294.502	173.508
298.586	2.418
302.668	331.359
306.749	696.152
310.827	1201.25
314.903	345.145
318.978	203.785
323.051	136.129
327.121	120.051
331.19	8.281
335.257	90.035
339.322	157.902
343.385	93.996
347.446	155.359
351.505	252.238
355.563	270.016
359.618	501.641
363.672	478.316
367.723	775.711
371.773	848.391
375.821	931.504
379.866	1174.05
383.91	1464.66
387.952	2135.41
391.992	3232.11
396.031	5725.98
400.067	11647.8
404.101	19653.8
408.134	18150.8
412.165	9467.72
416.193	4682.65
420.22	2466.66
424.245	1667.39
428.268	1085.41
432.289	857.906
436.309	726.789
440.326	412.168
444.342	278.289
448.355	297.293
452.367	230.969
456.377	80.016
460.385	62.336
464.391	53.262
468.395	93.84
472.398	48.234
476.398	44.676
480.397	247.461
484.394	242.621
488.389	234.168
492.382	173.098
496.373	47.246
500.362	86.887
504.349	35.801
508.335	156.113
512.319	15.902
516.3	11.648
520.28	48.23
524.259	49.785
528.235	193.055
532.209	85.973
536.182	155.719
540.152	191.953
544.121	48.562
548.088	170.77
552.053	79.895
556.017	98.961
559.978	271.027
563.938	119.148
567.895	444.168
571.851	267.68
575.805	338.246
579.758	316.012
583.708	500.965
587.657	389.18
591.603	320.629
595.548	320.727
599.491	530.906
603.432	465.031
607.372	406.648
611.309	513.66
615.245	758.055
619.179	449.352
623.111	766.246
627.041	745.086
630.97	793.602
634.896	727.082
638.821	552.793
642.744	753.758
646.665	1157.08
650.584	1354
654.502	1735.32
658.418	3038.78
662.331	3954.11
666.244	4115.73
670.154	3116.32
674.062	2195.85
677.969	1487.72
681.874	966.957
685.777	634.586
689.678	585.879
693.577	465.422
697.475	513.719
701.371	554.676
705.265	739.07
709.157	959.18
713.047	1032.15
716.936	1021.81
720.823	1181.12
724.708	708.852
728.591	686.848
732.472	952.074
736.352	839.516
740.23	1083.16
744.106	1150.01
747.98	1439.03
751.853	2288.22
755.723	3373.56
759.592	5245.03
763.459	7273.62
767.325	7199.31
771.188	5169.09
775.05	3483.09
778.91	2505.94
782.768	1828.97
786.625	1639.02
790.479	1321.75
794.332	1338.13
798.183	1193.14
802.033	1070.12
805.88	925.023
809.726	878.5
813.57	903.625
817.413	903.359
821.253	921.062
825.092	789.988
828.929	402.801
832.764	623.441
836.598	506.707
840.429	672.945
844.259	429.082
848.088	768.117
851.914	658.281
855.739	660.152
859.562	615.094
863.383	420.688
867.203	457.277
871.02	393.504
874.836	557.359
878.65	589.875
882.463	697.156
886.274	649.793
890.083	452.773
893.89	526.082
897.695	399.688
901.499	439.566
905.301	471.719
909.102	667.195
912.9	629.918
916.697	338.883
920.492	283.102
924.285	368.465
928.077	398.926
931.867	394.465
935.655	417.051
939.442	261.668
943.226	324.293
947.009	242.902
950.791	223.477
954.57	300.988
958.348	437.406
962.124	30.336
965.899	20.504
969.671	169.027
973.442	18.512
977.211	67.148
980.979	253.516
984.745	83.492
988.509	134.098
992.271	29.73
996.032	55.184
999.791	250.531
1003.55	17.305
1007.3	55.73
1011.06	118.492
1014.81	82.098
1018.56	150.922
1022.31	60.262
1026.06	35.891
1029.8	608.566
1033.55	584.047
1037.29	797.141
1041.03	1194.99
1044.77	1057.03
1048.5	1195.04
1052.24	1190.02
1055.97	1298.75
1059.7	1260.13
1063.43	1382.09
1067.16	1194.88
1070.89	1098.21
1074.61	1045.56
1078.34	1386.26
1082.06	1269.35
1085.78	1123.42
1089.5	1191.57
1093.21	1465.41
1096.93	1036.02
1100.64	1343.04
1104.35	936.152
1108.06	1004.84
1111.77	1149.27
1115.48	1056.12
1119.18	1028.65
1122.89	1013.94
1126.59	823.547
1130.29	1090.44
1133.99	844.938
1137.68	980.883
1141.38	939.188
1145.07	775.488
1148.76	595.957
1152.45	577.699
1156.14	707.676
1159.83	565.855
1163.51	499.305
1167.19	265.832
1170.88	473.215
1174.56	321.504
1178.23	107.652
1181.91	340.465
1185.59	403.77
1189.26	509.473
1192.93	110.898
1196.6	299.035
1200.27	375.848
1203.94	110.719
1207.6	281.391
1211.27	66.715
1214.93	352.137
1218.59	373.027
1222.25	222.16
1225.9	381.395
1229.56	244.879
1233.21	150.719
1236.86	194.871
1240.51	336.004
1244.16	243.207
1247.81	322.926
1251.45	313.07
1255.1	228.391
1258.74	116.109
1262.38	145.617
1266.02	300.203
1269.66	194.98
1273.29	317.77
1276.93	117.086
1280.56	159.602
1284.19	45.762
1287.82	63.789
1291.45	176.777
1295.07	236.781
1298.7	13.172
1302.32	0
