Measurement: Raman, 780 nm, unoriented, Raman Data Processed
Mineral: Spinel
Rruff sample: R050184
Ideal chemistry: MgAl_2_O_4_
Locality: Pein Pyit, Mogok, Burma
Source: Marcus Origlieri
Description: Red crystal in calcite, associated with yellowish-green clinohumite, R050183
Measured chemistry: Mg_1.00_(Al_1.99_Cr_0.01_)_Î£=2_O_4_; trace amounts of V
Raman shift (cm-1)	intensity
145.034	0
147.927	0.129112
150.82	0.579346
153.713	0.983749
156.605	0.186272
159.498	0.669701
162.391	0.359512
165.283	0.359566
168.176	1.42622
171.069	0.915085
173.961	1.29778
176.854	1.01665
179.747	0.82061
182.639	0.808571
185.532	1.02143
188.425	1.33712
191.318	1.7923
194.21	2.34969
197.103	1.4946
199.996	2.03358
202.888	1.81065
205.781	2.13544
208.674	2.66465
211.566	2.52089
214.459	2.37206
217.352	2.66959
220.245	3.45744
223.137	3.14668
226.03	2.12755
228.923	1.1253
231.815	0.305908
234.708	0.300163
237.601	0.21714
240.494	0.023766
243.386	0.145882
246.279	0.580338
249.172	0.845474
252.064	0.780983
254.957	0.827026
257.85	0.866058
260.742	0.390755
263.635	0.93927
266.528	0.910637
269.42	1.09474
272.313	0.386909
275.206	0.906914
278.099	1.72547
280.991	2.73861
283.884	3.87719
286.777	4.25465
289.669	5.22154
292.562	7.12598
295.455	8.42281
298.347	9.89294
301.24	12.4157
304.133	16.0225
307.026	23.2926
309.918	37.1389
312.811	35.546
315.704	14.288
318.596	5.83626
321.489	3.21045
324.382	0.895226
327.274	0.36644
330.167	0.188301
333.06	0.089348
335.952	0.586777
338.845	0.219353
341.738	0.249939
344.631	0.27459
347.523	0.914879
350.416	1.57962
353.309	3.52404
356.201	4.25377
359.094	4.59872
361.987	5.84213
364.88	7.4235
367.772	8.47604
370.665	9.91159
373.558	11.6866
376.45	15.2995
379.343	18.6299
382.236	25.3625
385.128	35.8398
388.021	50.071
390.914	65.445
393.807	83.9869
396.699	111.603
399.592	155.42
402.485	217.447
405.377	275.211
408.27	241.717
411.163	143.997
414.055	79.5342
416.948	47.0872
419.841	29.73
422.733	20.0263
425.626	13.5317
428.519	9.25282
431.412	6.24372
434.304	3.78194
437.197	3.13083
440.09	1.62097
442.982	1.4026
445.875	0.822113
448.768	0.928017
451.661	0.617622
454.553	0.249725
457.446	0.833038
460.339	1.05456
463.231	1.53276
466.124	0.730804
469.017	1.44163
471.909	1.25088
474.802	1.59924
477.695	1.35615
480.587	2.36409
483.48	1.28348
486.373	1.43591
489.266	0.667053
492.158	0.772766
495.051	0.307999
497.944	0.091217
500.836	0.09922
503.729	0.278004
506.622	0.609016
509.514	0.019691
512.407	0.392372
515.3	0.42741
518.193	0.266506
521.085	1.08726
523.978	1.02983
526.871	0.481976
529.763	0.439522
532.656	0.63866
535.549	0.119827
538.442	0.862564
541.334	0.738899
544.227	0.559109
547.12	0.476406
550.012	1.83133
552.905	1.64133
555.798	1.51737
558.69	1.44113
561.583	0.929146
564.476	0.354572
567.369	0.238049
570.261	0.684631
573.154	0.170326
576.047	0.332344
578.939	0.887585
581.832	0.81459
584.725	0.187332
587.617	0.107147
590.51	0.396626
593.403	0.029449
596.295	0.468491
599.188	0.549435
602.081	0.607296
604.973	0.317482
607.866	0.71513
610.759	0.978207
613.652	0.737
616.544	0.726494
619.437	1.41746
622.33	1.65889
625.222	1.85543
628.115	1.89014
631.008	2.07591
633.9	2.39301
636.793	3.57156
639.686	4.44398
642.579	7.88751
645.471	11.1872
648.364	16.7891
651.257	23.1297
654.149	31.8598
657.042	44.2523
659.935	61.1538
662.827	74.3156
665.72	72.3557
668.613	56.6603
671.506	39.8499
674.398	27.2908
677.291	17.3322
680.184	11.237
683.076	6.213
685.969	3.05311
688.862	0.873627
691.755	0.266697
694.647	0.51112
697.54	0.259193
700.433	0.202759
703.325	0.51606
706.218	1.13348
709.111	2.02554
712.003	1.5961
714.896	2.30661
717.789	1.74938
720.682	1.50657
723.574	1.09507
726.467	0.881111
729.36	0.894081
732.252	0.387714
735.145	1.33404
738.038	2.8507
740.93	5.78944
743.823	8.72687
746.716	13.4788
749.609	20.7489
752.501	28.4393
755.394	38.9178
758.287	53.7184
761.179	69.8495
764.072	81.6336
766.965	77.2023
769.857	57.6649
772.75	37.6463
775.643	24.1086
778.535	15.8027
781.428	10.9976
784.321	8.12142
787.214	6.2071
790.106	4.76883
792.999	3.63178
795.892	2.86172
798.784	2.14062
801.677	1.85448
804.57	1.02644
807.462	0.798416
810.355	0.622883
813.248	0.984859
816.141	0.381126
819.033	0.419937
821.926	0.06802
824.819	0.066582
827.711	0.007671
830.604	0.068562
833.497	0.046505
836.389	0.101711
839.282	0.236599
842.175	0.495037
845.068	0.19775
847.96	0.280708
850.853	0.070652
853.746	0.043171
856.638	0.053047
859.531	0.234238
862.424	0.487743
865.317	0.27977
868.209	0.32151
871.102	0.161037
873.995	0.22337
876.887	0.26313
879.78	0.279404
882.673	0.30188
885.565	0.249542
888.458	0.250214
891.351	0.708065
894.243	0.506935
897.136	0.151188
900.029	0.581196
902.922	0.384827
905.814	0.420246
908.707	0.448425
911.6	0.451195
914.492	0.489571
917.385	0.588711
920.278	0.519882
923.17	0.325912
926.063	0.381824
928.956	0.37125
931.848	0.601807
934.741	0.327938
937.634	0.144272
940.527	0.114807
943.419	0.506287
946.312	0.024055
949.205	0.0998
952.097	0.452469
954.99	0.181374
957.883	0.186131
960.775	0.237518
963.668	0.545013
966.561	0.368725
969.454	0.616486
972.346	0.440228
975.239	0.367573
978.132	0.702972
981.024	0.320827
983.917	0.041439
986.81	0.384136
989.702	0.42218
992.595	0.528687
995.488	0.299885
998.381	0.429379
1001.27	0.813393
1004.17	0.313972
1007.06	0.709648
1009.95	0.167831
1012.84	0.371529
1015.74	0.557014
1018.63	0.139179
1021.52	0.300941
1024.41	0.125881
1027.31	0.33952
1030.2	0.133713
1033.09	0.421764
1035.99	0.077538
1038.88	0.220413
1041.77	0.317989
1044.66	0.341354
1047.56	0.109909
1050.45	0.149666
1053.34	0.776016
1056.23	0.787392
1059.13	0.619715
1062.02	0.766836
1064.91	1.08439
1067.81	0.491446
1070.7	0.192192
1073.59	0.222212
1076.48	0.141924
1079.38	0.069977
1082.27	0.189535
1085.16	0.222275
1088.05	0.705584
1090.95	0.854984
1093.84	0.972572
1096.73	1.08555
1099.62	1.00603
1102.52	0.749743
1105.41	0.904215
1108.3	0.658178
1111.2	0.517012
1114.09	0.949335
1116.98	0.90184
1119.87	0.295143
1122.77	0.564659
1125.66	0.427061
1128.55	0.615105
1131.44	0.771877
1134.34	0.371971
1137.23	0.948797
1140.12	0.515278
1143.02	1.06786
1145.91	1.42157
1148.8	1.46257
1151.69	2.16725
1154.59	2.47666
1157.48	2.52504
1160.37	3.25894
1163.26	3.46323
1166.16	3.84054
1169.05	4.37036
1171.94	3.66759
1174.84	3.77798
1177.73	3.07992
1180.62	2.03242
1183.51	1.79939
1186.41	1.62063
1189.3	1.67616
1192.19	1.80743
1195.08	0.839251
1197.98	0.07937
1200.87	0.420813
1203.76	0.328484
1206.65	0.445478
1209.55	0.325649
1212.44	0.082724
1215.33	1.02354
1218.23	1.97271
1221.12	3.80118
1224.01	3.22444
1226.9	4.41812
1229.8	3.88237
1232.69	4.79145
1235.58	4.73313
1238.47	5.86785
1241.37	6.83839
1244.26	6.94459
1247.15	8.14827
1250.05	8.56855
1252.94	10.2416
1255.83	11.1622
1258.72	10.8296
1261.62	10.9009
1264.51	9.77655
1267.4	7.97432
1270.29	4.78787
1273.19	3.77164
1276.08	1.70781
1278.97	0.388264
1281.87	0.092833
1284.76	0.280994
