Measurement: Raman, 780 nm, unoriented, Raman Data Processed
Mineral: Spinel
Rruff sample: R100133
Ideal chemistry: MgAl_2_O_4_
Locality: Sri Lanka
Source: William W. Pinch
Description: Blue and red cut gemstones. The bottom red stone is the one that was studied.
Raman shift (cm-1)	intensity
175.492	0
178.385	4.86324
181.277	0.272202
184.17	4.57625
187.063	0.020355
189.955	2.86084
192.848	5.75926
195.741	5.77013
198.633	8.44594
201.526	7.32718
204.419	2.03482
207.311	2.0024
210.204	12.0653
213.097	11.9296
215.99	13.8316
218.882	10.4375
221.775	17.2485
224.668	8.53708
227.56	6.38472
230.453	9.37547
233.346	3.49805
236.238	5.25909
239.131	4.03944
242.024	4.67687
244.917	5.18387
247.809	7.20577
250.702	5.55089
253.595	5.86435
256.487	1.93968
259.38	2.72975
262.273	1.79413
265.166	1.273
268.058	1.84308
270.951	1.69089
273.844	7.74892
276.736	2.86342
279.629	7.4783
282.522	8.69186
285.414	11.8612
288.307	19.9477
291.2	21.5958
294.092	37.8084
296.985	43.819
299.878	57.9323
302.771	69.4146
305.663	92.4315
308.556	128.378
311.449	164.272
314.341	128.123
317.234	68.1243
320.127	43.8868
323.019	25.4567
325.912	17.9981
328.805	8.25879
331.698	8.07286
334.59	7.02087
337.483	1.5663
340.376	1.651
343.268	0.434723
346.161	2.04216
349.054	4.31181
351.947	6.15031
354.839	9.46994
357.732	5.02612
360.625	10.3314
363.517	18.9304
366.41	23.6962
369.303	19.5738
372.195	24.8008
375.088	29.7556
377.981	40.3464
380.873	57.1846
383.766	79.8454
386.659	133.087
389.552	218.713
392.444	310.124
395.337	393.062
398.23	559
401.122	827.279
404.015	1187.48
406.908	1236.19
409.8	699.897
412.693	308.66
415.586	147.778
418.479	87.8651
421.371	50.5832
424.264	30.1908
427.157	19.4294
430.049	11.973
432.942	3.42178
435.835	0.067978
438.728	1.29459
441.62	1.31493
444.513	0.834198
447.406	4.41234
450.298	3.65509
453.191	1.76775
456.084	0.480316
458.976	1.57951
461.869	1.55464
464.762	0.852524
467.654	1.41409
470.547	2.21971
473.44	6.15607
476.333	6.2659
479.225	4.54001
482.118	8.03908
485.011	10.9101
487.903	5.59068
490.796	3.58667
493.689	1.64867
496.582	0.035309
499.474	0.106857
502.367	2.09287
505.26	2.62137
508.152	4.77574
511.045	3.76062
513.938	6.39546
516.83	7.33182
519.723	3.52657
522.616	1.39575
525.509	8.37512
528.401	11.3998
531.294	10.5591
534.187	11.6681
537.079	11.8477
539.972	11.3833
542.865	9.46571
545.757	9.76344
548.65	11.1897
551.543	13.7445
554.436	11.8596
557.328	10.5622
560.221	8.0296
563.114	5.10643
566.006	3.14278
568.899	8.81833
571.792	3.45235
574.684	1.94214
577.577	1.93642
580.47	1.13294
583.362	4.68063
586.255	7.86072
589.148	7.58412
592.041	15.4691
594.933	10.2651
597.826	15.9856
600.719	14.1357
603.611	12.2557
606.504	10.7929
609.397	10.8073
612.29	7.40678
615.182	5.39192
618.075	2.94641
620.968	1.05776
623.86	2.01724
626.753	3.9395
629.646	0.990601
632.538	4.90532
635.431	6.45991
638.324	15.2075
641.217	17.8124
644.109	24.1988
647.002	41.0868
649.895	61.9168
652.787	93.8999
655.68	136.65
658.573	192.462
661.466	247.672
664.358	264.093
667.251	222.663
670.144	157.744
673.036	100.728
675.929	63.9251
678.822	40.9213
681.714	24.2603
684.607	10.5579
687.5	4.76692
690.393	1.17531
693.285	1.57275
696.178	1.43056
699.071	0.389191
701.963	0.569946
704.856	3.35692
707.749	7.03873
710.641	1.73144
713.534	4.14059
716.427	2.75635
719.319	2.26236
722.212	1.05724
725.105	1.81482
727.998	1.30173
730.89	2.29016
733.783	2.43547
736.676	9.10643
739.568	8.64549
742.461	22.0757
745.354	32.9952
748.246	49.0344
751.139	65.9032
754.032	100.415
756.925	141.421
759.817	188.925
762.71	244.933
765.603	271.512
768.495	239.111
771.388	167.08
774.281	107.594
777.173	72.989
780.066	51.4847
782.959	38.6054
785.852	27.7402
788.744	21.6238
791.637	20.0296
794.53	15.3849
797.422	20.0867
800.315	15.724
803.208	12.386
806.101	22.6558
808.993	29.1415
811.886	35.9044
814.779	27.1455
817.671	14.0551
820.564	4.90726
823.457	5.14714
826.349	6.49452
829.242	7.50226
832.135	5.04953
835.028	3.30644
837.92	7.81021
840.813	9.08905
843.706	2.05547
846.598	8.76724
849.491	5.13866
852.384	2.24883
855.276	0.125885
858.169	2.57278
861.062	0.162819
863.955	0.307564
866.847	2.79549
869.74	5.98981
872.633	0.163055
875.525	5.44558
878.418	6.08865
881.311	2.15877
884.203	0.989677
887.096	4.66373
889.989	1.71851
892.881	4.59098
895.774	5.10655
898.667	6.00945
901.56	2.51186
904.452	5.37404
907.345	0.668152
910.238	0.003738
913.13	5.66005
916.023	6.04549
918.916	1.63818
921.808	4.3057
924.701	4.4166
927.594	5.16045
930.487	4.07896
933.379	0.84536
936.272	3.34968
939.165	2.64481
942.057	4.68378
944.95	6.9249
947.843	4.14137
950.736	7.7033
953.628	7.34552
956.521	8.59448
959.414	8.88312
962.306	9.1267
965.199	10.147
968.092	8.41304
970.984	9.43715
973.877	12.9498
976.77	9.59044
979.663	8.52877
982.555	9.60185
985.448	10.8184
988.341	5.34974
991.233	9.23134
994.126	7.00774
997.019	6.08086
999.911	6.13731
1002.8	3.64626
1005.7	2.2728
1008.59	3.95899
1011.48	3.73089
1014.38	2.87914
1017.27	0.522614
1020.16	2.88349
1023.05	1.47361
1025.95	1.54098
1028.84	3.39217
1031.73	5.82944
1034.62	0.441902
1037.52	1.55914
1040.41	4.86625
1043.3	5.16573
1046.19	3.69032
1049.09	6.83922
1051.98	5.38064
1054.87	3.47482
1057.77	1.71864
1060.66	7.26235
1063.55	1.66639
1066.44	5.82393
1069.34	11.552
1072.23	5.78321
1075.12	2.74957
1078.01	5.00922
1080.91	6.31131
1083.8	2.38248
1086.69	3.19457
1089.59	3.51938
1092.48	3.21627
1095.37	0.179237
1098.26	7.73801
1101.16	1.97441
1104.05	3.92362
1106.94	5.81187
1109.83	3.70847
1112.73	0.492607
1115.62	6.86202
1118.51	7.11935
1121.4	6.51385
1124.3	4.46156
1127.19	7.42826
1130.08	9.98475
1132.98	11.3735
1135.87	13.398
1138.76	2.24759
1141.65	2.62309
1144.55	5.82767
1147.44	5.02547
1150.33	8.45863
1153.22	7.70876
1156.12	2.33984
1159.01	5.20115
1161.9	2.72153
1164.8	3.2415
1167.69	4.66182
1170.58	7.05946
1173.47	10.3181
1176.37	15.1516
1179.26	12.1064
1182.15	12.5479
1185.04	13.6259
1187.94	14.4844
1190.83	13.6243
1193.72	14.868
1196.62	14.5671
1199.51	14.3694
1202.4	17.8275
1205.29	12.1648
1208.19	19.1916
1211.08	14.4627
1213.97	9.66735
1216.86	6.993
1219.76	9.63895
1222.65	7.92887
1225.54	5.43523
1228.43	1.98718
1231.33	4.61612
1234.22	3.15817
1237.11	4.86961
1240.01	5.43143
1242.9	2.91569
1245.79	2.62397
1248.68	0.25798
1251.58	1.95111
1254.47	0.11058
1257.36	1.5229
1260.25	1.0209
1263.15	6.04836
1266.04	3.81756
1268.93	14.7913
1271.83	17.5724
1274.72	22.642
1277.61	18.8423
1280.5	13.3326
1283.4	1.51932
