Measurement: Raman, 532 nm, unoriented, Raman Data Processed
Mineral: Spinel
Rruff sample: R050411
Ideal chemistry: MgAl_2_O_4_
Locality: Mogok, Burma
Source: Marcus Origlieri
Description: Pale pink gemstone
Measured chemistry: Mg_0.93_Al_2.04_O_4_
Raman shift (cm-1)	intensity
146.351	0
149.243	3.38928
152.136	0.611572
155.029	2.09357
157.921	0.191162
160.814	5.01605
163.707	7.94287
166.6	2.90155
169.492	4.68451
172.385	5.02258
175.278	3.84393
178.17	12.9876
181.063	4.25641
183.956	4.64337
186.848	6.76636
189.741	2.44653
192.634	2.36237
195.526	2.10175
198.419	0.480286
201.312	1.0293
204.205	2.3913
207.097	1.414
209.99	2.93573
212.883	6.16803
215.775	7.35883
218.668	6.44299
221.561	5.35632
224.453	6.46143
227.346	2.90015
230.239	5.99676
233.132	2.06378
236.024	0.226746
238.917	1.78754
241.81	2.64056
244.702	1.52173
247.595	3.9751
250.488	2.43909
253.381	2.01562
256.273	1.9942
259.166	3.30402
262.059	2.55463
264.951	2.94507
267.844	0.828369
270.737	2.97699
273.629	3.48932
276.522	3.75751
279.415	7.26752
282.308	10.8296
285.2	5.14697
288.093	8.84277
290.986	12.6837
293.878	18.3657
296.771	26.3659
299.664	34.4006
302.556	42.4534
305.449	53.0797
308.342	66.554
311.235	90.183
314.127	79.9952
317.02	27.8384
319.913	12.4863
322.805	5.45471
325.698	1.34009
328.591	0.230286
331.483	1.96722
334.376	2.81213
337.269	1.10443
340.161	2.34485
343.054	1.57684
345.947	5.29511
348.84	7.20801
351.732	16.8139
354.625	23.0112
357.518	29.315
360.41	33.5344
363.303	44.7485
366.196	57.0343
369.089	61.366
371.981	73.5961
374.874	87.9404
377.767	104.181
380.659	139.761
383.552	186.451
386.445	274.898
389.337	434.427
392.23	655.265
395.123	860.222
398.015	1103.4
400.908	1465.29
403.801	1961.79
406.694	2316.92
409.586	1754.02
412.479	864.982
415.372	436.723
418.264	248.429
421.157	158.483
424.05	103.869
426.942	65.9198
429.835	48.1037
432.728	28.4455
435.621	19.0478
438.513	11.8058
441.406	9.72342
444.299	5.08771
447.191	4.78418
450.084	1.15533
452.977	3.57184
455.87	2.58789
458.762	0.16861
461.655	0.02713
464.548	0.166473
467.44	1.97754
470.333	0.557037
473.226	1.81601
476.118	3.42117
479.011	2.96487
481.904	1.75839
484.796	5.61908
487.689	3.0578
490.582	0.723053
493.475	0.268219
496.367	1.52704
499.26	1.39343
502.153	0.053925
505.045	1.56549
507.938	0.787659
510.831	2.26031
513.723	2.87237
516.616	5.0177
519.509	4.94037
522.402	6.45346
525.294	6.30917
528.187	8.11786
531.08	6.75095
533.972	4.09814
536.865	6.09683
539.758	4.83502
542.65	8.60748
545.543	4.27573
548.436	4.28186
551.329	4.5068
554.221	3.14505
557.114	5.6246
560.007	4.0693
562.899	2.884
565.792	0.874146
568.685	1.38287
571.577	0.152039
574.47	1.33997
577.363	1.40778
580.256	1.42496
583.148	0.62561
586.041	0.86496
588.934	0.071136
591.826	0.74881
594.719	0.778229
597.612	0.172424
600.505	1.3309
603.397	3.67221
606.29	0.510284
609.183	0.330383
612.075	0.504272
614.968	1.82495
617.861	1.8515
620.753	0.463867
623.646	0.9086
626.539	0.759094
629.432	0.418945
632.324	2.39877
635.217	6.81787
638.11	9.05106
641.002	12.9572
643.895	22.4282
646.788	34.2625
649.68	55.3214
652.573	85.0612
655.466	119.909
658.359	161.194
661.251	210.053
664.144	235.1
667.037	215.841
669.929	164.498
672.822	111.845
675.715	75.9781
678.607	52.3688
681.5	29.7036
684.393	21.0198
687.285	8.20023
690.178	4.97446
693.071	6.69846
695.964	0.050293
698.856	0.015808
701.749	1.37711
704.642	1.20163
707.534	2.64712
710.427	6.38095
713.32	3.60376
716.212	6.97827
719.105	5.63303
721.998	5.57578
724.891	6.62839
727.783	5.04517
730.676	4.11826
733.569	3.87582
736.461	3.67609
739.354	7.65362
742.247	13.4403
745.139	26.0848
748.032	38.1237
750.925	60.272
753.818	92.2021
756.71	132.649
759.603	184.946
762.496	238.493
765.388	286.022
768.281	276.433
771.174	206.975
774.067	126.441
776.959	77.0636
779.852	51.3198
782.745	35.5982
785.637	26.3836
788.53	22.0258
791.423	17.5635
794.315	16.0328
797.208	8.98618
800.101	8.82703
802.994	7.52539
805.886	6.48025
808.779	6.62061
811.672	3.65381
814.564	2.85901
817.457	2.24274
820.35	1.21314
823.242	2.72723
826.135	0.983124
829.028	0.919495
831.92	0.219879
834.813	0.367645
837.706	1.22372
840.599	0.736938
843.491	0.704376
846.384	0.342438
849.277	1.73465
852.169	1.39804
855.062	0.873535
857.955	1.52527
860.847	1.06506
863.74	0.875549
866.633	1.7851
869.526	1.30551
872.418	1.88171
875.311	1.49338
878.204	1.39948
881.096	2.69632
883.989	2.71396
886.882	2.79968
889.774	2.2308
892.667	1.83676
895.56	2.32593
898.453	1.84921
901.345	1.60071
904.238	1.74985
907.131	2.31207
910.023	2.62247
912.916	4.60425
915.809	3.108
918.702	2.16242
921.594	0.356506
924.487	5.14993
927.38	3.97308
930.272	2.73151
933.165	0.277435
936.058	1.86926
938.95	1.34183
941.843	0.388153
944.736	0.94165
947.629	1.21506
950.521	1.26602
953.414	1.54495
956.307	4.78247
959.199	0.942993
962.092	0.520569
964.985	1.71741
967.877	2.4165
970.77	6.7962
973.663	3.28357
976.556	10.6398
979.448	3.72916
982.341	3.38403
985.234	4.31451
988.126	4.03729
991.019	4.85175
993.912	4.69595
996.804	4.73248
999.697	2.08917
1002.59	3.59924
1005.48	0.99353
1008.38	0.793091
1011.27	4.13611
1014.16	2.5614
1017.05	2.51953
1019.95	2.15463
1022.84	4.13034
1025.73	3.14474
1028.62	2.16269
1031.52	3.44632
1034.41	3.12854
1037.3	2.65253
1040.19	0.623627
1043.09	1.73981
1045.98	1.21838
1048.87	0.78952
1051.77	4.14767
1054.66	4.88144
1057.55	3.87787
1060.44	4.0303
1063.34	3.36264
1066.23	2.19391
1069.12	1.58231
1072.02	3.64297
1074.91	0.341827
1077.8	5.98358
1080.69	2.95367
1083.59	1.94156
1086.48	3.8244
1089.37	2.41449
1092.26	2.61081
1095.16	1.55566
1098.05	2.11713
1100.94	4.9462
1103.83	0.895142
1106.73	1.32236
1109.62	0.021149
1112.51	0.527222
1115.4	0.170166
1118.3	1.03091
1121.19	2.09335
1124.08	0.046021
1126.98	2.83511
1129.87	3.29675
1132.76	8.03546
1135.65	3.76602
1138.55	3.6348
1141.44	3.78406
1144.33	3.17404
1147.22	4.01593
1150.12	6.02307
1153.01	0.686188
1155.9	0.054688
1158.8	3.98203
1161.69	1.67944
1164.58	3.69604
1167.47	1.17035
1170.37	2.74204
1173.26	2.36389
1176.15	1.41943
1179.04	0.985596
1181.94	0.345032
1184.83	1.17386
1187.72	1.23987
1190.62	5.21866
1193.51	5.58514
1196.4	4.62244
1199.29	2.73251
1202.19	3.66574
1205.08	2.37921
1207.97	4.45453
1210.86	3.67432
1213.76	3.51843
1216.65	5.57065
1219.54	1.86447
1222.43	0.400848
1225.33	2.85196
1228.22	0.740204
1231.11	2.11392
1234.01	4.65866
1236.9	1.77533
1239.79	2.14279
1242.68	0.827667
1245.58	3.69925
1248.47	4.05771
1251.36	1.68897
1254.26	5.17624
1257.15	2.84399
1260.04	2.14511
1262.93	2.83911
1265.83	3.30826
1268.72	2.35562
1271.61	0.122742
1274.5	0.54538
