Measurement: Raman, 780 nm, unoriented, Raman Data Processed
Mineral: Spiroffite
Rruff sample: R070744
Ideal chemistry: Mn^2+^_2_Te^4+^_3_O_8_
Locality: Bambollita Mine (Oriental Mine), Moctezuma, Mun. de Moctezuma, Sonora, Mexico
Source: Michael Scott
Description: Massive red-orange/purple crystals; associated with yellow tellurite and quartz
Raman shift (cm-1)	intensity
123.862	0
127.237	481.747
130.612	852.123
133.987	1085.08
137.362	873.623
140.737	81.6294
144.111	35.9177
147.486	405.689
150.861	1434.94
154.236	1539.1
157.611	486.386
160.986	111.636
164.36	242.644
167.735	415.084
171.11	309.193
174.485	16.4468
177.859	62.9319
181.234	717.393
184.609	2147.49
187.984	3444.21
191.359	5444.15
194.734	7962.18
198.108	8716.27
201.483	5849.53
204.858	3104.29
208.233	1550.68
211.608	926.287
214.982	876.15
218.357	1092.26
221.732	832.38
225.107	475.807
228.482	424.752
231.857	519.269
235.231	635.213
238.606	959.117
241.981	1191.37
245.356	1298.94
248.731	1681.02
252.106	2480.24
255.48	2800.79
258.855	2196.75
262.23	1046
265.605	213.353
268.98	247.77
272.354	257.384
275.729	80.3181
279.104	229.231
282.479	254.602
285.854	334.497
289.228	882.066
292.603	1851.41
295.978	3075.91
299.353	4184.39
302.728	5377.74
306.103	6949.82
309.477	7321.12
312.852	5310.87
316.227	3146.61
319.602	2397.57
322.977	2689.12
326.351	3739.62
329.726	5384.96
333.101	7663.1
336.476	10447.4
339.851	13437.3
343.226	15775
346.6	16316.5
349.975	14748.9
353.35	11772.9
356.725	8481.74
360.1	5889.88
363.474	3934
366.849	2576.01
370.224	1685.85
373.599	1009.32
376.974	601.158
380.349	393.772
383.723	318.119
387.098	391.511
390.473	655.697
393.848	1048.72
397.223	1546.55
400.597	1893.62
403.972	1797.83
407.347	1263.11
410.722	687.406
414.097	310.745
417.471	113.96
420.846	56.1719
424.221	157.127
427.596	139.826
430.971	127.707
434.346	104.128
437.72	2.90332
441.095	144.087
444.47	392.723
447.845	733.506
451.22	1269.36
454.594	1831.26
457.969	2469.28
461.344	2584.79
464.719	2298.62
468.094	1713.9
471.469	1308.33
474.843	971.632
478.218	794.528
481.593	696.717
484.968	613.551
488.343	558.589
491.717	509.848
495.092	592.61
498.467	800.014
501.842	1326.19
505.217	1954.48
508.592	2935.03
511.966	4278.61
515.341	5919.84
518.716	7635.51
522.091	8670.92
525.466	8057.45
528.841	6367.96
532.215	4651.48
535.59	3207.91
538.965	2178.94
542.34	1451.56
545.715	984.442
549.089	658.429
552.464	420.2
555.839	338.506
559.214	396.491
562.589	471.549
565.963	780.822
569.338	870.863
572.713	947.714
576.088	794.402
579.463	418.082
582.837	145.093
586.212	64.5488
589.587	130.095
592.962	154.984
596.337	87.9578
599.712	34.4568
603.086	204.728
606.461	473.559
609.836	923.657
613.211	1448.94
616.586	2307.31
619.961	3633.04
623.335	5753.38
626.71	9021.47
630.085	13977.5
633.46	20916.3
636.835	30252
640.209	36941.1
643.584	31604.3
646.959	19996
650.334	11279.8
653.709	6341.25
657.083	3765.91
660.458	2099.52
663.833	1172.72
667.208	592.381
670.583	176.519
673.958	70.9602
677.332	215.912
680.707	175.613
684.082	34.0806
687.457	249.343
690.832	889.137
694.207	1685.93
697.581	2639.25
700.956	3597.15
704.331	5126.54
707.706	7769.76
711.081	12308.7
714.455	20261.1
717.83	33134
721.205	52405.1
724.58	75883.1
727.955	85872.8
731.33	68892.1
734.704	43346.3
738.079	27358.9
741.454	19893.4
744.829	17653.1
748.204	18774.7
751.578	21156.2
754.953	20960.5
758.328	17263.8
761.703	13794.1
765.078	12437.1
768.452	11308
771.827	8263.73
775.202	4950.09
778.577	2773.02
781.952	1532.69
785.327	852.954
788.701	412.639
792.076	235.5
795.451	84.6359
798.826	37.1007
802.201	39.4612
805.575	47.8304
808.95	42.5037
812.325	67.17
815.7	71.7706
819.075	37.3964
822.449	27.1665
825.824	0.578857
829.199	39.7424
832.574	56.5124
835.949	89.6656
839.323	131.557
842.698	154.718
846.073	179.03
849.448	216.962
852.823	244.582
856.198	250.177
859.572	277.741
862.947	310.223
866.322	290.581
869.697	295.227
873.072	271.184
876.447	247.667
879.821	229.35
883.196	207.903
886.571	223.071
889.946	226.323
893.321	220.346
896.695	210.232
900.07	204.275
903.445	195.995
906.82	225.471
910.195	200.702
913.569	192.091
916.944	187.814
920.319	167.636
923.694	166.334
927.069	162.93
930.444	140.232
933.818	121.672
937.193	102.238
940.568	96.5443
943.943	87.2192
947.318	69.8817
950.692	56.0942
954.067	54.7809
957.442	39.6623
960.817	23.422
964.192	29.855
967.567	25.6643
970.941	3.65195
974.316	6.39795
977.691	0.353241
981.066	12.9003
984.441	5.03278
987.816	11.0807
991.19	10.8252
994.565	1.23578
997.94	2.61142
1001.32	2.91742
1004.69	16.749
1008.06	4.09238
1011.44	8.9946
1014.81	0.672607
1018.19	10.671
1021.56	8.81015
1024.94	4.45523
1028.31	10.2026
1031.69	4.42276
1035.06	9.08719
1038.44	4.35764
1041.81	13.3594
1045.19	12.7961
1048.56	4.50958
1051.94	19.6999
1055.31	21.1517
1058.69	29.6822
1062.06	35.559
1065.44	35.5296
1068.81	25.8971
1072.19	27.2446
1075.56	29.4557
1078.94	24.5616
1082.31	26.4386
1085.68	19.8701
1089.06	13.2672
1092.43	4.77866
1095.81	33.3131
1099.18	7.38132
1102.56	6.02267
1105.93	8.74237
1109.31	7.61774
1112.68	17.3152
1116.06	12.6342
1119.43	2.80484
1122.81	6.66129
1126.18	0.909637
1129.56	13.2965
1132.93	4.72974
1136.31	0.646851
1139.68	17.1264
1143.06	19.9573
1146.43	21.8071
1149.81	37.1897
1153.18	32.6857
1156.56	39.1555
1159.93	26.3138
1163.31	44.9438
1166.68	32.3799
1170.06	31.3405
1173.43	43.0162
1176.81	21.5634
1180.18	13.4712
1183.56	6.82111
1186.93	4.26013
1190.3	10.1415
1193.68	1.11514
1197.05	0.14328
1200.43	2.45703
1203.8	4.75537
1207.18	17.0338
1210.55	16.5665
1213.93	9.70654
1217.3	6.85413
1220.68	14.4863
1224.05	8.69632
1227.43	8.9632
1230.8	21.4861
1234.18	5.51923
1237.55	11.1694
1240.93	6.14383
1244.3	22.4838
1247.68	12.2183
1251.05	14.2573
1254.43	4.93774
1257.8	21.7339
1261.18	0.097992
1264.55	11.6985
1267.92	14.0156
1271.3	27.2592
1274.67	10.4711
1278.05	12.5462
1281.42	12.3717
1284.8	14.2638
1288.17	0.054352
