Measurement: Raman, 532 nm, unoriented, Raman Data Processed
Mineral: Spiroffite
Rruff sample: R070744
Ideal chemistry: Mn^2+^_2_Te^4+^_3_O_8_
Locality: Bambollita Mine (Oriental Mine), Moctezuma, Mun. de Moctezuma, Sonora, Mexico
Source: Michael Scott
Description: Massive red-orange/purple crystals; associated with yellow tellurite and quartz
Raman shift (cm-1)	intensity
119.645	0
123.02	0.583984
126.395	1647.48
129.77	1208.21
133.144	1171.75
136.519	902.843
139.894	105.101
143.269	57.5264
146.644	499.116
150.018	1579.24
153.393	1246.17
156.768	348.835
160.143	241.097
163.518	314.291
166.893	397.709
170.267	179.447
173.642	92.105
177.017	28.9497
180.392	638.429
183.767	1233.74
187.142	1704.8
190.516	2657.71
193.891	3959.68
197.266	4264.47
200.641	2735.68
204.016	1419.64
207.39	760.681
210.765	618.866
214.14	817.537
217.515	1111.88
220.89	786.123
224.264	487.398
227.639	498.372
231.014	523.866
234.389	598.074
237.764	796.864
241.138	857.572
244.513	838.121
247.888	1168.46
251.263	1798.45
254.638	2263.76
258.013	1810.76
261.387	777.827
264.762	86.6028
268.137	137.851
271.512	107.901
274.887	100.635
278.262	378.978
281.636	288.408
285.011	242.125
288.386	710.087
291.761	1602.13
295.136	2468.99
298.51	3319.93
301.885	4331.42
305.26	5815.78
308.635	6102.38
312.01	4031.23
315.385	2072.68
318.759	1397.84
322.134	1398.66
325.509	2053.18
328.884	2963.25
332.259	4357.7
335.633	5927.38
339.008	7530.98
342.383	8609.45
345.758	8665.89
349.133	7645.4
352.507	5990.22
355.882	4234.97
359.257	2795.91
362.632	1737.49
366.007	1063.59
369.382	606.66
372.756	273.762
376.131	96.2373
379.506	20.8137
382.881	28.998
386.256	92.6365
389.63	252.374
393.005	542.295
396.38	876.979
399.755	1160.77
403.13	1032.86
406.505	701.508
409.879	377.778
413.254	125.029
416.629	8.14307
420.004	59.5308
423.379	128.695
426.753	136.481
430.128	108.177
433.503	48.645
436.878	43.0044
440.253	200.959
443.627	459.398
447.002	892.927
450.377	1418.17
453.752	2045.75
457.127	2673.15
460.502	2874.16
463.876	2456.72
467.251	1827.25
470.626	1330.16
474.001	997.61
477.376	773.072
480.75	635.189
484.125	605.66
487.5	551.901
490.875	584.16
494.25	736.339
497.625	1079.88
500.999	1670.22
504.374	2385.37
507.749	3408.69
511.124	4910.31
514.499	6684.77
517.873	8739.12
521.248	9971.54
524.623	9387.58
527.998	7678.03
531.373	5715.01
534.747	4227.09
538.122	2851.63
541.497	2025.27
544.872	1461
548.247	1061.93
551.622	861.9
554.996	776.048
558.371	751.414
561.746	934.616
565.121	1238.36
568.496	1485.36
571.87	1596.21
575.245	1380.69
578.62	848.066
581.995	410.877
585.37	65.5364
588.745	73.2698
592.119	157.455
595.494	165.688
598.869	42.1726
602.244	50.8105
605.619	291.243
608.994	613.967
612.368	1216.01
615.743	1986.18
619.118	3248.58
622.493	5192.84
625.868	8169.87
629.242	12496.7
632.617	18841.3
635.992	28368
639.367	35985.8
642.742	31507.2
646.116	19883
649.491	11288.7
652.866	6489.88
656.241	3719.17
659.616	2161.96
662.99	1119.55
666.365	512.023
669.74	73.7881
673.115	150.509
676.49	232.781
679.865	166.63
683.239	46.8384
686.614	455.508
689.989	1203.14
693.364	2410.44
696.739	3657.16
700.114	4733.19
703.488	6473.93
706.863	9626.86
710.238	15066.2
713.613	24170.4
716.987	38560.2
720.362	60331.7
723.737	86700.3
727.112	98212.7
730.487	76701.2
733.862	47652.5
737.236	30253.9
740.611	22001.7
743.986	19154.1
747.361	19775.4
750.736	22077.2
754.111	22544.6
757.485	19816
760.86	17894.2
764.235	18038.4
767.61	17570.2
770.985	13253.5
774.359	7845.05
777.734	4315.77
781.109	2390.97
784.484	1357.74
787.859	765.55
791.234	385.282
794.608	186.826
797.983	43.2107
801.358	22.9968
804.733	57.6555
808.108	68.0027
811.482	53.2401
814.857	91.4966
818.232	90.3588
821.607	21.9476
824.982	8.2544
828.356	37.0196
831.731	79.8344
835.106	102.466
838.481	119.224
841.856	188.558
845.231	201.522
848.605	251.979
851.98	258.229
855.355	305.796
858.73	356.289
862.105	368.165
865.479	372.11
868.854	373.147
872.229	345.656
875.604	333.589
878.979	318.891
882.354	317.347
885.728	300.549
889.103	304.846
892.478	296.884
895.853	305.158
899.228	286.426
902.602	308.494
905.977	269.951
909.352	277.062
912.727	265.042
916.102	294.185
919.476	244.82
922.851	233.552
926.226	227.101
929.601	199.48
932.976	175.624
936.351	156.771
939.725	129.824
943.1	120.398
946.475	112.867
949.85	101.225
953.225	78.7391
956.6	70.4181
959.974	58.0243
963.349	26.5336
966.724	44.6209
970.099	1.8407
973.474	26.3393
976.848	7.45319
980.223	1.99237
983.598	0.510071
986.973	0.471924
990.348	2.39624
993.722	3.72461
997.097	1.99487
1000.47	7.63483
1003.85	0.179382
1007.22	0.023865
1010.6	12.3163
1013.97	9.00263
1017.35	13.8158
1020.72	16.4021
1024.1	6.63641
1027.47	7.0921
1030.85	13.2377
1034.22	13.4446
1037.6	2.04108
1040.97	19.0578
1044.35	11.9864
1047.72	15.7051
1051.09	22.5414
1054.47	16.5883
1057.84	49.777
1061.22	61.4007
1064.59	64.3483
1067.97	49.4096
1071.34	36.5831
1074.72	62.8628
1078.09	18.2136
1081.47	40.7434
1084.84	17.6243
1088.22	51.0135
1091.59	39.0821
1094.97	15.2973
1098.34	32.3355
1101.72	44.1696
1105.09	46.0737
1108.47	21.7443
1111.84	18.5494
1115.22	18.8246
1118.59	20.8406
1121.96	41.2261
1125.34	18.2476
1128.71	21.6633
1132.09	20.504
1135.46	4.31543
1138.84	20.979
1142.21	11.1138
1145.59	34.1114
1148.96	31.2634
1152.34	64.769
1155.71	39.4363
1159.09	56.675
1162.46	67.9099
1165.84	52.8165
1169.21	62.1085
1172.59	20.4675
1175.96	35.187
1179.34	41.357
1182.71	52.9848
1186.09	26.8901
1189.46	16.5382
1192.84	34.1679
1196.21	15.0416
1199.59	14.9362
1202.96	28.2068
1206.34	20.0633
1209.71	1.88702
1213.09	35.2508
1216.46	12.6441
1219.84	15.0021
1223.21	20.4692
1226.59	33.8839
1229.96	1.73596
1233.33	24.1314
1236.71	12.2738
1240.08	27.8258
1243.46	29.0303
1246.83	42.3273
1250.21	61.3898
1253.58	26.3832
1256.96	37.3332
1260.33	11.4287
1263.71	18.7162
1267.08	34.3008
1270.46	10.7789
1273.83	26.5236
1277.21	23.9478
1280.58	14.3607
1283.96	5.95489
1287.33	3.72388
1290.71	11.497
1294.08	12.1755
1297.46	13.1689
1300.83	0
