Measurement: Raman, 780 nm, unoriented, Raman Data Processed
Mineral: Spodumene
Rruff sample: R040050
Ideal chemistry: LiAlSi_2_O_6_
Locality: Minas Gerais, Brazil
Source: University of Arizona Mineral Museum
Description: Pale pink fragment of a single crystal, variety kunzite
Measured chemistry: (Li_0.99_Na_0.01_)Al_1.00_Si_2.00_O_6_
Raman shift (cm-1)	intensity
162.913	0
165.805	0.026915
168.698	1.20153
171.591	2.18102
174.483	3.3881
177.376	5.65182
180.269	9.2557
183.162	14.2704
186.054	24.9332
188.947	25.1533
191.84	10.6816
194.732	4.56876
197.625	2.58063
200.518	0.949916
203.411	0.10834
206.303	0.1535
209.196	0.51672
212.089	0.833864
214.981	0.178627
217.874	0.343212
220.767	2.12541
223.659	5.97425
226.552	13.3842
229.445	19.2577
232.338	14.5863
235.23	16.1156
238.123	21.6725
241.016	32.3563
243.908	47.9492
246.801	85.7705
249.694	102.85
252.586	47.2694
255.479	16.339
258.372	9.25533
261.264	7.04564
264.157	5.51567
267.05	3.74004
269.943	2.53007
272.835	4.84175
275.728	11.0424
278.621	19.1507
281.513	29.134
284.406	40.9383
287.299	59.6852
290.191	87.4774
293.084	127.405
295.977	159.475
298.87	160.915
301.762	102.462
304.655	41.1925
307.548	14.9138
310.44	4.33142
313.333	0.701977
316.226	1.88301
319.118	1.52035
322.011	1.33508
324.904	1.56756
327.796	2.50581
330.689	1.74285
333.582	6.89753
336.475	22.7359
339.367	34.7638
342.26	53.2732
345.153	81.0455
348.045	126.28
350.938	215.654
353.831	346.251
356.724	301.439
359.616	140.992
362.509	67.5523
365.402	32.3177
368.294	19.9015
371.187	16.9048
374.08	20.7384
376.972	28.0527
379.865	38.2739
382.758	51.2635
385.651	65.2126
388.543	93.8996
391.436	137.913
394.329	145.211
397.221	79.2115
400.114	30.9277
403.007	8.81973
405.899	0.728401
408.792	1.73214
411.685	0.2775
414.577	4.39058
417.47	7.73273
420.363	4.72596
423.256	2.90141
426.148	6.38186
429.041	11.6658
431.934	19.8199
434.826	31.955
437.719	49.6118
440.612	65.0413
443.505	62.7344
446.397	44.7923
449.29	25.622
452.183	15.1751
455.075	8.08065
457.968	4.16808
460.861	2.18318
463.753	0.986275
466.646	0.292665
469.539	0.91654
472.432	0.722153
475.324	1.13182
478.217	0.049841
481.11	0.404556
484.002	0.578297
486.895	1.20072
489.788	2.91208
492.68	4.19867
495.573	5.19991
498.466	8.48109
501.358	13.4122
504.251	20.9927
507.144	29.5683
510.037	38.0144
512.929	53.0583
515.822	74.0897
518.715	104.072
521.607	129.854
524.5	104.284
527.393	55.486
530.285	31.0945
533.178	20.2053
536.071	16.195
538.964	13.3232
541.856	11.1206
544.749	7.3372
547.642	4.41503
550.534	1.89201
553.427	1.60176
556.32	0.989044
559.212	1.11779
562.105	1.7014
564.998	3.01066
567.891	6.04442
570.783	9.72473
573.676	14.766
576.569	20.0671
579.461	28.5329
582.354	37.0624
585.247	42.8082
588.139	40.7298
591.032	30.3228
593.925	20.7289
596.817	13.7019
599.71	9.37385
602.603	6.54067
605.496	4.94354
608.388	4.58179
611.281	4.72612
614.174	5.37992
617.066	6.14482
619.959	4.28895
622.852	2.03987
625.745	0.001927
628.637	0.169584
631.53	0.317604
634.423	0.787645
637.315	0.049191
640.208	0.145698
643.101	0.142039
645.993	0.341744
648.886	0.178519
651.779	1.13698
654.672	1.69435
657.564	2.23691
660.457	2.63765
663.35	3.01855
666.242	4.10005
669.135	5.39611
672.028	7.40341
674.92	10.4352
677.813	13.3133
680.706	18.7388
683.598	27.5346
686.491	42.8995
689.384	71.1631
692.277	109.436
695.169	151.705
698.062	213.745
700.955	324.86
703.847	496.289
706.74	603.207
709.633	419.026
712.525	200.663
715.418	101.122
718.311	58.4281
721.204	37.8352
724.096	25.1854
726.989	17.605
729.882	12.9629
732.774	10.2107
735.667	6.91511
738.56	5.9346
741.452	3.82893
744.345	2.96722
747.238	2.33168
750.131	2.42309
753.023	0.493553
755.916	0.461905
758.809	0.080721
761.701	0.039785
764.594	0.090014
767.487	0.153149
770.38	1.67176
773.272	2.17777
776.165	3.57875
779.058	5.97953
781.95	10.2378
784.843	12.8772
787.736	8.14133
790.628	3.81021
793.521	0.705569
796.414	0.335287
799.307	0.17545
802.199	0.095858
805.092	0.176221
807.985	0.279912
810.877	0.233808
813.77	0.488922
816.663	0.310308
819.555	0.036462
822.448	0.602893
825.341	0.425176
828.234	0.263285
831.126	0.646835
834.019	0.716371
836.912	0.382199
839.804	0.431739
842.697	0.750348
845.59	0.479094
848.482	0.814965
851.375	1.30996
854.268	1.7171
857.16	1.404
860.053	1.17463
862.946	1.57086
865.839	1.875
868.731	1.59313
871.624	1.2904
874.517	2.24852
877.409	2.06026
880.302	2.71697
883.195	3.18303
886.087	3.10989
888.98	2.39801
891.873	1.26559
894.765	1.30819
897.658	0.894451
900.551	0.649257
903.444	0.405979
906.336	0.406666
909.229	0.409486
912.122	0.383314
915.014	0.407538
917.907	0.314798
920.8	0.319201
923.692	0.126714
926.585	0.226297
929.478	0.111498
932.371	0.073597
935.263	0.071046
938.156	0.041429
941.049	0.091073
943.941	0.620583
946.834	0.860445
949.727	0.710214
952.62	1.03034
955.512	1.5367
958.405	2.21894
961.298	3.51349
964.19	5.43847
967.083	6.68877
969.976	11.1026
972.868	14.9293
975.761	18.6082
978.654	17.5918
981.547	10.8326
984.439	6.42091
987.332	3.40283
990.225	1.2915
993.117	0.307407
996.01	0.066668
998.903	0.180931
1001.79	0.163685
1004.69	0.353609
1007.58	1.2673
1010.47	1.92796
1013.37	3.78766
1016.26	6.3903
1019.15	8.14914
1022.04	6.62322
1024.94	2.64661
1027.83	1.6443
1030.72	0.350281
1033.62	0.618769
1036.51	0.095398
1039.4	1.07475
1042.29	1.92189
1045.19	3.49633
1048.08	5.14783
1050.97	7.56937
1053.86	10.4312
1056.76	14.1084
1059.65	20.7919
1062.54	31.2253
1065.43	46.1669
1068.33	69.3322
1071.22	95.6746
1074.11	86.66
1077.01	50.0648
1079.9	25.9708
1082.79	15.1719
1085.68	8.99288
1088.58	5.76827
1091.47	4.239
1094.36	4.14827
1097.25	3.13697
1100.15	3.353
1103.04	4.01012
1105.93	2.81173
1108.83	0.84775
1111.72	0.633086
1114.61	0.532288
1117.5	0.024175
1120.4	0.468714
1123.29	0.08778
1126.18	0.194833
1129.07	0.100044
1131.97	0.202868
1134.86	0.311677
1137.75	0.365465
1140.64	0.036169
1143.54	0.090878
1146.43	0.024043
1149.32	0.291832
1152.22	0.854432
1155.11	1.00471
1158	0.575201
1160.89	1.14337
1163.79	0.513511
1166.68	0.908461
1169.57	0.693539
1172.46	1.00669
1175.36	0.867167
1178.25	1.3562
1181.14	0.914872
1184.04	0.915019
1186.93	1.41867
1189.82	0.714849
1192.71	0.749427
1195.61	0.674664
1198.5	0.914308
1201.39	0.65191
1204.28	0.004173
1207.18	0.841766
1210.07	0.80746
1212.96	0.475954
1215.86	0.392735
1218.75	0.375606
1221.64	0.684925
1224.53	0.420023
1227.43	0.362452
1230.32	0.587602
1233.21	0.483455
1236.1	0.458844
1239	0.730452
1241.89	0.327511
1244.78	0.577392
1247.67	0.387243
1250.57	0.547315
1253.46	0.807011
1256.35	0.254365
1259.25	0.565056
1262.14	0.455664
1265.03	0.500013
1267.92	0.230052
