Measurement: Raman, 780 nm, unoriented, Raman Data Processed
Mineral: Spodumene
Rruff sample: R050252
Ideal chemistry: LiAlSi_2_O_6_
Locality: Minas Gerais, Brazil
Source: Marcus Origlieri
Description: Pale lavendar cleavage fragment
Measured chemistry: Li_1.00_Al_1.00_Si_2.00_O_6_
Raman shift (cm-1)	intensity
144.592	0
147.485	2.24072
150.377	2.24676
153.27	1.00308
156.163	2.0527
159.055	1.54797
161.948	0.31311
164.841	0.458801
167.734	3.06342
170.626	4.32126
173.519	8.40915
176.412	12.9098
179.304	20.7234
182.197	32.0465
185.09	42.1533
187.982	40.1931
190.875	15.7977
193.768	7.33286
196.661	6.77933
199.553	4.06467
202.446	2.6669
205.339	0.364807
208.231	0.142181
211.124	4.08972
214.017	5.59753
216.91	11.8922
219.802	16.5722
222.695	31.7013
225.588	43.8737
228.48	46.1167
231.373	36.6385
234.266	28.4102
237.158	38.5451
240.051	54.5547
242.944	78.2557
245.837	123.417
248.729	144.939
251.622	121.081
254.515	82.0281
257.407	61.564
260.3	45.8893
263.193	32.4511
266.085	24.0692
268.978	19.2112
271.871	20.208
274.764	30.1246
277.656	46.0157
280.549	65.3596
283.442	92.6425
286.334	131.249
289.227	179.235
292.12	228.046
295.012	239.771
297.905	186.396
300.798	104.357
303.69	43.4323
306.583	21.652
309.476	4.16833
312.369	1.54211
315.261	2.18768
318.154	1.12933
321.047	1.11731
323.939	0.748718
326.832	4.62085
329.725	0.261292
332.618	9.32861
335.51	36.6397
338.403	76.6265
341.296	118.405
344.188	184.949
347.081	301.812
349.974	474.554
352.866	621.774
355.759	488.826
358.652	221.935
361.545	93.4083
364.437	44.5548
367.33	26.4681
370.223	17.3409
373.115	16.2352
376.008	21.1981
378.901	31.3676
381.793	45.7364
384.686	53.6664
387.579	72.7057
390.471	100.879
393.364	89.0139
396.257	47.4833
399.15	21.1392
402.042	8.07947
404.935	13.2847
407.828	20.01
410.72	34.0249
413.613	44.8874
416.506	51.3065
419.399	37.7612
422.291	28.899
425.184	32.5933
428.077	38.9895
430.969	56.7829
433.862	76.9941
436.755	103.962
439.647	122.188
442.54	111.128
445.433	81.543
448.325	54.7502
451.218	36.832
454.111	26.0406
457.004	22.1252
459.896	13.3579
462.789	13.0154
465.682	11.005
468.574	4.11407
471.467	4.5108
474.36	6.107
477.252	2.45294
480.145	3.66187
483.038	0.450684
485.931	1.20599
488.823	4.06989
491.716	4.08612
494.609	2.38519
497.501	0.021851
500.394	0.716248
503.287	4.1626
506.18	16.1132
509.072	22.0919
511.965	41.4494
514.858	57.6869
517.75	83.8979
520.643	100.124
523.536	73.9644
526.428	42.1893
529.321	24.5663
532.214	23.0553
535.106	24.6527
537.999	26.1813
540.892	27.0176
543.785	32.3999
546.677	27.9441
549.57	23.1168
552.463	25.3479
555.355	22.1509
558.248	23.7539
561.141	26.8654
564.034	28.424
566.926	33.8074
569.819	42.6215
572.712	52.2042
575.604	67.1196
578.497	77.9733
581.39	96.3663
584.282	99.5208
587.175	90.8019
590.068	70.1471
592.96	50.4241
595.853	37.3569
598.746	30.576
601.639	24.1476
604.531	17.4564
607.424	16.0701
610.317	13.8858
613.209	16.3469
616.102	12.4356
618.995	9.14618
621.888	3.88196
624.78	2.06244
627.673	2.2503
630.566	1.71677
633.458	0.374878
636.351	0.572845
639.244	0.252899
642.136	3.36292
645.029	2.97061
647.922	0.873566
650.814	0.901489
653.707	1.66879
656.6	1.45627
659.493	0.208862
662.385	1.14768
665.278	1.24799
668.171	4.01785
671.063	4.78928
673.956	5.47748
676.849	8.58795
679.741	9.98764
682.634	18.679
685.527	28.8035
688.42	51.6447
691.312	83.7203
694.205	138.299
697.098	209.464
699.99	334.687
702.883	487.12
705.776	532.357
708.668	334.071
711.561	161.782
714.454	78.6968
717.347	42.5136
720.239	25.5717
723.132	14.0169
726.025	10.4048
728.917	5.62482
731.81	0.679779
734.703	1.78632
737.596	0.864685
740.488	3.53894
743.381	0.111969
746.274	0.04657
749.166	1.04913
752.059	1.07074
754.952	0.484039
757.844	3.00928
760.737	0.790131
763.63	4.47061
766.523	2.40512
769.415	3.13031
772.308	7.12174
775.201	5.42938
778.093	12.093
780.986	14.8884
783.879	18.3191
786.771	13.6926
789.664	12.4275
792.557	10.7683
795.449	12.6936
798.342	13.6371
801.235	12.4571
804.128	13.5956
807.02	23.3072
809.913	24.1175
812.806	24.6316
815.698	13.7387
818.591	8.5191
821.484	5.12695
824.376	3.54465
827.269	2.49356
830.162	0.75766
833.055	1.3479
835.947	2.05173
838.84	3.83621
841.733	2.15048
844.625	2.40237
847.518	7.15375
850.411	3.32696
853.303	4.33106
856.196	3.20166
859.089	4.15079
861.982	4.30924
864.874	3.30289
867.767	3.36441
870.66	5.12915
873.552	6.91174
876.445	5.44815
879.338	7.13962
882.231	8.06
885.123	4.74707
888.016	2.02951
890.909	2.54761
893.801	1.56473
896.694	0.886322
899.587	0.573608
902.479	0.262115
905.372	0.177063
908.265	0.506836
911.158	2.20892
914.05	2.06757
916.943	2.99017
919.836	1.70602
922.728	2.31247
925.621	1.88119
928.514	3.34049
931.406	4.57828
934.299	4.43192
937.192	4.49878
940.084	7.79562
942.977	5.19385
945.87	7.90332
948.763	5.6488
951.655	7.69647
954.548	8.83084
957.441	8.31177
960.333	14.5814
963.226	19.8297
966.119	27.5856
969.011	37.3552
971.904	52.5947
974.797	67.6258
977.689	61.1734
980.582	42.1843
983.475	26.3523
986.368	19.0689
989.26	14.3455
992.153	9.026
995.046	7.01361
997.938	3.89035
1000.83	4.09589
1003.72	2.45541
1006.62	10.0733
1009.51	18.394
1012.4	34.785
1015.29	61.2972
1018.19	74.161
1021.08	49.2844
1023.97	15.9717
1026.87	8.21927
1029.76	1.73941
1032.65	2.36292
1035.54	4.47308
1038.44	1.51532
1041.33	2.88501
1044.22	8.29825
1047.11	13.4618
1050.01	18.8623
1052.9	20.5461
1055.79	29.3602
1058.68	36.9111
1061.58	57.9338
1064.47	94.3127
1067.36	145.903
1070.26	194.374
1073.15	166.223
1076.04	100.952
1078.93	62.7512
1081.83	48.6783
1084.72	42.9647
1087.61	35.731
1090.51	32.1714
1093.4	35.6678
1096.29	33.9499
1099.18	40.3467
1102.08	44.0088
1104.97	34.8577
1107.86	29.4488
1110.75	22.2151
1113.65	21.1672
1116.54	19.1082
1119.43	16.0978
1122.32	14.7667
1125.22	9.9596
1128.11	7.67111
1131	8.5108
1133.89	7.01233
1136.79	2.02338
1139.68	1.36639
1142.57	4.7666
1145.47	0.172424
1148.36	3.92145
1151.25	0.829712
1154.14	1.40338
1157.04	2.10553
1159.93	1.28705
1162.82	1.39929
1165.71	0.372803
1168.61	0.327271
1171.5	0.0802
1174.39	0.489075
1177.29	5.30121
1180.18	1.07758
1183.07	1.27154
1185.96	3.57281
1188.86	2.73236
1191.75	4.04462
1194.64	6.12842
1197.54	7.14697
1200.43	9.87445
1203.32	8.4173
1206.21	8.80566
1209.11	8.06457
1212	10.2201
1214.89	10.0012
1217.78	11.6621
1220.68	11.7567
1223.57	11.8823
1226.46	12.5295
1229.35	15.7816
1232.25	16.7233
1235.14	18.0317
1238.03	16.497
1240.92	16.1513
1243.82	11.676
1246.71	18.6005
1249.6	16.436
1252.5	10.1826
1255.39	6.97528
1258.28	11.3697
1261.17	3.34992
1264.07	3.68665
1266.96	6.30444
1269.85	0.935974
1272.74	1.36835
1275.64	4.00714
1278.53	2.06769
1281.42	0.251465
1284.32	3.38049
