Measurement: Raman, 514 nm, unoriented, Raman Data Processed
Mineral: Spodumene
Rruff sample: R040050
Ideal chemistry: LiAlSi_2_O_6_
Locality: Minas Gerais, Brazil
Source: University of Arizona Mineral Museum
Description: Pale pink fragment of a single crystal, variety kunzite
Measured chemistry: (Li_0.99_Na_0.01_)Al_1.00_Si_2.00_O_6_
Raman shift (cm-1)	intensity
154.48	0
158.63	42.764
162.779	31.802
166.926	5.88
171.07	46.05
175.213	79.015
179.354	207.354
183.493	732.711
187.63	889.768
191.765	646.054
195.898	267.243
200.029	135.325
204.158	126.282
208.285	151.122
212.41	6.162
216.533	27.603
220.654	97.543
224.773	306.481
228.891	317.129
233.006	202.858
237.119	192.271
241.231	550.627
245.34	1524.22
249.448	1690.03
253.553	1286.76
257.657	614.178
261.758	244.244
265.858	168.707
269.956	131.604
274.052	96.777
278.146	182.787
282.237	342.051
286.327	743.471
290.416	1551.02
294.502	1723.51
298.586	1266.6
302.668	556.308
306.749	133.587
310.827	33.897
314.903	6.813
318.978	52.418
323.051	286.345
327.121	470.684
331.19	410.367
335.257	329.502
339.322	345.482
343.385	561.308
347.446	1812.73
351.505	4153.59
355.563	4403.01
359.618	2425.24
363.672	896.244
367.723	385.004
371.773	284.797
375.821	213.857
379.866	272.504
383.91	453.252
387.952	862.258
391.992	1147.27
396.031	921.227
400.067	352.763
404.101	246.697
408.134	192.085
412.165	479.359
416.193	671.251
420.22	507.584
424.245	179.049
428.268	247.949
432.289	379.041
436.309	773.622
440.326	1328.51
444.342	1151.01
448.355	785.401
452.367	398.034
456.377	175.201
460.385	114.019
464.391	52.117
468.395	75.824
472.398	82.325
476.398	29.723
480.397	72.403
484.394	49.438
488.389	5.101
492.382	19.655
496.373	2.613
500.362	76.644
504.349	161.824
508.335	209.82
512.319	358.274
516.3	845.397
520.28	1374.47
524.259	1133.12
528.235	472.143
532.209	317.141
536.182	243.125
540.152	184.762
544.121	173.28
548.088	175.265
552.053	131.687
556.017	61.532
559.978	142.776
563.938	262.929
567.895	283.311
571.851	439.82
575.805	660.649
579.758	1058.85
583.708	1491.46
587.657	1573.61
591.603	1152.85
595.548	764.453
599.491	370.087
603.432	290.815
607.372	209.421
611.309	252.576
615.245	227.242
619.179	212.531
623.111	13.473
627.041	179.831
630.97	28.065
634.896	29.655
638.821	95.229
642.744	47.942
646.665	53.972
650.584	51.464
654.502	199.27
658.418	27.247
662.331	67.496
666.244	193.257
670.154	12.557
674.062	102.768
677.969	234.263
681.874	332.431
685.777	495.231
689.678	806.573
693.577	1364.61
697.475	2621.84
701.371	6523.97
705.265	11952.5
709.157	10610.7
713.047	4679.1
716.936	2099.99
720.823	1142.73
724.708	682.804
728.591	421.339
732.472	465.359
736.352	253.147
740.23	232.995
744.106	134.262
747.98	173.954
751.853	63.591
755.723	178.719
759.592	141.44
763.459	24.395
767.325	50.878
771.188	118.537
775.05	123.718
778.91	88.854
782.768	169.391
786.625	143.852
790.479	107.813
794.332	156.157
798.183	21.189
802.033	63.379
805.88	207.269
809.726	41.862
813.57	15.241
817.413	59.271
821.253	34.844
825.092	153.136
828.929	149.35
832.764	76.343
836.598	4.072
840.429	107.81
844.259	49.525
848.088	61.721
851.914	45.406
855.739	74.107
859.562	106.84
863.383	119.639
867.203	87.997
871.02	85.242
874.836	52.365
878.65	58.439
882.463	304.283
886.274	163.411
890.083	314.127
893.89	68.035
897.695	98.149
901.499	175.759
905.301	312.102
909.102	174.155
912.9	153.524
916.697	297.902
920.492	234.386
924.285	89.796
928.077	108.073
931.867	148.924
935.655	48.65
939.442	182.885
943.226	179.022
947.009	145.855
950.791	118.168
954.57	304.055
958.348	427.708
962.124	591.603
965.899	852.211
969.671	1369.83
973.442	2690.05
977.211	4260.07
980.979	3765.1
984.745	2238.56
988.509	1256
992.271	704.322
996.032	527.227
999.791	559.568
1003.55	185.014
1007.3	511.975
1011.06	550.967
1014.81	1013.78
1018.56	1732.99
1022.31	1545.12
1026.06	921.748
1029.8	711.783
1033.55	421.248
1037.29	333.959
1041.03	467.041
1044.77	554.736
1048.5	529.965
1052.24	696.512
1055.97	842.582
1059.7	903.006
1063.43	1315.04
1067.16	2006.73
1070.89	3992.5
1074.61	4984.64
1078.34	2669.32
1082.06	1461.24
1085.78	971.457
1089.5	571.52
1093.21	464.232
1096.93	407.85
1100.64	360.443
1104.35	652.445
1108.06	170.881
1111.77	335.236
1115.48	166.533
1119.18	187.484
1122.89	233.107
1126.59	336.482
1130.29	94.045
1133.99	103.559
1137.68	344.389
1141.38	297.516
1145.07	38.17
1148.76	189.783
1152.45	55.576
1156.14	14.467
1159.83	119.305
1163.51	140.113
1167.19	422.34
1170.88	171.338
1174.56	304.107
1178.23	245.957
1181.91	144.004
1185.59	422.189
1189.26	385.225
1192.93	423.676
1196.6	374
1200.27	243.592
1203.94	557.225
1207.6	362.91
1211.27	317.434
1214.93	238.367
1218.59	38.129
1222.25	71.848
1225.9	177.641
1229.56	215.828
1233.21	183.062
1236.86	241.174
1240.51	46.553
1244.16	96.646
1247.81	204.721
1251.45	205.172
1255.1	271.41
1258.74	6.223
1262.38	356.949
1266.02	445.805
1269.66	190.184
1273.29	346.84
1276.93	37.191
1280.56	210.258
1284.19	143.961
1287.82	73.711
1291.45	10.051
1295.07	26.578
1298.7	112.523
1302.32	347.414
1305.94	278.633
1309.56	518.734
1313.18	198.586
1316.8	356.336
1320.41	238.754
1324.02	34.465
1327.63	732.477
1331.24	270.41
1334.85	181.254
1338.46	514.551
1342.06	624.773
1345.67	614.945
1349.27	613.184
1352.87	744.961
1356.47	498.734
1360.07	541.754
1363.66	287.855
1367.25	214.727
1370.85	226.605
1374.44	74.227
1378.03	295.957
1381.61	182.82
1385.2	117.754
1388.78	31.066
