Measurement: Raman, 532 nm, unoriented, Raman Data Processed
Mineral: Spodumene
Rruff sample: R040050
Ideal chemistry: LiAlSi_2_O_6_
Locality: Minas Gerais, Brazil
Source: University of Arizona Mineral Museum
Description: Pale pink fragment of a single crystal, variety kunzite
Measured chemistry: (Li_0.99_Na_0.01_)Al_1.00_Si_2.00_O_6_
Raman shift (cm-1)	intensity
137.587	0
140.48	51.252
143.373	50.9375
146.266	53.5508
149.158	67.6426
152.051	71.9629
154.944	84.1201
157.836	98.1392
160.729	130.319
163.622	27.1875
166.514	73.8188
169.407	87.8525
172.3	122.514
175.192	117.02
178.085	72.9775
180.978	99.4233
183.871	112.075
186.763	171.942
189.656	152.648
192.549	99.9175
195.441	153.738
198.334	27.2749
201.227	49.6001
204.119	50.3115
207.012	69.189
209.905	36.4526
212.798	34.8911
215.69	12.1411
218.583	57.2109
221.476	13.5234
224.368	30.5913
227.261	30.0425
230.154	15.1392
233.047	5.9292
235.939	113.604
238.832	65.564
241.725	135.966
244.617	87.3945
247.51	128.814
250.403	255.21
253.295	176.188
256.188	117.764
259.081	149.354
261.974	68.1924
264.866	34.3315
267.759	80.2153
270.652	39.3345
273.544	52.4072
276.437	93.5615
279.33	118.421
282.222	118.115
285.115	98.2676
288.008	184.677
290.901	247.2
293.793	321.945
296.686	421.812
299.579	358.325
302.471	245.064
305.364	55.1934
308.257	57.2139
311.149	64.5225
314.042	32.1387
316.935	122.611
319.827	30.0264
322.72	18.6904
325.613	56.834
328.506	36.2285
331.398	90.2969
334.291	15.8271
337.184	23.4443
340.076	150.895
342.969	215.483
345.862	173.093
348.755	302.528
351.647	619.638
354.54	824.742
357.433	726.075
360.325	355.141
363.218	154.786
366.111	64.8232
369.003	48.6123
371.896	27.8916
374.789	8.41895
377.682	24.2793
380.574	154.04
383.467	101.599
386.36	114.868
389.252	253.351
392.145	281.56
395.038	209.454
397.93	95.2324
400.823	124.505
403.716	80.7129
406.608	5.72266
409.501	24.0615
412.394	58.5498
415.287	40.0205
418.179	22.793
421.072	4.07617
423.965	35.2998
426.857	144.751
429.75	68.8633
432.643	153.048
435.536	171.716
438.428	84.6856
441.321	178.71
444.214	186.151
447.106	227.605
449.999	166.932
452.892	87.4307
455.784	68.2676
458.677	118.122
461.57	37.8447
464.462	15.7109
467.355	55.5576
470.248	48.7891
473.141	22.6689
476.033	59.8574
478.926	6.59961
481.819	7.30371
484.711	32.8721
487.604	82.6856
490.497	61.6152
493.389	3.29102
496.282	60.0127
499.175	142.111
502.068	109.261
504.96	159.788
507.853	87.5478
510.746	192.933
513.638	160.987
516.531	252.806
519.424	347.079
522.317	269.013
525.209	274.878
528.102	119.714
530.995	166.133
533.887	83.5107
536.78	153.866
539.673	144.561
542.565	7.16797
545.458	171.989
548.351	152.207
551.244	143.576
554.136	14.0977
557.029	27.1973
559.922	94.2207
562.814	49.8711
565.707	36.209
568.6	75.2637
571.492	53.2891
574.385	78.5801
577.278	143.147
580.17	114.394
583.063	176.457
585.956	225.756
588.848	142.369
591.741	155.236
594.634	158.699
597.527	127.322
600.419	105.978
603.312	112.09
606.205	91.8516
609.097	21.9316
611.99	15.7656
614.883	28.8809
617.775	123.725
620.668	169.818
623.561	24.668
626.454	56.6992
629.346	67.1602
632.239	113.769
635.132	168.344
638.024	87.2188
640.917	69.1309
643.81	17.6406
646.702	96.5019
649.595	27.334
652.488	42.6777
655.381	75.0957
658.273	23.0449
661.166	134.268
664.059	14.3223
666.951	84.9199
669.844	3.94336
672.737	47.0137
675.63	41.6543
678.522	137.934
681.415	38.8281
684.308	94.7656
687.2	40.3867
690.093	159.057
692.986	451.928
695.878	483.785
698.771	481.834
701.664	808.277
704.557	1162.72
707.449	1419.24
710.342	1068.51
713.235	551.055
716.127	334.588
719.02	310.359
721.913	274.576
724.805	224.447
727.698	215.74
730.591	150.785
733.484	107.904
736.376	39.8848
739.269	160.643
742.162	107.117
745.054	122.647
747.947	56.6328
750.84	96.2422
753.732	0.595703
756.625	64.457
759.518	87.4043
762.41	57.8984
765.303	50.7441
768.196	116.891
771.089	145.869
773.981	118.893
776.874	305.541
779.767	125.549
782.659	166.957
785.552	167.617
788.445	160.246
791.337	114.127
794.23	179.894
797.123	217.066
800.016	57.1953
802.908	32.5996
805.801	66.5859
808.694	63.582
811.586	1.59766
814.479	151.477
817.372	122.816
820.264	111.178
823.157	132.875
826.05	254.525
828.943	150.853
831.835	66.7969
834.728	237.482
837.621	65.4004
840.513	54.6602
843.406	113.076
846.299	42.9609
849.192	72.1914
852.084	13.9727
854.977	94.3652
857.87	133.266
860.762	98.3809
863.655	9.21484
866.548	103.287
869.44	192.938
872.333	204.074
875.226	138.992
878.119	7.00781
881.011	132.346
883.904	146.881
886.797	184.078
889.689	30.6953
892.582	201.522
895.475	22.3984
898.367	130.42
901.26	110.162
904.153	136.004
907.045	120.309
909.938	129.516
912.831	108.793
915.724	107.789
918.616	53.5977
921.509	199.352
924.402	259.051
927.294	298.258
930.187	159.391
933.08	73.1133
935.972	187.387
938.865	90.8516
941.758	73.5977
944.651	51.125
947.543	3.29688
950.436	7.44141
953.329	39.8047
956.221	68.5508
959.114	12.1016
962.007	55.0508
964.899	65.7891
967.792	219.469
970.685	167.891
973.578	210.992
976.47	248.656
979.363	143.426
982.256	198.871
985.148	189.723
988.041	183.039
990.934	146.828
993.826	126.25
996.719	54.1211
999.612	69.5898
1002.5	156.828
1005.4	188.566
1008.29	153.152
1011.18	188.906
1014.08	153.801
1016.97	349.977
1019.86	339.957
1022.75	203.258
1025.65	107.707
1028.54	131.562
1031.43	226.254
1034.32	164.344
1037.22	130.758
1040.11	187.961
1043	29.6914
1045.89	154.066
1048.79	88.3789
1051.68	85.1016
1054.57	10.1641
1057.47	23.0664
1060.36	39.375
1063.25	195.152
1066.14	316.258
1069.04	203.445
1071.93	434.207
1074.82	352.055
1077.71	110.047
1080.61	67.707
1083.5	50.125
1086.39	148.195
1089.29	329.074
1092.18	183.106
1095.07	244.473
1097.96	100.875
1100.86	181.238
1103.75	200.801
1106.64	149.199
1109.53	70.5625
1112.43	118.414
1115.32	195.871
1118.21	88.3789
1121.11	225.242
1124	291.441
1126.89	100.648
1129.78	56.7227
1132.68	93.7891
1135.57	18.4922
1138.46	248.445
1141.35	164.254
1144.25	39.457
1147.14	360.074
1150.03	188.949
1152.92	145.086
1155.82	170.348
1158.71	374.117
1161.6	77.1797
1164.5	95.7891
1167.39	195.359
1170.28	114.438
1173.17	77.168
1176.07	28.9766
1178.96	157.231
1181.85	298.801
1184.74	308.473
1187.64	19.793
1190.53	103.633
1193.42	106.664
1196.32	76.5703
1199.21	259.922
1202.1	194.758
1204.99	98.9531
1207.89	49.5195
1210.78	102.629
1213.67	114.047
1216.56	232.879
1219.46	214.621
1222.35	270.891
1225.24	333.602
1228.13	339.902
1231.03	3.42969
1233.92	229.191
1236.81	110.902
1239.71	115.082
1242.6	29.2188
1245.49	238.938
1248.38	175.469
1251.28	259.625
1254.17	259.996
1257.06	242.973
1259.95	186.144
1262.85	64.2695
1265.74	290.141
1268.63	44.2461
1271.53	414.441
1274.42	293.703
1277.31	120.906
1280.2	11.668
1283.1	58.918
1285.99	121.953
1288.88	68.4062
