Measurement: Raman, 780 nm, unoriented, Raman Data Processed
Mineral: Spodumene
Rruff sample: R060039
Ideal chemistry: LiAlSi_2_O_6_
Locality: Black Hills, South Dakota, USA
Source: University of Arizona Mineral Museum
Description: Light green massive
Measured chemistry: Li_1.00_(Al_0.99_Fe^3+^_0.01_)Si_2.00_O_6_
Raman shift (cm-1)	intensity
136.878	0
139.771	0.701022
142.664	0.007395
145.556	1.10607
148.449	1.52974
151.342	0.037389
154.235	2.0304
157.127	1.56587
160.02	0.073571
162.913	1.1576
165.805	1.76146
168.698	3.59239
171.591	4.41927
174.483	4.41493
177.376	5.0214
180.269	7.66601
183.162	10.867
186.054	13.894
188.947	12.6575
191.84	5.81269
194.732	3.40081
197.625	1.4345
200.518	0.232457
203.411	0.295232
206.303	0.767607
209.196	0.31891
212.089	0.057131
214.981	0.195484
217.874	0.111819
220.767	0.043144
223.659	0.530905
226.552	2.0254
229.445	4.77858
232.338	4.56893
235.23	4.88382
238.123	7.15537
241.016	11.1571
243.908	14.2344
246.801	20.7294
249.694	17.6597
252.586	7.95338
255.479	3.09798
258.372	1.99269
261.264	2.5752
264.157	2.12062
267.05	1.04133
269.943	2.28202
272.835	6.98034
275.728	9.8422
278.621	16.6867
281.513	23.3086
284.406	30.4387
287.299	38.0583
290.191	50.4393
293.084	61.0384
295.977	61.7874
298.87	48.0054
301.762	26.7993
304.655	9.45829
307.548	3.08289
310.44	0.003987
313.333	0.774321
316.226	0.698381
319.118	0.069492
322.011	0.498495
324.904	0.350447
327.796	2.05305
330.689	3.80137
333.582	10.5277
336.475	25.1941
339.367	36.6739
342.26	47.3413
345.153	66.9113
348.045	91.1964
350.938	129.16
353.831	167.566
356.724	128.599
359.616	62.529
362.509	30.2052
365.402	16.3176
368.294	13.4497
371.187	13.2376
374.08	18.1235
376.972	22.5519
379.865	28.9361
382.758	35.0051
385.651	41.8588
388.543	54.5935
391.436	64.1797
394.329	51.8532
397.221	27.307
400.114	9.29422
403.007	4.42443
405.899	0.398757
408.792	0.408569
411.685	0.791244
414.577	0.094422
417.47	1.14123
420.363	1.1228
423.256	4.83065
426.148	8.07407
429.041	11.0208
431.934	16.275
434.826	21.1501
437.719	27.0763
440.612	28.2205
443.505	25.0053
446.397	15.9122
449.29	9.4056
452.183	5.3657
455.075	4.18802
457.968	3.38834
460.861	4.50398
463.753	3.55544
466.646	1.10802
469.539	0.524238
472.432	0.286226
475.324	1.16859
478.217	0.03856
481.11	0.282893
484.002	0.002493
486.895	1.2373
489.788	1.25727
492.68	2.55065
495.573	4.19102
498.466	5.72795
501.358	9.60909
504.251	15.5371
507.144	22.5938
510.037	26.5403
512.929	34.242
515.822	43.1762
518.715	54.4591
521.607	57.4248
524.5	40.5264
527.393	22.0097
530.285	12.836
533.178	8.08215
536.071	6.26229
538.964	4.22551
541.856	2.38906
544.749	2.11009
547.642	0.330175
550.534	1.2058
553.427	0.093544
556.32	0.12939
559.212	0.249579
562.105	1.74
564.998	2.31076
567.891	4.57772
570.783	7.94483
573.676	10.3256
576.569	14.2752
579.461	17.4046
582.354	20.5582
585.247	21.659
588.139	19.5503
591.032	15.0861
593.925	10.143
596.817	7.67044
599.71	5.75629
602.603	3.53115
605.496	3.13338
608.388	2.22698
611.281	2.82973
614.174	2.97255
617.066	2.56967
619.959	0.803301
622.852	0.883234
625.745	0.138869
628.637	0.415498
631.53	0.094002
634.423	0.845392
637.315	0.229444
640.208	0.077099
643.101	0.08374
645.993	0.027493
648.886	0.058002
651.779	0.989793
654.672	0.510023
657.564	0.254162
660.457	1.27406
663.35	1.62232
666.242	0.61549
669.135	2.47286
672.028	3.96475
674.92	5.48369
677.813	7.8817
680.706	11.5965
683.598	16.4836
686.491	28.7025
689.384	47.133
692.277	73.8496
695.169	97.9962
698.062	130.177
700.955	176.096
703.847	221.618
706.74	222.554
709.633	144.827
712.525	73.8441
715.418	38.6523
718.311	23.3423
721.204	15.6192
724.096	9.76583
726.989	7.83934
729.882	5.10712
732.774	2.47554
735.667	3.03719
738.56	1.75706
741.452	2.40291
744.345	0.987272
747.238	0.264247
750.131	1.029
753.023	0.432506
755.916	0.383579
758.809	0.118868
761.701	0.318033
764.594	0.165519
767.487	0.621332
770.38	1.41329
773.272	1.38335
776.165	2.17573
779.058	2.70091
781.95	4.65528
784.843	3.79028
787.736	1.68477
790.628	0.354824
793.521	1.46944
796.414	1.09928
799.307	0.687187
802.199	0.754232
805.092	0.077532
807.985	0.435505
810.877	0.786533
813.77	0.712405
816.663	0.729111
819.555	0.425194
822.448	0.02305
825.341	0.169673
828.234	0.253046
831.126	0.681227
834.019	0.007713
836.912	0.402075
839.804	0.747619
842.697	1.92249
845.59	0.565362
848.482	0.741802
851.375	1.99842
854.268	1.36051
857.16	1.95096
860.053	2.05151
862.946	1.15745
865.839	2.17482
868.731	2.1717
871.624	2.11809
874.517	1.21568
877.409	2.56365
880.302	2.18171
883.195	2.04134
886.087	1.62737
888.98	2.09216
891.873	1.00096
894.765	1.07284
897.658	0.854011
900.551	0.403498
903.444	0.687188
906.336	0.246372
909.229	0.73387
912.122	0.057308
915.014	0.251663
917.907	0.680618
920.8	0.432628
923.692	0.651137
926.585	0.290193
929.478	0.519851
932.371	0.151544
935.263	0.201484
938.156	0.150531
941.049	0.079838
943.941	0.080337
946.834	0.077032
949.727	0.64936
952.62	0.796293
955.512	0.526724
958.405	1.08138
961.298	1.62856
964.19	2.54189
967.083	3.95047
969.976	5.90384
972.868	6.29829
975.761	7.07768
978.654	6.9901
981.547	3.79543
984.439	2.10061
987.332	1.62583
990.225	0.028527
993.117	0.460881
996.01	0.481383
998.903	0.188581
1001.79	2.14264
1004.69	0.877353
1007.58	2.56334
1010.47	2.32919
1013.37	4.0023
1016.26	6.4524
1019.15	7.54139
1022.04	4.30452
1024.94	1.46012
1027.83	0.460454
1030.72	0.286037
1033.62	0.095093
1036.51	0.12605
1039.4	0.100413
1042.29	1.90524
1045.19	1.51298
1048.08	2.38544
1050.97	3.82165
1053.86	5.8426
1056.76	8.07221
1059.65	12.1361
1062.54	18.418
1065.43	25.2065
1068.33	34.2042
1071.22	38.9703
1074.11	29.8921
1077.01	18.5197
1079.9	10.3562
1082.79	6.58405
1085.68	5.31301
1088.58	3.55952
1091.47	3.46146
1094.36	1.75263
1097.25	2.78922
1100.15	2.78094
1103.04	3.03773
1105.93	2.21774
1108.83	0.649677
1111.72	0.543123
1114.61	0.8773
1117.5	0.516202
1120.4	0.127674
1123.29	0.81771
1126.18	0.039141
1129.07	0.444282
1131.97	0.434376
1134.86	0.426337
1137.75	0.193573
1140.64	0.071779
1143.54	1.13698
1146.43	0.171339
1149.32	0.587725
1152.22	1.12158
1155.11	1.38655
1158	1.44369
1160.89	0.893901
1163.79	1.09433
1166.68	0.9358
1169.57	1.20963
1172.46	0.646525
1175.36	1.23629
1178.25	0.467005
1181.14	1.18813
1184.04	0.83806
1186.93	0.564519
1189.82	0.080867
1192.71	0.372158
1195.61	0.977156
1198.5	0.21441
1201.39	0.795379
1204.28	0.423277
1207.18	0.917441
1210.07	0.11125
1212.96	0.561432
1215.86	0.831317
1218.75	0.880435
1221.64	0.27
1224.53	0.02112
1227.43	0.218977
1230.32	0.35801
1233.21	0.668495
1236.1	0.873106
1239	0.728204
1241.89	0.593043
1244.78	0.350135
1247.67	0.466096
1250.57	0.019254
1253.46	0.991524
1256.35	0.424261
1259.25	0.347501
1262.14	0.952043
1265.03	0.642069
1267.92	0.721981
1270.82	0.760153
1273.71	1.67274
1276.6	1.10637
1279.49	1.39581
1282.39	0.355247
1285.28	0.298417
