Measurement: Raman, 532 nm, unoriented, Raman Data Processed
Mineral: Spurrite
Rruff sample: R070632
Ideal chemistry: Ca_5_(SiO_4_)_2_(CO_3_)
Locality: Huka, Okayama, Japan
Source: Shinichi Kihara
Description: Massive lavender fragment
Raman shift (cm-1)	intensity
133.513	0
136.406	119.007
139.299	724.06
142.192	1531.89
145.084	2847.68
147.977	3659.35
150.87	4118.46
153.762	3573.41
156.655	3569.45
159.548	4042.19
162.44	4860.98
165.333	4703.21
168.226	4310.68
171.119	5006.27
174.011	3648.51
176.904	1515.66
179.797	861.93
182.689	384.878
185.582	20.9521
188.475	103.693
191.368	79.3496
194.26	112.171
197.153	37
200.046	12.4512
202.938	284.322
205.831	216.386
208.724	361.135
211.616	591.258
214.509	918.969
217.402	1248.35
220.294	1716.23
223.187	2187.2
226.08	2069.41
228.972	1395.52
231.865	1286.8
234.758	1246.56
237.651	1260.16
240.543	1134.37
243.436	1229.8
246.329	1364.53
249.221	1766.64
252.114	2210.9
255.007	2502.16
257.899	2541.67
260.792	2577.08
263.685	2866.18
266.578	3088.73
269.47	2589.99
272.363	2120.68
275.256	1790.28
278.148	1718.46
281.041	1601.78
283.934	1408.11
286.827	1189.46
289.719	1231.54
292.612	1326.54
295.505	1277.51
298.397	1532.89
301.29	1394.83
304.183	1209
307.075	1105.33
309.968	904.173
312.861	806.609
315.753	691
318.646	512.924
321.539	368.44
324.432	135.856
327.324	6.32519
330.217	91.4981
333.11	54.7959
336.002	122.308
338.895	45.7041
341.788	14.1709
344.68	144.415
347.573	261.845
350.466	320.996
353.359	269.892
356.251	282.668
359.144	290.565
362.037	348.019
364.929	508.407
367.822	650.265
370.715	791.469
373.608	1096.26
376.5	1293.19
379.393	1294.86
382.286	1238.32
385.178	1231.64
388.071	1351.73
390.964	1456.48
393.856	1607.71
396.749	1700.2
399.642	1957.56
402.534	2140.91
405.427	2028.06
408.32	1480.34
411.213	976.077
414.105	718.773
416.998	571.384
419.891	489.695
422.783	648.003
425.676	738.781
428.569	841.278
431.461	977.442
434.354	1054.12
437.247	1157.52
440.139	1015.79
443.032	950.688
445.925	680.851
448.818	647.939
451.71	423.043
454.603	333.565
457.496	133.727
460.388	234.243
463.281	75.7256
466.174	67.4189
469.067	71.8906
471.959	44.9209
474.852	75.543
477.745	11.1201
480.637	91.0879
483.53	35.0801
486.423	215.613
489.315	208.54
492.208	299.141
495.101	349.802
497.993	531.726
500.886	660.707
503.779	665.344
506.672	762.358
509.564	1019.35
512.457	1144.09
515.35	1331.67
518.242	1765.28
521.135	1895.17
524.028	1320.52
526.92	715.672
529.813	536.946
532.706	499.932
535.599	567.299
538.491	689.688
541.384	849.344
544.277	1084.23
547.169	1032.11
550.062	726.043
552.955	435.912
555.847	329.158
558.74	278.174
561.633	165.132
564.526	102.603
567.418	137.825
570.311	166.894
573.204	80.9111
576.096	166.674
578.989	66.6152
581.882	95.2607
584.774	142.681
587.667	179.51
590.56	77.3379
593.452	58.8701
596.345	83.5459
599.238	125.78
602.131	161.973
605.023	145.537
607.916	181.579
610.809	194.688
613.701	79.4805
616.594	12.0947
619.487	66.165
622.38	40.0732
625.272	28.1455
628.165	60.7715
631.058	27.1006
633.95	18.126
636.843	34.0137
639.736	48.2109
642.628	88.6494
645.521	175.099
648.414	113.076
651.307	139.677
654.199	308.008
657.092	180.87
659.985	177.56
662.877	81.8096
665.77	84.3975
668.663	127.099
671.555	114.939
674.448	159.981
677.341	152.581
680.234	228.936
683.126	214.472
686.019	203.376
688.912	706.28
691.804	1337
694.697	1717.97
697.59	2470.46
700.482	3886.04
703.375	4723.78
706.268	1966.31
709.16	627.151
712.053	283.229
714.946	79.9863
717.839	25.9795
720.731	49.4092
723.624	99.4414
726.517	99.9853
729.409	16.125
732.302	9.56641
735.195	95.5147
738.087	323.366
740.98	156.472
743.873	82.7852
746.766	188.975
749.658	56.4082
752.551	28.4453
755.444	26.8428
758.336	0.196289
761.229	26.3486
764.122	162.161
767.014	54.7041
769.907	72.7998
772.8	4.49609
775.692	63.1709
778.585	46.4365
781.478	88.9033
784.371	69.375
787.263	13.791
790.156	114.603
793.049	57.5244
795.941	70.9893
798.834	60.9375
801.727	30.3574
804.62	7.30762
807.512	12.9863
810.405	22.9199
813.298	120.098
816.19	86.0918
819.083	90.8389
821.976	173.504
824.868	326.174
827.761	422.106
830.654	683.643
833.547	1208.24
836.439	2178.82
839.332	3743.83
842.225	6045.02
845.117	8353.53
848.01	11149.7
850.903	14902.2
853.795	18214.1
856.688	14059.7
859.581	11997.4
862.473	13994.5
865.366	18420.7
868.259	12592.9
871.152	5384.02
874.044	3126.03
876.937	2126.47
879.83	1979.26
882.722	2063.25
885.615	2168.08
888.508	1792.67
891.4	1160.74
894.293	861.529
897.186	266.946
900.079	96.2471
902.971	10.4971
905.864	63.831
908.757	160.741
911.649	370.624
914.542	461.44
917.435	671.708
920.327	1143.72
923.22	1495.41
926.113	1538.38
929.005	1563.19
931.898	1863.32
934.791	2195.07
937.684	2648.42
940.576	3038.51
943.469	3623.06
946.362	4411.67
949.254	5472.2
952.147	4326.58
955.04	2188.6
957.933	773.282
960.825	326.033
963.718	76.8223
966.611	10.4131
969.503	57.417
972.396	79.1826
975.289	19.252
978.181	37.8525
981.074	29.7598
983.967	224.953
986.86	277.291
989.752	187.525
992.645	66.0713
995.538	71.9902
998.43	155.588
1001.32	56.5352
1004.22	137.535
1007.11	42.6611
1010	100.782
1012.89	143.217
1015.79	160.902
1018.68	69.7168
1021.57	67.7197
1024.46	7.73438
1027.36	100.783
1030.25	101.171
1033.14	87.7568
1036.04	49.1484
1038.93	109.192
1041.82	98.7451
1044.71	287.018
1047.61	329.566
1050.5	341
1053.39	489.231
1056.28	731.056
1059.18	813.302
1062.07	995.681
1064.96	1419.76
1067.86	3983.61
1070.75	10807.4
1073.64	15614.6
1076.53	22454.2
1079.43	35546.9
1082.32	32212.8
1085.21	9247.18
1088.1	3262.18
1091	1418.82
1093.89	908.352
1096.78	732.581
1099.67	581.004
1102.57	499.565
1105.46	451.138
1108.35	403.259
1111.24	304.17
1114.14	323.679
1117.03	205.894
1119.92	156.579
1122.82	154.923
1125.71	47.0625
1128.6	65.1103
1131.49	29.9385
1134.39	112.873
1137.28	22.3682
1140.17	42.4951
1143.07	41.0166
1145.96	27.7764
1148.85	7.6416
1151.74	0.043945
1154.64	35.9131
1157.53	6.8418
1160.42	28.6689
1163.31	28.3564
1166.21	21.3213
1169.1	18.376
1171.99	7.94043
1174.88	63.8037
1177.78	83.2471
1180.67	75.3916
1183.56	88.415
1186.46	122.307
1189.35	113.46
1192.24	132.147
1195.13	156.284
1198.03	116.213
1200.92	185.047
1203.81	175.484
1206.7	215.056
1209.6	167.177
1212.49	134.645
1215.38	107.7
1218.28	119.074
1221.17	103.114
1224.06	49.7402
1226.95	39.749
1229.85	109.2
1232.74	134.654
1235.63	67.7529
1238.52	171.399
1241.42	131.913
1244.31	186.702
1247.2	91.6641
1250.1	127.223
1252.99	109.57
1255.88	235.759
1258.77	94.1514
1261.67	73.4668
1264.56	114.506
1267.45	39.6807
1270.34	146.934
1273.24	113.602
1276.13	93.4795
1279.02	1.51172
1281.91	0
