Measurement: Raman, 514 nm, unoriented, Raman Data Processed
Mineral: Spurrite
Rruff sample: R050236
Ideal chemistry: Ca_5_(SiO_4_)_2_(CO_3_)
Locality: South Sister Peak, Luna County, New Mexico, USA
Source: Marcus Origlieri
Description: Lavendar-gray massive
Measured chemistry: Ca_5.00_(Si_1.00_O_4_)_2_(CO_3_)
Raman shift (cm-1)	intensity
85.009	0
89.193	93.488
93.375	573.244
97.554	408.426
101.732	950.924
105.908	1432.43
110.082	1118.07
114.254	585.507
118.424	478.885
122.592	897.023
126.758	838.816
130.922	1002.4
135.083	719.198
139.243	1015.3
143.401	1431.28
147.557	1876.32
151.711	1919
155.863	2014.53
160.013	2608.38
164.161	3720.24
168.308	4404.75
172.452	4089.17
176.594	2796.66
180.734	1960.72
184.872	1610.58
189.008	1394.34
193.143	1529.18
197.275	1866.42
201.405	1951.61
205.534	1854.31
209.66	1693.98
213.784	1808.71
217.907	2253.44
222.027	2866.53
226.146	2972.89
230.263	2498.49
234.377	2126.28
238.49	1825.21
242.601	2006.23
246.709	2537.32
250.816	3554.57
254.921	4513.44
259.024	4017.1
263.125	2809.14
267.224	2412.69
271.321	2140.22
275.416	1739.39
279.51	1824.92
283.601	1457.62
287.69	881.283
291.778	652.792
295.863	626.993
299.947	716.037
304.029	437.649
308.108	178.938
312.186	96.461
316.262	128.787
320.336	112.614
324.408	168.569
328.478	66.353
332.546	122.199
336.612	208.996
340.677	18.834
344.739	334.984
348.799	933.438
352.858	1571.38
356.915	1233.53
360.969	640.298
365.022	401.976
369.073	400.537
373.122	713.863
377.169	1356.67
381.215	1905.32
385.258	2412.71
389.299	2502.83
393.339	1892.66
397.376	1445.18
401.412	1032.41
405.446	1061.37
409.478	750.055
413.508	446.729
417.536	172.906
421.562	249.6
425.586	370.991
429.609	434.896
433.629	725.834
437.648	718.442
441.665	658.152
445.68	445.949
449.693	281.147
453.704	145.71
457.713	68.125
461.721	59.984
465.726	158.765
469.73	121.853
473.731	3.659
477.731	64.984
481.729	47.867
485.725	20.443
489.72	8.023
493.712	73.522
497.703	99.137
501.691	208.498
505.678	328.082
509.663	207.286
513.646	286.267
517.627	788.727
521.607	1023.32
525.584	832.751
529.56	544.47
533.534	480.817
537.506	755.966
541.476	1120.65
545.444	1942.02
549.41	2239.62
553.375	1657.45
557.337	1427.57
561.298	1257.05
565.257	1144.33
569.214	1149.86
573.17	930.414
577.123	572.345
581.075	336.186
585.024	215.228
588.972	159.001
592.918	77.971
596.863	204.525
600.805	182.338
604.746	232.536
608.685	248.835
612.621	204.806
616.557	307.984
620.49	337.06
624.421	300.196
628.351	378.026
632.279	478.871
636.205	253.68
640.129	270.772
644.051	338.112
647.972	475.369
651.89	563.791
655.807	851.833
659.722	972.445
663.636	544.803
667.547	318.207
671.457	204.092
675.365	254.919
679.271	197.857
683.175	210.881
687.077	188.986
690.978	210.142
694.877	337.277
698.774	777.424
702.669	2137.77
706.562	1475.34
710.454	739.129
714.344	265.146
718.232	54.343
722.118	130.65
726.002	83.077
729.885	221.646
733.766	65.404
737.645	165.176
741.522	155.164
745.397	169.059
749.271	161.978
753.143	114.719
757.013	69.12
760.881	38.289
764.748	0.299
768.613	50.163
772.476	94.61
776.337	29.575
780.196	34.465
784.054	137.296
787.91	101.368
791.764	56.22
795.616	9.453
799.467	46.766
803.316	144.509
807.163	133.778
811.008	164.047
814.851	365.627
818.693	384.032
822.533	373.559
826.371	555.769
830.208	693.152
834.042	843.036
837.875	1507.1
841.706	2811.17
845.536	5130.7
849.363	10932.7
853.189	21912.2
857.013	18549.3
860.836	13345.1
864.656	25320.6
868.475	21577
872.292	8495.76
876.108	3899.7
879.922	3006.34
883.733	2343.96
887.544	2222.86
891.352	1957.96
895.159	1798.92
898.964	1803.69
902.767	1495.43
906.568	1817.54
910.368	2356.06
914.166	2512.18
917.962	2515.19
921.757	3421.61
925.55	3573.25
929.341	3883.8
933.13	5973.23
936.918	5510.56
940.703	3074.46
944.488	2285.22
948.27	3058.48
952.051	3341.82
955.83	1951.85
959.607	1076.77
963.383	628.393
967.156	363.303
970.928	122.416
974.699	109.572
978.468	55.258
982.234	296.051
986	1014.11
989.763	1693.67
993.525	816.49
997.285	608.416
1001.04	897.637
1004.8	1500.36
1008.55	927.062
1012.31	531.574
1016.06	279.564
1019.81	160.52
1023.56	163.521
1027.31	106.555
1031.05	276.26
1034.79	115.266
1038.53	175.168
1042.27	284.053
1046.01	186.859
1049.75	234.596
1053.48	381.824
1057.22	401.455
1060.95	661.354
1064.68	753.416
1068.4	872.566
1072.13	1140.1
1075.86	3801.25
1079.58	22008.5
1083.3	25721.1
1087.02	8777.55
1090.74	1779.12
1094.45	531.947
1098.17	401.824
1101.88	274.818
1105.59	273.357
1109.3	31.686
1113.01	117.191
1116.71	108.523
1120.42	12.84
1124.12	118.037
1127.82	148.473
1131.52	154.1
1135.22	15.797
1138.91	197.504
1142.61	35.711
1146.3	109.008
1149.99	17.709
1153.68	67.594
1157.37	72.02
1161.06	96.281
1164.74	57.637
1168.42	118.467
1172.1	78.414
1175.78	98.871
1179.46	208.768
1183.14	194.27
1186.81	200.301
1190.48	205.787
1194.15	131.738
1197.83	378.17
1201.49	290.879
1205.16	502.391
1208.82	87.844
1212.49	182.436
1216.15	330.035
1219.81	343.061
1223.46	261.061
1227.12	328.746
1230.78	174.65
1234.43	378.002
1238.08	546.791
1241.73	274.605
1245.38	304.609
1249.03	192.305
1252.67	249.174
1256.31	297.275
1259.95	169.895
1263.6	224.525
1267.23	241.428
1270.87	315.311
1274.51	170.029
1278.14	104.814
1281.77	155.023
1285.4	208.998
1289.03	304.062
1292.66	53.625
1296.28	208.197
1299.91	46.498
1303.53	142.529
1307.15	249.826
1310.77	293.805
1314.38	128.209
1318	164.35
1321.61	117.867
1325.23	49.738
1328.84	112.893
1332.45	181.057
1336.06	65.424
1339.66	196.436
1343.27	143.078
1346.87	72.4
1350.47	342.109
1354.07	427.506
1357.67	397.803
1361.26	316.469
1364.86	427.996
1368.45	433.607
1372.04	456.346
1375.63	503.596
1379.22	110.529
1382.81	508.682
1386.39	403.773
1389.98	345.473
1393.56	317.062
1397.14	383.492
1400.72	351.445
1404.3	228.156
1407.87	131.992
1411.45	161.633
1415.02	343.336
1418.59	188.594
1422.16	297.332
1425.73	435.84
1429.29	311.258
1432.86	212.07
1436.42	437.957
1439.98	166.691
1443.54	58.281
1447.1	299.141
1450.66	15.012
1454.21	95.391
1457.77	283.496
1461.32	290.523
1464.87	256.793
1468.42	100.051
1471.96	303.145
1475.51	148.562
