Measurement: Raman, 532 nm, unoriented, Raman Data Processed
Mineral: Spurrite
Rruff sample: R050236
Ideal chemistry: Ca_5_(SiO_4_)_2_(CO_3_)
Locality: South Sister Peak, Luna County, New Mexico, USA
Source: Marcus Origlieri
Description: Lavendar-gray massive
Measured chemistry: Ca_5.00_(Si_1.00_O_4_)_2_(CO_3_)
Raman shift (cm-1)	intensity
129.423	0
132.798	0.854828
136.172	4.99069
139.547	10.0276
142.922	19.234
146.297	31.5795
149.672	38.0866
153.046	43.4412
156.421	41.6427
159.796	51.0141
163.171	68.2642
166.546	59.9326
169.921	62.7093
173.295	57.4669
176.67	37.2942
180.045	35.5128
183.42	35.0606
186.795	20.4894
190.169	18.4597
193.544	18.1255
196.919	12.978
200.294	9.34871
203.669	8.1843
207.043	0.051727
210.418	4.72458
213.793	1.9875
217.168	3.68382
220.543	9.85049
223.918	23.5189
227.292	33.4477
230.667	35.7099
234.042	39.7789
237.417	41.3198
240.792	52.8435
244.167	71.5775
247.541	97.9258
250.916	130.6
254.291	172.418
257.666	165.051
261.041	109.016
264.415	73.3657
267.79	61.6184
271.165	49.523
274.54	32.4864
277.915	27.0484
281.289	22.0709
284.664	12.6454
288.039	4.15449
291.414	1.08403
294.789	0.642746
298.163	1.60768
301.538	2.96362
304.913	3.75143
308.288	4.61498
311.663	4.00162
315.038	4.94832
318.412	6.17908
321.787	10.1471
325.162	11.1314
328.537	4.70316
331.912	0.785736
335.286	1.8683
338.661	1.99069
342.036	0.910126
345.411	5.90048
348.786	13.0662
352.161	18.8127
355.535	19.406
358.91	16.0778
362.285	14.5487
365.66	17.4744
369.035	25.0435
372.409	36.4575
375.784	53.3248
379.159	66.7833
382.534	73.3218
385.909	78.9749
389.284	79.4565
392.658	60.805
396.033	37.5999
399.408	25.9535
402.783	21.589
406.158	19.9619
409.532	12.7543
412.907	9.29187
416.282	7.50282
419.657	8.03841
423.032	10.3433
426.406	12.4916
429.781	13.528
433.156	15.2525
436.531	17.6416
439.906	16.1532
443.281	12.6054
446.655	7.65001
450.03	5.60916
453.405	3.73929
456.78	1.0425
460.155	0.039246
463.529	0.65892
466.904	0.583496
470.279	0.115906
473.654	0.553467
477.029	0.380829
480.404	1.77626
483.778	2.85388
487.153	2.74741
490.528	4.20534
493.903	5.06519
497.278	7.94829
500.652	11.2393
504.027	16.3357
507.402	16.7135
510.777	16.5678
514.152	20.1393
517.527	26.8737
520.901	34.3719
524.276	29.7931
527.651	17.6487
531.026	15.3383
534.401	18.0518
537.775	23.7823
541.15	31.8038
544.525	41.9888
547.9	49.6597
551.275	47.4023
554.649	37.9784
558.024	35.253
561.399	35.0049
564.774	32.0594
568.149	28.011
571.524	15.1597
574.898	7.88304
578.273	4.81444
581.648	0.925507
585.023	0.01268
588.398	0.95816
591.773	0.476303
595.147	0.347778
598.522	0.317398
601.897	0.207184
605.272	0.364227
608.646	0.720947
612.021	1.33073
615.396	2.22873
618.771	2.89505
622.146	3.39
625.521	2.99934
628.895	4.01645
632.27	3.2571
635.645	3.2074
639.02	2.84294
642.395	2.88983
645.769	3.99091
649.144	4.74196
652.519	4.8817
655.894	3.66634
659.269	3.41364
662.644	4.22972
666.018	3.37216
669.393	5.70927
672.768	5.6216
676.143	6.48677
679.518	4.55748
682.893	3.28923
686.267	3.95998
689.642	7.20308
693.017	8.84586
696.392	14.6701
699.767	30.8812
703.141	48.9473
706.516	19.4668
709.891	7.30533
713.266	6.06619
716.641	2.23569
720.015	0.93808
723.39	0.860275
726.765	1.59
730.14	1.67393
733.515	2.14954
736.89	1.64177
740.264	2.5929
743.639	1.03711
747.014	2.45296
750.389	1.45399
753.764	1.4081
757.139	0.657089
760.513	1.61162
763.888	0.18248
767.263	1.78671
770.638	1.51121
774.013	0.336746
777.387	0.61348
780.762	0.874069
784.137	0.071457
787.512	0.464737
790.887	0.989243
794.261	0.562195
797.636	0.207458
801.011	0.441025
804.386	1.75404
807.761	0.375031
811.135	0.372192
814.51	0.319611
817.885	0.773361
821.26	1.21788
824.635	3.22899
828.01	5.24564
831.384	10.016
834.759	17.9026
838.134	35.6426
841.509	68.4618
844.884	118.355
848.259	196.252
851.633	330.434
855.008	425.366
858.383	308.742
861.758	312.017
865.133	496.646
868.507	467.326
871.882	175.058
875.257	66.1671
878.632	35.366
882.007	23.8952
885.381	15.8073
888.756	14.9111
892.131	18.4486
895.506	17.5316
898.881	12.4282
902.256	15.3748
905.63	19.1197
909.005	19.8472
912.38	19.1303
915.755	13.4141
919.13	15.0334
922.505	24.2008
925.879	26.5317
929.254	29.6578
932.629	42.3141
936.004	53.1692
939.379	39.8163
942.753	31.726
946.128	30.4711
949.503	41.4815
952.878	36.7459
956.253	15.3109
959.627	4.89406
963.002	0.680908
966.377	2.36201
969.752	2.19299
973.127	2.87895
976.501	0.583038
979.876	4.68216
983.251	10.8698
986.626	18.2108
990.001	27.0485
993.375	16.0576
996.75	9.69296
1000.12	10.3729
1003.5	15.4431
1006.88	17.4465
1010.25	10.0894
1013.62	4.8925
1017	4.09517
1020.37	3.98581
1023.75	2.35823
1027.12	2.05328
1030.5	1.36526
1033.87	0.113373
1037.25	0.991501
1040.62	0.319244
1044	1.69859
1047.37	1.86787
1050.75	2.51076
1054.12	4.46419
1057.5	7.11822
1060.87	9.97783
1064.25	10.7647
1067.62	25.806
1071	85.3415
1074.37	153.456
1077.75	311.969
1081.12	766.117
1084.5	436.451
1087.87	83.7085
1091.24	22.9201
1094.62	13.067
1097.99	9.53914
1101.37	6.20708
1104.74	4.86052
1108.12	4.54466
1111.49	3.56889
1114.87	3.02522
1118.24	2.18111
1121.62	2.87045
1124.99	1.63651
1128.37	0.978317
1131.74	0.376953
1135.12	0.828293
1138.49	1.00194
1141.87	0.955414
1145.24	0.6642
1148.62	1.38167
1151.99	2.70734
1155.37	0.897903
1158.74	0.213348
1162.12	1.29527
1165.49	1.47737
1168.87	1.19871
1172.24	0.633316
1175.62	0.064514
1178.99	0.687241
1182.37	0.209213
1185.74	0.778793
1189.12	1.67603
1192.49	1.0275
1195.87	2.90828
1199.24	1.45724
1202.61	0.037476
1205.99	0.823273
1209.36	1.16374
1212.74	0.936295
1216.11	2.77815
1219.49	2.3131
1222.86	1.91046
1226.24	1.31781
1229.61	1.50534
1232.99	1.81718
1236.36	0.060822
1239.74	0.747391
1243.11	0.311615
1246.49	1.04013
1249.86	0.926071
1253.24	0.957565
1256.61	0.954865
1259.99	1.32794
1263.36	0.418243
1266.74	2.20232
1270.11	0.450699
1273.48	2.41461
1276.86	2.15123
1280.23	1.10069
1283.61	1.51621
1286.98	1.71115
1290.36	0.795288
1293.73	1.16138
1297.11	1.36786
1300.48	0.272202
1303.86	1.10094
