Measurement: Raman, 780 nm, unoriented, Raman Data Processed
Mineral: Stannite
Rruff sample: R050187
Ideal chemistry: Cu_2_FeSnS_4_
Locality: Yaogangxian mine, Yizhang County, Hunan Province, China
Source: Marcus Origlieri and George Guanghua Liu
Description: Bluish-black octahedron associated with fluorite and quartz. According to Kissin & Owens (1989), since 2a is significantly larger than c, this sample is stannite.
Measured chemistry: Cu_2.00_(Fe_0.66_Zn_0.34_)Sn_1.00_S_4.00_
Raman shift (cm-1)	intensity
148.409	0
151.302	0.546497
154.195	0.807541
157.087	0.792095
159.98	1.3526
162.873	0.893185
165.765	0.817429
168.658	0.561867
171.551	1.01146
174.444	1.41987
177.336	0.611374
180.229	0.857365
183.122	1.25429
186.014	1.33536
188.907	0.873951
191.8	1.29823
194.692	0.891148
197.585	0.884716
200.478	0.503082
203.37	0.414722
206.263	0.134243
209.156	0.498676
212.049	0.611122
214.941	0.660999
217.834	0.430191
220.727	0.668152
223.619	0.929012
226.512	0.22691
229.405	0.226578
232.298	0.154755
235.19	0.839512
238.083	1.05408
240.976	2.33588
243.868	3.58516
246.761	4.65317
249.654	7.19985
252.546	10.0975
255.439	14.8439
258.332	22.613
261.224	34.9475
264.117	50.0689
267.01	62.0351
269.903	73.8786
272.795	86.3457
275.688	100.321
278.581	115.642
281.473	123.993
284.366	113.713
287.259	91.9546
290.151	84.2929
293.044	89.7169
295.937	117.148
298.83	181.001
301.722	267.307
304.615	330.26
307.508	380.318
310.4	435.437
313.293	501.708
316.186	572.678
319.079	601.333
321.971	469.872
324.864	258.366
327.757	117.48
330.649	53.5275
333.542	31.2422
336.435	23.0847
339.327	20.4607
342.22	18.1969
345.113	16.0268
348.005	13.8499
350.898	12.9122
353.791	12.3269
356.683	11.5221
359.576	8.41206
362.469	4.46971
365.362	0.522102
368.254	0.379772
371.147	0.614002
374.04	1.05858
376.932	1.38025
379.825	0.653303
382.718	0.238098
385.611	0.142155
388.503	0.397644
391.396	0.744024
394.289	1.30255
397.181	1.37927
400.074	2.02439
402.967	1.77034
405.859	2.06054
408.752	1.99915
411.645	1.89323
414.538	2.02238
417.43	2.16504
420.323	2.52339
423.216	2.3884
426.108	2.34137
429.001	2.48118
431.894	2.16005
434.786	1.9358
437.679	1.57665
440.572	1.09459
443.464	1.02919
446.357	1.08921
449.25	0.981813
452.143	0.677309
455.035	0.911026
457.928	0.902569
460.821	1.22817
463.713	1.19785
466.606	1.10581
469.499	1.22827
472.392	1.15118
475.284	0.832245
478.177	0.842607
481.07	0.627474
483.962	0.796276
486.855	0.65226
489.748	0.231966
492.64	0.325842
495.533	0.384724
498.426	0.29134
501.318	0.388268
504.211	0.206865
507.104	0.224852
509.997	0.071405
512.889	0.010897
515.782	0.105656
518.675	0.063871
521.567	0.346031
524.46	0.063904
527.353	0.139406
530.245	0.306728
533.138	0.057112
536.031	0.228828
538.924	0.048174
541.816	0.413601
544.709	0.658234
547.602	0.89238
550.494	0.599112
553.387	0.791695
556.28	0.290131
559.173	0.543718
562.065	0.824039
564.958	0.406385
567.851	0.583826
570.743	0.61508
573.636	0.950439
576.529	1.00776
579.421	0.57412
582.314	1.16319
585.207	1.26948
588.099	1.89483
590.992	2.09033
593.885	2.31357
596.778	2.78941
599.67	3.29871
602.563	3.93883
605.456	4.31492
608.348	4.96444
611.241	5.77628
614.134	6.31488
617.026	7.44756
619.919	8.56397
622.812	9.62326
625.705	10.5401
628.597	11.4742
631.49	12.1963
634.383	13.1186
637.275	12.8993
640.168	11.7815
643.061	10.5051
645.953	8.00103
648.846	6.9664
651.739	5.12538
654.631	4.16901
657.524	3.16159
660.417	2.53457
663.31	2.45433
666.202	2.24592
669.095	1.82245
671.988	1.28899
674.88	0.816708
677.773	0.753611
680.666	0.377895
683.558	0.06344
686.451	0.174021
689.344	0.092937
692.237	0.134623
695.129	0.044651
698.022	0.261711
700.915	0.642776
703.807	0.78635
706.7	1.18181
709.593	1.27245
712.486	1.26979
715.378	1.1527
718.271	0.933983
721.164	0.788023
724.056	0.321388
726.949	0.188116
729.842	0.252075
732.734	0.01078
735.627	0.022804
738.52	0.284882
741.413	0.056229
744.305	0.429956
747.198	0.331974
750.091	0.179405
752.983	0.204163
755.876	0.038004
758.769	0.168011
761.661	0.388929
764.554	0.345673
767.447	0.281461
770.34	0.282656
773.232	0.458406
776.125	0.421509
779.018	0.282082
781.91	0.391011
784.803	0.368826
787.696	0.447154
790.588	0.488792
793.481	0.441844
796.374	0.218691
799.266	0.091494
802.159	0.521338
805.052	0.479
807.945	0.186416
810.837	0.5298
813.73	0.469071
816.623	0.286492
819.515	0.373187
822.408	0.321337
825.301	0.340398
828.193	0.398779
831.086	0.390296
833.979	0.472021
836.872	0.385443
839.764	0.461188
842.657	0.605485
845.55	0.37402
848.442	0.497474
851.335	0.75885
854.228	0.560623
857.12	0.431404
860.013	0.477549
862.906	0.341562
865.799	0.435243
868.691	0.297247
871.584	0.376003
874.477	0.327758
877.369	0.219936
880.262	0.040594
883.155	0.068079
886.047	0.254114
888.94	0.001975
891.833	0.487909
894.726	0.276821
897.618	0.155386
900.511	0.256906
903.404	0.259672
906.296	0.042457
909.189	0.292363
912.082	0.011122
914.974	0.081404
917.867	0.181979
920.76	0.460087
923.653	0.238903
926.545	0.367412
929.438	0.392038
932.331	0.456613
935.223	0.319846
938.116	0.620683
941.009	0.347765
943.901	0.621556
946.794	0.673452
949.687	0.71076
952.58	0.894233
955.472	0.880673
958.365	0.892293
961.258	0.65407
964.15	0.48363
967.043	0.427567
969.936	0.502908
972.828	0.394177
975.721	0.310509
978.614	0.130132
981.506	0.231479
984.399	0.025581
987.292	0.16628
990.185	0.10945
993.077	0.360596
995.97	0.113921
998.863	0.195539
1001.75	0.33387
1004.65	0.039703
1007.54	0.255655
1010.43	0.114976
1013.33	0.143017
1016.22	0.046996
1019.11	0.186263
1022	0.016115
1024.9	0.128366
1027.79	0.114175
1030.68	0.274209
1033.58	0.19488
1036.47	0.111908
1039.36	0.225357
1042.25	0.042746
1045.15	0.190063
1048.04	0.038403
1050.93	0.201194
1053.82	0.323581
1056.72	0.07636
1059.61	0.40923
1062.5	0.626348
1065.39	0.326029
1068.29	0.375875
1071.18	0.1691
1074.07	0.147
1076.97	0.052775
1079.86	0.065743
1082.75	0.289086
1085.64	0.48763
1088.54	0.73992
1091.43	0.862875
1094.32	0.734413
1097.21	0.614086
1100.11	0.701153
1103	0.881499
1105.89	1.06129
1108.79	0.756583
1111.68	0.724827
1114.57	1.10646
1117.46	0.916259
1120.36	0.6651
1123.25	0.918721
1126.14	0.767449
1129.03	0.743876
1131.93	1.02766
1134.82	0.765928
1137.71	0.436688
1140.61	0.572121
1143.5	1.1495
1146.39	1.27119
1149.28	1.70595
1152.18	1.58569
1155.07	2.00598
1157.96	2.35185
1160.85	2.61467
1163.75	2.91636
1166.64	2.77022
1169.53	3.03129
1172.42	2.61931
1175.32	2.27573
1178.21	2.08309
1181.1	1.38256
1183.99	1.4819
1186.89	1.10746
1189.78	1.23872
1192.67	1.42065
1195.57	0.870264
1198.46	0.006111
1201.35	0.071941
1204.24	0.159347
1207.14	0.024609
1210.03	0.172484
1212.92	0.25897
1215.82	0.826634
1218.71	1.40733
1221.6	2.18263
1224.49	2.05196
1227.39	2.54934
1230.28	2.92422
1233.17	3.47554
1236.06	3.96961
1238.96	4.46678
1241.85	5.18977
1244.74	5.33833
1247.63	5.50313
1250.53	5.37603
1253.42	5.21169
1256.31	5.61597
1259.21	5.26716
1262.1	5.10605
1264.99	4.56596
1267.88	3.42769
1270.78	1.35798
1273.67	1.61346
1276.56	0.586286
1279.45	0.001369
1282.35	0.34635
1285.24	0.03899
