Measurement: Raman, 532 nm, unoriented, Raman Data Processed
Mineral: Stannite
Rruff sample: R050187
Ideal chemistry: Cu_2_FeSnS_4_
Locality: Yaogangxian mine, Yizhang County, Hunan Province, China
Source: Marcus Origlieri and George Guanghua Liu
Description: Bluish-black octahedron associated with fluorite and quartz. According to Kissin & Owens (1989), since 2a is significantly larger than c, this sample is stannite.
Measured chemistry: Cu_2.00_(Fe_0.66_Zn_0.34_)Sn_1.00_S_4.00_
Raman shift (cm-1)	intensity
150.665	0
153.558	0.21073
156.451	0.973782
159.343	0.06424
162.236	1.0184
165.129	1.08575
168.021	0.857173
170.914	0.905807
173.807	0.704646
176.699	0.244349
179.592	0.649126
182.485	0.865747
185.377	0.87851
188.27	0.691933
191.163	0.599017
194.056	0.688914
196.948	0.301764
199.841	0.166081
202.734	0.054365
205.626	0.21159
208.519	0.159785
211.412	0.23773
214.304	0.22035
217.197	0.40656
220.09	0.009307
222.983	0.33715
225.875	0.182879
228.768	0.177588
231.661	0.347665
234.553	0.481887
237.446	1.25242
240.339	1.8145
243.232	2.86776
246.124	4.22421
249.017	5.90678
251.91	6.18853
254.802	4.39093
257.695	2.44228
260.588	1.62163
263.48	2.46164
266.373	4.94316
269.266	9.1053
272.159	12.3869
275.051	18.306
277.944	27.1335
280.837	40.7767
283.729	57.3679
286.622	56.4302
289.515	41.7607
292.407	35.3628
295.3	30.4352
298.193	23.1666
301.086	26.2508
303.978	39.7687
306.871	57.5811
309.764	76.9048
312.656	102.092
315.549	145.337
318.442	233.205
321.334	331.793
324.227	276.726
327.12	133.279
330.012	53.4205
332.905	24.4644
335.798	17.185
338.691	18.3555
341.583	21.8539
344.476	24.4625
347.369	19.7651
350.261	14.1083
353.154	13.8201
356.047	16.8071
358.94	20.5704
361.832	20.5142
364.725	10.6592
367.618	2.48325
370.51	0.051333
373.403	0.623495
376.296	0.571638
379.188	0.504972
382.081	0.404941
384.974	0.40485
387.866	0.001136
390.759	0.303289
393.652	0.31187
396.545	0.51658
399.437	0.762808
402.33	0.94565
405.223	1.16838
408.115	1.05484
411.008	1.21453
413.901	1.32208
416.793	1.21396
419.686	1.30083
422.579	1.14062
425.472	1.22175
428.364	1.21673
431.257	1.26267
434.15	0.939225
437.042	0.810883
439.935	0.742305
442.828	0.450667
445.721	0.532691
448.613	0.475237
451.506	0.425548
454.399	0.441743
457.291	0.474358
460.184	0.402563
463.077	0.382674
465.969	0.521699
468.862	0.729594
471.755	0.841701
474.647	0.887297
477.54	0.638702
480.433	0.661567
483.326	0.748417
486.218	0.68191
489.111	0.441395
492.004	0.325359
494.896	0.278184
497.789	0.439527
500.682	0.400815
503.575	0.228827
506.467	0.169561
509.36	0.161235
512.253	0.151244
515.145	0.166506
518.038	0.008135
520.931	0.089661
523.823	0.046179
526.716	0.158215
529.609	0.086097
532.501	0.022779
535.394	0.053229
538.287	0.072603
541.18	0.051702
544.072	0.06031
546.965	0.082346
549.858	0.176896
552.75	0.215813
555.643	0.330336
558.536	0.321666
561.428	0.375456
564.321	0.327805
567.214	0.301828
570.107	0.179323
572.999	0.366051
575.892	0.307311
578.785	0.461966
581.677	0.430885
584.57	0.401046
587.463	0.567128
590.356	0.437674
593.248	0.806365
596.141	0.881661
599.034	1.1708
601.926	1.40695
604.819	1.72026
607.712	1.88006
610.604	2.09601
613.497	2.3074
616.39	2.56238
619.283	3.30416
622.175	3.48628
625.068	4.1307
627.961	4.48594
630.853	5.35913
633.746	6.14755
636.639	7.61299
639.531	9.08132
642.424	10.166
645.317	9.6896
648.21	8.5402
651.102	6.82071
653.995	5.12186
656.888	3.86176
659.78	2.93537
662.673	2.44511
665.566	2.058
668.458	2.16224
671.351	2.06247
674.244	1.98918
677.136	2.02794
680.029	1.82771
682.922	1.33016
685.815	0.992349
688.707	0.460078
691.6	0.037461
694.493	0.027082
697.385	0.162482
700.278	0.067293
703.171	0.075355
706.063	0.015794
708.956	0.138181
711.849	0.183485
714.741	0.165034
717.634	0.274675
720.527	0.269943
723.42	0.155679
726.312	0.064158
729.205	0.000633
732.098	0.019129
734.99	0.015731
737.883	0.032832
740.776	0.02833
743.668	0.070584
746.561	0.0282
749.454	0.130257
752.347	0.062423
755.239	0.064238
758.132	0.079622
761.025	0.10909
763.917	0.254359
766.81	0.204132
769.703	0.146263
772.596	0.252707
775.488	0.216716
778.381	0.170294
781.274	0.262711
784.166	0.228324
787.059	0.295373
789.952	0.346696
792.844	0.293188
795.737	0.209748
798.63	0.113321
801.523	0.239123
804.415	0.320687
807.308	0.209321
810.201	0.140186
813.093	0.148071
815.986	0.169778
818.879	0.24511
821.771	0.144736
824.664	0.209935
827.557	0.295084
830.449	0.255336
833.342	0.200704
836.235	0.322621
839.128	0.154716
842.02	0.270144
844.913	0.318069
847.806	0.343431
850.698	0.334213
853.591	0.306697
856.484	0.425529
859.376	0.175225
862.269	0.301077
865.162	0.358394
868.055	0.278835
870.947	0.265256
873.84	0.160948
876.733	0.260996
879.625	0.179078
882.518	0.092865
885.411	0.050465
888.303	0.253678
891.196	0.161237
894.089	0.058141
896.982	0.016466
899.874	0.012639
902.767	0.075967
905.66	0.070724
908.552	0.108293
911.445	0.050971
914.338	0.089421
917.231	0.052863
920.123	0.04654
923.016	0.132333
925.909	0.269133
928.801	0.127062
931.694	0.175709
934.587	0.223263
937.479	0.373207
940.372	0.323863
943.265	0.405318
946.158	0.404819
949.05	0.371985
951.943	0.372251
954.836	0.621393
957.728	0.413324
960.621	0.53339
963.514	0.501628
966.406	0.594499
969.299	0.628365
972.192	0.683726
975.085	0.488958
977.977	0.361638
980.87	0.281971
983.763	0.210052
986.655	0.073146
989.548	0.146715
992.441	0.019582
995.333	0.122139
998.226	0.17995
1001.12	0.015397
1004.01	0.122753
1006.9	0.129314
1009.8	0.228694
1012.69	0.091428
1015.58	0.020453
1018.48	0.070676
1021.37	0.02337
1024.26	0.174525
1027.15	0.096629
1030.05	0.049137
1032.94	0.006415
1035.83	0.113353
1038.72	0.046125
1041.62	0.157416
1044.51	0.013172
1047.4	0.02396
1050.3	0.006678
1053.19	0.183965
1056.08	0.329075
1058.97	0.03492
1061.87	0.196192
1064.76	0.379719
1067.65	0.412625
1070.54	0.349836
1073.44	0.496952
1076.33	0.541561
1079.22	0.298071
1082.11	0.236867
1085.01	0.081791
1087.9	0.00538
1090.79	0.130025
1093.68	0.469
1096.58	0.558302
1099.47	0.846884
1102.36	0.935814
1105.26	1.31327
1108.15	1.24398
1111.04	1.1515
1113.93	1.13101
1116.83	1.1766
1119.72	1.20348
1122.61	1.28639
1125.51	1.47794
1128.4	1.53398
1131.29	1.39305
1134.18	1.39509
1137.08	1.27057
1139.97	1.48588
1142.86	1.52734
1145.75	1.51471
1148.65	1.28377
1151.54	0.915811
1154.43	1.3016
1157.33	1.54956
1160.22	1.95691
1163.11	2.17561
1166	2.43858
1168.89	2.88256
1171.79	3.56355
1174.68	4.17478
1177.57	4.2273
1180.47	4.64865
1183.36	4.69126
1186.25	4.2338
1189.14	3.98524
1192.04	3.64775
1194.93	2.84251
1197.82	3.19023
1200.71	2.33233
1203.61	2.07504
1206.5	2.39695
1209.39	1.92199
1212.29	1.09039
1215.18	0.270227
1218.07	0.028704
1220.96	0.075128
1223.86	0.338624
1226.75	0.611226
1229.64	0.563858
1232.54	0.525928
1235.43	1.26514
1238.32	2.22519
1241.21	2.31653
1244.11	3.12496
1247	3.12284
1249.89	3.81338
1252.78	4.24428
1255.68	4.42959
1258.57	3.88423
1261.46	3.61288
1264.35	3.79156
1267.25	3.68625
1270.14	3.58636
1273.03	3.23206
1275.92	3.11586
1278.82	2.55646
1281.71	1.99304
1284.6	1.28478
1287.5	0.670851
