Measurement: Raman, 514 nm, unoriented, Raman Data Processed
Mineral: Stannite
Rruff sample: R050187
Ideal chemistry: Cu_2_FeSnS_4_
Locality: Yaogangxian mine, Yizhang County, Hunan Province, China
Source: Marcus Origlieri and George Guanghua Liu
Description: Bluish-black octahedron associated with fluorite and quartz. According to Kissin & Owens (1989), since 2a is significantly larger than c, this sample is stannite.
Measured chemistry: Cu_2.00_(Fe_0.66_Zn_0.34_)Sn_1.00_S_4.00_
Raman shift (cm-1)	intensity
99.816	0
104.019	247.167
108.22	469.904
112.419	676.201
116.615	575.469
120.809	607.746
125.002	588.988
129.192	655.497
133.379	674.964
137.565	828.435
141.749	608.183
145.93	559.167
150.11	449.724
154.287	548.703
158.462	226.974
162.635	139.428
166.805	59.923
170.974	47.94
175.141	18.77
179.305	54.211
183.467	1.026
187.627	27.257
191.785	32.542
195.941	142.783
200.095	173.977
204.246	188.062
208.396	177.003
212.543	141.78
216.689	328.325
220.832	102.674
224.973	92.85
229.112	82.848
233.249	169.666
237.383	246.686
241.516	340.597
245.646	641.442
249.775	947.671
253.901	866.08
258.025	607.931
262.148	626.921
266.268	437.996
270.386	768.364
274.501	2009.65
278.615	5012.68
282.727	6733.01
286.836	4080.24
290.944	2490.81
295.049	2149.5
299.153	2340.16
303.254	2863.73
307.353	5008.86
311.45	11936.7
315.545	24200.4
319.638	21513.7
323.729	8026.85
327.818	3152.51
331.904	1723.85
335.989	1525.6
340.071	1741.2
344.152	1832.64
348.23	1369.94
352.307	1177.08
356.381	1277.07
360.453	592.91
364.523	220.595
368.592	22.129
372.658	25.503
376.722	44.338
380.784	39.396
384.844	85.689
388.901	19.332
392.957	34.301
397.011	2.461
401.063	48
405.112	53.707
409.16	24.667
413.206	21.853
417.249	4.721
421.291	14.087
425.33	38.241
429.368	20.198
433.403	2.039
437.437	4.469
441.468	36.896
445.497	65.073
449.525	78.078
453.55	105.056
457.573	106.606
461.594	155.127
465.614	170.494
469.631	235.716
473.646	255.805
477.659	185.758
481.67	167.564
485.679	148.223
489.686	192.75
493.692	244.137
497.695	232.371
501.696	495.466
505.695	196.423
509.692	219.229
513.687	202.939
517.68	306.251
521.671	270.706
525.66	231.73
529.647	229.273
533.632	250.867
537.615	229.766
541.596	238.338
545.576	274.594
549.553	260.144
553.528	226.127
557.501	300.323
561.472	221.532
565.441	232.83
569.408	256.155
573.374	256.093
577.337	238.988
581.298	211.359
585.257	244.975
589.215	219.103
593.17	194.076
597.123	210.827
601.075	257.128
605.024	275.602
608.971	308.482
612.917	320.1
616.86	429.806
620.802	393.068
624.742	469.108
628.679	603.595
632.615	697.839
636.548	757.877
640.48	773.476
644.41	800.396
648.338	558.412
652.264	327.316
656.188	294.201
660.11	237.711
664.03	321.312
667.948	255.665
671.864	227.933
675.778	140.146
679.69	134.192
683.6	119.178
687.509	100.121
691.415	28.012
695.32	50.844
699.222	44.612
703.123	96.315
707.022	94.938
710.918	2.491
714.813	16.958
718.706	4.338
722.597	50.63
726.486	29.844
730.373	31.968
734.258	9.015
738.142	23.881
742.023	17.679
745.902	29.372
749.78	9.045
753.655	15.58
757.529	1.229
761.401	8.985
765.271	8.151
769.139	24.167
773.005	20.944
776.869	39.827
780.731	33.491
784.591	56.062
788.45	47.512
792.306	45.881
796.161	32.166
800.013	43.371
803.864	67.499
807.713	66.553
811.56	99.534
815.405	133.443
819.248	84.299
823.09	108.061
826.929	138.509
830.767	166.462
834.602	164.006
838.436	85.83
842.268	142.763
846.098	150.896
849.926	203.717
853.752	208.49
857.577	215.835
861.399	128.649
865.22	169.148
869.039	167.72
872.856	228.873
876.671	230.008
880.484	228.153
884.295	173.296
888.104	136.423
891.912	198.047
895.717	205.946
899.521	239.395
903.323	182.503
907.123	173.773
910.921	208.444
914.718	192.406
918.512	231.1
922.305	167.262
926.095	195.228
929.884	180.267
933.671	136.081
937.457	139.155
941.24	207.097
945.022	231.344
948.801	140.405
952.579	172.522
956.355	172.069
960.129	157.017
963.901	192.653
967.672	143.163
971.44	135.264
975.207	127.144
978.972	60.239
982.735	104.339
986.496	104.292
990.256	111.403
994.013	93.514
997.769	66.286
1001.52	19.152
1005.27	7.092
1009.02	86.637
1012.77	69.084
1016.52	95.815
1020.26	102.097
1024.01	17.573
1027.75	7.998
1031.49	59.353
1035.23	94.373
1038.96	71.621
1042.7	118.711
1046.43	76.036
1050.16	55.874
1053.89	44.927
1057.61	59.228
1061.34	23.197
1065.06	83.958
1068.78	66.826
1072.5	43.128
1076.22	33.104
1079.93	45.612
1083.65	78.979
1087.36	5.159
1091.07	69.338
1094.78	41.386
1098.49	65.589
1102.19	85.075
1105.9	28.269
1109.6	42.197
1113.3	29.204
1116.99	58.409
1120.69	32.781
1124.38	50.79
1128.08	32.965
1131.77	10.711
1135.46	4.618
1139.14	115.99
1142.83	35.556
1146.51	47.991
1150.19	76.535
1153.88	41.422
1157.55	17.679
1161.23	24.325
1164.9	45.74
1168.58	35.318
1172.25	14
1175.92	38.682
1179.59	62.088
1183.25	95.504
1186.92	8.033
1190.58	47.04
1194.24	28.421
1197.9	61.364
1201.55	46.936
1205.21	72.32
1208.86	98.276
1212.52	99.539
1216.16	54.783
1219.81	65.343
1223.46	26.051
1227.11	37.749
1230.75	61.839
1234.39	43.8
1238.03	118.009
1241.67	76.167
1245.3	57.024
1248.94	49.921
1252.57	61.559
1256.2	17.097
1259.83	99.326
1263.46	59.849
1267.08	97.918
1270.7	133.448
1274.33	108.615
1277.95	98.022
1281.57	58.982
1285.18	14.022
1288.8	15.846
1292.41	61.853
1296.02	17.295
1299.63	84.466
1303.24	100.423
1306.85	117.551
1310.45	139.654
1314.06	17.803
1317.66	52.892
1321.26	29.08
1324.86	55.99
1328.45	22.755
1332.05	70.613
1335.64	110.017
1339.23	142.493
1342.82	71.289
1346.41	98.973
1349.99	43.01
1353.58	76.476
1357.16	80.217
1360.74	61.763
1364.32	463.504
1367.9	101.028
1371.47	232.545
1375.05	145.315
1378.62	92.699
1382.19	156.873
1385.76	99.003
1389.33	30.579
1392.89	130.711
1396.45	47.741
1400.02	44.455
1403.58	76.909
1407.13	141.191
1410.69	159.35
1414.25	112.277
1417.8	213.322
1421.35	102.05
1424.9	69.999
1428.45	46.037
1432	35.015
1435.54	63.123
1439.09	156.247
1442.63	146.405
1446.17	155.557
1449.71	140.689
1453.24	201.818
1456.78	125.699
1460.31	95.779
1463.85	66.689
1467.38	89.737
1470.9	92.476
1474.43	1.376
1477.96	45.283
1481.48	97.038
1485	115.144
1488.52	239.304
1492.04	163.247
1495.56	191.236
1499.07	113.37
1502.59	83.668
1506.1	151.379
1509.61	18.992
1513.12	7.214
1516.62	5.018
1520.13	0
