Measurement: Raman, 780 nm, unoriented, Raman Data Processed
Mineral: Starkeyite
Rruff sample: R060321
Ideal chemistry: MgSO_4_4H_2_O
Locality: Epsom, Surrey, England
Source: Michael Scott
Description: White efflorescence
Raman shift (cm-1)	intensity
91.5332	0
94.908	24.8188
98.2828	24.8449
101.658	64.2541
105.032	148.055
108.407	125.54
111.782	43.7577
115.157	1.51343
118.532	4.9162
121.907	1.70889
125.281	15.0565
128.656	33.9555
132.031	37.0378
135.406	45.3746
138.781	61.3514
142.155	81.0453
145.53	110.383
148.905	118.849
152.28	99.2915
155.655	63.1634
159.03	37.4392
162.404	33.1593
165.779	37.7897
169.154	44.5382
172.529	39.5307
175.904	28.8879
179.278	18.7799
182.653	9.66074
186.028	9.99258
189.403	14.7562
192.778	20.2226
196.153	20.5537
199.527	28.9885
202.902	33.2499
206.277	33.7483
209.652	32.5733
213.027	40.2396
216.401	49.9594
219.776	65.2753
223.151	76.3683
226.526	83.1305
229.901	92.7379
233.275	101.781
236.65	108.852
240.025	106.636
243.4	88.7285
246.775	65.3803
250.15	54.5248
253.524	42.3333
256.899	37.3418
260.274	25.2988
263.649	11.8441
267.024	4.4671
270.399	1.76595
273.773	1.93887
277.148	3.97838
280.523	1.6945
283.898	3.75705
287.273	10.0524
290.647	15.684
294.022	25.058
297.397	36.9212
300.772	44.4549
304.147	58.676
307.522	69.453
310.896	72.3417
314.271	53.3312
317.646	40.5018
321.021	23.2684
324.396	15.402
327.77	5.14384
331.145	3.57423
334.52	1.75105
337.895	1.53601
341.27	0.724258
344.644	2.35146
348.019	0.479202
351.394	3.04941
354.769	4.73698
358.144	5.29413
361.519	6.49565
364.893	9.45148
368.268	6.64189
371.643	5.79787
375.018	4.05095
378.393	7.73911
381.767	8.42804
385.142	12.0124
388.517	15.6954
391.892	18.3053
395.267	14.6114
398.642	16.5252
402.016	18.9456
405.391	19.1678
408.766	20.5326
412.141	22.8969
415.516	20.981
418.89	21.9144
422.265	24.3083
425.64	24.5197
429.015	27.8136
432.39	34.6188
435.765	40.0249
439.139	53.4393
442.514	65.0519
445.889	80.0291
449.264	91.742
452.639	113.309
456.014	126.471
459.388	131.942
462.763	145.956
466.138	149.164
469.513	159.905
472.887	169.177
476.262	180.97
479.637	175.731
483.012	144.164
486.387	92.6731
489.762	52.6769
493.136	26.6865
496.511	14.7526
499.886	11.1614
503.261	0.274933
506.636	1.79625
510.01	1.67984
513.385	4.48486
516.76	2.41879
520.135	2.563
523.51	0.03743
526.885	1.24818
530.259	4.41484
533.634	3.98142
537.009	5.27634
540.384	8.53876
543.759	11.8859
547.134	9.81278
550.508	16.2971
553.883	20.2162
557.258	21.6747
560.633	23.3655
564.008	22.9277
567.382	25.2517
570.757	24.3488
574.132	20.4205
577.507	21.7902
580.882	20.0557
584.256	16.856
587.631	24.5295
591.006	24.4508
594.381	28.6992
597.756	36.4347
601.131	45.5371
604.505	58.3274
607.88	69.5501
611.255	76.6096
614.63	84.4849
618.005	83.8244
621.38	77.8608
624.754	64.6844
628.129	57.1982
631.504	42.9301
634.879	33.4939
638.254	25.763
641.628	20.1069
645.003	17.459
648.378	10.1565
651.753	13.3333
655.128	11.599
658.503	11.1694
661.877	16.4465
665.252	14.2977
668.627	12.4076
672.002	7.63275
675.377	5.62283
678.751	3.14352
682.126	3.04182
685.501	0.463516
688.876	0.368134
692.251	2.89372
695.625	0.279816
699	3.09596
702.375	0.113281
705.75	0.896194
709.125	2.05106
712.5	1.52197
715.874	1.44461
719.249	0.882568
722.624	1.52399
725.999	1.06136
729.374	3.42093
732.749	2.75125
736.123	1.44115
739.498	4.5956
742.873	5.44473
746.248	5.58612
749.623	7.13832
752.997	5.66566
756.372	7.26008
759.747	9.23665
763.122	6.53896
766.497	6.42169
769.871	9.66375
773.246	7.81899
776.621	4.67053
779.996	5.31731
783.371	3.91614
786.745	1.73107
790.12	1.87218
793.495	3.44176
796.87	1.85735
800.245	3.00577
803.62	3.2478
806.994	1.97514
810.369	1.03497
813.744	0.330597
817.119	2.00944
820.494	3.92004
823.869	1.53449
827.243	4.87633
830.618	2.56045
833.993	3.76472
837.368	3.56025
840.743	2.87745
844.117	3.19055
847.492	5.77216
850.867	3.38279
854.242	4.61554
857.617	5.81614
860.991	3.85509
864.366	2.67654
867.741	2.11179
871.116	3.6485
874.491	4.96043
877.866	1.52743
881.24	3.55012
884.615	4.18858
887.99	4.08179
891.365	1.03754
894.74	0.817314
898.115	1.03592
901.489	2.13048
904.864	3.06482
908.239	0.050911
911.614	0.438484
914.989	1.72232
918.363	0.492645
921.738	0.382324
925.113	0.056503
928.488	0.218765
931.863	3.50259
935.237	2.2717
938.612	2.9474
941.987	4.52526
945.362	0.667145
948.737	4.52402
952.112	4.00617
955.486	4.89175
958.861	6.09308
962.236	9.39524
965.611	10.2322
968.986	15.7107
972.361	28.6473
975.735	38.4619
979.11	61.1983
982.485	105.896
985.86	256.69
989.235	550.299
992.609	758.415
995.984	1148.1
999.359	1822.27
1002.73	1208.9
1006.11	321.661
1009.48	123.448
1012.86	62.5358
1016.23	39.0731
1019.61	20.077
1022.98	13.8311
1026.36	9.18509
1029.73	3.53601
1033.11	4.79052
1036.48	1.9248
1039.86	1.16946
1043.23	0.990211
1046.61	1.32307
1049.98	0.07798
1053.36	0.091393
1056.73	1.25458
1060.11	4.26705
1063.48	8.83209
1066.86	11.5245
1070.23	19.1389
1073.61	26.5462
1076.98	34.0424
1080.36	39.7578
1083.73	45.9852
1087.1	44.257
1090.48	38.493
1093.85	31.7603
1097.23	25.5952
1100.6	21.9132
1103.98	25.7858
1107.35	31.6739
1110.73	43.7659
1114.1	44.0419
1117.48	40.1857
1120.85	33.2031
1124.23	21.3381
1127.6	12.7016
1130.98	8.6229
1134.35	7.08422
1137.73	12.0094
1141.1	21.6937
1144.48	35.5528
1147.85	47.509
1151.23	59.8637
1154.6	72.1281
1157.97	58.4671
1161.35	37.4113
1164.72	23.4499
1168.1	15.1591
1171.47	13.2543
1174.85	12.7279
1178.22	15.7653
1181.6	14.4343
1184.97	12.5896
1188.35	8.75369
1191.72	1.86666
1195.1	2.30402
1198.47	1.62071
1201.85	1.03872
1205.22	1.84189
1208.6	1.51517
1211.97	0.59549
1215.35	1.35319
1218.72	2.00098
1222.1	2.31739
1225.47	2.06547
1228.85	1.72685
1232.22	2.59496
1235.6	5.66853
1238.97	4.56188
1242.35	3.87283
1245.72	3.8671
1249.1	3.89826
1252.47	2.80738
1255.85	2.22588
1259.22	4.06088
1262.6	3.27326
1265.97	2.4331
1269.34	1.29329
1272.72	1.14292
1276.09	2.39397
1279.47	1.76146
1282.84	0.016495
