Measurement: Raman, 780 nm, unoriented, Raman Data Processed
Mineral: Starkeyite
Rruff sample: R070589
Ideal chemistry: MgSO_4_4H_2_O
Locality: Basque Lake, near Ashcroft, British Columbia, Canada
Source: James Shigley
Description: Fine white powder
Raman shift (cm-1)	intensity
132.766	0
135.658	21.4581
138.551	63.465
141.444	59.7893
144.336	62.3019
147.229	14.0698
150.122	22.1556
153.014	17.5977
155.907	12.2019
158.8	2.70398
161.693	38.9005
164.585	11.8182
167.478	45.7842
170.371	53.0316
173.263	50.856
176.156	78.9072
179.049	82.4348
181.941	115.029
184.834	142.083
187.727	186.041
190.62	179.02
193.512	252.221
196.405	274.17
199.298	315.246
202.19	371.766
205.083	399.312
207.976	440.457
210.869	426.954
213.761	432.353
216.654	441.033
219.547	478.753
222.439	467.016
225.332	469.441
228.225	600.374
231.117	621.413
234.01	675.62
236.903	790.825
239.796	861.107
242.688	859.01
245.581	827.21
248.474	758.267
251.366	657.893
254.259	497.324
257.152	409.535
260.044	284.688
262.937	235.846
265.83	161.448
268.723	121.295
271.615	100.351
274.508	42.9451
277.401	26.3379
280.293	0.449585
283.186	18.3552
286.079	2.48962
288.971	0.725586
291.864	1.51794
294.757	4.74719
297.649	2.9231
300.542	19.8584
303.435	18.974
306.328	59.584
309.22	52.879
312.113	5.46057
315.006	33.2794
317.898	18.6964
320.791	32.8374
323.684	22.0587
326.577	15.1897
329.469	39.3052
332.362	42.9199
335.255	65.046
338.147	85.3498
341.04	107.796
343.933	120.214
346.825	169.937
349.718	195.878
352.611	234.308
355.503	250.372
358.396	262.961
361.289	284.94
364.182	264.241
367.074	259.41
369.967	179.742
372.86	136.411
375.752	71.1898
378.645	62.6645
381.538	57.4183
384.43	21.2086
387.323	15.8168
390.216	11.0542
393.109	19.3444
396.001	8.0946
398.894	13.8567
401.787	47.1683
404.679	39.1619
407.572	12.998
410.465	77.9307
413.358	63.7054
416.25	88.145
419.143	119.758
422.036	126.25
424.928	165.949
427.821	227.852
430.714	294.738
433.606	366.453
436.499	472.705
439.392	573.981
442.284	645.609
445.177	700.89
448.07	702.788
450.963	736.15
453.855	833.853
456.748	961.957
459.641	1101.1
462.533	1217.9
465.426	1232.2
468.319	1129.53
471.212	860.746
474.104	636.176
476.997	415.693
479.89	285.699
482.782	208.983
485.675	131.305
488.568	126.706
491.46	86.5182
494.353	65.9297
497.246	40.2338
500.139	44.4889
503.031	1.21948
505.924	32.7167
508.817	33.0793
511.709	1.46893
514.602	9.04742
517.495	15.0973
520.388	10.4037
523.28	10.1867
526.173	12.5817
529.066	1.25061
531.958	20.453
534.851	41.889
537.744	26.2911
540.636	22.5621
543.529	40.5866
546.422	86.4667
549.314	84.1235
552.207	65.4925
555.1	76.8184
557.993	94.7922
560.885	89.0464
563.778	111.2
566.671	128.098
569.563	138.715
572.456	137.018
575.349	186.791
578.241	225.882
581.134	224.41
584.027	289.841
586.92	328.028
589.812	345.444
592.705	434.429
595.598	465.537
598.49	543.259
601.383	579.701
604.276	592.557
607.168	600.652
610.061	578.938
612.954	535.423
615.847	491.169
618.739	460.064
621.632	410.148
624.525	361.187
627.417	348.517
630.31	293.441
633.203	247.336
636.096	222.984
638.988	169.924
641.881	160.296
644.774	112.854
647.666	96.0707
650.559	51.2328
653.452	32.6108
656.344	52.1108
659.237	31.9992
662.13	33.6848
665.023	9.48743
667.915	6.09399
670.808	15.9587
673.701	2.42133
676.593	9.09045
679.486	15.0972
682.379	7.19147
685.271	16.1973
688.164	2.336
691.057	4.02283
693.949	0.420227
696.842	3.55127
699.735	13.7999
702.628	9.33014
705.52	7.84253
708.413	19.4018
711.306	8.17157
714.198	7.31732
717.091	39.4263
719.984	30.8882
722.876	32.0648
725.769	37.5802
728.662	30.9802
731.555	59.4382
734.447	39.569
737.34	30.3005
740.233	24.3032
743.125	9.10919
746.018	36.7266
748.911	31.6252
751.803	29.073
754.696	26.6188
757.589	23.8108
760.482	19.5516
763.374	37.7194
766.267	16.0317
769.16	30.5559
772.052	25.0349
774.945	40.707
777.838	39.1033
780.731	40.4707
783.623	26.9814
786.516	13.598
789.409	11.3807
792.301	30.1709
795.194	56.1976
798.087	9.86627
800.979	16.949
803.872	22.2278
806.765	39.3265
809.658	6.88159
812.55	13.319
815.443	6.96448
818.336	6.48529
821.228	0.934998
824.121	36.2315
827.014	6.39581
829.906	30.8392
832.799	23.6067
835.692	45.1293
838.585	22.4369
841.477	27.5131
844.37	20.0397
847.263	29.2654
850.155	28.9677
853.048	15.942
855.941	19.6358
858.833	36.1242
861.726	3.82391
864.619	12.2819
867.511	16.7269
870.404	18.7499
873.297	11.5634
876.19	29.6926
879.082	18.3135
881.975	5.54694
884.868	22.6051
887.76	19.4874
890.653	38.3015
893.546	4.86212
896.438	42.2729
899.331	3.70422
902.224	4.23657
905.117	0.711609
908.009	13.3549
910.902	4.82886
913.795	9.64349
916.687	19.3041
919.58	6.63281
922.473	11.4854
925.365	12.5267
928.258	1.14844
931.151	20.2055
934.044	3.42548
936.936	34.464
939.829	28.6147
942.722	8.54565
945.614	48.2696
948.507	25.6077
951.4	50.1348
954.293	50.4273
957.185	84.3906
960.078	143.865
962.971	178.474
965.863	284.252
968.756	472.714
971.649	796.587
974.541	2154.88
977.434	4415.3
980.327	7724.69
983.22	11526.6
986.112	8211.09
989.005	3130.73
991.898	1007.13
994.79	474.738
997.683	278.533
1000.58	157.319
1003.47	132.394
1006.36	89.4935
1009.25	84.4243
1012.15	53.3913
1015.04	16.5663
1017.93	23.5012
1020.83	11.7916
1023.72	0.678467
1026.61	7.69458
1029.5	1.88422
1032.39	5.98785
1035.29	9.00372
1038.18	1.24145
1041.07	4.06238
1043.97	25.9112
1046.86	27.3885
1049.75	16.9628
1052.64	0.453552
1055.54	82.2292
1058.43	35.0795
1061.32	75.881
1064.21	90.4705
1067.11	109.065
1070	130.977
1072.89	164.958
1075.79	225.844
1078.68	236.179
1081.57	238.434
1084.46	258.802
1087.36	250.802
1090.25	203.282
1093.14	178.721
1096.04	140.803
1098.93	136.782
1101.82	98.7624
1104.71	78.1847
1107.61	43.8667
1110.5	48.8014
1113.39	49.3729
1116.28	22.7722
1119.18	37.4477
1122.07	45.1756
1124.96	22.8666
1127.86	30.0612
1130.75	57.9243
1133.64	92.4445
1136.53	134.21
1139.42	157.701
1142.32	203.067
1145.21	209.205
1148.1	210.828
1151	155.954
1153.89	124.697
1156.78	118.062
1159.67	75.8034
1162.57	44.3953
1165.46	41.8024
1168.35	31.6346
1171.24	24.0147
1174.14	17.9414
1177.03	1.8822
1179.92	5.84168
1182.82	3.6908
1185.71	4.69238
1188.6	11.3747
1191.49	2.03009
1194.39	13.5133
1197.28	16.4686
1200.17	29.8204
1203.07	2.46069
1205.96	31.0125
1208.85	5.5553
1211.74	8.72186
1214.64	7.75263
1217.53	56.1845
1220.42	40.5794
1223.31	25.5713
1226.21	3.53876
1229.1	14.0706
1231.99	18.5958
1234.88	6.14673
1237.78	38.3925
1240.67	5.50299
1243.56	28.0652
1246.45	50.0044
1249.35	8.07153
1252.24	20.7678
1255.13	31.0507
1258.03	13.6889
1260.92	26.9703
1263.81	20.2341
1266.7	48.1048
1269.6	29.8121
1272.49	17.8232
1275.38	42.9587
1278.28	9.81244
1281.17	11.5267
