Measurement: Raman, 532 nm, unoriented, Raman Data Processed
Mineral: Starkeyite
Rruff sample: R060321
Ideal chemistry: MgSO_4_4H_2_O
Locality: Epsom, Surrey, England
Source: Michael Scott
Description: White efflorescence
Raman shift (cm-1)	intensity
159.917	172.908
162.81	183.989
165.702	193.422
168.595	209.199
171.488	218.744
174.381	219.441
177.273	215.336
180.166	209.569
183.059	209.151
185.951	207.791
188.844	212.831
191.737	215.969
194.629	216.806
197.522	219.245
200.415	226.202
203.308	225.648
206.2	223.561
209.093	222.787
211.986	223.84
214.878	232.223
217.771	238.24
220.664	239.977
223.556	247.27
226.449	251.618
229.342	254.475
232.234	260.582
235.127	262.521
238.02	267.076
240.913	264.648
243.805	255.536
246.698	239.059
249.591	234.553
252.483	229.805
255.376	228.534
258.269	221.324
261.161	212.674
264.054	202.354
266.947	193.774
269.84	185.929
272.732	184.173
275.625	179.698
278.518	177.574
281.41	178.924
284.303	179.876
287.196	185.286
290.089	187.271
292.981	193.025
295.874	202.607
298.767	210.533
301.659	222.589
304.552	232.903
307.445	242.025
310.337	247.454
313.23	240.992
316.123	228.981
319.015	213.778
321.908	199.526
324.801	194.874
327.694	189.611
330.586	187.41
333.479	186.981
336.372	185.548
339.264	187.807
342.157	191.571
345.05	190.331
347.942	193.068
350.835	197.622
353.728	201.3
356.621	199.896
359.513	205.142
362.406	206.019
365.299	208.474
368.191	209.484
371.084	205.681
373.977	207.344
376.87	208.904
379.762	210.372
382.655	211.998
385.548	214.856
388.44	220.583
391.333	225.543
394.226	226.471
397.118	229.503
400.011	233.216
402.904	232.176
405.796	235.498
408.689	238.255
411.582	237.988
414.475	238.734
417.367	239.975
420.26	240.788
423.153	243.897
426.045	242.019
428.938	246.194
431.831	248.423
434.724	252.984
437.616	257.692
440.509	267.854
443.402	274.254
446.294	285.613
449.187	298.284
452.08	315.496
454.972	327.269
457.865	333.591
460.758	345.062
463.651	351.571
466.543	358.993
469.436	366.998
472.329	379.808
475.221	401.473
478.114	408.322
481.007	399.63
483.899	365.662
486.792	317.922
489.685	276.844
492.577	252.074
495.47	235.698
498.363	223.019
501.256	219.929
504.148	214.742
507.041	211.494
509.934	209.294
512.826	208.356
515.719	209.109
518.612	211.558
521.505	214.058
524.397	214.536
527.29	215.535
530.183	218.252
533.075	217.833
535.968	220.289
538.861	220.717
541.753	227.342
544.646	229.267
547.539	228.525
550.432	234.62
553.324	237.383
556.217	239.962
559.11	243.585
562.002	244.696
564.895	245.958
567.788	247.88
570.68	246.362
573.573	249.168
576.466	251.73
579.359	250.41
582.251	248.999
585.144	249.679
588.037	251.52
590.929	251.463
593.822	253.969
596.715	255.85
599.607	263.722
602.5	270.393
605.393	275.782
608.285	285.762
611.178	294.933
614.071	298.907
616.964	301.814
619.856	299.063
622.749	291.794
625.642	284.799
628.534	272.31
631.427	261.785
634.32	250.459
637.212	245.181
640.105	236.592
642.998	229.76
645.891	226.145
648.783	222.76
651.676	224.606
654.569	223.575
657.461	220.499
660.354	220.891
663.247	221.743
666.139	215.878
669.032	213.981
671.925	209.986
674.818	206.874
677.71	203.808
680.603	199.678
683.496	199.114
686.388	193.827
689.281	191.953
692.174	191.065
695.067	189.268
697.959	188.601
700.852	184.538
703.745	181.519
706.637	182.74
709.53	183.577
712.423	181.706
715.315	181.207
718.208	180.104
721.101	181.324
723.994	180.974
726.886	181.407
729.779	180.008
732.672	181.781
735.564	179.318
738.457	180.262
741.35	182.43
744.242	178.874
747.135	182.081
750.028	182.508
752.92	181.593
755.813	182.37
758.706	183.383
761.599	183.585
764.491	180.982
767.384	181.27
770.277	183.917
773.169	182.346
776.062	181.593
778.955	183.362
781.847	182.213
784.74	182.02
787.633	180.097
790.526	179.007
793.418	179.173
796.311	180.849
799.204	178.28
802.096	179.008
804.989	178.713
807.882	178.233
810.774	179.434
813.667	180.021
816.56	179.398
819.453	178.701
822.345	179.595
825.238	180.005
828.131	179.006
831.023	178.964
833.916	179.769
836.809	179.093
839.702	180.381
842.594	179.937
845.487	180.13
848.38	179.801
851.272	180.889
854.165	180.808
857.058	181.208
859.95	180.994
862.843	182.115
865.736	182.302
868.629	181.347
871.521	181.829
874.414	180.345
877.307	181.043
880.199	183.232
883.092	182.568
885.985	181.573
888.877	182.817
891.77	182.173
894.663	184.295
897.556	183.098
900.448	183.691
903.341	185.7
906.234	183.009
909.126	186.614
912.019	184.031
914.912	186.381
917.804	186.017
920.697	188.255
923.59	189.344
926.482	187.633
929.375	187.325
932.268	189.663
935.161	188.621
938.053	190.661
940.946	189.498
943.839	190.055
946.731	194.438
949.624	193.177
952.517	193.974
955.409	198.094
958.302	199.848
961.195	199.771
964.088	205.122
966.98	209.299
969.873	214.042
972.766	224.632
975.658	233.575
978.551	251.689
981.444	280.723
984.337	331.575
987.229	459.554
990.122	720.943
993.015	986.553
995.907	1437.92
998.8	2405.13
1001.69	2873.04
1004.59	1276.73
1007.48	565.56
1010.37	372.666
1013.26	298.018
1016.16	261.585
1019.05	237.805
1021.94	228.29
1024.83	219.972
1027.73	214.551
1030.62	210.147
1033.51	206.096
1036.4	205.913
1039.3	202.858
1042.19	201.974
1045.08	200.624
1047.98	203.087
1050.87	202.727
1053.76	201.98
1056.65	205.905
1059.55	207.732
1062.44	208.411
1065.33	212.041
1068.22	215.518
1071.12	222.442
1074.01	230.393
1076.9	239.236
1079.8	246.294
1082.69	254.279
1085.58	256.247
1088.47	256.557
1091.37	252.945
1094.26	247.699
1097.15	241.529
1100.04	239.279
1102.94	239.193
1105.83	246.601
1108.72	255.916
1111.62	267.952
1114.51	278.152
1117.4	275.995
1120.29	273.456
1123.19	261.985
1126.08	245.891
1128.97	234.037
1131.86	231.907
1134.76	230.797
1137.65	233.361
1140.54	239.411
1143.43	251.405
1146.33	270.63
1149.22	290.934
1152.11	311.508
1155.01	326.433
1157.9	321.409
1160.79	291.965
1163.68	260.706
1166.58	239.137
1169.47	228.638
1172.36	223.539
1175.26	221.573
1178.15	221.236
1181.04	223.377
1183.93	221.702
1186.83	216.577
1189.72	210.162
1192.61	205.774
1195.5	202.189
1198.4	201.956
1201.29	197.943
1204.18	197.525
1207.07	196.195
1209.97	196.625
1212.86	194.935
1215.75	194.717
1218.64	197.207
1221.54	194.789
1224.43	197.005
1227.32	197.178
1230.22	196.216
1233.11	196.633
1236	194.863
1238.89	196.012
1241.79	196.506
1244.68	194.117
1247.57	196.292
1250.46	194.745
1253.36	195.394
1256.25	193.632
1259.14	194.367
1262.04	193.992
1264.93	196.79
1267.82	194.971
1270.71	196.617
1273.61	196.181
1276.5	194.929
1279.39	194.782
1282.29	195.693
1285.18	194.301
1288.07	198.737
1290.96	197.913
1293.86	195.549
1296.75	195.412
1299.64	199.139
1302.53	197.109
