Measurement: Raman, 532 nm, unoriented, Raman Data Processed
Mineral: Starkeyite
Rruff sample: R070589
Ideal chemistry: MgSO_4_4H_2_O
Locality: Basque Lake, near Ashcroft, British Columbia, Canada
Source: James Shigley
Description: Fine white powder
Raman shift (cm-1)	intensity
133.46	0
136.352	46.4722
139.245	237.066
142.138	95.4316
145.03	114.484
147.923	146.384
150.816	152.307
153.709	162.976
156.601	141.633
159.494	69.9189
162.387	33.3118
165.279	30.0405
168.172	62.325
171.065	99.3132
173.958	184.141
176.85	111.162
179.743	154.42
182.636	234.79
185.528	325.077
188.421	379.582
191.314	447.087
194.206	574.352
197.099	600.42
199.992	734.124
202.885	814.172
205.777	863.266
208.67	792.505
211.563	811.296
214.455	798.663
217.348	877.616
220.241	925.87
223.133	965.328
226.026	1107.18
228.919	1202.04
231.811	1375.29
234.704	1476.83
237.597	1550.39
240.49	1667.23
243.382	1791.74
246.275	1562.42
249.168	1449.53
252.06	1200.88
254.953	921.666
257.846	716.222
260.738	514.318
263.631	329.237
266.524	225.65
269.417	200.041
272.309	82.6455
275.202	69.3254
278.095	40.9402
280.987	5.68091
283.88	21.4519
286.773	3.61646
289.665	43.0613
292.558	16.7886
295.451	27.5718
298.344	33.1694
301.236	33.7336
304.129	26.0125
307.022	58.2581
309.914	6.50732
312.807	21.6448
315.7	15.791
318.592	49.1611
321.485	141.678
324.378	128.196
327.271	108.946
330.163	143.13
333.056	93.9346
335.949	199.698
338.841	250.186
341.734	408.817
344.627	506.787
347.519	379.775
350.412	476.214
353.305	535.409
356.197	570.429
359.09	627.253
361.983	686.831
364.876	573.888
367.768	453.438
370.661	331.008
373.554	283.693
376.446	192.681
379.339	46.168
382.232	47.5855
385.125	1.58862
388.017	51.6545
390.91	26.3821
393.803	9.72021
396.695	0.048096
399.588	3.5293
402.481	5.88232
405.373	44.9207
408.266	74.0251
411.159	73.7024
414.051	65.7805
416.944	157.823
419.837	202.054
422.73	332.485
425.622	434.402
428.515	581.348
431.408	793.755
434.3	954.025
437.193	1133.59
440.086	1334.56
442.978	1449.89
445.871	1608.84
448.764	1646.33
451.657	1770.95
454.549	1921.83
457.442	2175.24
460.335	2361.72
463.227	2571.84
466.12	2534.52
469.013	2163.8
471.905	1606.15
474.798	1090.6
477.691	741.494
480.584	524.758
483.476	381.604
486.369	254.97
489.262	134.718
492.154	139.005
495.047	127.903
497.94	60.2788
500.832	32.7273
503.725	14.9629
506.618	25.4968
509.51	35.917
512.403	22.2302
515.296	62.3643
518.189	12.2219
521.081	83.2529
523.974	29.2947
526.867	11.8816
529.759	3.14136
532.652	40.6399
535.545	43.8735
538.438	89.042
541.33	81.9539
544.223	80.2664
547.116	122.225
550.008	181.954
552.901	120.048
555.794	180.994
558.686	240.804
561.579	245.07
564.472	310.373
567.365	345.144
570.257	402.985
573.15	494.158
576.043	581.786
578.935	605.493
581.828	678.596
584.721	769.126
587.613	870.42
590.506	993.189
593.399	1137.15
596.291	1213.82
599.184	1373.61
602.077	1429.09
604.97	1465.71
607.862	1501.99
610.755	1438.57
613.648	1361.82
616.54	1285.37
619.433	1210.13
622.326	1171.27
625.218	1082.36
628.111	1053.02
631.004	987.779
633.896	843.415
636.789	695.03
639.682	531.118
642.575	441.885
645.467	328.757
648.36	258.82
651.253	211.986
654.145	133.851
657.038	99.9456
659.931	152.594
662.823	45.1211
665.716	6.30884
668.609	34.616
671.502	6.41284
674.394	10.3552
677.287	12.1951
680.18	36.0185
683.072	2.20312
685.965	34.916
688.858	0.503906
691.75	22.4944
694.643	21.2398
697.536	50.8164
700.429	28.7786
703.321	1.72022
706.214	23.1929
709.107	26.5879
711.999	65.7844
714.892	55.5317
717.785	59.5222
720.678	36.585
723.57	56.9006
726.463	79.0662
729.356	106.336
732.248	38.4033
735.141	67.8706
738.034	63.7927
740.926	70.7119
743.819	35.655
746.712	82.9624
749.604	96.2507
752.497	81.9228
755.39	89.2349
758.283	69.4731
761.175	78.8801
764.068	63.6726
766.961	56.6501
769.853	59.8525
772.746	64.4075
775.639	64.2588
778.531	42.3506
781.424	58.3621
784.317	57.7712
787.21	43.4373
790.102	6.95386
792.995	40.9448
795.888	37.197
798.78	50.7542
801.673	88.9092
804.566	45.0422
807.458	33.137
810.351	26.1775
813.244	72.55
816.136	61.8013
819.029	43.0793
821.922	24.4233
824.815	53.2959
827.707	42.5886
830.6	38.0767
833.493	58.6802
836.385	48.7578
839.278	53.5659
842.171	49.5061
845.063	47.8999
847.956	51.5147
850.849	5.25317
853.742	17.749
856.634	61.342
859.527	74.1907
862.42	7.10596
865.312	49.0886
868.205	32.8777
871.098	43.1401
873.99	54.4133
876.883	68.3298
879.776	3.55151
882.669	26.7918
885.561	22.9646
888.454	29.7583
891.347	22.7175
894.239	10.2676
897.132	31.9949
900.025	7.89722
902.918	1.90356
905.81	37.2466
908.703	37.1167
911.596	51.1243
914.488	35.9714
917.381	8.44067
920.274	13.2966
923.166	1.83667
926.059	15.802
928.952	0.568115
931.844	45.9104
934.737	16.2119
937.63	62.9231
940.523	38.8682
943.415	53.3538
946.308	106.534
949.201	87.5271
952.093	171.539
954.986	255.627
957.879	375.982
960.771	466.895
963.664	859.402
966.557	1390.16
969.449	2674.02
972.342	6920.5
975.235	11428.2
978.128	16614.2
981.02	23942.8
983.913	35051
986.806	19840.5
989.698	5974.59
992.591	2311.21
995.484	1219.11
998.376	740.574
1001.27	428.317
1004.16	363.16
1007.05	242.581
1009.95	191.947
1012.84	108.866
1015.73	93.1099
1018.62	44.3023
1021.52	21.0561
1024.41	0.016113
1027.3	38.5859
1030.2	11.1362
1033.09	23.334
1035.98	2.8208
1038.87	13.0869
1041.77	10.0098
1044.66	11.9634
1047.55	57.9307
1050.44	3.71973
1053.34	95.7681
1056.23	95.0068
1059.12	157.62
1062.02	208.083
1064.91	279.141
1067.8	336.402
1070.69	491.017
1073.59	527.877
1076.48	650.675
1079.37	742.28
1082.27	764.89
1085.16	737.551
1088.05	656.005
1090.94	641.665
1093.84	498.548
1096.73	383.924
1099.62	309.952
1102.51	269.517
1105.41	200.205
1108.3	171.194
1111.19	169.597
1114.08	183.185
1116.98	156.759
1119.87	212.872
1122.76	222.768
1125.65	316.611
1128.55	477.04
1131.44	606.488
1134.33	726.012
1137.23	926.483
1140.12	1116.87
1143.01	1280.61
1145.9	1310.12
1148.8	1169.58
1151.69	1027.62
1154.58	809.749
1157.47	562.332
1160.37	433.092
1163.26	300.968
1166.15	200.549
1169.05	152.392
1171.94	108.751
1174.83	82.3364
1177.72	91.3027
1180.62	35.7627
1183.51	53.5918
1186.4	34.6514
1189.3	4.3042
1192.19	10.292
1195.08	54.9351
1197.97	7.26562
1200.87	31.3369
1203.76	54.002
1206.65	77.0933
1209.54	21.1318
1212.44	34.7188
1215.33	9.44141
1218.22	31.4673
1221.11	14.0215
1224.01	94.7319
1226.9	1.52246
1229.79	46.3789
1232.68	42.2148
1235.58	31.5132
1238.47	45.4946
1241.36	91.6924
1244.26	7.44727
1247.15	48.8706
1250.04	63.395
1252.93	56.5244
1255.83	66.3101
1258.72	24.2554
1261.61	0.409668
1264.51	38.1831
1267.4	30.1143
1270.29	40.9976
1273.18	38.0566
1276.08	36.2134
1278.97	30.7866
1281.86	30.0161
1284.75	24.2007
1287.65	30.2021
