Measurement: Raman, 514 nm, unoriented, Raman Data Processed
Mineral: Staurolite
Rruff sample: R050079
Ideal chemistry: Fe^2+^_2_Al_9_Si_4_O_23_(OH)
Locality: Keivy, Kola Peninsula, Russia
Source: Rock Currier
Description: Brown cruciform twins
Measured chemistry: (Fe^2+^_0.77_Mg_0.23_)_2_(Al_0.99_Ti_0.01_)_9_(Si_0.99_Al_0.01_)_4_O_20_(O_0.76_(OH)_0.24_)_4_
Raman shift (cm-1)	intensity
179.354	0
183.493	53.682
187.63	159.98
191.765	223.119
195.898	235.491
200.029	386.158
204.158	412.773
208.285	590.927
212.41	12.995
216.533	65.001
220.654	33.363
224.773	96.927
228.891	174.737
233.006	232.854
237.119	200.144
241.231	309.092
245.34	295.642
249.448	253.672
253.553	189.159
257.657	186.142
261.758	163.725
265.858	60.095
269.956	37.832
274.052	78.234
278.146	105.23
282.237	13.907
286.327	224.224
290.416	607.795
294.502	1486.63
298.586	3122.74
302.668	5296.13
306.749	5062.76
310.827	3119.09
314.903	1782.26
318.978	1141.77
323.051	816.601
327.121	768.827
331.19	739.641
335.257	697.388
339.322	681.784
343.385	707.495
347.446	770.095
351.505	880.014
355.563	986.412
359.618	822.4
363.672	717.567
367.723	607.442
371.773	503.245
375.821	463.558
379.866	442.161
383.91	521.977
387.952	653.526
391.992	665.377
396.031	722.72
400.067	629.043
404.101	719.118
408.134	652.857
412.165	507.815
416.193	567.985
420.22	858.365
424.245	1319.94
428.268	1422.5
432.289	1391.22
436.309	1427.11
440.326	1695.65
444.342	1987.83
448.355	1892.49
452.367	1674.33
456.377	1374.33
460.385	1257.51
464.391	1267.85
468.395	1010.03
472.398	808.091
476.398	918.129
480.397	974.618
484.394	1133.11
488.389	1356.84
492.382	1614.46
496.373	1803.55
500.362	1874.47
504.349	1722.81
508.335	1682.88
512.319	1617.54
516.3	1523.98
520.28	1535.03
524.259	1602
528.235	1703.83
532.209	1558.63
536.182	1298.93
540.152	1003.16
544.121	730.916
548.088	750.806
552.053	788.804
556.017	765.918
559.978	881.143
563.938	947.479
567.895	1181.73
571.851	1199.48
575.805	1173.15
579.758	1020.92
583.708	956.808
587.657	767.602
591.603	629.938
595.548	561.314
599.491	475.977
603.432	477.861
607.372	372.863
611.309	243.979
615.245	208.208
619.179	117.553
623.111	80.014
627.041	16.423
630.97	7.834
634.896	2.745
638.821	101.716
642.744	97.407
646.665	18.327
650.584	50.717
654.502	5.189
658.418	47.788
662.331	11.909
666.244	17.179
670.154	22.581
674.062	20.534
677.969	5.427
681.874	97.477
685.777	17.599
689.678	27.683
693.577	54.786
697.475	88.193
701.371	151.357
705.265	290.711
709.157	348.258
713.047	608.002
716.936	730.946
720.823	949.094
724.708	1208.45
728.591	1337.02
732.472	1734.8
736.352	2011.8
740.23	2378.02
744.106	2738.46
747.98	2902.13
751.853	3509.03
755.723	3788.16
759.592	4287.52
763.459	5080.11
767.325	5665.94
771.188	6232.01
775.05	6752.31
778.91	7367.87
782.768	7967.32
786.625	8837.46
790.479	9623.14
794.332	9744.81
798.183	9253.8
802.033	7682.3
805.88	5632.47
809.726	3770.85
813.57	2440.65
817.413	1677.13
821.253	1194.48
825.092	850.073
828.929	680.27
832.764	537.362
836.598	314.836
840.429	264.934
844.259	250.938
848.088	161.111
851.914	201.725
855.739	196.736
859.562	129.121
863.383	261.898
867.203	447.029
871.02	534.518
874.836	788.357
878.65	1070.54
882.463	1461.07
886.274	1965.96
890.083	2561.17
893.89	3009.72
897.695	3181.58
901.499	3225.75
905.301	3138.89
909.102	2874.71
912.9	2845.08
916.697	3006.45
920.492	3475.11
924.285	4073.05
928.077	4857.27
931.867	5748.75
935.655	6477.98
939.442	6312.42
943.226	5813.65
947.009	4937.69
950.791	4057.49
954.57	3584.52
958.348	3184.85
962.124	3066.68
965.899	2967.66
969.671	2866.4
973.442	2871.13
977.211	2787.94
980.979	2563.89
984.745	2411.6
988.509	2324.31
992.271	2328.93
996.032	2480.2
999.791	2490.39
1003.55	2306.76
1007.3	2150.8
1011.06	2003.6
1014.81	1796.23
1018.56	1722.53
1022.31	1556.21
1026.06	1423.23
1029.8	1344.99
1033.55	1030.93
1037.29	894.186
1041.03	789.908
1044.77	648.422
1048.5	434.784
1052.24	355.182
1055.97	329.479
1059.7	310.866
1063.43	305.667
1067.16	197.946
1070.89	160.459
1074.61	5.406
1078.34	54.056
1082.06	92.844
1085.78	27.332
1089.5	46.84
1093.21	12.298
1096.93	76.799
1100.64	80.629
1104.35	11.532
1108.06	12.196
1111.77	38.122
1115.48	13.934
1119.18	12.823
1122.89	170.262
1126.59	19.793
1130.29	37.272
1133.99	47.833
1137.68	28.688
1141.38	16.133
1145.07	53.415
1148.76	47.573
1152.45	4.302
1156.14	49.918
1159.83	76.188
1163.51	46.948
1167.19	20.208
1170.88	57.338
1174.56	53.832
1178.23	32.542
1181.91	32.531
1185.59	77.096
1189.26	92.118
1192.93	134.159
1196.6	125.889
1200.27	171.907
1203.94	91.675
1207.6	160.047
1211.27	119.887
1214.93	175.26
1218.59	169.849
1222.25	195.991
1225.9	161.05
1229.56	163.273
1233.21	154.744
1236.86	169.592
1240.51	191.412
1244.16	165.307
1247.81	235.219
1251.45	194.866
1255.1	163.113
1258.74	181.751
1262.38	123.574
1266.02	166.704
1269.66	191.31
1273.29	143.165
1276.93	100.599
1280.56	125.567
1284.19	128.264
1287.82	152.637
1291.45	170.352
1295.07	128.229
1298.7	139.274
1302.32	76.599
1305.94	165.395
1309.56	114.592
1313.18	143.028
1316.8	60.975
1320.41	137.461
1324.02	112.602
1327.63	108.467
1331.24	98.536
1334.85	65.928
1338.46	58.01
1342.06	83.108
1345.67	106.162
1349.27	74.219
1352.87	45.391
1356.47	58.713
1360.07	46.506
1363.66	67.435
1367.25	58.756
1370.85	89.365
1374.44	124.013
1378.03	93.089
1381.61	35.935
1385.2	50.125
1388.78	64.394
1392.37	7.346
1395.95	32.701
1399.53	45.069
1403.1	30.054
1406.68	18.994
1410.26	34.61
1413.83	87.197
1417.4	67.127
1420.97	32.069
1424.54	99.492
1428.1	37.206
1431.67	17.121
1435.23	49.818
1438.8	89.724
1442.36	60.333
1445.91	58.397
1449.47	49.004
1453.03	108.922
1456.58	54.188
1460.13	92.43
1463.68	41.077
1467.23	96.546
1470.78	85.465
1474.33	50.405
1477.87	30.064
1481.42	77.671
1484.96	44.835
1488.5	104.408
1492.04	57.037
1495.57	120.013
1499.11	141.2
1502.64	21.466
1506.17	66.917
1509.71	77.29
1513.23	67.251
1516.76	78.938
1520.29	22.325
