Measurement: Raman, 532 nm, unoriented, Raman Data Processed
Mineral: Staurolite
Rruff sample: R080120
Ideal chemistry: Fe^2+^_2_Al_9_Si_4_O_23_(OH)
Locality: Bahia, Brazil
Source: Shinichi Kihara
Description: Brown cruciform twins
Raman shift (cm-1)	intensity
109.328	0
112.703	0.442905
116.078	10.465
119.453	30.0816
122.828	49.1886
126.202	54.6299
129.577	65.1375
132.952	72.2714
136.327	81.7014
139.702	87.6714
143.076	84.497
146.451	84.1207
149.826	78.2866
153.201	74.4853
156.576	62.5525
159.951	51.5851
163.325	46.4331
166.7	38.514
170.075	33.823
173.45	26.7147
176.825	22.8302
180.199	18.5484
183.574	14.3923
186.949	11.6307
190.324	8.04804
193.699	5.05905
197.073	2.61436
200.448	1.85579
203.823	0.19371
207.198	1.57546
210.573	1.21168
213.948	0.780365
217.322	3.05051
220.697	4.99353
224.072	8.01034
227.447	9.64857
230.822	9.86588
234.196	9.95093
237.571	13.2757
240.946	13.5448
244.321	13.2335
247.696	12.9679
251.071	12.4431
254.445	13.0569
257.82	12.5026
261.195	11.695
264.57	8.40019
267.945	3.67871
271.32	0.970917
274.694	2.28752
278.069	0.670242
281.444	6.09346
284.819	22.217
288.193	40.6372
291.568	62.617
294.943	91.4104
298.318	131.67
301.693	181.253
305.068	201.619
308.442	150.446
311.817	92.6035
315.192	53.4414
318.567	34.7392
321.942	22.1522
325.317	16.3533
328.691	12.1447
332.066	9.95114
335.441	10.9612
338.816	10.4941
342.191	9.77418
345.565	5.41591
348.94	2.81377
352.315	2.15424
355.69	0.827911
359.065	0.566071
362.44	1.54304
365.814	0.36142
369.189	1.34215
372.564	2.28441
375.939	5.61058
379.314	7.26735
382.688	10.966
386.063	15.257
389.438	17.4195
392.813	19.4579
396.188	20.908
399.562	19.155
402.937	15.8711
406.312	13.5998
409.687	11.4634
413.062	10.6485
416.437	10.77
419.811	13.9267
423.186	18.8409
426.561	24.2974
429.936	28.3198
433.311	32.5352
436.685	40.933
440.06	48.3212
443.435	54.6442
446.81	51.2293
450.185	43.8515
453.56	31.5004
456.934	20.5688
460.309	11.7239
463.684	7.05562
467.059	2.73408
470.434	0.228851
473.808	0.287857
477.183	0.706207
480.558	3.07753
483.933	3.48679
487.308	5.65979
490.683	9.27327
494.057	11.1613
497.432	13.5792
500.807	13.2441
504.182	13.1655
507.557	11.1886
510.931	8.33107
514.306	5.31796
517.681	3.5946
521.056	3.55362
524.431	2.10928
527.806	3.15096
531.18	0.180405
534.555	0.482941
537.93	1.48268
541.305	0.303741
544.68	0.367752
548.054	3.05798
551.429	6.78897
554.804	7.94782
558.179	8.65297
561.554	11.6018
564.928	12.2922
568.303	13.8666
571.678	12.6044
575.053	11.2551
578.428	9.40518
581.803	5.83993
585.177	4.21558
588.552	1.5869
591.927	1.54929
595.302	0.933975
598.677	0.142075
602.052	0.122391
605.426	2.15756
608.801	0.395432
612.176	2.20778
615.551	1.26514
618.926	1.02368
622.3	2.86049
625.675	3.231
629.05	4.51689
632.425	4.11623
635.8	5.89702
639.174	4.34273
642.549	5.66124
645.924	6.65292
649.299	8.78142
652.674	8.2816
656.048	9.59921
659.423	7.74278
662.798	6.9556
666.173	2.60417
669.548	1.99846
672.923	1.85143
676.297	1.0878
679.672	1.43555
683.047	0.136734
686.422	1.61388
689.797	0.772064
693.172	0.02005
696.546	2.37463
699.921	2.27605
703.296	3.29497
706.671	5.93829
710.046	6.71823
713.42	6.25415
716.795	8.36952
720.17	9.59412
723.545	12.1632
726.92	15.0004
730.294	19.622
733.669	21.1955
737.044	25.6836
740.419	30.3539
743.794	32.5614
747.169	37.312
750.543	41.4256
753.918	48.3661
757.293	55.653
760.668	63.9577
764.043	74.5351
767.418	85.9122
770.792	96.533
774.167	106.312
777.542	114.809
780.917	126.706
784.292	136.755
787.666	143.545
791.041	148.586
794.416	146.591
797.791	133.2
801.166	109.899
804.54	82.8152
807.915	58.8237
811.29	38.8129
814.665	25.4641
818.04	15.6236
821.415	9.80299
824.789	7.0239
828.164	2.50967
831.539	1.24165
834.914	0.145309
838.289	0.691193
841.663	0.68956
845.038	2.26129
848.413	1.29109
851.788	1.84255
855.163	1.4167
858.538	1.05048
861.912	0.431656
865.287	0.245239
868.662	1.59036
872.037	3.49829
875.412	7.58969
878.786	12.8095
882.161	19.7035
885.536	25.0587
888.911	32.4007
892.286	36.0507
895.66	36.0451
899.035	35.8188
902.41	34.8879
905.785	31.4714
909.16	31.0403
912.535	36.7534
915.909	44.1668
919.284	57.5003
922.659	71.909
926.034	89.8359
929.409	106.587
932.784	117.379
936.158	122.256
939.533	114.572
942.908	96.2191
946.283	77.4591
949.658	57.8501
953.032	43.6142
956.407	31.5591
959.782	23.3986
963.157	19.2071
966.532	16.453
969.907	12.5505
973.281	8.94839
976.656	9.56229
980.031	8.20822
983.406	8.71724
986.781	10.0082
990.155	8.14801
993.53	9.96288
996.905	9.94154
1000.28	11.3469
1003.65	8.89343
1007.03	7.47743
1010.4	7.54315
1013.78	5.83493
1017.15	4.78987
1020.53	4.35344
1023.9	4.00511
1027.28	3.17899
1030.65	1.70093
1034.03	1.54846
1037.4	0.98024
1040.78	0.197662
1044.15	1.36993
1047.53	1.06111
1050.9	1.33081
1054.28	0.126389
1057.65	0.011185
1061.03	0.306641
1064.4	1.09116
1067.78	1.01286
1071.15	0.135025
1074.53	0.23111
1077.9	1.30693
1081.28	2.14444
1084.65	1.42615
1088.03	2.79184
1091.4	1.57623
1094.78	3.76358
1098.15	3.8262
1101.52	5.03661
1104.9	4.67262
1108.27	3.57996
1111.65	4.30885
1115.02	5.00139
1118.4	4.95219
1121.77	5.26985
1125.15	5.40785
1128.52	4.83943
1131.9	4.89101
1135.27	5.03581
1138.65	4.23898
1142.02	4.24388
1145.4	3.72516
1148.77	4.1303
1152.15	2.85529
1155.52	3.06351
1158.9	2.03389
1162.27	1.81174
1165.65	3.15753
1169.02	1.405
1172.4	1.07669
1175.77	1.84872
1179.14	2.21533
1182.52	1.265
1185.89	0.791245
1189.27	1.19563
1192.64	0.952347
1196.02	0.615509
1199.39	1.52216
1202.77	1.28328
1206.14	2.05038
1209.52	1.08159
1212.89	2.16087
1216.27	1.54054
1219.64	1.97028
1223.02	1.49941
1226.39	1.67723
1229.77	0.307022
1233.14	0.19696
1236.52	1.08723
1239.89	1.18309
1243.27	1.03508
1246.64	0.006454
1250.02	0.936844
1253.39	0.972717
1256.77	0.598923
1260.14	0.327225
1263.52	0.182953
1266.89	1.33328
1270.27	0.785431
1273.64	0.690613
1277.02	1.58691
1280.39	0.411621
1283.76	1.54269
1287.14	1.45049
1290.51	0.473755
1293.89	2.18494
1297.26	1.1423
1300.64	0.42099
