Measurement: Raman, 780 nm, unoriented, Raman Data Processed
Mineral: Staurolite
Rruff sample: R080120
Ideal chemistry: Fe^2+^_2_Al_9_Si_4_O_23_(OH)
Locality: Bahia, Brazil
Source: Shinichi Kihara
Description: Brown cruciform twins
Raman shift (cm-1)	intensity
93.7832	0
97.158	3.0233
100.533	0.453026
103.908	5.30814
107.282	4.55061
110.657	0.540543
114.032	1.01784
117.407	2.97965
120.782	2.41305
124.157	2.77381
127.531	4.37622
130.906	3.3481
134.281	5.28655
137.656	7.42394
141.031	7.61539
144.405	9.43116
147.78	10.6249
151.155	10.3971
154.53	9.3088
157.905	7.82905
161.28	6.2868
164.654	5.79526
168.029	2.94713
171.404	4.49406
174.779	2.29397
178.154	0.847298
181.529	0.617096
184.903	0.292191
188.278	0.745949
191.653	0.240578
195.028	0.069397
198.403	0.454939
201.777	1.02747
205.152	0.525597
208.527	0.25808
211.902	1.03086
215.277	2.44389
218.651	2.60487
222.026	4.8168
225.401	5.07625
228.776	5.85885
232.151	5.45273
235.526	7.71149
238.9	8.30592
242.275	9.6545
245.65	9.96746
249.025	8.53984
252.4	8.04523
255.774	8.8067
259.149	7.9254
262.524	7.26748
265.899	4.10435
269.274	2.12724
272.649	1.07989
276.023	0.499729
279.398	1.42622
282.773	5.60383
286.148	12.3983
289.523	21.8746
292.897	32.2395
296.272	47.3102
299.647	67.4741
303.022	88.5784
306.397	88.0679
309.772	58.3776
313.146	34.3926
316.521	21.0144
319.896	14.1233
323.271	10.6249
326.646	8.85274
330.021	8.07682
333.395	8.50267
336.77	10.6362
340.145	11.5482
343.52	9.82659
346.895	6.16025
350.269	4.08487
353.644	2.20179
357.019	1.08336
360.394	1.76627
363.769	0.011967
367.144	0.66256
370.518	0.576843
373.893	0.06448
377.268	1.00841
380.643	1.50104
384.018	0.234562
387.392	0.321457
390.767	0.374638
394.142	0.681194
397.517	1.76231
400.892	1.45147
404.267	1.89467
407.641	2.32334
411.016	2.65729
414.391	4.69238
417.766	4.64802
421.141	7.76189
424.515	11.4132
427.89	14.9837
431.265	19.7183
434.64	23.9483
438.015	29.1001
441.39	34.5125
444.764	36.7572
448.139	35.0201
451.514	28.8533
454.889	22.6662
458.264	17.023
461.639	12.2437
465.013	9.8134
468.388	8.51841
471.763	8.03793
475.138	8.60007
478.513	8.01091
481.887	9.70385
485.262	9.26777
488.637	8.68798
492.012	10.8426
495.387	10.6112
498.762	11.8797
502.136	12.234
505.511	12.0351
508.886	10.3861
512.261	8.26219
515.636	7.88033
519.01	4.30438
522.385	2.93217
525.76	1.38564
529.135	1.74132
532.51	0.148777
535.885	0.465164
539.259	1.21012
542.634	0.350544
546.009	0.685165
549.384	0.96212
552.759	1.24699
556.133	1.51567
559.508	1.72993
562.883	0.490353
566.258	1.41432
569.633	2.43083
573.008	1.57682
576.382	1.41811
579.757	1.54007
583.132	1.02109
586.507	0.917919
589.882	0.710449
593.256	1.02296
596.631	1.00634
600.006	2.34522
603.381	1.1553
606.756	2.13889
610.13	1.61235
613.505	1.9888
616.88	1.70972
620.255	2.48946
623.63	2.08445
627.005	2.37336
630.379	1.67225
633.754	1.93698
637.129	2.83414
640.504	2.98629
643.879	3.43048
647.254	3.97893
650.628	3.5822
654.003	4.60851
657.378	4.69755
660.753	4.21944
664.128	3.79088
667.502	1.99416
670.877	2.25218
674.252	0.870068
677.627	0.492226
681.002	0.95985
684.376	0.433792
687.751	1.0709
691.126	0.517502
694.501	1.11644
697.876	0.13332
701.251	0.240452
704.625	1.00364
708	1.84588
711.375	0.703663
714.75	0.951393
718.125	0.692657
721.5	2.49737
724.874	2.78156
728.249	3.13637
731.624	3.21209
734.999	3.92479
738.374	4.83175
741.749	5.17307
745.123	6.2053
748.498	6.68937
751.873	6.41141
755.248	8.41069
758.623	8.25477
761.997	9.72709
765.372	10.1847
768.747	10.8615
772.122	10.7778
775.497	11.6578
778.871	10.308
782.246	11.8266
785.621	11.3775
788.996	10.8116
792.371	10.9339
795.745	9.34771
799.12	8.75277
802.495	5.19659
805.87	3.17562
809.245	2.48313
812.62	1.71447
815.994	1.26874
819.369	0.227211
822.744	0.375893
826.119	0.01157
829.494	0.282375
832.869	0.049133
836.243	0.7085
839.618	0.469566
842.993	0.367085
846.368	0.087818
849.743	0.295921
853.117	0.506424
856.492	0.499218
859.867	1.75666
863.242	1.97873
866.617	2.47823
869.992	2.95243
873.366	4.8654
876.741	6.64858
880.116	8.17912
883.491	10.8652
886.866	13.703
890.24	16.5189
893.615	16.3011
896.99	16.4061
900.365	13.2159
903.74	12.0646
907.115	11.44
910.489	11.094
913.864	12.4559
917.239	13.694
920.614	16.9207
923.989	20.5252
927.364	25.2271
930.738	28.6368
934.113	30.4483
937.488	30.3912
940.863	25.7182
944.238	22.4005
947.612	17.8057
950.987	12.2756
954.362	8.83372
957.737	7.7117
961.112	4.37443
964.486	4.61601
967.861	2.9476
971.236	1.32248
974.611	0.204269
977.986	0.340927
981.361	0.828156
984.735	0.758127
988.11	0.781975
991.485	0.668312
994.86	0.490311
998.235	0.440859
1001.61	0.230288
1004.98	0.538235
1008.36	0.623829
1011.73	0.941074
1015.11	0.57505
1018.48	0.189466
1021.86	0.162193
1025.23	0.041595
1028.61	1.30147
1031.98	0.872972
1035.36	0.671694
1038.73	0.974049
1042.11	0.95048
1045.48	1.37228
1048.86	1.14783
1052.23	1.06259
1055.61	0.958691
1058.98	2.07614
1062.36	1.34575
1065.73	0.805765
1069.11	1.26064
1072.48	1.60353
1075.86	1.88015
1079.23	1.38671
1082.61	0.344553
1085.98	2.18944
1089.36	1.23187
1092.73	1.34892
1096.1	0.709841
1099.48	0.251484
1102.85	1.20979
1106.23	0.93129
1109.6	0.946423
1112.98	0.439182
1116.35	0.767122
1119.73	0.790741
1123.1	1.08483
1126.48	0.881847
1129.85	1.50295
1133.23	1.26414
1136.6	0.950798
1139.98	0.961592
1143.35	0.631227
1146.73	0.030622
1150.1	0.708433
1153.48	0.88751
1156.85	0.305706
1160.23	0.898714
1163.6	1.35998
1166.98	0.258249
1170.35	1.24946
1173.72	0.927738
1177.1	0.065369
1180.47	0.48221
1183.85	0.505749
1187.22	1.64581
1190.6	0.760479
1193.97	1.57711
1197.35	1.88242
1200.72	0.771257
1204.1	1.32498
1207.47	0.95941
1210.85	0.636341
1214.22	1.2851
1217.6	0.116877
1220.97	0.316641
1224.35	0.463324
1227.72	0.128511
1231.1	0.698883
1234.47	0.192766
1237.85	0.604576
1241.22	0.657524
1244.6	0.465021
1247.97	0.115149
1251.35	0.370812
1254.72	0.906897
1258.1	0.651146
1261.47	1.94806
1264.85	0.513655
1268.22	0.637512
1271.6	1.35743
1274.97	0.238686
1278.35	0.250587
1281.72	0.750854
1285.09	0.736156
