Measurement: Raman, 785 nm, unoriented, Raman Data Processed
Mineral: Staurolite
Rruff sample: R050079
Ideal chemistry: Fe^2+^_2_Al_9_Si_4_O_23_(OH)
Locality: Keivy, Kola Peninsula, Russia
Source: Rock Currier
Description: Brown cruciform twins
Measured chemistry: (Fe^2+^_0.77_Mg_0.23_)_2_(Al_0.99_Ti_0.01_)_9_(Si_0.99_Al_0.01_)_4_O_20_(O_0.76_(OH)_0.24_)_4_
Raman shift (cm-1)	intensity
138.376	0
141.268	11.4483
144.161	129.435
147.054	258.666
149.946	306.216
152.839	266.459
155.732	176.209
158.625	96.5666
161.517	63.5227
164.41	69.3245
167.303	109.117
170.195	193.623
173.088	179.958
175.981	184.833
178.873	211.033
181.766	229.825
184.659	231.905
187.552	297.078
190.444	412.72
193.337	487.449
196.23	576.995
199.122	739.283
202.015	836.725
204.908	875.765
207.8	820.567
210.693	776.451
213.586	632.3
216.478	505.588
219.371	428.637
222.264	336.053
225.157	288.839
228.049	245.506
230.942	173.176
233.835	158.656
236.727	120.169
239.62	111.164
242.513	77.5513
245.405	114.635
248.298	78.219
251.191	64.4513
254.084	94.3597
256.976	95.1776
259.869	125.279
262.762	196.192
265.654	176.509
268.547	105.233
271.44	17.8326
274.332	3.95288
277.225	49.5869
280.118	24.2673
283.011	3.01514
285.903	66.1816
288.796	154.933
291.689	271.533
294.581	434.974
297.474	683.361
300.367	969.308
303.26	1305.64
306.152	1370.41
309.045	1114.55
311.938	733.298
314.83	458.283
317.723	311.355
320.616	211.325
323.508	142.03
326.401	118.603
329.294	119.873
332.187	129.911
335.079	126.005
337.972	92.0525
340.865	101.774
343.757	149.832
346.65	157.291
349.543	203.702
352.435	313.321
355.328	454.066
358.221	372.601
361.113	288.392
364.006	188.684
366.899	182.117
369.792	147.892
372.684	130.9
375.577	19.4663
378.47	61.2297
381.362	7.39868
384.255	20.882
387.148	0.043579
390.041	0.489502
392.933	11.5947
395.826	22.8871
398.719	44.0889
401.611	103.111
404.504	71.4724
407.397	1.24133
410.289	4.83521
413.182	52.5472
416.075	34.9688
418.967	30.6929
421.86	92.467
424.753	162.811
427.646	227.705
430.538	263.416
433.431	290.401
436.324	385.076
439.216	423.305
442.109	545.84
445.002	593.801
447.894	722.993
450.787	797.663
453.68	1015.26
456.573	1275.05
459.465	1822.11
462.358	2843.96
465.251	3368.68
468.143	2383.34
471.036	1220.51
473.929	613.752
476.822	403.403
479.714	249.795
482.607	206.218
485.5	164.885
488.392	170.294
491.285	175.197
494.178	231.914
497.07	240.369
499.963	259.733
502.856	226.996
505.748	260.183
508.641	263.542
511.534	287.742
514.427	261.115
517.319	238.22
520.212	270.396
523.105	297.358
525.997	339.077
528.89	332.905
531.783	296.365
534.676	251.217
537.568	187.645
540.461	81.6827
543.354	67.5187
546.246	12.0308
549.139	5.80249
552.032	32.3886
554.924	4.49585
557.817	16.0488
560.71	24.1144
563.602	59.1365
566.495	111.573
569.388	103.97
572.281	165.314
575.173	143.376
578.066	133.513
580.959	123.322
583.851	126.853
586.744	96.6736
589.637	110.455
592.529	72.8508
595.422	94.4237
598.315	60.6773
601.208	42.1598
604.1	50.8946
606.993	35.7559
609.886	24.9202
612.778	15.8585
615.671	25.4946
618.564	1.0481
621.457	12.2842
624.349	8.63831
627.242	7.10877
630.135	23.4424
633.027	13.2102
635.92	17.361
638.813	11.6968
641.705	45.5189
644.598	2.76489
647.491	26.8247
650.384	41.1134
653.276	32.1041
656.169	36.5262
659.062	55.8317
661.954	57.8138
664.847	48.168
667.74	7.44116
670.632	50.5136
673.525	57.8732
676.418	25.0687
679.311	81.9156
682.203	61.0392
685.096	10.3857
687.989	41.0123
690.881	40.0842
693.774	26.1282
696.667	33.9877
699.559	29.1342
702.452	0.476685
705.345	4.46399
708.237	22.2294
711.13	10.1648
714.023	27.2214
716.916	38.6593
719.808	48.4825
722.701	51.9051
725.594	77.9784
728.486	77.2006
731.379	96.7786
734.272	110.684
737.164	138.183
740.057	153.998
742.95	188.413
745.843	192.641
748.735	229.54
751.628	242.268
754.521	231.304
757.413	304.46
760.306	325.044
763.199	369.21
766.091	377.88
768.984	412.592
771.877	439.425
774.77	453.532
777.662	460.678
780.555	472.461
783.448	463.494
786.34	508.954
789.233	489.358
792.126	530.343
795.019	516.361
797.911	504.779
800.804	463.951
803.697	337.939
806.589	274.19
809.482	239.644
812.375	156.484
815.267	81.0387
818.16	25.7354
821.053	35.7559
823.946	19.066
826.838	11.9779
829.731	17.5828
832.624	3.02148
835.516	3.58313
838.409	12.23
841.302	30.4456
844.194	13.1072
847.087	25.0551
849.98	23.512
852.872	9.94849
855.765	24.4398
858.658	13.5572
861.551	3.56177
864.443	22.6844
867.336	65.8909
870.229	69.178
873.121	104.743
876.014	149.209
878.907	252.06
881.799	321.573
884.692	470.982
887.585	594.547
890.478	703.186
893.37	801.169
896.263	776.458
899.156	738.077
902.048	661.148
904.941	585.774
907.834	471.132
910.726	393.663
913.619	363.702
916.512	351.156
919.405	359.016
922.297	379.606
925.19	433.67
928.083	515.444
930.975	576.417
933.868	655.158
936.761	645.749
939.654	665.384
942.546	571.204
945.439	459.356
948.332	372.676
951.224	313.144
954.117	280.602
957.01	222.256
959.902	189.963
962.795	192.318
965.688	169.999
968.581	170.71
971.473	122.734
974.366	79.0096
977.259	37.3755
980.151	26.1061
983.044	26.4584
985.937	3.34143
988.829	26.2299
991.722	2.46435
994.615	33.1842
997.508	18.0699
1000.4	4.96326
1003.29	32.502
1006.19	13.1717
1009.08	2.12097
1011.97	34.2522
1014.86	8.42761
1017.76	16.408
1020.65	17.7036
1023.54	2.35779
1026.43	13.4884
1029.33	31.8071
1032.22	30.5395
1035.11	6.07776
1038.01	7.94934
1040.9	24.1794
1043.79	3.59998
1046.68	0.648193
1049.58	5.83264
1052.47	23.4175
1055.36	11.3047
1058.25	6.81689
1061.15	25.3265
1064.04	45.4424
1066.93	64.9324
1069.83	48.8108
1072.72	20.9942
1075.61	50.1899
1078.5	38.9594
1081.4	84.6453
1084.29	54.1794
1087.18	42.0435
1090.07	43.64
1092.97	37.0281
1095.86	27.2098
1098.75	35.3589
1101.64	0.581482
1104.54	17.6127
1107.43	32.0591
1110.32	3.80145
1113.21	14.7729
1116.11	19.2867
1119	42.2345
1121.89	62.2518
1124.79	13.3311
1127.68	41.3943
1130.57	23.8458
1133.46	9.54004
1136.36	32.2379
1139.25	21.9886
1142.14	61.3109
1145.04	39.1543
1147.93	30.2475
1150.82	36.5914
1153.71	51.7935
1156.61	45.8226
1159.5	83.3835
1162.39	53.4573
1165.28	54.8536
1168.18	54.0369
1171.07	36.9528
1173.96	21.3223
1176.86	33.56
1179.75	7.94513
1182.64	31.8015
1185.53	37.8663
1188.43	51.9928
1191.32	19.5467
1194.21	34.6027
1197.1	17.2033
1200	0.858093
1202.89	23.9242
1205.78	8.82355
1208.67	31.2401
1211.57	30.0699
1214.46	19.0422
1217.35	25.402
1220.24	21.0659
1223.14	28.5122
1226.03	13.3533
