Measurement: Raman, 532 nm, unoriented, Raman Data Processed
Mineral: Staurolite
Rruff sample: R050079
Ideal chemistry: Fe^2+^_2_Al_9_Si_4_O_23_(OH)
Locality: Keivy, Kola Peninsula, Russia
Source: Rock Currier
Description: Brown cruciform twins
Measured chemistry: (Fe^2+^_0.77_Mg_0.23_)_2_(Al_0.99_Ti_0.01_)_9_(Si_0.99_Al_0.01_)_4_O_20_(O_0.76_(OH)_0.24_)_4_
Raman shift (cm-1)	intensity
124.592	0
127.967	53.1106
131.341	200.804
134.716	421.364
138.091	738.314
141.466	1023.13
144.841	973.662
148.215	609.449
151.59	350.506
154.965	234.883
158.34	128.243
161.715	49.9143
165.09	26.8321
168.464	36.2474
171.839	12.0491
175.214	14.8986
178.589	3.43426
181.964	7.52753
185.339	28.4034
188.713	27.9327
192.088	79.6079
195.463	102.472
198.838	130.501
202.213	192.923
205.587	206.867
208.962	146.703
212.337	132.2
215.712	87.3066
219.087	79.9287
222.462	82.4616
225.836	27.2319
229.211	40.755
232.586	53.8854
235.961	41.1067
239.336	19.0635
242.71	31.6689
246.085	52.6615
249.46	26.9611
252.835	58.5792
256.21	47.1012
259.584	68.9481
262.959	69.9995
266.334	44.5336
269.709	13.5595
273.084	20.1725
276.459	22.7763
279.833	17.1547
283.208	61.3989
286.583	115.377
289.958	302.381
293.333	608.238
296.707	993.021
300.082	1435.57
303.457	1844.47
306.832	1689.17
310.207	1106.78
313.582	680.948
316.956	452.638
320.331	342.355
323.706	292.229
327.081	249.239
330.456	239.005
333.83	194.717
337.205	179.719
340.58	225.854
343.955	222.974
347.33	265.101
350.705	362.072
354.079	452.683
357.454	398.399
360.829	330.935
364.204	259.683
367.579	211.166
370.954	165.279
374.328	82.7492
377.703	54.6028
381.078	21.9003
384.453	42.8569
387.828	70.1691
391.202	44.5614
394.577	111.384
397.952	67.8839
401.327	102.413
404.702	59.5557
408.077	3.23547
411.451	50.7812
414.826	46.1842
418.201	67.6779
421.576	115.933
424.951	224.491
428.325	266.465
431.7	334.098
435.075	377.366
438.45	467.844
441.825	564.308
445.2	605.007
448.574	648.105
451.949	630.621
455.324	735.03
458.699	999.966
462.074	1502.43
465.448	1584.89
468.823	855.413
472.198	421.701
475.573	240.215
478.948	212.8
482.322	226.26
485.697	229.054
489.072	305.729
492.447	393.532
495.822	430.638
499.197	474.584
502.571	390.181
505.946	400.434
509.321	375.725
512.696	339.911
516.071	325.647
519.446	364.001
522.82	433.475
526.195	469.155
529.57	456.779
532.945	325.997
536.32	229.272
539.694	121.777
543.069	25.597
546.444	5.70496
549.819	5.74048
553.194	38.1254
556.568	39.7455
559.943	64.5154
563.318	154.687
566.693	169.58
570.068	199.627
573.443	209.822
576.817	188.342
580.192	209.763
583.567	173.96
586.942	166.754
590.317	133.741
593.692	104.334
597.066	128.006
600.441	109.964
603.816	116.16
607.191	110.794
610.566	47.8422
613.94	34.5881
617.315	27.9878
620.69	22.6587
624.065	2.65662
627.44	17.6896
630.814	6.02856
634.189	10.0605
637.564	36.0269
640.939	16.5088
644.314	3.88928
647.689	0.315063
651.063	52.2
654.438	45.0836
657.813	53.8698
661.188	31.9629
664.563	3.3562
667.938	18.5725
671.312	18.7455
674.687	36.262
678.062	12.7606
681.437	3.30444
684.812	0.088257
688.186	18.6104
691.561	2.41467
694.936	8.29797
698.311	6.46497
701.686	3.20068
705.061	38.5975
708.435	52.7944
711.81	101.165
715.185	114.66
718.56	208.168
721.935	283.682
725.309	353.945
728.684	488.18
732.059	591.321
735.434	709.275
738.809	793.393
742.183	968.86
745.558	1076.72
748.933	1219.4
752.308	1290.76
755.683	1433
759.058	1622.98
762.432	1810.88
765.807	1927.83
769.182	2221.29
772.557	2384.33
775.932	2537.06
779.307	2671.66
782.681	2857.68
786.056	3028.09
789.431	3180.81
792.806	3195.01
796.181	3008.49
799.555	2613.32
802.93	2032.44
806.305	1506.78
809.68	1011.12
813.055	700.36
816.429	420.83
819.804	321.394
823.179	242.736
826.554	161.183
829.929	131.67
833.304	66.0067
836.678	72.037
840.053	10.3596
843.428	12.2773
846.803	0.095825
850.178	70.5888
853.553	64.6995
856.927	29.7522
860.302	7.96448
863.677	6.70984
867.052	27.9526
870.427	125.061
873.801	163.645
877.176	340.24
880.551	544.576
883.926	789.239
887.301	1057.21
890.676	1261.99
894.05	1404.61
897.425	1413.69
900.8	1277.36
904.175	1047.08
907.55	847.422
910.924	723.561
914.299	637.212
917.674	644.128
921.049	732.631
924.424	884.569
927.798	1070.81
931.173	1230.58
934.548	1308.43
937.923	1274.04
941.298	1121.55
944.673	888.464
948.047	637.894
951.422	497.819
954.797	449.444
958.172	359.971
961.547	329.267
964.922	373.468
968.296	297.4
971.671	313.264
975.046	257.92
978.421	224.805
981.796	174.501
985.17	168.95
988.545	166.738
991.92	171.968
995.295	226.758
998.67	175.422
1002.04	230.737
1005.42	182.071
1008.79	153.629
1012.17	154.525
1015.54	118.262
1018.92	115.511
1022.29	126.407
1025.67	111.452
1029.04	78.3939
1032.42	80.6929
1035.79	12.2489
1039.17	6.00281
1042.54	10.0918
1045.92	41.1976
1049.29	47.5581
1052.67	35.4745
1056.04	21.0581
1059.42	7.44922
1062.79	10.2111
1066.17	10.0922
1069.54	11.1156
1072.92	11.9065
1076.29	53.5336
1079.66	37.3492
1083.04	22.9261
1086.41	44.9928
1089.79	68.3989
1093.16	46.7437
1096.54	56.5394
1099.91	87.9216
1103.29	91.2947
1106.66	85.8027
1110.04	31.2869
1113.41	73.7267
1116.79	81.3071
1120.16	79.3731
1123.54	41.1116
1126.91	67.3629
1130.29	56.8665
1133.66	67.8379
1137.04	59.2753
1140.41	93.0946
1143.79	78.5813
1147.16	51.8347
1150.54	87.9639
1153.91	89.0326
1157.29	95.7116
1160.66	80.5292
1164.04	98.8752
1167.41	70.9911
1170.79	44.9719
1174.16	25.441
1177.54	60.7444
1180.91	40.6793
1184.29	44.7772
1187.66	18.4509
1191.03	32.4816
1194.41	45.5195
1197.78	7.80835
1201.16	23.0557
1204.53	57.5669
1207.91	15.9355
1211.28	40.8297
1214.66	22.2518
1218.03	12.85
1221.41	47.6981
1224.78	33.6394
1228.16	27.0729
1231.53	28.5216
1234.91	49.7484
1238.28	16.608
1241.66	52.5081
1245.03	32.5067
1248.41	34.023
1251.78	18.1682
1255.16	18.2975
1258.53	42.3646
1261.91	1.89148
1265.28	8.68713
1268.65	43.6132
1272.03	0.741699
1275.4	33.6122
1278.78	38.7461
1282.15	30.1771
1285.53	64.7194
1288.9	41.0685
1292.28	7.34961
1295.65	23.3105
1299.03	0
