Measurement: Raman, 532 nm, unoriented, Raman Data Processed
Mineral: Steenstrupine-(Ce)
Rruff sample: R100205
Ideal chemistry: Na_14_Ce_6_Mn^2+^_2_Fe^3+^_2_Zr(PO_4_)_7_Si_12_O_36_(OH)_2_3H_2_O
Locality: Mont Saint-Hilaire, Rouville County, Quebec, Canada
Source: Royal Ontario Museum
Description: Transparent brown blocky crystals on a white sodalite matrix. Our sample is twinned. If we ignored the twin, then we get the reported hexagonal cell of Moore and Shen (1983).
Raman shift (cm-1)	intensity
178.78	0
181.673	2.54578
184.566	3.18213
187.459	4.88855
190.351	22.1766
193.244	32.0994
196.137	38.3015
199.029	31.926
201.922	27.8313
204.815	31.5808
207.708	23.5748
210.6	18.0166
213.493	17.1821
216.386	19.5266
219.278	12.6113
222.171	8.4231
225.064	4.19617
227.956	3.09436
230.849	1.37353
233.742	2.51599
236.635	0.81958
239.527	1.84265
242.42	8.77087
245.313	14.6996
248.205	21.6211
251.098	32.9448
253.991	41.9532
256.884	52.1793
259.776	74.1793
262.669	77.0969
265.562	88.5714
268.454	93.7867
271.347	79.3713
274.24	80.5726
277.132	69.2111
280.025	58.2433
282.918	62.3738
285.81	49.6417
288.703	50.8914
291.596	49.8531
294.489	37.063
297.381	40.1874
300.274	37.061
303.167	33.2357
306.059	35.8099
308.952	45.7808
311.845	56.8406
314.738	64.5256
317.63	82.9592
320.523	90.5947
323.416	98.7609
326.308	104.484
329.201	110.391
332.094	104.61
334.986	97.3518
337.879	88.8572
340.772	76.175
343.665	64.7449
346.557	57.4159
349.45	51.4326
352.343	41.9998
355.235	41.5856
358.128	24.3044
361.021	18.778
363.913	12.429
366.806	0.683594
369.699	0.518799
372.592	3.68005
375.484	4.13281
378.377	0.488037
381.27	2.4823
384.162	2.34363
387.055	7.62842
389.948	11.6827
392.841	15.5138
395.733	19.6316
398.626	29.2134
401.519	44.4665
404.411	58.5288
407.304	63.1136
410.197	80.8969
413.089	99.8396
415.982	137.093
418.875	164.806
421.767	189.039
424.66	197.414
427.553	196.086
430.446	190.058
433.338	172.544
436.231	160.421
439.124	146.38
442.017	131.844
444.909	116.518
447.802	101.063
450.695	86.0082
453.587	77.6467
456.48	57.9614
459.373	47.3345
462.265	31.0074
465.158	20.8232
468.051	13.4115
470.943	6.29639
473.836	2.1654
476.729	1.23999
479.622	1.90625
482.514	5.89075
485.407	6.85266
488.3	0.153931
491.192	1.65259
494.085	13.5283
496.978	17.6277
499.87	17.8176
502.763	26.5364
505.656	34.1283
508.549	57.0949
511.441	71.0039
514.334	95.8524
517.227	114.307
520.119	145.576
523.012	171.279
525.905	199.53
528.798	215.149
531.69	209.305
534.583	194.604
537.476	175.076
540.368	158.187
543.261	150.617
546.154	145.049
549.047	135.211
551.939	106.674
554.832	86.6185
557.725	51.377
560.617	29.8043
563.51	12.9098
566.403	5.87268
569.295	6.57886
572.188	10.6696
575.081	24.0791
577.973	43.6475
580.866	75.4777
583.759	107.75
586.652	137.845
589.544	156.353
592.437	184.228
595.33	198.848
598.222	190.06
601.115	161.64
604.008	120.893
606.901	84.7889
609.793	63.5251
612.686	48.443
615.579	33.5018
618.471	20.0249
621.364	12.7456
624.257	8.65857
627.149	3.72485
630.042	0.230713
632.935	2.60632
635.828	6.33508
638.72	0.760498
641.613	3.43506
644.506	3.16187
647.398	4.72107
650.291	1.07666
653.184	3.15759
656.077	12.3585
658.969	17.601
661.862	15.2462
664.755	14.7667
667.647	9.74023
670.54	14.7747
673.433	21.1375
676.325	21.6378
679.218	22.4043
682.111	28.239
685.004	30.6945
687.896	28.7151
690.789	28.3053
693.682	19.4391
696.574	18.2717
699.467	15.5099
702.36	15.9851
705.253	17.2284
708.145	19.4557
711.038	12.3822
713.931	14.6355
716.823	10.6421
719.716	6.43787
722.609	5.89587
725.501	8.00989
728.394	5.47888
731.287	0.139648
734.179	3.7063
737.072	0.792114
739.965	1.63196
742.858	2.31397
745.75	4.69836
748.643	5.45007
751.536	7.04919
754.428	15.2245
757.321	19.3691
760.214	23.9009
763.107	26.1825
765.999	23.8888
768.892	26.8049
771.785	19.8824
774.677	18.7918
777.57	7.37903
780.463	10.0206
783.356	5.6322
786.248	9.58972
789.141	0.315918
792.034	2.44727
794.926	2.07776
797.819	5.28748
800.712	3.5033
803.604	3.21704
806.497	2.36646
809.39	4.18957
812.283	1.70361
815.175	8.27563
818.068	12.1223
820.961	17.4624
823.853	15.3162
826.746	17.4237
829.639	14.3462
832.531	21.5873
835.424	29.6719
838.317	34.8922
841.21	58.8173
844.102	78.4276
846.995	109.517
849.888	129.889
852.78	149.008
855.673	165.468
858.566	160.685
861.458	154.733
864.351	148.752
867.244	130.798
870.136	124.785
873.029	104.87
875.922	85.9304
878.815	80.4506
881.707	59.8883
884.6	50.5547
887.493	35.0355
890.385	25.2237
893.278	13.8733
896.171	13.8326
899.064	2.44934
901.956	2.74377
904.849	1.62976
907.742	7.8501
910.634	6.08496
913.527	4.99817
916.42	1.77283
919.312	1.72302
922.205	1.95178
925.098	5.42029
927.991	20.5913
930.883	35.5112
933.776	62.5667
936.669	96.9214
939.562	155.378
942.454	242.119
945.347	372.137
948.24	540.287
951.132	709.872
954.025	837.97
956.918	829.141
959.81	666.077
962.703	495.802
965.596	384.235
968.489	324.201
971.381	290.747
974.274	286.555
977.167	303.534
980.059	339.698
982.952	361.591
985.845	392.591
988.737	419.221
991.63	421.116
994.523	413.449
997.415	390.422
1000.31	362.355
1003.2	337.567
1006.09	317.9
1008.99	300.414
1011.88	280.439
1014.77	270.318
1017.66	244.204
1020.56	213.606
1023.45	188.331
1026.34	159.077
1029.23	133.99
1032.13	111.742
1035.02	97.7404
1037.91	76.2253
1040.81	57.777
1043.7	48.4392
1046.59	31.8468
1049.48	20.0615
1052.38	13.2007
1055.27	7.16724
1058.16	4.29053
1061.06	1.02063
1063.95	3.05249
1066.84	9.99048
1069.73	2.58691
1072.63	0.838867
1075.52	4.83411
1078.41	1.59522
1081.3	8.677
1084.2	2.89172
1087.09	0.937378
1089.98	3.16956
1092.88	3.84717
1095.77	2.78638
1098.66	2.85229
1101.55	0.192871
1104.45	6.69214
1107.34	11.8622
1110.23	13.1178
1113.12	8.11646
1116.02	8.49499
1118.91	6.06274
1121.8	3.54834
1124.69	7.66956
1127.59	11.7902
1130.48	18.8098
1133.37	12.4542
1136.27	15.3403
1139.16	11.6532
1142.05	20.6639
1144.94	24.4351
1147.84	25.7071
1150.73	21.7546
1153.62	16.2109
1156.51	10.743
1159.41	11.6221
1162.3	20.6514
1165.19	12.4933
1168.09	13.3939
1170.98	12.4915
1173.87	14.3969
1176.76	20.3091
1179.66	19.9974
1182.55	28.5778
1185.44	31.399
1188.33	36.9565
1191.23	52.3307
1194.12	58.9027
1197.01	62.5144
1199.9	53.4285
1202.8	34.8309
1205.69	25.3551
1208.58	9.88049
1211.48	9.17957
1214.37	10.9501
1217.26	8.35913
1220.15	6.35461
1223.05	4.47229
1225.94	8.5708
1228.83	9.43506
1231.72	2.79578
1234.62	8.4541
1237.51	4.12451
1240.4	0.266479
1243.3	0.327271
1246.19	4.74878
1249.08	0.051636
1251.97	5.59546
1254.87	0.528687
1257.76	6.27319
1260.65	10.8059
1263.54	8.57141
1266.44	9.86731
1269.33	16.1099
1272.22	12.7999
1275.12	12.9563
1278.01	6.54736
1280.9	7.94971
1283.79	7.57446
1286.69	6.16284
1289.58	6.00171
1292.47	1.17517
1295.36	5.19128
1298.26	5.99573
1301.15	5.27148
