Measurement: Raman, 785 nm, unoriented, Raman Data Processed
Mineral: Stellerite
Rruff sample: R040174
Ideal chemistry: Ca_4_(Si_28_Al_8_)O_72_28H_2_O
Locality: unknown
Source: University of Arizona Mineral Museum
Description: Parallel aggregates of thin tabular brown crystals
Measured chemistry: (Ca_3.89_Na_0.06_K_0.05_)_Σ=4_(Si_28.11_Al_7.89_)O_72_·15.18H_2_O; H_2_O estimated by difference
Raman shift (cm-1)	intensity
139.34	0
142.232	94.5859
145.125	649.645
148.018	1228.17
150.911	1328.97
153.803	1122.79
156.696	1007.99
159.589	917.804
162.481	816.912
165.374	789.672
168.267	804.705
171.16	688.235
174.052	602.992
176.945	474.492
179.838	371.273
182.73	308.133
185.623	289.424
188.516	211.037
191.408	152.924
194.301	127.314
197.194	64.1006
200.087	51.0049
202.979	34.2925
205.872	5.2749
208.765	26.8208
211.657	46.9656
214.55	0.698242
217.443	30.3413
220.335	14.9165
223.228	3.34937
226.121	7.73486
229.013	24.5757
231.906	23.0645
234.799	56.7556
237.692	77.219
240.584	78.6753
243.477	129.783
246.37	160.495
249.262	155.709
252.155	137.973
255.048	191.613
257.941	219.915
260.833	256.962
263.726	373.233
266.619	424.934
269.511	454.601
272.404	494.325
275.297	536.66
278.19	568.586
281.082	601.691
283.975	584.003
286.868	591.931
289.76	502.485
292.653	459.879
295.546	445.121
298.438	368.328
301.331	329.159
304.224	284.898
307.116	298.393
310.009	266.503
312.902	224.851
315.795	217
318.687	207.904
321.58	170.352
324.473	129.438
327.365	103.021
330.258	90.8724
333.151	44.0569
336.043	5.47205
338.936	-7.84241
341.829	2.69167
344.721	15.0783
347.614	4.97786
350.507	-5.61147
353.4	8.54295
356.292	25.8569
359.185	57.5605
362.078	134.588
364.97	203.781
367.863	281.468
370.756	450.345
373.649	613.856
376.541	797.109
379.434	1031.61
382.327	1244.27
385.219	1564.88
388.112	1952.69
391.005	2466.85
393.897	3034.69
396.79	3743.78
399.683	4469.45
402.575	5067.75
405.468	5414.84
408.361	5405.04
411.254	4916.53
414.146	4209.69
417.039	3503.01
419.932	2811.39
422.824	2212.25
425.717	1673.96
428.61	1275.47
431.502	924.113
434.395	747.379
437.288	565.204
440.181	481.062
443.073	387.589
445.966	385.625
448.859	382.909
451.751	424.66
454.644	495.069
457.537	573.701
460.43	611.888
463.322	509.138
466.215	394.371
469.108	281.455
472	246.232
474.893	231.361
477.786	347.239
480.678	576.826
483.571	968.556
486.464	1504.82
489.356	2260.32
492.249	2995.45
495.142	3551.75
498.035	3378.61
500.927	2486.86
503.82	1590.38
506.713	930.381
509.605	559.017
512.498	295.261
515.391	183.996
518.284	89.821
521.176	17.3873
524.069	-11.5709
526.962	-2.36689
529.854	9.69098
532.747	14.3809
535.64	14.3775
538.533	-1.31088
541.425	2.58535
544.318	11.4327
547.211	9.70727
550.103	1.25275
552.996	40.5573
555.889	64.3546
558.781	83.6916
561.674	70.4513
564.567	107.046
567.459	145.89
570.352	164.032
573.245	174.664
576.138	186.498
579.03	196.401
581.923	225.999
584.816	221.561
587.708	239.228
590.601	269.877
593.494	283.858
596.386	303.398
599.279	331.943
602.172	358.732
605.064	365.283
607.957	386.71
610.85	411.937
613.743	445.207
616.635	463.531
619.528	466.269
622.421	450.618
625.313	415.448
628.206	383.467
631.099	330.599
633.991	321.611
636.884	263.997
639.777	212.868
642.67	166.098
645.562	138.613
648.455	142.707
651.348	94.8514
654.24	111.115
657.133	74.1459
660.026	53.977
662.918	63.5926
665.811	18.2399
668.704	32.7712
671.597	24.4691
674.489	24.6508
677.382	13.8823
680.275	38.4783
683.167	4.21405
686.06	2.41949
688.953	4.61969
691.846	0.112488
694.738	5.81122
697.631	13.5816
700.524	3.18011
703.416	8.83404
706.309	8.04358
709.202	7.57104
712.094	41.2184
714.987	27.7386
717.88	36.2608
720.773	30.5234
723.665	37.4064
726.558	38.3063
729.451	38.2579
732.343	44.3573
735.236	33.3839
738.129	67.7106
741.021	50.4926
743.914	45.7313
746.807	33.7894
749.699	42.4962
752.592	32.2306
755.485	50.6146
758.378	44.7871
761.27	51.1688
764.163	64.4208
767.056	88.3166
769.948	95.7637
772.841	120.986
775.734	143.94
778.626	155.39
781.519	162.067
784.412	187.033
787.305	190.493
790.197	222.307
793.09	204.138
795.983	228.662
798.875	231.003
801.768	232.077
804.661	264.631
807.553	220.961
810.446	169.922
813.339	154.163
816.232	84.7686
819.124	52.8336
822.017	29.2637
824.91	15.6778
827.802	7.5741
830.695	9.29065
833.588	5.02856
836.481	21.7759
839.373	12.482
842.266	1.16699
845.159	3.02506
848.051	20.2104
850.944	6.1749
853.837	15.006
856.729	16.0266
859.622	16.9916
862.515	8.04056
865.408	5.0386
868.3	22.7338
871.193	19.3303
874.086	17.7308
876.978	7.26025
879.871	18.051
882.764	16.1916
885.656	34.29
888.549	20.0223
891.442	33.4152
894.335	37.3499
897.227	48.2342
900.12	28.8115
903.013	19.4961
905.905	20.6154
908.798	40.7281
911.691	24.7455
914.583	28.4594
917.476	30.1141
920.369	32.0102
923.261	27.9873
926.154	33.1571
929.047	47.1312
931.94	24.2387
934.832	29.3813
937.725	22.9269
940.618	37.3501
943.51	30.6995
946.403	18.9582
949.296	25.7186
952.188	22.7545
955.081	13.9025
957.974	3.6029
960.867	12.3033
963.759	11.7165
966.652	11.5349
969.545	15.0442
972.437	11.9553
975.33	2.62488
978.223	13.7971
981.115	11.8035
984.008	69.6278
986.901	31.175
989.794	48.1105
992.686	37.2952
995.579	60.2409
998.472	77.7117
1001.36	71.1696
1004.26	97.086
1007.15	92.5826
1010.04	67.8341
1012.93	109.922
1015.83	126.257
1018.72	96.5403
1021.61	112.003
1024.51	88.302
1027.4	98.3977
1030.29	100.488
1033.18	83.1337
1036.08	87.4115
1038.97	87.4832
1041.86	91.1754
1044.76	69.8103
1047.65	57.276
1050.54	83.1447
1053.43	35.8325
1056.33	35.5034
1059.22	33.5369
1062.11	8.04138
1065	11.449
1067.9	13.8668
1070.79	10.2076
1073.68	4.53992
1076.58	12.9894
1079.47	33.7167
1082.36	55.5283
1085.25	96.654
1088.14	128.567
1091.04	186.353
1093.93	199.511
1096.82	209.591
1099.72	260.778
1102.61	283.681
1105.5	285.482
1108.39	305.091
1111.29	332.55
1114.18	339.963
1117.07	350.39
1119.96	369.398
1122.86	339.985
1125.75	344.451
1128.64	365.563
1131.54	368.356
1134.43	336.403
1137.32	313.722
1140.21	327.474
1143.11	321.309
1146	310.065
1148.89	307.144
1151.79	324.481
1154.68	319.018
1157.57	285.964
1160.46	293.048
1163.36	270.418
1166.25	270.907
1169.14	216.2
1172.03	204.61
1174.93	157.274
1177.82	157.45
1180.71	113.15
1183.6	84.1906
1186.5	83.9028
1189.39	90.2633
1192.28	62.4408
1195.17	22.7993
1198.07	35.2245
1200.96	9.05402
1203.85	19.5119
1206.75	14.0886
1209.64	1.19745
1212.53	0.873657
1215.42	11.2834
1218.32	12.9932
1221.21	26.3469
1224.1	30.963
1226.99	37.923
1229.89	29.4506
1232.78	28.0117
1235.67	22.764
1238.57	0.053986
