Measurement: Raman, 532 nm, unoriented, Raman Data Processed
Mineral: Stellerite
Rruff sample: R040174
Ideal chemistry: Ca_4_(Si_28_Al_8_)O_72_28H_2_O
Locality: unknown
Source: University of Arizona Mineral Museum
Description: Parallel aggregates of thin tabular brown crystals
Measured chemistry: (Ca_3.89_Na_0.06_K_0.05_)_Σ=4_(Si_28.11_Al_7.89_)O_72_·15.18H_2_O; H_2_O estimated by difference
Raman shift (cm-1)	intensity
134.234	0
137.609	209.002
140.984	374.462
144.358	534.829
147.733	730.873
151.108	1070.72
154.483	1212.63
157.858	1067.79
161.233	898.117
164.607	723.244
167.982	576.508
171.357	510.464
174.732	422.428
178.107	363.647
181.482	282.566
184.856	225.644
188.231	170.868
191.606	116.854
194.981	24.2568
198.356	23.9302
201.731	8.19678
205.105	26.8806
208.48	49.1245
211.855	19.3447
215.23	8.83643
218.605	46.1555
221.979	3.96606
225.354	16.1816
228.729	21.344
232.104	46.0969
235.479	93.4644
238.853	79.2224
242.228	98.6196
245.603	144.857
248.978	176.461
252.353	178.274
255.727	181.53
259.102	214.935
262.477	254.128
265.852	316.609
269.227	336.987
272.602	359.553
275.976	412.061
279.351	424.756
282.726	456.527
286.101	414.04
289.476	404.675
292.851	404.337
296.225	360.405
299.6	336.899
302.975	343.88
306.35	351.178
309.725	307.409
313.099	246.216
316.474	236.417
319.849	205.116
323.224	153.201
326.599	85.8269
329.974	55.2437
333.348	39.7154
336.723	-13.7216
340.098	28.5145
343.473	20.2903
346.848	-5.69017
350.223	7.69406
353.597	24.7028
356.972	27.0194
360.347	65.0437
363.722	186.462
367.097	281.035
370.471	464.907
373.846	640.346
377.221	797.96
380.596	1067.21
383.971	1354.19
387.346	1727.04
390.72	2197.19
394.095	2829.99
397.47	3539.97
400.845	4176.69
404.219	4747.96
407.594	4837.86
410.969	4418.84
414.344	3689.45
417.719	2848.05
421.094	2198.54
424.469	1618.39
427.843	1193.82
431.218	848.366
434.593	613.507
437.968	401.819
441.343	291.1
444.717	201.905
448.092	195.443
451.467	285.764
454.842	378.869
458.217	407.002
461.591	364.668
464.966	283.284
468.341	254.362
471.716	145.298
475.091	241.947
478.466	443.999
481.84	889.065
485.215	1544.89
488.59	2372.03
491.965	3349.49
495.34	3923.24
498.714	3443.34
502.089	2231.29
505.464	1278.85
508.839	653.52
512.214	313.999
515.589	177.49
518.963	67.3717
522.338	30.7765
525.713	17.2016
529.088	4.25231
532.463	11.0733
535.837	8.43787
539.212	2.88694
542.587	5.84459
545.962	10.1628
549.337	23.9487
552.712	43.9121
556.086	77.4824
559.461	76.8394
562.836	76.6411
566.211	82.1888
569.586	96.3928
572.96	124.054
576.335	129.945
579.71	127.236
583.085	171.603
586.46	175.783
589.835	191.816
593.209	212.881
596.584	221.268
599.959	231.002
603.334	279.2
606.709	317.522
610.083	358.166
613.458	368.78
616.833	415.653
620.208	447.577
623.583	413.1
626.958	372.949
630.332	342.161
633.707	285.599
637.082	244.515
640.457	189.582
643.832	149.943
647.207	116.339
650.581	108.606
653.956	101.444
657.331	84.7744
660.706	75.0547
664.081	27.267
667.455	26.2183
670.83	43.2764
674.205	4.63635
677.58	10.1523
680.955	21.8723
684.33	15.6862
687.704	16.899
691.079	7.26465
694.454	8.74231
697.829	45.9315
701.204	10.3429
704.578	42.04
707.953	50.7946
711.328	72.307
714.703	78.9218
718.078	45.5747
721.452	66.2561
724.827	77.9506
728.202	68.5657
731.577	67.2224
734.952	86.858
738.327	65.0205
741.701	71.1356
745.076	72.6954
748.451	85.0282
751.826	79.7362
755.201	110.431
758.576	115.336
761.95	165.143
765.325	189.264
768.7	203.809
772.075	280.002
775.45	318.995
778.824	367.803
782.199	403.767
785.574	444.031
788.949	458.199
792.324	527.808
795.698	529.529
799.073	574.908
802.448	551.936
805.823	559.623
809.198	467.498
812.573	343.812
815.947	199.294
819.322	113.571
822.697	76.894
826.072	40.7863
829.447	20.9641
832.822	20.6582
836.196	8.55469
839.571	2.49048
842.946	1.17883
846.321	10.1241
849.696	5.35223
853.07	19.0295
856.445	13.414
859.82	7.33917
863.195	19.9348
866.57	22.9805
869.944	3.10199
873.319	12.4595
876.694	7.12286
880.069	17.3799
883.444	11.8409
886.819	38.5178
890.193	60.0952
893.568	31.56
896.943	50.065
900.318	35.6923
903.693	28.1006
907.067	47.0768
910.442	54.4606
913.817	61.1818
917.192	74.5205
920.567	63.8269
923.942	40.6215
927.316	44.4588
930.691	58.5166
934.066	38.4811
937.441	39.3944
940.816	26.6785
944.191	23.2041
947.565	12.4536
950.94	13.3901
954.315	1.60352
957.69	6.65295
961.065	15.353
964.439	0.747681
967.814	19.9846
971.189	2.73163
974.564	29.3357
977.939	14.5896
981.313	36.6367
984.688	47.2233
988.063	63.0333
991.438	70.528
994.813	83.0975
998.188	101.328
1001.56	119.481
1004.94	180.449
1008.31	150.334
1011.69	172.789
1015.06	174.817
1018.44	177.55
1021.81	198.31
1025.19	183.513
1028.56	180.967
1031.94	202.74
1035.31	214.837
1038.68	189.422
1042.06	176.497
1045.43	160.55
1048.81	154.696
1052.18	91.9872
1055.56	90.5813
1058.93	49.8191
1062.31	20.6267
1065.68	23.6356
1069.06	7.30444
1072.43	3.30823
1075.81	3.04297
1079.18	0.319092
1082.56	26.5737
1085.93	90.6299
1089.31	119.878
1092.68	182.071
1096.06	219.538
1099.43	296.292
1102.81	291.276
1106.18	353.215
1109.56	358.148
1112.93	406.04
1116.31	436.267
1119.68	470.809
1123.06	420.718
1126.43	444.68
1129.81	433.43
1133.18	403.663
1136.56	381.164
1139.93	351.725
1143.31	339.57
1146.68	350.402
1150.05	345.362
1153.43	323.411
1156.8	322.843
1160.18	298.737
1163.55	281.742
1166.93	269.335
1170.3	228.419
1173.68	204.878
1177.05	174.325
1180.43	125.7
1183.8	107.517
1187.18	113.521
1190.55	91.2153
1193.93	36.3094
1197.3	52.7867
1200.68	28.7824
1204.05	34.3977
1207.43	30.5206
1210.8	9.09766
1214.18	13.2223
1217.55	16.0212
1220.93	10.1826
1224.3	22.3472
1227.67	4.43347
1231.05	0.420532
1234.42	16.3305
1237.8	3.31158
1241.17	17.4654
1244.55	29.1474
1247.92	24.072
1251.3	31.799
1254.67	52.7773
1258.05	48.8742
1261.42	51.8379
1264.8	49.5155
1268.17	46.2618
1271.55	18.0472
1274.92	35.6493
1278.3	44.6097
1281.67	52.6843
1285.05	43.0465
1288.42	4.71417
1291.8	14.0624
1295.17	39.6646
1298.55	2.42242
1301.92	35.2349
1305.3	22.1729
