Measurement: Raman, 785 nm, unoriented, Raman Data Processed
Mineral: Stellerite
Rruff sample: R070535
Ideal chemistry: Ca_4_(Si_28_Al_8_)O_72_28H_2_O
Locality: Upper Clackamas River, Clackamas County, Oregon, USA
Source: James Shigley
Description: Sheaflike aggregates of white, tabular crystals
Measured chemistry: (Ca_3.91_K_0.09_)_Σ=4_(Si_28.09_Al_7.91_)O_72_·22.5H_2_O; trace amounts of Na; H_2_O estimated by difference
Raman shift (cm-1)	intensity
157.076	0
159.969	71.8213
162.862	67.8892
165.755	182.949
168.647	189.648
171.54	212.733
174.433	229.772
177.325	124.549
180.218	83.8032
183.111	28.8071
186.003	62.9692
188.896	17.124
191.789	22.031
194.681	47.2471
197.574	87.3962
200.467	54.2771
203.36	14.7085
206.252	17.2156
209.145	9.59497
212.038	19.8691
214.93	21.4465
217.823	46.4292
220.716	169.488
223.608	196.681
226.501	225.575
229.394	290.707
232.287	302.382
235.179	324.066
238.072	358.068
240.965	385.165
243.857	395.475
246.75	351.129
249.643	305.408
252.536	275.919
255.428	302.555
258.321	315.95
261.214	278.488
264.106	251.56
266.999	238.277
269.892	220.51
272.784	215.394
275.677	227.171
278.57	229.474
281.462	175.51
284.355	171.213
287.248	172.032
290.141	153.53
293.033	138.634
295.926	180.76
298.819	219.528
301.711	223.28
304.604	275.116
307.497	283.075
310.389	270.278
313.282	267.241
316.175	284.099
319.068	253.027
321.96	219.897
324.853	161.616
327.746	103.744
330.638	88.0067
333.531	65.441
336.424	41.7506
339.317	4.47632
342.209	21.2356
345.102	15.4374
347.995	46.3147
350.887	33.3887
353.78	41.1819
356.673	5.60339
359.565	2.96228
362.458	67.9308
365.351	81.7136
368.243	160.982
371.136	272.347
374.029	340.724
376.922	461.728
379.814	615.266
382.707	677.205
385.6	792.794
388.492	953.139
391.385	1146.78
394.278	1406.24
397.171	1717.05
400.063	2034.61
402.956	2363.12
405.849	2609.24
408.741	2679.51
411.634	2586.99
414.527	2341.06
417.42	1983.1
420.312	1687.72
423.205	1382.94
426.098	1065.02
428.99	841.86
431.883	594.71
434.776	409.473
437.668	248.16
440.561	181.153
443.454	95.8959
446.346	111.781
449.239	46.3062
452.132	64.9266
455.025	90.7897
457.917	94.9634
460.81	74.3215
463.703	56.1709
466.595	51.8403
469.488	63.1478
472.381	122.436
475.274	182.463
478.166	329.705
481.059	547.22
483.952	851.28
486.844	1188.45
489.737	1638.63
492.63	2070.22
495.522	2395.26
498.415	2195.8
501.308	1655.37
504.2	1058.84
507.093	628.926
509.986	397.755
512.879	249.802
515.771	126.091
518.664	73.746
521.557	43.0909
524.449	6.10071
527.342	18.6705
530.235	6.79785
533.128	7.95862
536.02	18.852
538.913	24.7094
541.806	0.208374
544.698	1.15558
547.591	1.17444
550.484	4.86676
553.376	25.3092
556.269	28.0098
559.162	40.731
562.054	50.3444
564.947	63.7778
567.84	54.761
570.733	62.3618
573.625	82.5953
576.518	103.599
579.411	93.1419
582.303	108.389
585.196	126.779
588.089	121.228
590.981	143.314
593.874	173.108
596.767	169.785
599.66	173.614
602.552	229.449
605.445	218.562
608.338	262.878
611.23	261.496
614.123	294.193
617.016	296.291
619.909	302.863
622.801	337.866
625.694	272.272
628.587	282.921
631.479	274.195
634.372	253.722
637.265	199.29
640.157	196.273
643.05	167.555
645.943	137.599
648.836	123.329
651.728	109.178
654.621	82.8146
657.514	54.7883
660.406	46.6614
663.299	43.1674
666.192	17.5123
669.084	37.6058
671.977	9.71008
674.87	7.40033
677.763	0.903564
680.655	31.713
683.548	9.70056
686.441	5.21411
689.333	21.9322
692.226	4.05377
695.119	8.81421
698.011	1.78625
700.904	7.07355
703.797	7.1806
706.69	36.8313
709.582	16.8724
712.475	13.6686
715.368	19.5013
718.26	6.4101
721.153	44.8888
724.046	45.846
726.938	26.6321
729.831	23.7537
732.724	39.2142
735.617	29.9478
738.509	21.8747
741.402	55.0714
744.295	51.2088
747.187	65.338
750.08	61.4623
752.973	85.8226
755.865	103.018
758.758	140.48
761.651	150.373
764.544	182.608
767.436	194.161
770.329	233.469
773.222	262.736
776.114	285.352
779.007	349.866
781.9	423.534
784.793	468.448
787.685	507.363
790.578	552.417
793.471	569.892
796.363	578.033
799.256	566.442
802.149	525.272
805.041	477.55
807.934	388.228
810.827	277.215
813.72	188.65
816.612	105.511
819.505	102.207
822.398	60.5557
825.29	44.1531
828.183	27.5448
831.076	19.8016
833.968	10.3362
836.861	1.1358
839.754	0.528442
842.646	6.47003
845.539	3.3385
848.432	8.6485
851.325	6.44287
854.217	19.1848
857.11	6.24731
860.003	15.6341
862.895	4.81775
865.788	10.6819
868.681	7.16577
871.573	5.85944
874.466	14.804
877.359	18.5372
880.252	8.89227
883.144	15.954
886.037	20.8906
888.93	7.14819
891.822	12.9899
894.715	19.9998
897.608	21.9827
900.5	15.0818
903.393	50.7741
906.286	34.7259
909.179	33.7998
912.071	28.6544
914.964	23.5544
917.857	24.8036
920.749	26.912
923.642	34.693
926.535	33.4609
929.428	20.6455
932.32	35.2064
935.213	32.3858
938.106	26.7587
940.998	16.357
943.891	6.57327
946.784	27.4878
949.676	13.0568
952.569	12.3419
955.462	7.09946
958.355	2.00977
961.247	10.6913
964.14	11.7587
967.033	7.95547
969.925	26.4698
972.818	13.4124
975.711	4.80261
978.604	15.8543
981.496	7.39044
984.389	19.2452
987.282	27.3234
990.174	20.6136
993.067	28.2188
995.96	27.1904
998.852	46.8736
1001.75	30.9524
1004.64	56.7256
1007.53	72.1276
1010.42	45.1321
1013.32	60.9572
1016.21	61.8351
1019.1	75.3606
1021.99	65.1334
1024.89	84.3138
1027.78	72.7682
1030.67	63.8163
1033.57	77.1088
1036.46	53.925
1039.35	43.0664
1042.24	67.4542
1045.13	34.6376
1048.03	43.3373
1050.92	61.452
1053.81	46.772
1056.71	57.6183
1059.6	5.41095
1062.49	11.1995
1065.38	5.05945
1068.28	2.33069
1071.17	5.10547
1074.06	3.57599
1076.95	10.295
1079.85	5.867
1082.74	8.15894
1085.63	30.0258
1088.53	33.1885
1091.42	58.317
1094.31	93.9526
1097.2	97.8787
1100.1	120.121
1102.99	131.824
1105.88	144.267
1108.78	165.858
1111.67	177.131
1114.56	192.429
1117.45	206.715
1120.35	216.517
1123.24	211.809
1126.13	234.686
1129.02	237.921
1131.92	223.325
1134.81	223.277
1137.7	215.388
1140.6	211.754
1143.49	197.84
1146.38	190.138
1149.27	182.791
1152.17	151.784
1155.06	169.4
1157.95	149.615
1160.84	136.204
1163.74	119.601
1166.63	77.0269
1169.52	86.8488
1172.41	67.483
1175.31	42.0504
1178.2	57.0876
1181.09	31.9012
1183.98	36.627
1186.88	33.0214
1189.77	9.13156
1192.66	26.5037
1195.56	17.7451
1198.45	19.0821
1201.34	1.7066
1204.23	7.96002
1207.13	10.395
1210.02	4.75183
1212.91	1.25662
1215.81	10.1813
1218.7	13.2629
1221.59	7.24585
1224.48	32.4957
1227.38	5.22534
1230.27	16.181
1233.16	24.1184
1236.05	18.3749
1238.95	25.2213
1241.84	15.3603
1244.73	5.23471
1247.62	24.4891
1250.52	29.4933
1253.41	23.7202
1256.3	13.8918
1259.19	21.2663
1262.09	17.3858
1264.98	22.2993
1267.87	26.7966
1270.77	0
