Measurement: Raman, 532 nm, unoriented, Raman Data Processed
Mineral: Stellerite
Rruff sample: R060483
Ideal chemistry: Ca_4_(Si_28_Al_8_)O_72_28H_2_O
Locality: Sokolovskoye mine, Kustani Region, Kazakhstan
Source: Michael Scott
Description: Mixture of orange chabazite and stellarite
Measured chemistry: (Ca_3.93_Na_0.07_)_Σ=4_(Si_28.07_Al_7.93_)O_72_·21H_2_O
Raman shift (cm-1)	intensity
202.035	0
204.928	13.657
207.821	259.357
210.713	753.644
213.606	1284.73
216.499	2161.68
219.391	3252.24
222.284	4690.16
225.177	5884.04
228.07	7063.79
230.962	8036.95
233.855	8556.9
236.748	8409.47
239.64	7879.24
242.533	6652.7
245.426	5566.96
248.318	4447.11
251.211	3600.05
254.104	2538.94
256.997	1584.3
259.889	844.714
262.782	466.017
265.675	185.661
268.567	121.192
271.46	215.883
274.353	388.724
277.246	546.194
280.138	744.627
283.031	688.214
285.924	574.632
288.816	332.562
291.709	90.928
294.602	52.489
297.494	125.537
300.387	142.94
303.28	64.65
306.173	299.48
309.065	333.231
311.958	316.038
314.851	314.231
317.743	332.413
320.636	294.393
323.529	177.474
326.422	53.035
329.314	87.454
332.207	225.748
335.1	87.408
337.992	58.564
340.885	142.204
343.778	119.665
346.67	134.839
349.563	203.429
352.456	100.943
355.349	104.295
358.241	258.129
361.134	232.918
364.027	145.53
366.919	127.084
369.812	380.29
372.705	864.442
375.597	1555.38
378.49	2477.95
381.383	3374.64
384.276	4415.31
387.168	5554.52
390.061	7432.23
392.954	9186.57
395.846	11461.9
398.739	13988.2
401.632	16573.7
404.524	18394.7
407.417	19040.9
410.31	18326.5
413.203	16310.3
416.095	13694.3
418.988	11214.5
421.881	8817.19
424.773	7028.58
427.666	5563.66
430.559	4355.17
433.451	3452.17
436.344	2873.27
439.237	2526.72
442.129	2399.67
445.022	2542.78
447.915	2779.66
450.808	3371.87
453.7	4244.26
456.593	5015
459.486	5436.76
462.379	5025.98
465.271	4158.41
468.164	3061.33
471.057	2355.38
473.949	2166.09
476.842	2065.11
479.735	2554.02
482.627	3588.83
485.52	5177.56
488.413	7477.08
491.306	10125.3
494.198	12552
497.091	12929.9
499.984	10452.3
502.876	6959.55
505.769	4107.27
508.662	2316.07
511.554	1234.39
514.447	577.464
517.34	224.872
520.232	28.324
523.125	88.109
526.018	123.708
528.911	213.557
531.803	213.903
534.696	156.892
537.589	72.483
540.481	23.698
543.374	90.627
546.267	231.377
549.159	238.012
552.052	369.637
554.945	380.823
557.838	469.854
560.73	549.083
563.623	625.122
566.516	753.397
569.408	763.968
572.301	820.8
575.194	904.896
578.086	872.458
580.979	911.412
583.872	935.264
586.765	906.748
589.657	900.133
592.55	855.905
595.443	877.098
598.335	1067.04
601.228	1057.83
604.121	1171.72
607.013	1205.25
609.906	1256.68
612.799	1313.6
615.692	1318.6
618.584	1220.66
621.477	1207.79
624.37	1075.99
627.263	946.244
630.155	855.515
633.048	765.006
635.941	658.925
638.833	562.968
641.726	498.399
644.619	438.206
647.511	427.335
650.404	367.512
653.297	356.002
656.19	363.19
659.082	242.844
661.975	172.557
664.868	179.262
667.76	161.788
670.653	131.209
673.546	88.055
676.438	55.59
679.331	17.344
682.224	4.461
685.117	17.567
688.009	49.001
690.902	32.211
693.795	22.252
696.687	14.298
699.58	36.165
702.473	48.55
705.365	74.876
708.258	21.023
711.151	21.711
714.044	15.2
716.936	5.491
719.829	2.041
722.722	20.11
725.614	6.374
728.507	10.435
731.4	18.227
734.292	5.46
737.185	4.594
740.078	1.684
742.971	9.908
745.863	8.366
748.756	28.747
751.649	11.592
754.541	44.742
757.434	11.478
760.327	26.918
763.219	102.757
766.112	177.076
769.005	264.037
771.898	316.87
774.79	372.111
777.683	430.116
780.576	488.869
783.468	542.312
786.361	583.803
789.254	631.323
792.146	656.215
795.039	660.798
797.932	661.795
800.825	612.502
803.717	537.223
806.61	467.551
809.503	314.163
812.395	258.565
815.288	207.112
818.181	176.982
821.073	140.117
823.966	23.251
826.859	145.069
829.752	48.758
832.644	66.427
835.537	82.366
838.43	67.459
841.322	25.177
844.215	3.185
847.108	69.638
850	40.615
852.893	30.635
855.786	28.62
858.679	61.176
861.571	79.151
864.464	89.147
867.357	107.04
870.25	149.522
873.142	16.564
876.035	74.939
878.928	30.897
881.82	108.758
884.713	97.738
887.606	99.171
890.498	160.936
893.391	179.976
896.284	159.976
899.177	213.958
902.069	160.41
904.962	140.902
907.855	186.049
910.747	179.315
913.64	127.067
916.533	180.829
919.425	159.489
922.318	130.583
925.211	129.397
928.104	125.89
930.996	141.574
933.889	98.531
936.782	153.252
939.674	109.767
942.567	93.887
945.46	39.95
948.352	117.224
951.245	3.771
954.138	38.681
957.031	20.479
959.923	59.362
962.816	23.955
965.709	18.699
968.601	104.67
971.494	81.758
974.387	107.123
977.279	153.479
980.172	185.03
983.065	165.419
985.958	143.516
988.85	199.636
991.743	296.184
994.636	247.296
997.528	227.252
1000.42	278.467
1003.31	211.353
1006.21	203.863
1009.1	192.262
1011.99	175.107
1014.88	163.495
1017.78	153.111
1020.67	105.187
1023.56	146.819
1026.45	65.429
1029.35	23.029
1032.24	5.886
1035.13	6.924
1038.03	31.884
1040.92	83.401
1043.81	35.594
1046.7	84.928
1049.6	29.356
1052.49	9.241
1055.38	54.908
1058.28	3.902
1061.17	61.438
1064.06	8.154
1066.95	67.214
1069.85	154.493
1072.74	307.281
1075.63	510.018
1078.52	655.902
1081.42	820.267
1084.31	943.921
1087.2	1113.11
1090.1	1297.49
1092.99	1427.12
1095.88	1547.9
1098.77	1606.27
1101.67	1800.1
1104.56	1760.34
1107.45	1826.77
1110.34	1808.52
1113.24	1783.52
1116.13	1827.61
1119.02	1800.04
1121.91	1749.35
1124.81	1859.58
1127.7	1817.69
1130.59	1779.13
1133.48	1886.49
1136.38	1931.02
1139.27	1928.39
1142.16	1956.58
1145.06	1980.72
1147.95	1982.58
1150.84	2096.84
1153.73	2093.49
1156.63	2125.17
1159.52	2097.7
1162.41	1989.51
1165.31	1908.18
1168.2	1793.57
1171.09	1704.09
1173.98	1514.55
1176.88	1298.91
1179.77	1190.68
1182.66	989.377
1185.55	743.975
1188.45	588.452
1191.34	490.915
1194.23	244.303
1197.12	175.839
1200.02	98.186
1202.91	58.268
1205.8	4.498
1208.7	39.209
1211.59	22.985
1214.48	17.919
1217.37	18.59
1220.27	10.228
1223.16	10.501
1226.05	7.319
1228.94	44.04
1231.84	31.762
1234.73	77.646
1237.62	98.915
1240.52	136.429
1243.41	167.226
1246.3	145.114
1249.19	193.05
1252.09	187.5
1254.98	189.85
1257.87	162.947
1260.76	129.792
1263.66	60.034
1266.55	119.706
1269.44	114.073
1272.34	172.717
1275.23	186.5
1278.12	111.702
1281.01	100.935
1283.91	2.866
1286.8	76.15
1289.69	46.498
1292.58	0.833
