Measurement: Raman, 514 nm, unoriented, Raman Data Processed
Mineral: Stellerite
Rruff sample: R040174
Ideal chemistry: Ca_4_(Si_28_Al_8_)O_72_28H_2_O
Locality: unknown
Source: University of Arizona Mineral Museum
Description: Parallel aggregates of thin tabular brown crystals
Measured chemistry: (Ca_3.89_Na_0.06_K_0.05_)_Σ=4_(Si_28.11_Al_7.89_)O_72_·15.18H_2_O; H_2_O estimated by difference
Raman shift (cm-1)	intensity
93.375	0
97.554	183.961
101.732	142.781
105.908	714.668
110.082	1043.19
114.254	1155.52
118.424	2133.79
122.592	1487.15
126.758	1573.39
130.922	2507.64
135.083	4198.55
139.243	6642.45
143.401	9305.08
147.557	11575.6
151.711	11894.1
155.863	11478
160.013	9407.1
164.161	7513.19
168.308	5847.02
172.452	4549.76
176.594	3618.51
180.734	2946.96
184.872	2317.84
189.008	1897.82
193.143	1482.82
197.275	1068.22
201.405	1041.9
205.534	762.962
209.66	715.589
213.784	27.2812
217.907	115.359
222.027	213.831
226.146	238.81
230.263	200.657
234.377	201.674
238.49	172.065
242.601	59.6309
246.709	43.6953
250.816	156.659
254.921	157.887
259.024	179.149
263.125	452.809
267.224	754.247
271.321	1009.46
275.416	1355.2
279.51	1822.74
283.601	2063.63
287.69	2448.82
291.778	2907.05
295.863	3366.61
299.947	3635.38
304.029	3894.91
308.108	4154.56
312.186	4007.33
316.262	3793.21
320.336	3489.83
324.408	3211.8
328.478	3141.35
332.546	2916.84
336.612	2739.76
340.677	2699.75
344.739	2642.6
348.799	2606.41
352.858	2694.05
356.915	2850.53
360.969	3310.75
365.022	3802.72
369.073	4626.07
373.122	5733.86
377.169	6807.88
381.215	7527.25
385.258	8908.02
389.299	10418.2
393.339	12326.3
397.376	15313
401.412	18887
405.446	21005.1
409.478	20630.3
413.508	18024.8
417.536	14921.6
421.562	11848.3
425.586	9292.78
429.609	7508.29
433.629	5906.82
437.648	4853.82
441.665	4122.93
445.68	3694.83
449.693	3415.31
453.704	3244.66
457.713	3282.95
461.721	3458.84
465.726	3333.65
469.73	3469.19
473.731	3731.93
477.731	4694.96
481.729	6615.33
485.725	10562.1
489.72	16738.5
493.712	23147.6
497.703	23785.4
501.691	17086.3
505.678	9815.97
509.663	5703.6
513.646	3633
517.627	2222.23
521.607	1489.05
525.584	1129.31
529.56	830
533.534	485.763
537.506	341.881
541.476	221.641
545.444	67.4209
549.41	42.877
553.375	47.3565
557.337	79.6279
561.298	140.37
565.257	34.1885
569.214	27.8652
573.17	32.7197
577.123	131.898
581.075	106.085
585.024	198.622
588.972	230.455
592.918	296.513
596.863	419.749
600.805	487.166
604.746	724.671
608.685	1003.22
612.621	1240.84
616.557	1484.53
620.49	1593.31
624.421	1572.18
628.351	1285.17
632.279	1143.14
636.205	947.544
640.129	702.859
644.051	602.315
647.972	468.868
651.89	246.518
655.807	222.249
659.722	49.0537
663.636	56.1162
667.547	40.3965
671.457	7.78906
675.365	30.7471
679.271	9.91504
683.175	65.3262
687.077	98.126
690.978	2.72168
694.877	108.166
698.774	32.5723
702.669	27.1484
706.562	105.061
710.454	36.7871
714.344	35.1855
718.232	58.1455
722.118	108.472
726.002	155.669
729.885	53.2685
733.766	183.205
737.645	273.554
741.522	341.698
745.397	407.777
749.271	490.803
753.143	687.184
757.013	800.07
760.881	918.441
764.748	1179.34
768.613	1469.08
772.476	1568.06
776.337	2010.28
780.196	2571.23
784.054	2978.34
787.91	3536.76
791.764	3899.04
795.616	4315.45
799.467	4912.99
803.316	5416.53
807.163	5441.9
811.008	4300.05
814.851	2943.96
818.693	1786.85
822.533	1137.72
826.371	775.776
830.208	550.086
834.042	383.975
837.875	258.534
841.706	167.345
845.536	54.9805
849.363	102.949
853.189	70.5107
857.013	82.3857
860.836	0.358398
864.656	18.8633
868.475	106.627
872.292	22.7578
876.108	23.5303
879.922	32.2647
883.733	25.1221
887.544	72.9531
891.352	57.25
895.159	42.0342
898.964	84.3057
902.767	8.47168
906.568	67.3799
910.368	32.3047
914.166	5.68262
917.962	14.2598
921.757	73.457
925.55	111.838
929.341	93.8779
933.13	1.60938
936.918	143.941
940.703	138.625
944.488	103.642
948.27	52.0791
952.051	62.4873
955.83	108.07
959.607	196.701
963.383	110.138
967.156	182.393
970.928	88.4893
974.699	226.477
978.468	265.379
982.234	345.169
986	330.841
989.763	433.438
993.525	577.815
997.285	664.414
1001.04	664.077
1004.8	872.426
1008.55	971.481
1012.31	860.814
1016.06	1127.57
1019.81	1042.28
1023.56	1205.28
1027.31	1214.09
1031.05	1393.43
1034.79	1467.91
1038.53	1377.73
1042.27	1442.71
1046.01	1431.17
1049.75	1250.88
1053.48	1384.17
1057.22	1295.66
1060.95	1222.72
1064.68	1086.27
1068.4	1084.63
1072.13	988.133
1075.86	1104.09
1079.58	1141.26
1083.3	1380.33
1087.02	1482.75
1090.74	1755.72
1094.45	2021.86
1098.17	2169.63
1101.88	2486.38
1105.59	2661.1
1109.3	2744.38
1113.01	2821.75
1116.71	2936.77
1120.42	3010.55
1124.12	3041.29
1127.82	2967.85
1131.52	2748.33
1135.22	2614.42
1138.91	2407.47
1142.61	2713.89
1146.3	2561.03
1149.99	2171.41
1153.68	2017.47
1157.37	1909.56
1161.06	1854.11
1164.74	1621.77
1168.42	1516.11
1172.1	1425.08
1175.78	1218.68
1179.46	1099.41
1183.14	1005.53
1186.81	979.564
1190.48	824.86
1194.15	746.653
1197.83	686.652
1201.49	601.357
1205.16	556.573
1208.82	377.861
1212.49	252.787
1216.15	280.671
1219.81	157.56
1223.46	161.407
1227.12	140.606
1230.78	167.501
1234.43	35.8223
1238.08	95.1348
1241.73	80.8691
1245.38	67.1475
1249.03	84.4082
1252.67	70.5576
1256.31	138.279
1259.95	135.641
1263.6	25.7539
1267.23	36.0371
1270.87	39.4531
1274.51	27.4775
1278.14	58.1221
1281.77	61.2559
1285.4	48.126
1289.03	5.19336
1292.66	10.0938
1296.28	26.0537
1299.91	29.3086
1303.53	29.0371
1307.15	14.8389
1310.77	70.6113
1314.38	16.6035
1318	1.51172
1321.61	30.0781
1325.23	4.57129
1328.84	2.36621
1332.45	12.0732
1336.06	37.8652
1339.66	21.9609
1343.27	17.6709
1346.87	1.21973
1350.47	46.958
1354.07	42.4932
1357.67	10.5137
1361.26	91.3027
1364.86	115.518
1368.45	83.0039
1372.04	148.285
1375.63	114.277
1379.22	88.6357
1382.81	130.598
1386.39	206.968
1389.98	145.215
1393.56	144.369
1397.14	140.3
1400.72	155.51
1404.3	177.205
1407.87	75.4912
1411.45	230.39
1415.02	40.7012
1418.59	94.5742
1422.16	145.053
1425.73	118.722
1429.29	84.6553
1432.86	136.157
1436.42	87.4522
1439.98	186.634
1443.54	127.928
1447.1	170.799
1450.66	55.9756
1454.21	21.3926
1457.77	105.265
1461.32	37.8535
1464.87	52.7891
1468.42	168.253
1471.96	81.0772
1475.51	117.04
1479.06	112.478
1482.6	136.795
1486.14	0.637695
1489.68	243.703
1493.22	0
