Measurement: Raman, 532 nm, unoriented, Raman Data Processed
Mineral: Stenhuggarite
Rruff sample: R080038
Ideal chemistry: CaFe^3+^Sb^3+^As^3+^_2_O_7_
Locality: Langban, Filipstad, Varmland, Sweden
Source: Michael Scott
Description: Aggregate of reddish orange granular crystals in matrix of black hematite
Raman shift (cm-1)	intensity
119.267	0
122.642	2.83588
126.017	38.4734
129.392	110.132
132.766	118.016
136.141	102.632
139.516	119.229
142.891	174.48
146.266	264.78
149.64	343.353
153.015	359.301
156.39	401.089
159.765	465.271
163.14	515.055
166.514	476.074
169.889	413.415
173.264	369.901
176.639	352.364
180.014	360.822
183.388	400.805
186.763	471.776
190.138	484.969
193.513	430.214
196.888	368.948
200.263	325.437
203.637	317.695
207.012	327.625
210.387	339.93
213.762	348.651
217.137	334.921
220.512	301.959
223.886	241.432
227.261	199.87
230.636	153.136
234.011	115.546
237.386	86.52
240.76	61.2053
244.135	38.8049
247.51	7.03619
250.885	7.88574
254.26	27.1668
257.635	15.5934
261.009	2.29889
264.384	22.7318
267.759	51.8159
271.134	91.033
274.509	129.37
277.883	174.004
281.258	200.27
284.633	204.859
288.008	191.975
291.383	164.137
294.757	153.163
298.132	133.625
301.507	114.432
304.882	107.129
308.257	101.864
311.632	90.3981
315.006	68.5771
318.381	50.1491
321.756	22.4597
325.131	4.17896
328.506	4.1861
331.88	1.4176
335.255	4.63721
338.63	22.4229
342.005	45.0771
345.38	53.132
348.755	63.209
352.129	82.7139
355.504	93.9618
358.879	105.8
362.254	115.632
365.629	116.112
369.003	114.37
372.378	104.79
375.753	97.89
379.128	87.7788
382.503	82.2395
385.877	68.1269
389.252	59.1739
392.627	51.286
396.002	37.5041
399.377	26.3166
402.752	16.7774
406.126	6.83121
409.501	2.51505
412.876	2.40738
416.251	1.79779
419.626	7.20145
423	7.03925
426.375	10.7789
429.75	12.4975
433.125	14.1518
436.5	7.34058
439.875	8.5314
443.249	17.5297
446.624	19.8139
449.999	20.2753
453.374	22.811
456.749	23.184
460.123	22.5186
463.498	13.7826
466.873	11.9329
470.248	10.6233
473.623	2.05362
476.998	7.96945
480.372	7.07861
483.747	3.26068
487.122	0.151306
490.497	8.53583
493.872	20.9474
497.246	33.8246
500.621	56.5915
503.996	76.2687
507.371	92.5589
510.746	102.842
514.12	111.523
517.495	119.974
520.87	120.073
524.245	121.943
527.62	122.107
530.995	114.409
534.369	106.923
537.744	100.752
541.119	101.183
544.494	97.1334
547.869	96.103
551.244	85.6994
554.618	63.578
557.993	41.6317
561.368	20.9972
564.743	8.65778
568.118	1.91559
571.492	1.06927
574.867	6.01172
578.242	10.2681
581.617	25.2142
584.992	49.6309
588.366	85.6694
591.741	135.138
595.116	202.362
598.491	278.465
601.866	345.797
605.24	403.911
608.615	440.674
611.99	444.991
615.365	417.844
618.74	374.549
622.115	329.871
625.489	279.874
628.864	253.041
632.239	234.396
635.614	217.172
638.989	206.58
642.364	203.499
645.738	181.069
649.113	160.178
652.488	133.228
655.863	107.012
659.238	88.6811
662.612	76.8353
665.987	54.8313
669.362	38.9418
672.737	27.4825
676.112	15.0483
679.486	7.85053
682.861	1.31308
686.236	4.61939
689.611	7.17041
692.986	8.18881
696.361	11.6835
699.735	5.84525
703.11	3.93652
706.485	4.63376
709.86	10.9489
713.235	20.613
716.609	30.2228
719.984	40.8276
723.359	50.9072
726.734	63.7908
730.109	79.0178
733.484	88.5342
736.858	104.864
740.233	125.992
743.608	139.036
746.983	142.902
750.358	142.817
753.732	124.888
757.107	104.234
760.482	81.808
763.857	59.239
767.232	44.8163
770.606	35.6366
773.981	29.0199
777.356	34.1859
780.731	39.974
784.106	47.7786
787.481	66.4567
790.855	87.1719
794.23	107.408
797.605	132.661
800.98	145.607
804.355	163.667
807.73	179.267
811.104	199.651
814.479	223.359
817.854	254.1
821.229	296.659
824.604	338.399
827.978	374.168
831.353	403.012
834.728	410.727
838.103	403.801
841.478	366.939
844.852	316.614
848.227	258.19
851.602	195.444
854.977	143.805
858.352	104.007
861.727	71.4184
865.101	47.8736
868.476	32.2191
871.851	18.489
875.226	12.2797
878.601	2.66412
881.976	3.11792
885.35	0.944946
888.725	6.76273
892.1	4.40106
895.475	6.43771
898.85	0.540009
902.224	2.50317
905.599	3.88251
908.974	4.02823
912.349	3.00098
915.724	5.23227
919.098	12.3919
922.473	11.8158
925.848	13.6559
929.223	15.8105
932.598	10.4629
935.972	10.968
939.347	13.1545
942.722	13.4498
946.097	11.2479
949.472	12.8061
952.847	8.79831
956.221	6.52811
959.596	5.58881
962.971	5.20428
966.346	10.8928
969.721	4.22299
973.096	6.47333
976.47	6.32846
979.845	8.70419
983.22	9.34256
986.595	10.9214
989.97	9.27475
993.344	8.92044
996.719	8.81424
1000.09	8.35049
1003.47	9.45697
1006.84	9.58817
1010.22	8.16211
1013.59	6.63452
1016.97	6.79205
1020.34	5.30472
1023.72	7.75885
1027.09	1.7316
1030.47	2.90146
1033.84	6.11761
1037.22	1.20456
1040.59	2.18417
1043.97	2.60159
1047.34	2.7084
1050.72	4.10721
1054.09	1.84854
1057.47	1.9689
1060.84	0.615448
1064.22	1.55075
1067.59	3.0596
1070.96	2.75555
1074.34	1.72949
1077.71	0.326965
1081.09	2.78778
1084.46	5.41879
1087.84	5.27023
1091.21	2.36377
1094.59	0.604126
1097.96	5.53836
1101.34	8.13654
1104.71	3.1098
1108.09	6.67441
1111.46	7.14212
1114.84	6.11542
1118.21	4.34802
1121.59	5.30633
1124.96	4.02716
1128.34	5.009
1131.71	1.99539
1135.09	1.76807
1138.46	1.28577
1141.84	4.4852
1145.21	2.83914
1148.59	1.61154
1151.96	2.62237
1155.34	1.39465
1158.71	2.80286
1162.09	3.99005
1165.46	0.233856
1168.84	2.50317
1172.21	1.06406
1175.58	0.752686
1178.96	1.70548
1182.33	1.08035
1185.71	3.17276
1189.08	5.07242
1192.46	0.607391
1195.83	2.35419
1199.21	2.37027
1202.58	5.8866
1205.96	2.06589
1209.33	1.7348
1212.71	3.34805
1216.08	5.72617
1219.46	3.3896
1222.83	5.03409
1226.21	6.59866
1229.58	6.42972
1232.96	3.69708
1236.33	5.72592
1239.71	2.90918
1243.08	5.75259
1246.46	2.43686
1249.83	3.40128
1253.2	2.40103
1256.58	4.40845
1259.95	2.57382
1263.33	2.36252
1266.7	1.27032
1270.08	1.2858
1273.45	4.36227
1276.83	3.19144
1280.2	2.43314
1283.58	1.43814
1286.95	3.09349
1290.33	2.85782
1293.7	3.92802
1297.08	1.96054
1300.45	3.02879
1303.83	0.029526
