Measurement: Raman, 780 nm, unoriented, Raman Data Processed
Mineral: Stenhuggarite
Rruff sample: R080038
Ideal chemistry: CaFe^3+^Sb^3+^As^3+^_2_O_7_
Locality: Langban, Filipstad, Varmland, Sweden
Source: Michael Scott
Description: Aggregate of reddish orange granular crystals in matrix of black hematite
Raman shift (cm-1)	intensity
98.7912	0
102.166	57.8975
105.541	13.5029
108.916	107.265
112.29	116.112
115.665	118.27
119.04	243.045
122.415	239.325
125.79	385.258
129.165	774.291
132.539	503.08
135.914	277.933
139.289	221.605
142.664	315.209
146.039	621.662
149.413	1046.98
152.788	1037.54
156.163	1025.98
159.538	1263.54
162.913	1674.25
166.287	2010.06
169.662	1587.32
173.037	848.632
176.412	486.826
179.787	379.302
183.162	381.613
186.536	532.763
189.911	820.416
193.286	887.633
196.661	610.881
200.036	492.768
203.411	522.244
206.785	644.902
210.16	838.872
213.535	987.67
216.91	1048.11
220.285	867.634
223.659	699.083
227.034	676.776
230.409	629.875
233.784	549.003
237.159	456.389
240.533	336.871
243.908	238.567
247.283	156.254
250.658	76.8683
254.033	17.8332
257.408	35.9086
260.782	70.2626
264.157	49.1699
267.532	7.2298
270.907	59.7322
274.282	102.929
277.656	154.815
281.031	242.284
284.406	351.691
287.781	407.201
291.156	372.286
294.531	333.066
297.905	312.651
301.28	305.603
304.655	270.395
308.03	227.615
311.405	192.325
314.779	168.521
318.154	116.448
321.529	49.3114
324.904	7.81964
328.279	1.48419
331.654	18.6236
335.028	61.303
338.403	133.915
341.778	229.958
345.153	325.461
348.527	383.817
351.902	430.044
355.277	480.311
358.652	508.788
362.027	512.575
365.402	496.229
368.776	478.38
372.151	444.479
375.526	359.344
378.901	298.925
382.276	288.284
385.651	264.731
389.025	234.957
392.4	213.19
395.775	211.076
399.15	185.687
402.525	123.588
405.899	66.0044
409.274	33.4949
412.649	15.0825
416.024	1.82501
419.399	0.203491
422.774	3.55225
426.148	9.87763
429.523	8.34778
432.898	1.81238
436.273	4.75348
439.648	10.1538
443.022	14.0889
446.397	9.96191
449.772	8.82587
453.147	5.61243
456.522	7.56415
459.897	22.4989
463.271	39.3768
466.646	50.692
470.021	63.9291
473.396	76.9492
476.771	86.3884
480.145	91.9186
483.52	89.809
486.895	78.2013
490.27	73.5041
493.645	78.7217
497.019	101.231
500.394	141.228
503.769	200.024
507.144	271.856
510.519	317.774
513.894	307.494
517.268	284.689
520.643	273.94
524.018	261.762
527.393	241.8
530.768	222.33
534.142	212.469
537.517	186.69
540.892	153.066
544.267	156.629
547.642	193.031
551.016	255.599
554.391	323.829
557.766	389.838
561.141	371.975
564.516	278.004
567.891	235.848
571.265	238.089
574.64	265.817
578.015	261.253
581.39	192.98
584.765	94.364
588.139	21.2562
591.514	19.062
594.889	27.8757
598.264	2.48267
601.639	54.503
605.014	130.717
608.388	230.335
611.763	338.835
615.138	413.925
618.513	436.415
621.888	430.256
625.262	437.105
628.637	455.461
632.012	465.463
635.387	456.125
638.762	459.915
642.136	484.365
645.511	508.837
648.886	505.938
652.261	448.061
655.636	360.724
659.011	280.684
662.385	219.125
665.76	164.531
669.135	130.152
672.51	108.456
675.885	94.6743
679.26	68.1664
682.634	39.2626
686.009	17.3386
689.384	0.608887
692.759	7.88837
696.134	9.34918
699.508	8.53235
702.883	5.487
706.258	3.06097
709.633	3.45819
713.008	15.695
716.382	25.3462
719.757	41.9279
723.132	67.1588
726.507	96.9557
729.882	130.383
733.256	175.03
736.631	223.239
740.006	266.635
743.381	309.914
746.756	374.08
750.131	429.928
753.505	443.028
756.88	401.641
760.255	353.913
763.63	305.086
767.005	248.177
770.38	199.495
773.754	163.447
777.129	138.216
780.504	123.941
783.879	120.067
787.254	129.067
790.628	151.261
794.003	185.398
797.378	214.049
800.753	240.842
804.128	256.564
807.502	255.389
810.877	242.939
814.252	224.238
817.627	206.958
821.002	187.762
824.376	154.84
827.751	115.943
831.126	78.2609
834.501	49.1893
837.876	32.3028
841.251	19.0088
844.625	11.008
848	5.33789
851.375	2.51123
854.75	0.684235
858.125	2.10266
861.5	3.23898
864.874	1.7742
868.249	3.68762
871.624	0.633942
874.999	0.431854
878.374	1.48206
881.748	1.97577
885.123	0.870544
888.498	2.60474
891.873	5.03314
895.248	4.11694
898.622	7.09647
901.997	4.33881
905.372	5.51526
908.747	9.97253
912.122	8.27081
915.496	12.8669
918.871	9.70459
922.246	9.47888
925.621	12.7345
928.996	10.149
932.371	9.20035
935.745	8.60043
939.12	9.30841
942.495	6.49979
945.87	7.26477
949.245	7.97873
952.62	6.27716
955.994	6.31339
959.369	5.92514
962.744	4.47784
966.119	5.2258
969.494	3.28052
972.868	3.68021
976.243	1.38461
979.618	1.25494
982.993	1.17203
986.368	2.73166
989.742	0.430298
993.117	2.43655
996.492	3.96579
999.867	0.842102
1003.24	0.090759
1006.62	1.75089
1009.99	3.11728
1013.37	1.88296
1016.74	3.03632
1020.12	3.93137
1023.49	3.81805
1026.87	0.261688
1030.24	1.03796
1033.62	3.47412
1036.99	2.16757
1040.37	0.414978
1043.74	2.10611
1047.11	3.26227
1050.49	5.8844
1053.86	3.44949
1057.24	1.15436
1060.61	2.04889
1063.99	1.07105
1067.36	1.37509
1070.74	2.65472
1074.11	0.395966
1077.49	0.344727
1080.86	1.20926
1084.24	2.21863
1087.61	1.51331
1090.99	2.75421
1094.36	2.13455
1097.74	2.0221
1101.11	2.75714
1104.49	1.5719
1107.86	2.25955
1111.24	2.68939
1114.61	1.01215
1117.98	2.52356
1121.36	0.636932
1124.73	0.652985
1128.11	2.12592
1131.48	1.77518
1134.86	1.15488
1138.23	0.8591
1141.61	2.11002
1144.98	2.49326
1148.36	1.83414
1151.73	1.41693
1155.11	2.48438
1158.48	0.792633
1161.86	1.99844
1165.23	2.66202
1168.61	2.3349
1171.98	3.59799
1175.36	3.25739
1178.73	2.46039
1182.11	3.12058
1185.48	4.53064
1188.86	1.83695
1192.23	2.72284
1195.61	2.40362
1198.98	2.22916
1202.36	2.38464
1205.73	1.23227
1209.11	3.48965
1212.48	3.11096
1215.86	1.78677
1219.23	2.90717
1222.61	0.217072
1225.98	0.420013
1229.35	3.14825
1232.73	4.68399
1236.1	0.824677
1239.48	1.7001
1242.85	3.19147
1246.23	1.22427
1249.6	1.56735
1252.98	3.9165
1256.35	1.15091
1259.73	0.229279
1263.1	3.73364
1266.48	0.193512
1269.85	1.37579
1273.23	1.02576
1276.6	2.03674
1279.98	0.858948
1283.35	0.021667
1286.73	0.006592
