Measurement: Raman, 780 nm, unoriented, Raman Data Processed
Mineral: Stephanite
Rruff sample: R050309
Ideal chemistry: Ag_5_SbS_4_
Locality: Sonora, Mexico
Source: Eugene Schlepp
Description: Black fragment in quartz, associated with pyrargyrite. Electron microscope image shows two fine-scale phases.
Measured chemistry: Ag_5.22_(Sb_0.93_As_0.10_)_Î£=1.03_S_4.00_
Raman shift (cm-1)	intensity
131.575	0
134.468	0.561893
137.36	0.02455
140.253	0.485969
143.146	0.113874
146.038	0.087379
148.931	0.877774
151.824	0.858611
154.716	1.14473
157.609	1.80251
160.502	1.8698
163.395	2.14012
166.287	2.78101
169.18	3.32107
172.073	3.30647
174.965	4.51533
177.858	4.63876
180.751	4.70423
183.643	4.74136
186.536	4.11176
189.429	5.13255
192.322	3.91198
195.214	4.93435
198.107	4.76719
201	4.65439
203.892	4.61036
206.785	4.72999
209.678	4.20471
212.571	4.37413
215.463	4.19734
218.356	4.65398
221.249	3.86375
224.141	4.06703
227.034	3.98312
229.927	3.70659
232.819	4.06893
235.712	3.90641
238.605	3.3409
241.498	3.43519
244.39	3.27149
247.283	2.35461
250.176	1.80878
253.068	1.368
255.961	1.59344
258.854	0.780092
261.746	0.211803
264.639	0.585701
267.532	0.105106
270.425	0.408003
273.317	0.391626
276.21	0.239867
279.103	0.084667
281.995	0.008228
284.888	0.350566
287.781	0.254619
290.673	0.723501
293.566	1.82891
296.459	3.4904
299.351	5.19755
302.244	5.99945
305.137	5.30626
308.029	4.4267
310.922	4.75863
313.815	4.06123
316.708	5.53246
319.6	5.61582
322.493	6.9614
325.386	10.1214
328.278	16.1909
331.171	25.9822
334.064	39.3702
336.957	44.5027
339.849	33.5291
342.742	18.6797
345.635	8.15444
348.527	4.32752
351.42	2.1208
354.313	1.50209
357.205	0.599028
360.098	0.471538
362.991	0.766714
365.884	0.180758
368.776	0.483847
371.669	0.128688
374.562	0.039719
377.454	0.438627
380.347	0.069544
383.24	0.520905
386.132	0.001173
389.025	0.166713
391.918	0.056401
394.81	0.405375
397.703	0.198104
400.596	0.216406
403.489	0.561952
406.381	0.573559
409.274	0.665107
412.167	0.294739
415.059	0.599353
417.952	0.397889
420.845	0.674823
423.738	1.25301
426.63	0.817868
429.523	0.814163
432.416	0.540898
435.308	0.75332
438.201	0.974463
441.094	0.766277
443.986	0.876256
446.879	0.446432
449.772	0.547008
452.664	0.821375
455.557	0.808443
458.45	0.669529
461.343	0.914755
464.235	0.335257
467.128	0.308348
470.021	0.662425
472.913	0.172187
475.806	0.823289
478.699	0.308618
481.591	0.331073
484.484	0.405133
487.377	0.652179
490.27	0.764471
493.162	0.100754
496.055	0.232538
498.948	0.209737
501.84	0.414199
504.733	0.962002
507.626	0.365895
510.519	0.449577
513.411	0.524506
516.304	0.043571
519.197	0.601162
522.089	0.101925
524.982	0.55893
527.875	0.446382
530.767	0.211181
533.66	0.243626
536.553	0.650571
539.446	0.559183
542.338	0.410792
545.231	0.084018
548.124	0.013975
551.016	0.683384
553.909	0.335243
556.802	0.134701
559.694	0.039256
562.587	0.457714
565.48	0.748845
568.372	0.121788
571.265	0.298442
574.158	0.473594
577.051	0.704983
579.943	0.238706
582.836	0.47573
585.729	0.504215
588.621	0.626623
591.514	0.275879
594.407	0.301551
597.299	0.338641
600.192	0.808266
603.085	0.409446
605.978	0.496272
608.87	0.024725
611.763	0.511425
614.656	0.079171
617.548	0.25207
620.441	0.154368
623.334	0.166994
626.226	0.526278
629.119	0.378795
632.012	0.188654
634.905	0.193784
637.797	0.310661
640.69	0.748414
643.583	0.720882
646.475	0.694847
649.368	0.441517
652.261	0.182498
655.154	0.4622
658.046	0.084619
660.939	0.561527
663.832	0.210297
666.724	0.348608
669.617	0.287515
672.51	0.570055
675.402	0.453754
678.295	0.605756
681.188	0.138396
684.081	0.447679
686.973	0.241961
689.866	0.306927
692.759	0.002584
695.651	0.511827
698.544	0.535451
701.437	0.016108
704.329	0.137627
707.222	0.674569
710.115	0.188648
713.007	0.41338
715.9	0.218072
718.793	0.332417
721.686	0.383326
724.578	0.411118
727.471	0.001944
730.364	0.061968
733.256	0.601856
736.149	0.197933
739.042	0.376539
741.934	0.080274
744.827	0.078012
747.72	0.222177
750.612	0.329033
753.505	0.300775
756.398	0.109289
759.291	0.296445
762.183	0.208879
765.076	0.019709
767.969	0.333297
770.861	0.359387
773.754	0.307927
776.647	0.234312
779.54	0.46745
782.432	0.499828
785.325	0.081146
788.218	0.227308
791.11	0.543893
794.003	0.38261
796.896	0.064105
799.788	0.302268
802.681	0.41171
805.574	0.524913
808.467	0.397322
811.359	0.498886
814.252	0.500435
817.145	0.481398
820.037	0.048874
822.93	0.247736
825.823	0.350603
828.716	0.344193
831.608	0.404164
834.501	0.491696
837.394	0.131354
840.286	0.142766
843.179	0.269742
846.072	0.114899
848.964	0.47657
851.857	0.399793
854.75	0.506231
857.643	0.356752
860.535	0.318377
863.428	0.735468
866.321	0.216556
869.213	0.366824
872.106	0.699917
874.999	0.357806
877.891	0.191624
880.784	0.406295
883.677	0.232558
886.569	0.141586
889.462	0.197348
892.355	0.601716
895.248	0.429101
898.14	0.887859
901.033	0.013552
903.926	0.333248
906.818	0.159008
909.711	0.502276
912.604	0.045892
915.496	0.443183
918.389	0.582345
921.282	0.613346
924.175	0.143855
927.067	0.226973
929.96	0.470567
932.853	0.030787
935.745	0.551165
938.638	0.356714
941.531	0.517986
944.423	0.07999
947.316	0.425078
950.209	0.534735
953.102	0.000183
955.994	0.729703
958.887	0.300879
961.78	0.423033
964.672	0.428338
967.565	0.518289
970.458	0.376733
973.35	0.560286
976.243	0.164726
979.136	0.447195
982.029	0.297537
984.921	0.577955
987.814	0.622199
990.707	0.627232
993.599	0.315709
996.492	0.697286
999.385	0.130877
1002.28	0.886793
1005.17	0.018949
1008.06	0.36588
1010.96	0.350676
1013.85	0.027307
1016.74	0.208412
1019.63	0.366055
1022.53	0.354886
1025.42	0.193163
1028.31	0.206736
1031.2	0.132265
1034.1	0.10689
1036.99	0.127722
1039.88	0.613797
1042.78	0.543473
1045.67	0.367928
1048.56	0.204473
1051.45	0.435792
1054.35	0.133158
1057.24	0.831777
1060.13	0.613049
1063.02	0.219876
1065.92	0.330326
1068.81	0.197445
1071.7	0.686168
1074.6	0.370167
1077.49	0.256078
1080.38	0.346228
1083.27	0.491345
1086.17	0.252549
1089.06	0.545166
1091.95	0.308838
1094.84	0.590589
1097.74	1.02279
1100.63	0.161103
1103.52	0.610288
1106.41	0.333082
1109.31	0.063493
1112.2	0.123389
1115.09	0.497999
1117.98	0.477474
1120.88	0.406865
1123.77	0.012708
1126.66	0.142483
1129.56	0.574577
1132.45	0.497603
1135.34	0.109061
1138.23	0.255417
1141.13	0.415097
1144.02	0.080775
1146.91	0.378831
1149.81	0.483072
1152.7	0.165361
1155.59	0.302303
1158.48	0.037752
1161.38	0.105029
1164.27	0.352981
1167.16	0.595774
1170.05	0.126212
1172.95	0.5842
1175.84	0.516588
1178.73	0.685656
1181.62	0.086686
1184.52	0.502192
1187.41	0.310453
1190.3	0.533479
1193.2	0.65292
1196.09	0.337888
1198.98	0.054487
1201.87	0.409575
1204.77	0.755117
1207.66	0.286775
1210.55	0.250634
1213.44	0.414827
1216.34	0.513054
1219.23	0.354653
1222.12	0.445937
1225.02	0.269789
1227.91	0.724592
1230.8	0.199473
1233.69	0.213314
1236.59	1.01367
1239.48	0.700758
1242.37	0.281329
1245.26	0.279085
1248.16	0.357365
1251.05	0.785492
1253.94	0.103991
1256.84	0.463524
1259.73	0.450078
1262.62	0.463156
1265.51	0.414361
1268.41	0.453259
1271.3	0.192311
1274.19	0.03299
