Measurement: Raman, 780 nm, unoriented, Raman Data Processed
Mineral: Stephanite
Rruff sample: R050306
Ideal chemistry: Ag_5_SbS_4_
Locality: Atlanta, Idaho, USA
Source: Eugene Schlepp
Description: Dark gray metallic crystals associated with quartz
Measured chemistry: Ag_5.00_Sb_1.00_S_4.00_
Raman shift (cm-1)	intensity
121.45	0
124.825	1.09499
128.2	1.89634
131.575	2.88117
134.95	1.97034
138.325	0.208374
141.699	0.89756
145.074	0.581367
148.449	0.530685
151.824	2.12717
155.199	8.1856
158.573	13.201
161.948	22.7167
165.323	28.1954
168.698	41.6752
172.073	52.2427
175.447	62.6426
178.822	72.0019
182.197	79.8378
185.572	86.8344
188.947	95.1361
192.322	107.986
195.696	118.477
199.071	126.921
202.446	124.926
205.821	119.822
209.196	108.844
212.571	101.116
215.945	94.3252
219.32	90.993
222.695	93.4995
226.07	93.7184
229.445	92.4164
232.819	86.4534
236.194	78.882
239.569	64.3339
242.944	52.8491
246.319	40.6771
249.693	28.657
253.068	17.8878
256.443	9.21945
259.818	4.30408
263.193	1.28612
266.567	2.191
269.942	2.36717
273.317	2.38551
276.692	0.562187
280.067	8.4068
283.442	19.2613
286.816	32.3275
290.191	52.2275
293.566	84.0662
296.941	131.668
300.316	163.139
303.69	186.796
307.065	219.397
310.44	284.263
313.815	307.88
317.19	261.384
320.565	312.014
323.939	393.739
327.314	570.299
330.689	845.512
334.064	1211.35
337.439	1171.08
340.813	485.852
344.188	179.032
347.563	82.918
350.938	46.0352
354.313	26.2472
357.688	16.3269
361.062	10.3651
364.437	5.70762
367.812	3.08746
371.187	0.933327
374.562	0.222246
377.937	0.244596
381.311	0.784384
384.686	0.978737
388.061	0.414921
391.436	0.212624
394.81	0.036201
398.185	0.328827
401.56	0.674249
404.935	0.898117
408.31	1.31336
411.685	1.15316
415.059	1.88031
418.434	1.92962
421.809	2.20276
425.184	3.13249
428.559	3.10176
431.933	2.99429
435.308	2.991
438.683	2.81981
442.058	2.25491
445.433	2.46961
448.808	2.15232
452.182	1.69426
455.557	1.66596
458.932	1.99001
462.307	1.45532
465.682	1.71909
469.057	1.81621
472.431	1.60119
475.806	1.74251
479.181	1.85166
482.556	2.52559
485.931	2.16063
489.305	1.73077
492.68	1.9497
496.055	1.97319
499.43	2.09987
502.805	1.36121
506.18	1.21718
509.554	2.04214
512.929	1.54889
516.304	1.54036
519.679	1.27363
523.053	0.897859
526.428	1.19287
529.803	0.987577
533.178	0.614235
536.553	0.487138
539.928	0.47986
543.302	1.05031
546.677	0.843578
550.052	0.94788
553.427	0.849606
556.802	0.760861
560.177	0.057724
563.551	0.457705
566.926	0.386414
570.301	0.471791
573.676	0.450842
577.051	0.083383
580.425	0.069055
583.8	0.38796
587.175	0.365154
590.55	0.137942
593.925	0.092132
597.299	0.227764
600.674	0.186103
604.049	0.30039
607.424	0.014645
610.799	0.151318
614.174	0.15046
617.548	0.218543
620.923	0.413685
624.298	0.538461
627.673	0.662352
631.048	0.683207
634.423	1.04229
637.797	0.758976
641.172	0.949535
644.547	0.712431
647.922	1.11684
651.297	0.555183
654.671	0.945889
658.046	0.796527
661.421	0.837418
664.796	1.06484
668.171	1.36508
671.545	0.867417
674.92	1.04322
678.295	0.892071
681.67	0.727747
685.045	0.644475
688.42	0.438094
691.794	0.423282
695.169	0.227256
698.544	0.02236
701.919	0.03876
705.294	0.289071
708.668	0.198525
712.043	0.039053
715.418	0.145373
718.793	0.079178
722.168	0.12642
725.543	0.527823
728.917	0.032528
732.292	0.178159
735.667	0.563791
739.042	0.20735
742.417	0.586214
745.791	0.463643
749.166	0.388265
752.541	0.309356
755.916	0.292582
759.291	0.373704
762.665	0.401818
766.04	0.143774
769.415	0.437758
772.79	0.517759
776.165	0.372083
779.54	0.469152
782.914	0.262928
786.289	0.463205
789.664	0.087635
793.039	0.342613
796.414	0.196185
799.788	0.398455
803.163	0.267363
806.538	0.250932
809.913	0.088629
813.288	0.33493
816.663	0.182225
820.037	0.372511
823.412	0.231853
826.787	0.185507
830.162	0.367874
833.537	0.239419
836.911	0.197276
840.286	0.2645
843.661	0.364113
847.036	0.078093
850.411	0.038886
853.785	0.248261
857.16	0.121244
860.535	0.464164
863.91	0.181288
867.285	0.353811
870.66	0.211976
874.034	0.450239
877.409	0.007956
880.784	0.413988
884.159	0.080947
887.534	0.021258
890.909	0.005615
894.283	0.014936
897.658	0.36908
901.033	0.066032
904.408	0.285302
907.783	0.075186
911.157	0.305716
914.532	0.043448
917.907	0.050124
921.282	0.200767
924.657	0.271416
928.032	0.071969
931.406	0.04246
934.781	0.189355
938.156	0.398366
941.531	0.153206
944.906	0.346829
948.28	0.582252
951.655	0.221648
955.03	0.203568
958.405	0.200546
961.78	0.121763
965.154	0.460037
968.529	0.131239
971.904	0.334001
975.279	0.49807
978.654	0.048979
982.029	0.146644
985.403	0.524075
988.778	0.253274
992.153	0.287894
995.528	0.49337
998.903	0.201633
1002.28	0.444358
1005.65	0.457968
1009.03	0.201684
1012.4	0.422175
1015.78	0.292804
1019.15	0.061497
1022.53	0.069925
1025.9	0.472238
1029.28	0.029856
1032.65	0.405407
1036.03	0.099216
1039.4	0.344783
1042.78	0.319526
1046.15	0.010342
1049.53	0.244089
1052.9	0.430061
1056.28	0.170765
1059.65	0.167838
1063.02	0.159282
1066.4	0.112381
1069.77	0.534783
1073.15	0.513098
1076.52	0.221809
1079.9	0.286203
1083.27	0.292211
1086.65	0.455471
1090.02	0.562689
1093.4	0.047474
1096.77	0.207595
1100.15	0.436755
1103.52	0.088033
1106.9	0.206716
1110.27	0.374149
1113.65	0.340827
1117.02	0.257255
1120.4	0.338708
1123.77	0.303524
1127.15	0.025433
1130.52	0.238702
1133.89	0.304084
1137.27	0.099513
1140.64	0.35975
1144.02	0.42854
1147.39	0.255346
1150.77	0.074708
1154.14	0.066675
1157.52	0.12375
1160.89	0.246967
1164.27	0.178059
1167.64	0.421707
1171.02	0.250886
1174.39	0.197393
1177.77	0.148061
1181.14	0.187665
1184.52	0.213459
1187.89	0.122144
1191.27	0.062126
1194.64	0.347769
1198.02	0.021905
1201.39	0.020639
1204.77	0.203632
1208.14	0.277711
1211.52	0.117162
1214.89	0.330117
1218.27	0.100349
1221.64	0.31045
1225.02	0.240826
1228.39	0.228125
1231.77	0.167341
1235.14	0.241645
1238.52	0.079242
1241.89	0.0474
1245.26	0.33357
1248.64	0.063923
1252.01	0.31445
1255.39	0.227382
1258.76	0.372606
1262.14	0.336841
1265.51	0.041332
1268.89	0.264973
1272.26	0.297955
1275.64	0.601082
1279.01	0.507273
1282.39	0.747167
1285.76	0.845798
