Measurement: Raman, 780 nm, unoriented, Raman Data Processed
Mineral: Stephanite
Rruff sample: R050143
Ideal chemistry: Ag_5_SbS_4_
Locality: Proano mine, Fresnillo, Zacatecas, Mexico
Source: Dave Bunk Minerals
Description: Group of black pseudohexagonal crystals
Measured chemistry: Ag_5.00_Sb_1.00_S_4.00_
Raman shift (cm-1)	intensity
136.878	0
139.771	1.67822
142.664	3.47699
145.556	0.652405
148.449	0.380264
151.342	0.823227
154.234	7.46254
157.127	13.1127
160.02	22.4552
162.912	35.6701
165.805	49.7764
168.698	69.1007
171.591	86.5502
174.483	110.291
177.376	126.091
180.269	138.13
183.161	150.172
186.054	155.506
188.947	168.173
191.839	184.341
194.732	204.558
197.625	228.789
200.518	245.612
203.41	251.286
206.303	241.583
209.196	222.457
212.088	197.986
214.981	179.465
217.874	171.506
220.766	166.862
223.659	174.779
226.552	185.679
229.445	194.671
232.337	195.244
235.23	183.644
238.123	163.032
241.015	138.184
243.908	111.087
246.801	87.263
249.693	65.4538
252.586	45.2155
255.479	29.3022
258.372	13.6738
261.264	7.56506
264.157	0.236603
267.05	2.28052
269.942	5.26871
272.835	4.27573
275.728	3.65454
278.62	2.95207
281.513	12.003
284.406	23.9535
287.298	35.0244
290.191	53.2101
293.084	78.4656
295.977	112.518
298.869	144.073
301.762	146.44
304.655	133.435
307.547	122.862
310.44	146.033
313.333	221.306
316.226	359.924
319.118	496.149
322.011	630.731
324.904	873.565
327.796	1265.57
330.689	1862.61
333.582	2626.32
336.474	2484.89
339.367	1177.26
342.26	507.712
345.152	255.039
348.045	144.286
350.938	88.0335
353.831	57.0624
356.723	40.9813
359.616	30.2757
362.509	24.3001
365.401	19.9849
368.294	12.4276
371.187	4.60495
374.079	2.55432
376.972	0.076485
379.865	1.36028
382.758	1.42864
385.65	0.433826
388.543	1.25842
391.436	0.149754
394.328	0.722546
397.221	0.300797
400.114	0.43932
403.007	0.043657
405.899	0.773094
408.792	1.30594
411.685	1.26149
414.577	0.846939
417.47	1.74205
420.363	2.59866
423.255	2.98368
426.148	3.38538
429.041	4.39475
431.933	4.11446
434.826	4.85994
437.719	4.37805
440.612	4.00723
443.504	3.5957
446.397	2.99806
449.29	3.05444
452.182	2.63212
455.075	3.33177
457.968	3.05918
460.861	2.5657
463.753	2.91083
466.646	3.5785
469.539	2.73046
472.431	3.69935
475.324	2.51458
478.217	2.74629
481.109	3.50792
484.002	3.34556
486.895	2.58517
489.788	3.6785
492.68	4.24181
495.573	3.93256
498.466	3.52826
501.358	2.6389
504.251	3.13241
507.144	3.24052
510.036	2.74523
512.929	2.68233
515.822	2.57491
518.715	2.27274
521.607	2.73436
524.5	2.71024
527.393	2.42136
530.285	1.73109
533.178	2.44273
536.071	1.47035
538.963	1.21851
541.856	0.942122
544.749	0.44634
547.641	0.758501
550.534	1.21254
553.427	1.48596
556.32	0.607735
559.212	0.718434
562.105	1.11258
564.998	0.757638
567.89	0.9727
570.783	0.939704
573.676	0.885753
576.568	1.15448
579.461	0.891985
582.354	0.267377
585.247	0.360292
588.139	0.895322
591.032	0.596822
593.925	0.06979
596.817	0.140226
599.71	0.104829
602.603	0.023264
605.495	0.01912
608.388	0.366555
611.281	0.154193
614.174	0.302691
617.066	0.63709
619.959	0.458518
622.852	0.518848
625.744	0.674576
628.637	1.20854
631.53	1.39308
634.423	0.929646
637.315	1.34372
640.208	1.78368
643.101	1.61545
645.993	1.78245
648.886	1.64576
651.779	1.62137
654.671	2.2238
657.564	2.40918
660.457	2.45997
663.35	3.54729
666.242	2.85911
669.135	3.17785
672.028	3.11035
674.92	2.57878
677.813	2.20929
680.706	1.61594
683.598	1.55285
686.491	1.22895
689.384	0.927852
692.277	0.345985
695.169	0.561358
698.062	0.557323
700.955	0.189174
703.847	0.189996
706.74	0.23415
709.633	0.374701
712.525	0.257439
715.418	0.716312
718.311	0.161064
721.203	0.352129
724.096	0.309775
726.989	0.026743
729.881	0.246217
732.774	0.32712
735.667	0.483792
738.56	0.551556
741.452	0.564454
744.345	0.427001
747.238	0.44365
750.13	0.694708
753.023	0.495398
755.916	0.260226
758.808	0.576053
761.701	0.442841
764.594	0.740624
767.487	0.367664
770.379	0.378215
773.272	0.785821
776.165	0.463218
779.057	0.59267
781.95	0.501082
784.843	0.747857
787.736	0.285504
790.628	0.528849
793.521	0.175162
796.414	0.410667
799.306	0.258423
802.199	0.676812
805.092	0.143097
807.984	0.568352
810.877	0.643966
813.77	0.435679
816.663	0.349245
819.555	0.302896
822.448	0.712289
825.341	0.401559
828.233	0.515572
831.126	0.62057
834.019	0.225086
836.911	0.527399
839.804	0.646837
842.697	0.328614
845.59	0.313099
848.482	0.323222
851.375	0.467939
854.268	0.339479
857.16	0.012317
860.053	0.265246
862.946	0.232449
865.838	0.472496
868.731	0.310387
871.624	0.410983
874.516	0.040865
877.409	0.456993
880.302	0.299659
883.195	0.377099
886.087	0.559651
888.98	0.282452
891.873	0.373229
894.765	0.1192
897.658	0.010086
900.551	0.079988
903.443	0.585665
906.336	0.614211
909.229	0.107777
912.122	0.132906
915.014	0.637511
917.907	0.328379
920.8	0.081082
923.692	0.618178
926.585	0.494111
929.478	0.143574
932.37	0.273312
935.263	0.564913
938.156	0.130345
941.049	0.368592
943.941	0.112308
946.834	0.607418
949.727	0.492631
952.619	0.674536
955.512	0.537559
958.405	0.295048
961.298	0.376951
964.19	0.393051
967.083	0.157401
969.976	0.528507
972.868	0.391929
975.761	0.449465
978.654	0.284197
981.546	0.571599
984.439	0.29064
987.332	0.407804
990.225	0.509018
993.117	0.023593
996.01	0.253491
998.903	0.038648
1001.79	0.159586
1004.69	0.442472
1007.58	0.223388
1010.47	0.567613
1013.37	0.548118
1016.26	0.168127
1019.15	0.612105
1022.04	0.17525
1024.94	0.564489
1027.83	0.5312
1030.72	0.412634
1033.62	0.516197
1036.51	0.15931
1039.4	0.032143
1042.29	0.288587
1045.19	0.308325
1048.08	0.49201
1050.97	0.42398
1053.86	0.462703
1056.76	0.384509
1059.65	0.276683
1062.54	0.227276
1065.43	0.428764
1068.33	0.134231
1071.22	0.366013
1074.11	0.284634
1077.01	0.76855
1079.9	0.363598
1082.79	0.508218
1085.68	0.334256
1088.58	0.455167
1091.47	0.293619
1094.36	0.271179
1097.25	0.331474
1100.15	0.13012
1103.04	0.556517
1105.93	0.567075
1108.83	0.089075
1111.72	0.405173
1114.61	0.391707
1117.5	0.28077
1120.4	0.470002
1123.29	0.255082
1126.18	0.506057
1129.07	0.08465
1131.97	0.536339
1134.86	0.145096
1137.75	0.35037
1140.64	0.510531
1143.54	0.326281
1146.43	0.233925
1149.32	0.116964
1152.22	0.079534
1155.11	0.275238
1158	0.407862
1160.89	0.63376
1163.79	0.610485
1166.68	0.436819
1169.57	0.06113
1172.46	0.419675
1175.36	0.449484
1178.25	0.554463
1181.14	0.494594
1184.04	0.478752
1186.93	0.46622
1189.82	0.386788
1192.71	0.291531
1195.61	0.547548
1198.5	0.333101
1201.39	0.507856
1204.28	0.494048
1207.18	0.591812
1210.07	0.410367
1212.96	0.108968
1215.86	0.523062
1218.75	0.485933
1221.64	0.199295
1224.53	0.373597
1227.43	0.415431
1230.32	0.101812
1233.21	0.544716
1236.1	0.171559
1239	0.598973
1241.89	0.548756
1244.78	0.395762
1247.67	0.690938
1250.57	0.298238
1253.46	0.65117
1256.35	0.544028
1259.25	0.337266
1262.14	0.432383
1265.03	0.400702
1267.92	0.504295
1270.82	0.047177
1273.71	0.041438
