Measurement: Raman, 532 nm, unoriented, Raman Data Processed
Mineral: Sternbergite
Rruff sample: R110137
Ideal chemistry: AgFe_2_S_3_
Locality: Joachimsthal, Bohemia, Czechoslovakia
Source: William W. Pinch
Description: Black sectile single crystals with good cleavage, some with purple iridescence, associated with stephanite.
Raman shift (cm-1)	intensity
201.861	0
204.754	1.52967
207.647	3.37017
210.539	4.1615
213.432	3.85994
216.325	4.37146
219.217	3.41522
222.11	1.65613
225.003	1.25741
227.895	0.056419
230.788	0.115574
233.681	1.33338
236.573	0.162888
239.466	0.692017
242.359	0.05481
245.252	1.58882
248.144	3.7331
251.037	2.49545
253.93	6.23311
256.822	8.53453
259.715	13.9361
262.608	15.979
265.5	14.8127
268.393	12.4201
271.286	7.35195
274.179	4.15616
277.071	3.30745
279.964	1.91032
282.857	3.35419
285.75	3.20424
288.642	4.39746
291.535	7.4983
294.428	12.4438
297.32	18.2492
300.213	26.3197
303.106	33.7059
305.998	38.6686
308.891	36.897
311.784	30.443
314.676	20.2906
317.569	13.4434
320.462	10.287
323.355	8.79089
326.247	6.59924
329.14	4.01586
332.033	0.596455
334.925	1.4888
337.818	0.080349
340.711	1.08731
343.603	2.17926
346.496	4.03376
349.389	6.68686
352.281	10.1276
355.174	15.5042
358.067	15.936
360.96	14.5878
363.852	10.9615
366.745	8.6873
369.638	7.6022
372.53	6.27346
375.423	4.86478
378.316	4.02314
381.209	3.09246
384.101	2.03998
386.994	1.15717
389.887	1.89899
392.779	0.287273
395.672	0.067009
398.565	0.008514
401.457	0.331095
404.35	0.142736
407.243	0.300358
410.135	0.43224
413.028	0.156433
415.921	0.08288
418.814	0.917065
421.706	0.99194
424.599	0.52354
427.492	0.240707
430.384	1.09213
433.277	0.059153
436.17	2.16065
439.062	1.43744
441.955	1.66972
444.848	2.39412
447.741	2.16165
450.633	2.90312
453.526	3.52006
456.419	2.73882
459.311	2.18848
462.204	3.06927
465.097	1.65521
467.99	3.08949
470.882	1.19865
473.775	2.37457
476.668	2.21071
479.56	0.982309
482.453	0.662832
485.346	1.10703
488.238	0.244789
491.131	0.263962
494.024	1.35368
496.916	0.936031
499.809	0.754251
502.702	1.29898
505.595	0.637756
508.487	0.990427
511.38	1.89897
514.273	1.97093
517.165	1.04803
520.058	1.05599
522.951	0.466894
525.844	0.992132
528.736	2.12262
531.629	1.19257
534.522	0.492292
537.414	0.446276
540.307	0.003355
543.2	1.01497
546.092	0.432131
548.985	0.371445
551.878	0.25861
554.771	0.545012
557.663	0.509829
560.556	0.687208
563.449	0.536642
566.341	0.713964
569.234	0.208176
572.127	0.930944
575.019	0.53088
577.912	1.2453
580.805	1.34671
583.697	0.140471
586.59	0.786978
589.483	0.964417
592.376	2.49813
595.268	1.92712
598.161	0.825108
601.054	1.50608
603.946	0.501455
606.839	0.864611
609.732	1.2886
612.625	1.18368
615.517	1.28154
618.41	0.064455
621.303	0.249023
624.195	0.370787
627.088	0.027765
629.981	0.374369
632.873	1.07352
635.766	1.06604
638.659	0.516241
641.552	0.50736
644.444	1.61045
647.337	0.460508
650.23	0.139542
653.122	1.6156
656.015	2.07653
658.908	1.79384
661.8	1.02704
664.693	1.22018
667.586	1.0225
670.479	1.69423
673.371	1.50989
676.264	1.58779
679.157	1.30424
682.049	1.17582
684.942	1.46485
687.835	0.283897
690.727	0.066265
693.62	1.02876
696.513	1.79572
699.405	1.29936
702.298	1.45583
705.191	1.58079
708.084	1.26484
710.976	1.40253
713.869	2.18221
716.762	2.50167
719.654	1.4556
722.547	1.80121
725.44	1.94284
728.332	1.75654
731.225	2.59307
734.118	1.80175
737.011	0.525631
739.903	1.53716
742.796	0.30353
745.689	1.43777
748.581	1.6112
751.474	0.243816
754.367	1.22257
757.26	0.073326
760.152	0.25626
763.045	0.61891
765.938	0.080208
768.83	0.646521
771.723	0.156147
774.616	0.018612
777.508	0.40377
780.401	0.196028
783.294	0.185131
786.187	0.958755
789.079	0.416161
791.972	2.16929
794.865	0.616945
797.757	0.017735
800.65	1.19507
803.543	1.42565
806.435	1.92763
809.328	1.3694
812.221	2.14507
815.114	2.93582
818.006	1.07576
820.899	1.50329
823.792	2.51628
826.684	2.5041
829.577	2.63865
832.47	3.66007
835.362	2.97499
838.255	2.72844
841.148	2.72089
844.04	2.68004
846.933	2.73544
849.826	2.25145
852.719	2.71781
855.611	3.19596
858.504	2.90001
861.397	3.6397
864.289	3.70245
867.182	2.39867
870.075	3.41227
872.967	3.11336
875.86	2.32211
878.753	2.63446
881.646	1.74017
884.538	2.2719
887.431	1.29862
890.324	2.17522
893.216	2.45759
896.109	0.945993
899.002	0.200882
901.894	1.65613
904.787	0.104843
907.68	0.093668
910.573	0.370659
913.465	1.09029
916.358	0.59091
919.251	1.49159
922.143	1.41066
925.036	1.10857
927.929	0.116957
930.822	0.642601
933.714	0.714674
936.607	0.315365
939.5	1.11006
942.392	1.34338
945.285	0.947469
948.178	0.586407
951.07	0.156544
953.963	1.30812
956.856	0.355061
959.749	0.106334
962.641	0.45847
965.534	0.122376
968.427	0.670026
971.319	1.18378
974.212	0.92069
977.105	1.29588
979.997	1.17141
982.89	1.15656
985.783	0.87204
988.676	1.21982
991.568	1.19819
994.461	1.04405
997.354	0.638466
1000.25	1.28251
1003.14	0.722349
1006.03	1.49528
1008.92	1.14094
1011.82	1.95168
1014.71	1.2073
1017.6	0.935008
1020.5	1.57931
1023.39	0.780552
1026.28	0.821718
1029.17	1.36438
1032.07	1.54007
1034.96	0.867558
1037.85	1.67469
1040.74	1.12264
1043.64	0.235383
1046.53	2.80558
1049.42	1.32568
1052.32	1.92806
1055.21	0.58707
1058.1	1.25326
1060.99	1.65193
1063.89	1.12251
1066.78	1.08116
1069.67	1.04653
1072.56	0.897549
1075.46	0.120001
1078.35	0.910781
1081.24	1.66954
1084.13	0.753795
1087.03	0.577375
1089.92	1.52204
1092.81	0.943949
1095.7	0.062055
1098.6	0.508465
1101.49	0.369844
1104.38	0.017411
1107.28	0.200649
1110.17	0.254402
1113.06	0.827226
1115.95	0.145717
1118.85	0.199805
1121.74	1.29157
1124.63	0.291016
1127.53	0.157744
1130.42	0.787723
1133.31	1.67514
1136.2	0.02503
1139.1	0.135139
1141.99	0.029452
1144.88	0.551507
1147.77	0.113748
1150.67	1.17247
1153.56	0.371094
1156.45	0.737995
1159.35	0.95849
1162.24	0.203399
1165.13	1.1357
1168.02	0.609412
1170.92	0.531711
1173.81	0.463082
1176.7	1.3391
1179.59	0.963683
1182.49	2.3364
1185.38	1.07693
1188.27	1.26319
1191.16	1.73246
1194.06	0.988622
1196.95	1.56394
1199.84	0.809072
1202.73	0.70282
1205.63	0.4233
1208.52	0.658268
1211.41	1.24077
1214.31	0.663456
1217.2	0.823894
1220.09	0.103502
1222.98	1.06856
1225.88	1.50249
1228.77	0.600399
1231.66	0.909164
1234.56	1.03186
1237.45	1.45049
1240.34	0.580584
1243.23	0.90732
1246.13	1.0812
1249.02	1.32963
1251.91	1.08905
1254.8	1.32475
1257.7	0.199848
1260.59	1.2924
1263.48	1.25726
1266.38	0.09036
1269.27	0.64062
1272.16	0.750241
1275.05	0.072749
1277.95	0.419612
1280.84	0.532188
1283.73	0.195069
1286.62	0.918605
1289.52	0.512382
1292.41	1.20396
1295.3	0.314957
1298.19	0.071697
1301.09	0.514556
