Measurement: Raman, 780 nm, unoriented, Raman Data Processed
Mineral: Stewartite
Rruff sample: R070643
Ideal chemistry: Mn^2+^Fe^3+^_2_(PO_4_)_2_(OH)_2_8H_2_O
Locality: Hagendorf, Bavaria, Germany
Source: Michael Scott
Description: Transparent yellow bladed crystals with orange laueite
Raman shift (cm-1)	intensity
140.311	0
143.204	0.601173
146.097	0.76786
148.989	0.025764
151.882	0.331337
154.775	3.72233
157.667	8.30092
160.56	9.08422
163.453	10.2276
166.345	10.2397
169.238	9.82777
172.131	9.48238
175.024	10.7267
177.916	13.1294
180.809	18.6529
183.702	18.904
186.594	5.58132
189.487	0.609123
192.38	1.3055
195.272	2.5123
198.165	6.71267
201.058	9.98197
203.951	16.5758
206.843	25.6447
209.736	38.1394
212.629	53.2699
215.521	68.9811
218.414	88.7575
221.307	109.802
224.199	121.501
227.092	110.982
229.985	85.4717
232.877	65.9021
235.77	52.3255
238.663	41.8015
241.556	37.1728
244.448	39.8817
247.341	45.2229
250.234	50.0628
253.126	53.3596
256.019	51.6899
258.912	47.9069
261.805	43.0977
264.697	38.8891
267.59	32.9583
270.483	29.3642
273.375	25.7149
276.268	21.955
279.161	19.7582
282.053	17.3539
284.946	15.1039
287.839	13.4593
290.731	11.3089
293.624	10.1759
296.517	8.0315
299.41	3.86635
302.302	2.62602
305.195	0.283348
308.088	1.35323
310.98	2.29047
313.873	1.5927
316.766	1.84739
319.659	1.06504
322.551	3.62816
325.444	8.85613
328.337	13.4269
331.229	21.3971
334.122	29.6561
337.015	37.7594
339.907	46.7764
342.8	55.6134
345.693	64.5847
348.586	71.7509
351.478	77.4626
354.371	76.8287
357.264	71.8886
360.156	61.4263
363.049	47.2226
365.942	32.8027
368.834	22.3493
371.727	14.3764
374.62	10.4574
377.512	9.11568
380.405	9.56852
383.298	12.455
386.191	15.581
389.083	17.9938
391.976	17.636
394.869	15.9882
397.761	14.3682
400.654	14.904
403.547	17.0227
406.44	17.1321
409.332	16.5202
412.225	14.5239
415.118	11.6302
418.01	7.75945
420.903	3.43694
423.796	1.09605
426.688	1.20695
429.581	0.14912
432.474	0.494686
435.366	0.998604
438.259	2.94105
441.152	6.63311
444.045	11.2778
446.937	17.1926
449.83	23.6259
452.723	32.5736
455.615	41.8153
458.508	50.6013
461.401	59.948
464.293	68.5648
467.186	76.1724
470.079	76.3886
472.972	66.6302
475.864	51.3875
478.757	34.5329
481.65	20.985
484.542	13.1169
487.435	6.81326
490.328	3.33706
493.221	1.12749
496.113	0.559319
499.006	1.60012
501.899	1.03582
504.791	0.043526
507.684	1.07528
510.577	2.4591
513.469	4.73128
516.362	6.57966
519.255	8.51952
522.148	8.02518
525.04	8.43306
527.933	7.93088
530.826	6.32581
533.718	5.70633
536.611	6.74788
539.504	7.27587
542.396	7.85442
545.289	8.82906
548.182	7.49046
551.074	8.86815
553.967	7.11337
556.86	6.58188
559.753	5.67273
562.645	5.8691
565.538	6.50134
568.431	8.05759
571.323	8.2754
574.216	10.5752
577.109	9.57315
580.001	10.3537
582.894	9.83243
585.787	9.68568
588.68	8.71104
591.572	7.77921
594.465	7.68355
597.358	5.60432
600.25	3.78827
603.143	4.1886
606.036	3.41507
608.928	4.13524
611.821	3.33062
614.714	3.69264
617.607	3.80216
620.499	3.72159
623.392	3.46522
626.285	3.24276
629.177	3.42891
632.07	2.55154
634.963	3.09574
637.856	1.50306
640.748	2.30228
643.641	1.62182
646.534	1.78749
649.426	0.899893
652.319	0.505705
655.212	0.525948
658.104	0.381701
660.997	0.383999
663.89	0.577679
666.783	0.075533
669.675	0.231237
672.568	0.04916
675.461	0.047976
678.353	0.094921
681.246	0.040318
684.139	0.620025
687.031	0.499289
689.924	1.37631
692.817	0.387733
695.71	1.16925
698.602	0.960168
701.495	1.4619
704.388	0.894921
707.28	1.91926
710.173	2.20638
713.066	1.35893
715.958	1.61731
718.851	2.1213
721.744	2.32139
724.636	1.89691
727.529	1.68756
730.422	1.28013
733.315	1.49014
736.207	1.63165
739.1	0.810699
741.993	0.984387
744.885	0.237455
747.778	1.00188
750.671	1.32219
753.563	0.261529
756.456	0.837503
759.349	0.511651
762.242	0.063538
765.134	0.714904
768.027	0.131499
770.92	0.799939
773.812	0.5921
776.705	0.308921
779.598	1.07006
782.49	0.360055
785.383	0.587267
788.276	0.366454
791.169	0.445068
794.061	0.594552
796.954	0.357312
799.847	0.902668
802.739	1.39123
805.632	0.279337
808.525	0.723548
811.418	0.73733
814.31	0.560008
817.203	0.142363
820.096	0.922033
822.988	0.588714
825.881	1.00754
828.774	0.138384
831.666	0.829618
834.559	1.75111
837.452	1.94147
840.345	1.22475
843.237	1.94464
846.13	0.795014
849.023	1.6798
851.915	1.71794
854.808	1.27559
857.701	1.82222
860.593	1.12667
863.486	1.38462
866.379	2.15178
869.271	1.44381
872.164	1.248
875.057	1.58316
877.95	2.7207
880.842	2.30322
883.735	1.8492
886.628	1.9551
889.52	2.30673
892.413	2.02837
895.306	2.2374
898.198	1.89208
901.091	1.44765
903.984	1.12091
906.877	1.55768
909.769	1.43546
912.662	0.952298
915.555	0.883382
918.447	0.458256
921.34	0.806117
924.233	0.667235
927.125	0.260188
930.018	0.239872
932.911	0.729233
935.804	0.33128
938.696	0.342863
941.589	0.596961
944.482	0.610768
947.374	0.588465
950.267	0.374824
953.16	0.335566
956.053	1.92197
958.945	3.02305
961.838	5.85869
964.731	9.1699
967.623	13.2673
970.516	18.9829
973.409	22.5142
976.301	24.1969
979.194	21.77
982.087	18.7076
984.98	17.8293
987.872	20.5492
990.765	23.8078
993.658	26.3113
996.55	28.3454
999.443	28.1687
1002.34	25.8591
1005.23	26.0895
1008.12	27.6748
1011.01	31.2984
1013.91	32.6912
1016.8	31.2627
1019.69	24.6398
1022.59	18.7833
1025.48	14.2694
1028.37	13.6163
1031.26	15.1558
1034.15	20.2136
1037.05	27.0792
1039.94	34.7623
1042.83	40.0512
1045.73	36.3888
1048.62	26.7991
1051.51	18.7942
1054.4	11.4439
1057.3	7.77116
1060.19	5.56715
1063.08	5.56111
1065.97	6.00754
1068.87	5.67467
1071.76	6.99789
1074.65	6.57631
1077.55	6.68441
1080.44	6.8879
1083.33	5.46503
1086.22	4.07984
1089.12	3.68831
1092.01	3.15971
1094.9	3.33482
1097.8	2.73372
1100.69	2.86249
1103.58	2.4281
1106.47	1.73855
1109.37	0.957527
1112.26	0.078213
1115.15	0.1886
1118.04	0.050888
1120.94	0.686233
1123.83	0.710368
1126.72	0.441765
1129.62	0.000264
1132.51	0.4738
1135.4	0.145189
1138.29	0.54512
1141.18	0.053504
1144.08	0.776365
1146.97	0.387651
1149.86	1.68978
1152.76	0.895857
1155.65	1.07269
1158.54	0.466703
1161.43	0.627973
1164.33	1.09996
1167.22	1.41597
1170.11	1.44366
1173.01	1.68182
1175.9	2.52226
1178.79	2.60354
1181.68	2.01219
1184.58	1.78116
1187.47	2.1791
1190.36	1.88394
1193.25	2.455
1196.15	1.95031
1199.04	1.63828
1201.93	1.09477
1204.83	1.68777
1207.72	1.42571
1210.61	1.12319
1213.5	1.24775
1216.4	2.11877
1219.29	0.811184
1222.18	1.18399
1225.07	1.52798
1227.97	1.31713
1230.86	1.22393
1233.75	0.885388
1236.64	1.24284
1239.54	1.34109
1242.43	1.90477
1245.32	1.3176
1248.21	1.30468
1251.11	0.593876
1254	0.999069
1256.89	0.315568
1259.79	0.535031
1262.68	0.404343
1265.57	0.553392
1268.46	0.737745
1271.36	0.622679
1274.25	1.03095
1277.14	0.687057
1280.04	1.19243
1282.93	0.096315
1285.82	0.718694
