Measurement: Raman, 532 nm, unoriented, Raman Data Processed
Mineral: Stewartite
Rruff sample: R070643
Ideal chemistry: Mn^2+^Fe^3+^_2_(PO_4_)_2_(OH)_2_8H_2_O
Locality: Hagendorf, Bavaria, Germany
Source: Michael Scott
Description: Transparent yellow bladed crystals with orange laueite
Raman shift (cm-1)	intensity
143.064	0
146.439	3.86021
149.814	0.128296
153.189	0.068008
156.564	3.10477
159.938	2.24411
163.313	0.714432
166.688	1.70834
170.063	3.91936
173.438	6.82376
176.812	14.8575
180.187	32.6633
183.562	42.7676
186.937	29.6452
190.312	26.2774
193.686	34.3262
197.061	42.7261
200.436	39.7007
203.811	37.1701
207.186	43.8138
210.561	61.7392
213.935	81.4985
217.31	101.956
220.685	111.948
224.06	114.52
227.435	98.3231
230.81	74.486
234.184	66.8582
237.559	66.1622
240.934	73.3025
244.309	84.7661
247.684	107.964
251.058	125.627
254.433	116.668
257.808	92.9652
261.183	77.9191
264.558	74.213
267.933	77.7173
271.307	82.8019
274.682	83.5673
278.057	84.409
281.432	71.7942
284.807	54.7169
288.181	39.441
291.556	28.7928
294.931	18.5034
298.306	7.91609
301.681	0.240814
305.055	2.13403
308.43	4.3064
311.805	3.95712
315.18	0.41571
318.555	4.68858
321.93	15.4482
325.304	25.805
328.679	45.2106
332.054	67.2067
335.429	95.2889
338.804	124.794
342.178	155.182
345.553	182.708
348.928	205.897
352.303	223.353
355.678	221.02
359.053	195.283
362.427	150.703
365.802	104.04
369.177	62.6644
372.552	34.1439
375.927	17.2921
379.301	6.90593
382.676	2.36831
386.051	0.159828
389.426	0.011536
392.801	0.009422
396.175	1.69061
399.55	3.19367
402.925	3.66587
406.3	4.51012
409.675	4.31486
413.05	1.34341
416.424	1.45454
419.799	1.98014
423.174	0.041382
426.549	4.48219
429.924	12.7236
433.298	25.4861
436.673	43.2005
440.048	65.1011
443.423	91.4123
446.798	122.126
450.173	153.728
453.547	179.86
456.922	189.612
460.297	176.381
463.672	158.057
467.047	142.281
470.421	127.323
473.796	99.9731
477.171	66.9347
480.546	41.3332
483.921	25.7125
487.296	14.5093
490.67	10.0372
494.045	7.1005
497.42	7.64494
500.795	10.7304
504.17	17.041
507.544	25.9204
510.919	38.2746
514.294	51.4023
517.669	65.9315
521.044	77.5433
524.418	78.6088
527.793	65.2375
531.168	50.1166
534.543	38.0576
537.918	29.8767
541.293	23.8267
544.667	19.5565
548.042	15.6059
551.417	12.4163
554.792	8.10743
558.167	4.651
561.541	2.33651
564.916	0.31583
568.291	0.174091
571.666	0.424202
575.041	1.22804
578.415	0.855061
581.79	0.480347
585.165	0.684555
588.54	0.632515
591.915	1.47161
595.29	2.44316
598.664	3.08876
602.039	4.98444
605.414	5.15503
608.789	5.61062
612.164	7.20722
615.538	7.34873
618.913	7.45508
622.288	7.1791
625.663	7.00433
629.038	5.01266
632.413	4.49953
635.787	2.7986
639.162	1.66235
642.537	0.992493
645.912	0.848518
649.287	0.116512
652.662	0.424953
656.036	0.496372
659.411	0.992393
662.786	0.200401
666.161	0.474369
669.536	1.03764
672.91	1.52959
676.285	1.30988
679.66	1.79939
683.035	1.3692
686.41	2.0369
689.784	2.43389
693.159	2.77905
696.534	3.25634
699.909	3.74178
703.284	3.55733
706.659	3.25095
710.033	3.37852
713.408	3.69791
716.783	3.02068
720.158	2.79473
723.533	3.08033
726.907	2.13059
730.282	1.4041
733.657	1.14201
737.032	1.3149
740.407	0.743343
743.782	0.511032
747.156	0.008484
750.531	0.450367
753.906	0.078266
757.281	0.315281
760.656	0.171562
764.03	0.350117
767.405	0.023045
770.78	0.21069
774.155	0.327614
777.53	0.198093
780.904	0.674484
784.279	1.04936
787.654	0.610756
791.029	0.07756
794.404	1.13381
797.779	0.744225
801.153	1.22379
804.528	1.62433
807.903	2.07035
811.278	2.50231
814.653	2.933
818.028	2.65482
821.402	2.57708
824.777	3.01025
828.152	3.48623
831.527	3.4789
834.902	3.74187
838.276	4.06075
841.651	4.31832
845.026	4.08724
848.401	4.21654
851.776	4.68226
855.15	4.66908
858.525	5.2236
861.9	5.36334
865.275	5.489
868.65	5.7979
872.024	6.08518
875.399	5.14958
878.774	4.9282
882.149	3.76094
885.524	3.92062
888.899	3.70601
892.273	2.4172
895.648	2.40844
899.023	1.51519
902.398	4.69645
905.773	1.04895
909.148	0.188671
912.522	0.114288
915.897	0.273396
919.272	0.836735
922.647	0.833759
926.022	0.636425
929.396	0.253376
932.771	0.392776
936.146	0.124802
939.521	0.677696
942.896	2.55507
946.27	5.44688
949.645	9.32783
953.02	14.6942
956.395	24.8696
959.77	40.3506
963.144	64.1402
966.519	97.3024
969.894	140.266
973.269	194.427
976.644	240.529
980.019	277.265
983.393	303.262
986.768	365.899
990.143	454.096
993.518	523.142
996.893	526.885
1000.27	437.621
1003.64	304.731
1007.02	204.953
1010.39	150.829
1013.77	123.309
1017.14	105.946
1020.52	87.5387
1023.89	64.6715
1027.27	40.7832
1030.64	23.4656
1034.02	14.9606
1037.39	11.9513
1040.77	12.5394
1044.14	12.8135
1047.52	7.92022
1050.89	1.24656
1054.27	2.32676
1057.64	2.62908
1061.01	0.295395
1064.39	2.29627
1067.76	6.13662
1071.14	8.89085
1074.51	10.762
1077.89	15.1931
1081.26	24.9229
1084.64	39.5239
1088.01	61.8874
1091.39	90.1691
1094.76	120.014
1098.14	140.182
1101.51	138.598
1104.89	113.652
1108.26	87.5976
1111.64	64.5161
1115.01	49.893
1118.39	40.3381
1121.76	31.1884
1125.14	22.9687
1128.51	15.6927
1131.88	10.1944
1135.26	6.37224
1138.63	3.44382
1142.01	1.51407
1145.38	0.936375
1148.76	0.024906
1152.13	0.043652
1155.51	0.54734
1158.88	0.203331
1162.26	0.099613
1165.63	0.048428
1169.01	0.164059
1172.38	0.309265
1175.76	1.08528
1179.13	0.954521
1182.51	1.65684
1185.88	2.53546
1189.26	2.94568
1192.63	3.12439
1196.01	3.73585
1199.38	3.95382
1202.76	4.01385
1206.13	4.11883
1209.51	3.92958
1212.88	3.28443
1216.26	2.94936
1219.63	3.33188
1223.01	3.76757
1226.38	2.84578
1229.76	2.81287
1233.13	2.42529
1236.51	2.19338
1239.88	2.16746
1243.25	2.18713
1246.63	2.10014
1250	2.40997
1253.38	1.98834
1256.75	1.61969
1260.13	2.15435
1263.5	1.23196
1266.88	0.623789
1270.25	0.887163
1273.63	0.607124
1277	1.22171
1280.38	0.624456
1283.75	0.526886
1287.13	0.461697
1290.5	0.551876
1293.88	0.59914
1297.25	0.359358
1300.63	0.027517
1304	0.027477
