Measurement: Raman, 514 nm, unoriented, Raman Data Processed
Mineral: Stibiotantalite
Rruff sample: R050232
Ideal chemistry: Sb^3+^TaO_4_
Locality: Himalaya mine, Mesa Grande, San Diego County, California, USA
Source: Marcus Origlieri
Description: Brown crystal fragment
Measured chemistry: lighter and darker phases: Sb_1.00_(Ta_0.72_Nb_0.28_)_Î£=1_O_4_
Raman shift (cm-1)	intensity
52.866	0
57.065	305.743
61.262	101.086
65.458	1166.43
69.651	6365.36
73.842	4075.85
78.031	3356.82
82.218	3720.72
86.404	3717.05
90.587	4582.1
94.768	6807.91
98.947	7701.21
103.124	9002.25
107.3	13949.3
111.473	18844.8
115.644	14803.6
119.813	10037.9
123.981	6626.58
128.146	4605.76
132.309	3641.18
136.47	3486.9
140.63	3464.08
144.787	3727.16
148.942	4156.94
153.096	5196.19
157.247	7403.33
161.396	12227.8
165.544	21069
169.689	27471.8
173.833	19928.6
177.974	14937.6
182.114	17404.7
186.251	26792.5
190.387	39812.4
194.52	41830.2
198.652	31060.8
202.782	21811.8
206.909	15647.4
211.035	12979.6
215.159	14134.3
219.281	18160.3
223.4	24988.3
227.518	33188.1
231.634	37256
235.748	31392.5
239.86	24470.2
243.97	19414.9
248.079	15952.1
252.185	13354.1
256.289	9892.51
260.391	7199.94
264.492	5709.05
268.59	4740.98
272.687	4207.71
276.781	4285.8
280.874	4904.57
284.964	5619.11
289.053	6631.26
293.14	7341.8
297.225	6810.55
301.308	5047.66
305.389	3106.75
309.468	1639.59
313.545	730.553
317.62	233.971
321.693	57.677
325.765	334.812
329.834	573.345
333.902	505.235
337.967	213.432
342.031	15.962
346.093	287.103
350.153	522.75
354.21	764.793
358.267	1058.15
362.321	1643.84
366.373	2155.9
370.423	2371.4
374.471	2274.32
378.518	2604.65
382.563	3664.46
386.605	5206.37
390.646	6490.51
394.685	6103.7
398.722	4437.78
402.757	3175.65
406.79	2624.25
410.821	2153.5
414.851	1457.35
418.878	707.758
422.904	190.672
426.927	86.941
430.949	114.406
434.969	23.208
438.987	244.802
443.003	487.082
447.018	720.696
451.03	625.626
455.041	230.854
459.049	33.708
463.056	92.637
467.061	90.223
471.064	59.688
475.065	229.217
479.064	114.051
483.062	126.61
487.057	73.479
491.051	15.757
495.043	109.395
499.032	487.456
503.02	999.283
507.007	1396.84
510.991	2071.7
514.973	2812.89
518.954	3516.4
522.933	4223.23
526.91	4891.37
530.885	5494.88
534.858	5916.66
538.829	5992.74
542.799	6199.14
546.766	6153.84
550.732	5992.83
554.696	6029.11
558.658	6332.67
562.618	6896.51
566.576	7879.61
570.533	9495.98
574.488	11870.6
578.44	14797.5
582.391	19428.7
586.341	25855.6
590.288	34032.9
594.233	40285.5
598.177	43016.5
602.119	40931.1
606.059	36142
609.997	30449.2
613.933	25638.6
617.868	22448.4
621.801	19348.8
625.731	17869.1
629.66	15909.7
633.588	13972.4
637.513	12102.6
641.437	10187
645.358	8529.79
649.278	7361.4
653.196	6788.39
657.113	5749.3
661.027	5584.65
664.94	5648.79
668.851	5806.9
672.76	6398.27
676.667	7353.42
680.572	8390.15
684.476	9854.99
688.378	10408.7
692.278	10404.9
696.176	8817.8
700.072	7170.37
703.967	5334.53
707.86	4218.23
711.751	3172.43
715.64	2659.14
719.527	1967.38
723.413	1543.1
727.297	1195.3
731.179	960.979
735.059	678.113
738.937	750.692
742.814	663.722
746.689	911.347
750.562	1037.81
754.433	1343.85
758.303	1344.28
762.17	1230.09
766.036	1007.27
769.901	1059.81
773.763	796.815
777.624	470.549
781.482	283.109
785.339	256.557
789.195	213.009
793.048	38.48
796.9	44.223
800.75	29.979
804.598	26.46
808.445	136.417
812.289	6.659
816.132	37.279
819.973	9.623
823.813	25.566
827.65	20.014
831.486	101.044
835.32	106.828
839.152	148.404
842.983	152.806
846.812	204.153
850.639	217.27
854.464	354.913
858.288	362.309
862.11	478.876
865.93	411.518
869.748	504.589
873.564	524.282
877.379	550.769
881.192	676.797
885.004	631.727
888.813	807.477
892.621	839.115
896.427	799.728
900.232	812.73
904.034	983.075
907.835	984.239
911.634	912.348
915.432	975.77
919.227	918.099
923.021	757.861
926.813	793.524
930.604	747.143
934.393	666.497
938.18	676.488
941.965	448.015
945.749	306.29
949.53	228.229
953.311	208.477
957.089	55.508
960.866	4.664
964.641	5.141
968.414	78.611
972.185	47.613
975.955	61.116
979.723	20.72
983.49	80.987
987.254	30.638
991.017	0.923
994.779	70.255
998.538	16.087
1002.3	72.669
1006.05	41.832
1009.81	57.754
1013.56	63.629
1017.31	93.233
1021.06	73.123
1024.81	188.163
1028.55	95.977
1032.3	105.913
1036.04	131.052
1039.78	207.834
1043.52	184.808
1047.26	159.855
1050.99	155.159
1054.73	218.61
1058.46	243.657
1062.19	291.839
1065.92	281.481
1069.65	222.19
1073.37	335.271
1077.1	258.979
1080.82	314.272
1084.54	468.05
1088.26	334.118
1091.97	366.59
1095.69	375.619
1099.4	369.112
1103.12	402.623
1106.83	282.221
1110.54	363.258
1114.24	328.853
1117.95	308.444
1121.65	309.958
1125.35	301.336
1129.06	246.784
1132.75	299.071
1136.45	330.71
1140.15	251.543
1143.84	202.989
1147.53	312.439
1151.22	132.32
1154.91	212.132
1158.6	312.543
1162.28	247.257
1165.97	318.26
1169.65	280.307
1173.33	234.927
1177.01	277.623
1180.69	113.077
1184.36	271.413
1188.04	253.585
1191.71	339.937
1195.38	265.321
1199.05	301.472
1202.71	395.727
1206.38	355.031
1210.04	200.126
1213.71	389.627
1217.37	150.977
1221.03	191.827
1224.68	264.68
1228.34	188.907
1231.99	227.016
1235.65	198.609
1239.3	143.057
1242.95	253.772
1246.59	291.393
1250.24	248.145
1253.88	168.67
1257.53	104.939
1261.17	108.617
1264.81	191.822
1268.45	132.274
1272.08	118.066
1275.72	131.761
1279.35	177.784
1282.98	53.562
1286.61	129.374
1290.24	112.496
1293.87	67.544
1297.49	39.151
1301.11	92.478
1304.73	102.34
1308.36	71.456
1311.97	33.364
1315.59	218.483
1319.2	36.312
1322.82	117.304
1326.43	146.88
1330.04	30.71
1333.65	56.263
1337.26	36.346
1340.86	73.987
1344.47	35.279
1348.07	112.186
1351.67	154.108
1355.27	108.671
1358.87	197.89
1362.46	60.005
1366.06	118.68
1369.65	76.928
1373.24	8.906
1376.83	134.748
1380.42	102.255
1384	204.608
1387.59	95.979
1391.17	152.801
1394.75	122.865
1398.33	79.178
1401.91	166.283
1405.49	89.53
1409.06	142.303
1412.64	189.036
1416.21	238.136
1419.78	265.938
1423.35	175.476
1426.91	154.078
1430.48	215.18
1434.05	133.03
1437.61	228.267
1441.17	289.281
1444.73	257.447
1448.29	175.722
1451.84	331.742
1455.4	358.285
1458.95	375.859
1462.5	227.001
1466.05	149.829
1469.6	195.691
1473.15	256.763
1476.69	142.74
1480.24	204.621
1483.78	199.739
1487.32	158.819
1490.86	195.229
1494.39	106.114
1497.93	39.987
1501.46	140.969
1505	39.937
1508.53	112.383
1512.06	127.35
1515.59	90.806
1519.11	116.53
1522.64	0
