Measurement: Raman, 532 nm, unoriented, Raman Data Processed
Mineral: Stibnite
Rruff sample: R050066
Ideal chemistry: Sb_2_S_3_
Locality: Wuling, Jiangxi Province, China
Source: Rock Currier
Description: Lead-gray prismatic crystal
Measured chemistry: Sb_2.00_S_3.00_
Raman shift (cm-1)	intensity
101.273	0
104.648	57.327
108.022	12.798
111.397	40.844
114.772	121.039
118.147	320.634
121.522	517.587
124.897	556.895
128.271	433.018
131.646	272.053
135.021	198.458
138.396	161.268
141.771	145.664
145.145	166.424
148.52	191.1
151.895	240.723
155.27	270.213
158.645	349.924
162.02	353.477
165.394	420.141
168.769	464.88
172.144	553.786
175.519	650.792
178.894	731.799
182.268	809.591
185.643	918.615
189.018	922.532
192.393	869.913
195.768	686.002
199.143	553.882
202.517	418.113
205.892	343.425
209.267	257.156
212.642	172.54
216.017	42.306
219.391	1.264
222.766	47.361
226.141	5.315
229.516	1.482
232.891	87
236.266	100.292
239.64	100.62
243.015	91.528
246.39	118.871
249.765	191.557
253.14	248.757
256.514	344.314
259.889	529.949
263.264	725.997
266.639	1024.5
270.014	1530.83
273.389	1945.23
276.763	2491.75
280.138	2577.22
283.513	2573.36
286.888	2483.22
290.263	2534.89
293.638	2769.45
297.012	2909.22
300.387	2744.6
303.762	2400.98
307.137	1862.34
310.512	1207.46
313.886	668.631
317.261	360.163
320.636	193.472
324.011	108.237
327.386	51.729
330.76	22.472
334.135	39.805
337.51	3.764
340.885	30.502
344.26	19.359
347.635	6.691
351.009	13.732
354.384	23.519
357.759	38.503
361.134	38.086
364.509	66.591
367.884	76.361
371.258	78.159
374.633	146.309
378.008	123.072
381.383	123.663
384.758	138.42
388.132	131.246
391.507	111.782
394.882	122.39
398.257	93.665
401.632	115.763
405.007	93.148
408.381	69.457
411.756	60.567
415.131	59.211
418.506	62.217
421.881	70.932
425.255	89.314
428.63	88.74
432.005	62.113
435.38	73.924
438.755	21.768
442.129	63.728
445.504	63.632
448.879	52.262
452.254	67.94
455.629	62.409
459.004	76.389
462.379	63.831
465.753	41.303
469.128	65.995
472.503	18.934
475.878	16.762
479.253	39.988
482.627	25.425
486.002	32.755
489.377	52.066
492.752	39.365
496.127	34.301
499.501	27.868
502.876	20.8
506.251	47.433
509.626	24.857
513.001	37.616
516.375	25.828
519.75	13.301
523.125	8.459
526.5	13.695
529.875	0.052
533.25	2.732
536.625	3.421
539.999	26.474
543.374	6.099
546.749	19.891
550.124	30.073
553.499	30.839
556.873	58.698
560.248	20.356
563.623	13.074
566.998	9.261
570.373	11.111
573.747	38.145
577.122	10.686
580.497	29.744
583.872	3.893
587.247	3.939
590.622	44.719
593.996	34.042
597.371	31.686
600.746	37.843
604.121	5.485
607.496	30.792
610.87	17.669
614.245	26.319
617.62	26.93
620.995	41.442
624.37	36.556
627.745	43.063
631.119	49.516
634.494	55.27
637.869	22.332
641.244	20.941
644.619	26.315
647.994	25.951
651.368	17.891
654.743	2.967
658.118	0.986
661.493	25.106
664.868	42.579
668.242	32.874
671.617	36.189
674.992	22.623
678.367	42.18
681.742	41.953
685.117	41.573
688.491	0.972
691.866	28.906
695.241	14.471
698.616	34.959
701.991	32.911
705.365	42.591
708.74	47.687
712.115	14.518
715.49	34.91
718.865	30.788
722.24	44.812
725.614	24.801
728.989	36.971
732.364	8.553
735.739	5.725
739.114	17.047
742.489	18.941
745.863	21.857
749.238	56.517
752.613	28.416
755.988	8.832
759.362	6.918
762.737	29.072
766.112	36.682
769.487	0.339
772.862	12.248
776.237	12.554
779.612	10.018
782.986	10.611
786.361	45.557
789.736	40.126
793.111	46.062
796.485	51.736
799.86	50.602
803.235	0.888
806.61	40.288
809.985	28.714
813.36	6.433
816.734	1.107
820.109	2.566
823.484	9.527
826.859	23.882
830.234	0.979
833.609	17.727
836.983	29.282
840.358	43.033
843.733	35.617
847.108	28.472
850.483	24.254
853.857	3.169
857.232	7.893
860.607	11.308
863.982	61.078
867.357	3.639
870.732	19.912
874.106	21.857
877.481	43.772
880.856	7.624
884.231	38.661
887.606	45.91
890.981	10.781
894.355	27.95
897.73	9.918
901.105	34.359
904.48	12.796
907.855	27.314
911.229	41.531
914.604	38.753
917.979	55.945
921.354	1.061
924.729	26.499
928.104	43.453
931.478	29.355
934.853	21.531
938.228	2.729
941.603	22.699
944.978	38.631
948.352	39.702
951.727	51.337
955.102	36.126
958.477	31.593
961.852	31.697
965.227	33.366
968.601	5.137
971.976	39.723
975.351	5.435
978.726	22.802
982.101	38.93
985.475	19.245
988.85	29.801
992.225	45.242
995.6	57.158
998.975	51.344
1002.35	23.269
1005.72	50.902
1009.1	27.683
1012.47	22.421
1015.85	17.474
1019.22	26.644
1022.6	40.995
1025.97	53.025
1029.35	34.913
1032.72	38.637
1036.1	41.254
1039.47	35.013
1042.85	21.47
1046.22	41.441
1049.6	21.236
1052.97	14.849
1056.35	9.82
1059.72	28.132
1063.1	34.493
1066.47	29.35
1069.85	18.334
1073.22	28.372
1076.6	29.929
1079.97	31.289
1083.35	0.465
1086.72	26.123
1090.1	16.348
1093.47	0.11
1096.84	23.461
1100.22	41.794
1103.59	38.379
1106.97	16.613
1110.34	42.006
1113.72	29.88
1117.09	8.434
1120.47	10.997
1123.84	8.981
1127.22	12.547
1130.59	18.621
1133.97	12.385
1137.34	5.873
1140.72	24.471
1144.09	33.633
1147.47	34.321
1150.84	48.412
1154.22	22.206
1157.59	18.805
1160.97	32.653
1164.34	16.945
1167.72	40.679
1171.09	25.995
1174.46	13.616
1177.84	34.583
1181.21	27.34
1184.59	22.201
1187.96	29.138
1191.34	18.517
1194.71	33.275
1198.09	23.737
1201.46	26.026
1204.84	24.62
1208.21	21.115
1211.59	7.408
1214.96	34.904
1218.34	2.163
1221.71	27.727
1225.09	24.631
1228.46	13.825
1231.84	42.214
1235.21	19.062
1238.59	7.78
1241.96	5.702
1245.34	51.192
1248.71	14.052
1252.09	23.867
1255.46	27.616
1258.84	31.95
1262.21	40.447
1265.59	33.448
1268.96	22.23
1272.34	10.966
1275.71	4.275
1279.09	16.065
1282.46	5.371
1285.83	6.263
1289.21	15.617
1292.58	43.128
1295.96	34.563
1299.33	30.041
