Measurement: Raman, 785 nm, unoriented, Raman Data Processed
Mineral: Stibnite
Rruff sample: R050016
Ideal chemistry: Sb_2_S_3_
Locality: Romania
Source: Eugene Schlepp
Description: Group of lead-gray prismatic crystals
Measured chemistry: (Sb_.996_As_.004_)_2_S_3_
Raman shift (cm-1)	intensity
123.43	0
126.323	345.087
129.215	1237.44
132.108	1995.08
135.001	1371.01
137.893	284.555
140.786	74.3778
143.679	-26.885
146.572	62.5269
149.464	327.989
152.357	348.24
155.25	214.955
158.142	60.2427
161.035	433.712
163.928	1389.81
166.821	2826.85
169.713	4499.72
172.606	6411.44
175.499	9022.47
178.391	12131.4
181.284	15900.6
184.177	20797.3
187.069	27320.7
189.962	33268.6
192.855	34804.4
195.748	31657.3
198.64	27181.7
201.533	23655.5
204.426	20703.3
207.318	17629
210.211	14422.1
213.104	11273.7
215.996	8685.77
218.889	6995.48
221.782	6384.21
224.674	6619.51
227.567	7811
230.46	9699.58
233.353	12319.5
236.245	14303.2
239.138	14972.8
242.031	13140.2
244.923	9682.68
247.816	6313.81
250.709	4138.04
253.601	2965.42
256.494	2251.48
259.387	1708.05
262.28	1424.85
265.172	1878.18
268.065	3343.55
270.958	6018.85
273.85	10279.3
276.743	15995.6
279.636	22262.2
282.529	26340.1
285.421	25465.9
288.314	23276.9
291.207	24236.9
294.099	29496.6
296.992	37964.9
299.885	45938.8
302.777	49713.9
305.67	49123.1
308.563	48109.5
311.455	45782.3
314.348	32627.1
317.241	12918.8
320.134	4122.38
323.026	1663.22
325.919	1188.98
328.812	849.413
331.704	506.806
334.597	245.009
337.49	76.1465
340.382	-14.2762
343.275	-82.1565
346.168	-160.222
349.061	-113.414
351.953	-59.7809
354.846	-88.9819
357.739	-119.984
360.631	-59.8393
363.524	-90.6868
366.417	-109.044
369.31	-60.4676
372.202	-9.13084
375.095	-99.5418
377.988	-50.5476
380.88	-51.5481
383.773	7.00722
386.666	-51.3633
389.558	-42.4359
392.451	-47.8699
395.344	21.6648
398.236	11.4964
401.129	28.7132
404.022	53.0779
406.915	29.1789
409.807	76.977
412.7	41.3359
415.593	47.9868
418.485	104.348
421.378	14.7733
424.271	21.5026
427.163	80.3648
430.056	64.4856
432.949	139.583
435.842	51.6581
438.734	76.5291
441.627	140.19
444.52	155.574
447.412	134.722
450.305	131.099
453.198	153.945
456.091	167.493
458.983	153.666
461.876	185.186
464.769	138.402
467.661	166.775
470.554	181.708
473.447	159.22
476.339	223.377
479.232	154.374
482.125	205.599
485.017	162.455
487.91	171.364
490.803	145.177
493.696	134.236
496.588	128.165
499.481	87.0116
502.374	113.47
505.266	128.569
508.159	111.328
511.052	99.8158
513.944	75.6172
516.837	49.1953
519.73	62.8528
522.623	65.6321
525.515	10.2357
528.408	29.4482
531.301	0.166992
534.193	4.50537
537.086	3.00891
539.979	21.6171
542.871	7.38232
545.764	2.68713
548.657	9.80664
551.55	4.80493
554.442	6.13904
557.335	27.4748
560.228	12.5712
563.12	19.0963
566.013	16.9873
568.906	13.9409
571.798	0.757568
574.691	9.39832
577.584	41.0732
580.477	58.9062
583.369	78.8754
586.262	113.966
589.155	119.841
592.047	155.377
594.94	183.327
597.833	162.144
600.726	155.967
603.618	145.43
606.511	130.286
609.404	133.942
612.296	141.329
615.189	107.054
618.082	132.968
620.974	96.9877
623.867	77.2945
626.76	89.3712
629.653	70.6072
632.545	52.0369
635.438	66.2044
638.331	25.0516
641.223	18.8257
644.116	3.41205
647.009	5.57898
649.901	3.50104
652.794	14.8862
655.687	17.7454
658.58	30.1438
661.472	38.7632
664.365	68.6512
667.258	67.2014
670.15	79.8768
673.043	95.4282
675.936	92.1928
678.828	86.4924
681.721	51.9262
684.614	43.549
687.506	21.5481
690.399	20.7729
693.292	40.8028
696.185	36.4581
699.077	27.2572
701.97	42.6437
704.863	35.7648
707.755	15.1493
710.648	29.8129
713.541	34.1507
716.433	17.8493
719.326	31.0361
722.219	30.5642
725.112	44.746
728.004	31.8037
730.897	39.1671
733.79	31.8316
736.682	38.0464
739.575	55.6857
742.468	51.6315
745.361	57.5603
748.253	37.9791
751.146	39.4612
754.039	59.0986
756.931	33.5181
759.824	40.2242
762.717	24.572
765.609	21.6305
768.502	32.3976
771.395	29.2264
774.288	17.7552
777.18	17.658
780.073	23.3414
782.966	35.633
785.858	16.0654
788.751	22.822
791.644	18.8534
794.536	21.621
797.429	9.61691
800.322	9.16272
803.215	14.1369
806.107	13.1884
809	16.1381
811.893	15.9723
814.785	4.87131
817.678	16.7201
820.571	3.78885
823.463	20.6851
826.356	7.68246
829.249	4.25702
832.141	16.8469
835.034	5.76175
837.927	1.26468
840.82	10.7169
843.712	2.47138
846.605	0.766357
849.498	8.24396
852.39	3.397
855.283	10.3321
858.176	8.97626
861.068	10.8243
863.961	8.78995
866.854	12.0492
869.747	1.44748
872.639	7.8996
875.532	7.1492
878.425	7.43304
881.317	3.59439
884.21	0.434235
887.103	2.22626
889.995	2.26451
892.888	7.0381
895.781	14.3765
898.674	13.9975
901.566	0.250946
904.459	13.4903
907.352	10.7677
910.244	6.89183
913.137	9.99191
916.03	11.672
918.923	4.78398
921.815	6.52737
924.708	13.288
927.601	2.48991
930.493	6.36301
933.386	11.8534
936.279	2.18822
939.171	6.79581
942.064	5.25879
944.957	20.7438
947.85	17.3548
950.742	0.1138
953.635	11.913
956.528	22.0665
959.42	14.4757
962.313	14.1777
965.206	9.90614
968.098	9.99498
970.991	5.5674
973.884	19.8114
976.777	11.2422
979.669	1.83113
982.562	20.602
985.455	19.4355
988.347	15.0319
991.24	19.7623
994.133	5.77992
997.025	12.2791
999.918	9.42512
1002.81	10.3238
1005.7	6.63553
1008.6	18.4331
1011.49	11.1867
1014.38	8.75058
1017.27	4.96995
1020.17	8.91945
1023.06	9.42183
1025.95	10.519
1028.85	5.14743
1031.74	6.87869
1034.63	17.4509
1037.52	4.16319
1040.42	15.2605
1043.31	11.1688
1046.2	12.6125
1049.09	8.44522
1051.99	12.2051
1054.88	4.64702
1057.77	4.02954
1060.66	7.15973
1063.56	8.71046
1066.45	0.376083
1069.34	10.4161
1072.24	11.5149
1075.13	9.28596
1078.02	3.4836
1080.91	2.74199
1083.81	12.4564
1086.7	4.41277
1089.59	9.08562
1092.48	14.6113
1095.38	17.0357
1098.27	7.39391
1101.16	18.8405
1104.06	11.6959
1106.95	4.81329
1109.84	2.17052
1112.73	2.55896
1115.63	15.353
1118.52	6.30527
1121.41	12.4218
1124.3	7.55428
1127.2	5.45901
1130.09	7.0359
1132.98	1.29501
1135.88	3.49321
1138.77	10.1327
1141.66	2.71698
1144.55	7.32991
1147.45	15.8945
1150.34	8.55797
1153.23	1.51204
1156.12	2.56881
1159.02	6.19753
1161.91	3.005
1164.8	4.48903
1167.69	5.3821
1170.59	0.369835
1173.48	4.2233
1176.37	10.1497
1179.27	6.841
1182.16	14.4424
1185.05	2.05534
1187.94	0.506172
1190.84	9.85052
1193.73	8.37656
1196.62	0.611427
1199.51	2.61876
1202.41	13.5636
1205.3	15.3433
1208.19	10.9406
1211.09	6.6536
1213.98	8.90977
1216.87	11.466
1219.76	10.2673
1222.66	3.0367
1225.55	7.61104
1228.44	12.4086
1231.33	3.68266
1234.23	4.26328
