Measurement: Raman, 532 nm, unoriented, Raman Data Processed
Mineral: Stibnite
Rruff sample: R050016
Ideal chemistry: Sb_2_S_3_
Locality: Romania
Source: Eugene Schlepp
Description: Group of lead-gray prismatic crystals
Measured chemistry: (Sb_.996_As_.004_)_2_S_3_
Raman shift (cm-1)	intensity
134.716	0
138.091	199.4
141.466	526.393
144.841	559.962
148.215	405.896
151.59	308.653
154.965	210.315
158.34	81.5874
161.715	21.1343
165.09	18.0005
168.464	79.8259
171.839	236.706
175.214	476.545
178.589	749.18
181.964	1321.04
185.339	2257.52
188.713	2493.16
192.088	721.051
195.463	208.402
198.838	50.4031
202.213	1.36304
205.587	21.4775
208.962	7.74487
212.337	8.14966
215.712	15.2756
219.087	98.196
222.462	162.186
225.836	271.109
229.211	422.801
232.586	804.952
235.961	1419.98
239.336	2298.76
242.71	3589.01
246.085	5602.86
249.46	7416.49
252.835	5074.5
256.21	2365.4
259.584	1583.13
262.959	1380.81
266.334	1339.72
269.709	1402.74
273.084	1522.37
276.459	1542.61
279.833	1595.09
283.208	1517.9
286.583	1496.63
289.958	1442.91
293.333	1486.27
296.707	1417.87
300.082	1325.96
303.457	1087.21
306.832	813.277
310.207	542.216
313.582	270.043
316.956	141.007
320.331	71.5928
323.706	8.75488
327.081	30.6531
330.456	3.9043
333.83	19.9995
337.205	4.59644
340.58	49.3865
343.955	47.8801
347.33	47.9849
350.705	60.6171
354.079	100.279
357.454	104.636
360.829	191.848
364.204	303.318
367.579	412.952
370.954	388.214
374.328	254.971
377.703	137.032
381.078	91.8203
384.453	49.7369
387.828	31.9308
391.202	36.5054
394.577	10.0829
397.952	3.51929
401.327	8.70727
404.702	10.1954
408.077	1.01562
411.451	19.5824
414.826	45.9641
418.201	28.8944
421.576	59.5153
424.951	110.781
428.325	159.168
431.7	248.884
435.075	406.719
438.45	694.559
441.825	1035.67
445.2	1272.31
448.574	1307.29
451.949	920.348
455.324	539.01
458.699	346.923
462.074	215.477
465.448	158.771
468.823	124.779
472.198	64.0293
475.573	80.1456
478.948	55.4853
482.322	74.4045
485.697	62.6189
489.072	48.9933
492.447	61.7703
495.822	34.2531
499.197	20.4263
502.571	15.5784
505.946	21.9404
509.321	18.0656
512.696	29.2501
516.071	27.2469
519.446	22.2095
522.82	26.5888
526.195	5.30298
529.57	21.391
532.945	14.5312
536.32	23.1502
539.694	12.7079
543.069	8.15808
546.444	17.6547
549.819	2.77405
553.194	0.973755
556.568	13.1136
559.943	31.7881
563.318	7.13623
566.693	11.9174
570.068	21.0245
573.443	16.5046
576.817	1.47595
580.192	5.11585
583.567	23.267
586.942	13.8193
590.317	5.44763
593.692	17.2324
597.066	29.2712
600.441	31.9468
603.816	47.1289
607.191	20.8202
610.566	32.2749
613.94	21.15
617.315	6.62183
620.69	10.4362
624.065	27.2748
627.44	7.98035
630.814	40.8547
634.189	33.8687
637.564	21.0938
640.939	48.5421
644.314	6.6991
647.689	53.2412
651.063	39.5713
654.438	17.7266
657.813	23.6328
661.188	16.2469
664.563	44.4078
667.938	12.3842
671.312	20.856
674.687	31.0182
678.062	48.9518
681.437	38.5316
684.812	66.183
688.186	50.9563
691.561	106.467
694.936	128.029
698.311	143.241
701.686	134.271
705.061	149.122
708.435	133.766
711.81	78.2225
715.185	89.1287
718.56	54.3138
721.935	46.3135
725.309	36.3337
728.684	0.28418
732.059	18.0081
735.434	32.0971
738.809	20.2148
742.183	3.96533
745.558	36.1256
748.933	31.254
752.308	22.9469
755.683	19.3735
759.058	15.9453
762.432	26.0078
765.807	20.6282
769.182	6.89868
772.557	2.96997
775.932	13.3679
779.307	23.5392
782.681	17.6672
786.056	18.3588
789.431	20.8456
792.806	18.6464
796.181	22.6835
799.555	22.6417
802.93	2.34937
806.305	8.61865
809.68	19.1486
813.055	22.5803
816.429	41.5831
819.804	16.3782
823.179	35.1749
826.554	39.9324
829.929	3.35998
833.304	32.1669
836.678	9.4624
840.053	7.2262
843.428	25.3916
846.803	23.8671
850.178	9.14868
853.553	27.9205
856.927	1.87048
860.302	22.0575
863.677	42.3092
867.052	42.6887
870.427	35.1891
873.801	40.2972
877.176	13.5303
880.551	6.67273
883.926	9.69336
887.301	51.938
890.676	15.4537
894.05	43.812
897.425	20.7686
900.8	11.0557
904.175	13.4224
907.55	49.1011
910.924	44.1249
914.299	32.0081
917.674	27.3285
921.049	35.1697
924.424	16.916
927.798	2.66272
931.173	52.9836
934.548	34.9362
937.923	35.9464
941.298	4.37512
944.673	42.6079
948.047	40.7545
951.422	27.3
954.797	19.1885
958.172	2.74365
961.547	40.1371
964.922	28.7197
968.296	30.912
971.671	27.6462
975.046	11.6824
978.421	38.6075
981.796	18.014
985.17	3.97485
988.545	28.4215
991.92	30.3544
995.295	20.2737
998.67	35.3982
1002.04	22.9611
1005.42	47.8401
1008.79	46.65
1012.17	44.0361
1015.54	19.1898
1018.92	39.2228
1022.29	33.5283
1025.67	24.1387
1029.04	21.8365
1032.42	3.4823
1035.79	17.1415
1039.17	21.9043
1042.54	35.6851
1045.92	15.6202
1049.29	10.7257
1052.67	4.62012
1056.04	7.78149
1059.42	15.285
1062.79	18.0219
1066.17	29.5308
1069.54	25.9571
1072.92	43.7396
1076.29	3.31128
1079.66	31.9415
1083.04	35.4636
1086.41	7.12293
1089.79	43.1914
1093.16	5.65088
1096.54	5.41882
1099.91	24.7059
1103.29	46.1381
1106.66	16.5038
1110.04	24.0293
1113.41	31.4872
1116.79	18.7862
1120.16	27.2363
1123.54	30.5998
1126.91	36.8261
1130.29	15.2924
1133.66	17.0348
1137.04	22.5248
1140.41	34.3223
1143.79	18.0211
1147.16	27.0161
1150.54	8.34509
1153.91	21.6038
1157.29	1.46533
1160.66	15.0333
1164.04	6.11157
1167.41	13.3155
1170.79	4.677
1174.16	13.4784
1177.54	26.4506
1180.91	14.7592
1184.29	30.7019
1187.66	33.9819
1191.03	47.4353
1194.41	42.8174
1197.78	37.7312
1201.16	33.0515
1204.53	26.2622
1207.91	15.199
1211.28	31.3147
1214.66	26.0686
1218.03	3.06494
1221.41	3.98706
1224.78	42.9822
1228.16	8.20557
1231.53	10.2334
1234.91	13.436
1238.28	14.7417
1241.66	73.8342
1245.03	49.5102
1248.41	49.1917
1251.78	41.1184
1255.16	19.3562
1258.53	21.5459
1261.91	29.5107
1265.28	33.0486
1268.65	2.96924
1272.03	34.4434
1275.4	34.4963
1278.78	13.8384
1282.15	3.77075
1285.53	27.4922
1288.9	10.2634
1292.28	0.389404
