Measurement: Raman, 785 nm, unoriented, Raman Data Processed
Mineral: Stibnite
Rruff sample: R050066
Ideal chemistry: Sb_2_S_3_
Locality: Wuling, Jiangxi Province, China
Source: Rock Currier
Description: Lead-gray prismatic crystal
Measured chemistry: Sb_2.00_S_3.00_
Raman shift (cm-1)	intensity
121.046	0
123.939	2005.88
126.831	10207.4
129.724	17915.5
132.617	29271.6
135.509	13171.7
138.402	1963.82
141.295	6369.82
144.188	1822.44
147.08	18891.6
149.973	38665.6
152.866	55987.9
155.758	63694.5
158.651	44436
161.544	25251
164.436	24967.6
167.329	33672.7
170.222	42806.7
173.115	50611.1
176.007	58777.3
178.9	69175.5
181.793	85737.2
184.685	115625
187.578	160654
190.471	207798
193.363	236260
196.256	244505
199.149	245317
202.042	240223
204.934	225536
207.827	196409
210.72	159255
213.612	122016
216.505	91569.3
219.398	72138.5
222.29	65870
225.183	73952.2
228.076	97688.2
230.969	136328
233.861	180680
236.754	212968
239.647	209814
242.539	168682
245.432	114509
248.325	72012.2
251.217	50954.3
254.11	43464.2
257.003	41975.2
259.896	41455
262.788	45726.1
265.681	60436.4
268.574	98475
271.466	173339
274.359	292917
277.252	456082
280.144	610573
283.037	646496
285.93	516534
288.823	349209
291.715	236500
294.608	189417
297.501	190800
300.393	223837
303.286	279000
306.179	359642
309.071	463292
311.964	531415
314.857	347730
317.75	107691
320.642	23404.7
323.535	540.332
326.428	7753.38
329.32	9364.5
332.213	8884.23
335.106	7269.08
337.998	4794.28
340.891	2106.98
343.784	975.666
346.677	4095.3
349.569	7097.5
352.462	9849.81
355.355	12425.2
358.247	14769.5
361.14	16719.3
364.033	18209.1
366.925	19750
369.818	20898
372.711	22351.5
375.603	23833.4
378.496	25267.1
381.389	26233.1
384.282	25879.6
387.174	23741.9
390.067	20694.7
392.96	17679.7
395.852	14726.7
398.745	12305.5
401.638	10400.3
404.53	9208.07
407.423	8430.49
410.316	8032.9
413.209	7832.08
416.101	7614.52
418.994	7629.55
421.887	7406.35
424.779	7127.55
427.672	6668.79
430.565	6046.73
433.457	5542.33
436.35	4928.07
439.243	4117.99
442.136	3739.33
445.028	3224.88
447.921	2813.12
450.814	2434.12
453.706	2059.12
456.599	1894.07
459.492	1813.83
462.384	1663.29
465.277	1747.12
468.17	1657.93
471.063	1530.44
473.955	1391.16
476.848	1249.38
479.741	1140.68
482.633	1105.72
485.526	1073.58
488.419	1251.41
491.311	1327.26
494.204	1409.44
497.097	1353.14
499.99	1448.73
502.882	1551.58
505.775	1529.69
508.668	1569.52
511.56	1502.13
514.453	1432.05
517.346	1231.13
520.239	1012.1
523.131	763.289
526.024	255.045
528.917	33.332
531.809	128.27
534.702	277.795
537.595	308.441
540.487	280.768
543.38	267.627
546.273	278.363
549.166	291.118
552.058	260.321
554.951	253.332
557.844	226.634
560.736	12.807
563.629	97.027
566.522	71.834
569.414	103.947
572.307	90.371
575.2	167.644
578.093	523.118
580.985	727.73
583.878	949.889
586.771	1251.56
589.663	1361.65
592.556	1472.65
595.449	1466.04
598.341	1427.6
601.234	1255.58
604.127	1078.15
607.019	939.271
609.912	795.943
612.805	816.904
615.698	656.696
618.59	631.141
621.483	573.221
624.376	538.164
627.268	403.668
630.161	336.026
633.054	333.476
635.946	209.652
638.839	205.145
641.732	142.676
644.625	80.54
647.517	46.34
650.41	127.789
653.303	217.143
656.195	418.336
659.088	464.211
661.981	610.403
664.873	769.983
667.766	937.39
670.659	1024.36
673.552	1142.21
676.444	1020.87
679.337	961.091
682.23	950.271
685.122	854.323
688.015	731.891
690.908	749.656
693.8	739.577
696.693	696.623
699.586	714.388
702.479	675.01
705.371	539.257
708.264	454.758
711.157	496.433
714.049	435.894
716.942	510.817
719.835	379.429
722.727	451.986
725.62	436.633
728.513	362.725
731.406	490.862
734.298	457.499
737.191	439.323
740.084	425.934
742.976	497.932
745.869	438.549
748.762	430.921
751.654	427.997
754.547	398.536
757.44	319.881
760.333	222.315
763.225	290.253
766.118	282.709
769.011	155.253
771.903	171.363
774.796	183.821
777.689	190.528
780.581	162.09
783.474	151.211
786.367	165.419
789.26	169.94
792.152	162.05
795.045	159.315
797.938	48.526
800.83	71.192
803.723	40.736
806.616	22.293
809.508	48.836
812.401	39.834
815.294	62.363
818.187	1.49
821.079	10.173
823.972	38.099
826.865	81.625
829.757	42.021
832.65	50.018
835.543	54.314
838.435	73.002
841.328	46.288
844.221	42.414
847.114	6.795
850.006	25.312
852.899	4.445
855.792	18.682
858.684	40.92
861.577	32.044
864.47	60.696
867.362	47.201
870.255	34.662
873.148	84.596
876.041	110.338
878.933	6.003
881.826	40.246
884.719	36.396
887.611	43.501
890.504	3.386
893.397	19.016
896.289	90.495
899.182	37.015
902.075	38.008
904.968	67.534
907.86	22.376
910.753	68.109
913.646	133.308
916.538	47.261
919.431	54.785
922.324	8.354
925.216	47.935
928.109	27.041
931.002	93.99
933.895	70.336
936.787	80.121
939.68	88.518
942.573	71.115
945.465	159.508
948.358	142.728
951.251	82.526
954.143	39.159
957.036	66.017
959.929	107.45
962.822	11.242
965.714	27.017
968.607	76.511
971.5	62.814
974.392	126.105
977.285	114.933
980.178	63.63
983.07	77.239
985.963	134.145
988.856	112.015
991.749	83.18
994.641	16.645
997.534	49.841
1000.43	20.48
1003.32	124.563
1006.21	66.75
1009.11	67.441
1012	41.813
1014.89	79.874
1017.78	81.91
1020.68	140.374
1023.57	78.532
1026.46	90.105
1029.35	73.569
1032.25	92.732
1035.14	72.287
1038.03	76.22
1040.92	75.518
1043.82	42.155
1046.71	13.396
1049.6	125.48
1052.49	130.724
1055.39	52.633
1058.28	76.618
1061.17	115.992
1064.07	88.808
1066.96	138.466
1069.85	67.418
1072.74	65.934
1075.64	38.625
1078.53	96.961
1081.42	27.128
1084.32	42.856
1087.21	100.293
1090.1	90.51
1092.99	120.06
1095.89	99.483
1098.78	116.732
1101.67	34.597
1104.56	121.462
1107.46	72.574
1110.35	45.894
1113.24	96.937
1116.13	24.768
1119.03	97.306
1121.92	59.877
1124.81	39.706
1127.7	75.888
1130.6	125.337
1133.49	113.549
1136.38	81.366
1139.28	2.225
1142.17	58.078
1145.06	58.903
1147.95	46.655
1150.85	37.665
1153.74	32.651
1156.63	13.211
1159.53	16.652
1162.42	103.219
1165.31	14.159
1168.2	53.111
1171.1	89.727
1173.99	110.877
1176.88	109.115
1179.77	85.201
1182.67	58.173
1185.56	1.207
1188.45	91.419
1191.35	36.509
1194.24	94.067
1197.13	103.619
1200.02	76.173
1202.92	19.878
1205.81	92.435
1208.7	86.482
1211.59	106.963
1214.49	20.393
1217.38	101.944
1220.27	108.107
1223.16	68.337
1226.06	90.309
1228.95	22.883
1231.84	59.216
1234.73	106.743
1237.63	117.846
1240.52	119.008
1243.41	124.323
1246.31	41.23
1249.2	86.533
1252.09	18.55
1254.98	56.093
1257.88	24.255
1260.77	12.305
1263.66	1.721
1266.56	38.927
1269.45	47.128
1272.34	22.542
