Measurement: Raman, 780 nm, unoriented, Raman Data Processed
Mineral: Stibivanite
Rruff sample: R080125
Ideal chemistry: Sb^3+^_2_V^4+^O_5_
Locality: Consolidated Durham mines, Lake George, York County, New Brunswick, Canada
Source: William W. Pinch
Description: Elongated sprays of green crystals on quartz
Raman shift (cm-1)	intensity
140.549	0
143.441	12.9692
146.334	32.423
149.227	43.8809
152.119	40.517
155.012	14.5581
157.905	0.168434
160.798	0.278847
163.69	1.9274
166.583	6.99425
169.476	12.5314
172.368	17.677
175.261	23.4016
178.154	25.6682
181.046	28.1654
183.939	18.604
186.832	4.77831
189.725	0.030228
192.617	1.76176
195.51	1.2932
198.403	0.185867
201.295	4.33615
204.188	7.97657
207.081	11.8245
209.973	15.8114
212.866	18.8452
215.759	19.3431
218.651	15.0127
221.544	8.41129
224.437	3.53944
227.33	2.59397
230.222	1.41587
233.115	0.465378
236.008	0.212967
238.9	1.91235
241.793	1.84051
244.686	3.73838
247.578	5.49757
250.471	6.16524
253.364	7.94949
256.257	9.98957
259.149	12.7235
262.042	16.0291
264.935	21.0261
267.827	25.9088
270.72	35.6749
273.613	46.3582
276.505	58.3544
279.398	74.596
282.291	88.4714
285.184	105.139
288.076	117.805
290.969	124.972
293.862	125.889
296.755	118.621
299.647	103.903
302.54	85.9794
305.433	69.3194
308.325	55.375
311.218	42.7319
314.111	32.7377
317.003	22.6078
319.896	15.2754
322.789	11.1228
325.682	8.43362
328.574	6.87912
331.467	5.59639
334.36	3.75874
337.252	2.508
340.145	3.19119
343.038	2.72806
345.93	3.03284
348.823	1.44028
351.716	1.40617
354.608	0.298386
357.501	0.221016
360.394	0.876434
363.287	0.939888
366.179	0.444931
369.072	0.246056
371.965	0.23513
374.857	0.532562
377.75	0.482727
380.643	0.069084
383.536	0.380142
386.428	0.099342
389.321	0.219803
392.214	0.395309
395.106	1.2292
397.999	0.74498
400.892	1.96609
403.784	2.41252
406.677	4.1159
409.57	5.40591
412.462	6.20294
415.355	7.66357
418.248	8.56434
421.141	8.31751
424.033	10.2165
426.926	10.295
429.819	10.9117
432.711	11.6697
435.604	14.4753
438.497	16.9662
441.389	20.6138
444.282	22.6705
447.175	26.3708
450.068	27.5427
452.96	27.0106
455.853	29.3055
458.746	31.8629
461.639	36.9491
464.531	43.7097
467.424	50.1174
470.317	53.4142
473.209	57.4726
476.102	56.1625
478.995	49.4232
481.887	39.7641
484.78	28.9395
487.673	21.2019
490.565	14.7373
493.458	10.5009
496.351	7.28828
499.244	4.5474
502.136	2.98262
505.029	2.36696
507.922	2.21519
510.814	1.11585
513.707	0.161255
516.6	0.304543
519.492	0.409714
522.385	0.448021
525.278	0.195541
528.171	0.865158
531.063	1.60899
533.956	3.94013
536.849	4.41524
539.741	5.11797
542.634	6.23661
545.527	6.22021
548.419	4.05009
551.312	3.32522
554.205	1.14166
557.098	1.69567
559.99	1.0679
562.883	0.505028
565.776	0.521706
568.668	0.29866
571.561	0.753944
574.454	0.45108
577.346	1.16746
580.239	1.49543
583.132	1.812
586.025	2.8496
588.917	2.47484
591.81	1.85797
594.703	3.28522
597.596	3.70999
600.488	3.98632
603.381	3.49148
606.274	3.90259
609.166	2.41395
612.059	2.13683
614.952	2.11105
617.844	2.0979
620.737	1.86854
623.63	1.0701
626.523	1.12285
629.415	0.968422
632.308	1.42399
635.201	0.029991
638.093	0.273407
640.986	0.016037
643.879	0.977173
646.771	0.36232
649.664	0.494072
652.557	0.131729
655.449	0.886436
658.342	0.751869
661.235	1.65736
664.128	1.84641
667.02	1.72322
669.913	2.6644
672.806	3.4304
675.698	3.6235
678.591	6.32205
681.484	7.54005
684.376	8.23721
687.269	10.0495
690.162	12.0085
693.055	12.0588
695.947	11.6972
698.84	12.5373
701.733	10.8917
704.625	10.3476
707.518	10.7782
710.411	10.3159
713.303	10.1177
716.196	8.25504
719.089	6.84182
721.982	6.55264
724.874	6.9274
727.767	5.06597
730.66	3.79029
733.552	4.65112
736.445	2.41154
739.338	2.54534
742.231	1.57803
745.123	0.711205
748.016	0.004784
750.909	0.70507
753.801	1.46168
756.694	0.609421
759.587	0.038895
762.479	0.64959
765.372	0.406387
768.265	0.212402
771.158	0.556
774.05	0.298386
776.943	0.739616
779.836	0.096893
782.728	0.61557
785.621	0.920471
788.514	1.32439
791.406	0.958801
794.299	1.31835
797.192	1.60955
800.085	1.4512
802.977	2.42659
805.87	0.601372
808.763	1.8784
811.655	2.84807
814.548	1.38931
817.441	2.75088
820.333	3.48692
823.226	2.36677
826.119	3.13084
829.012	2.82834
831.904	3.01815
834.797	3.64108
837.69	2.82861
840.582	2.7978
843.475	3.41553
846.368	2.66025
849.26	3.95671
852.153	2.76757
855.046	3.38387
857.939	2.89259
860.831	4.18312
863.724	3.4583
866.617	3.11565
869.509	3.45071
872.402	3.25926
875.295	3.12342
878.188	2.36614
881.08	2.66499
883.973	0.821213
886.866	2.52989
889.758	1.02773
892.651	2.57097
895.544	1.4891
898.436	0.791695
901.329	1.95477
904.222	0.267349
907.115	0.844666
910.007	0.006081
912.9	1.19144
915.793	1.08353
918.685	1.28013
921.578	1.42895
924.471	0.792778
927.364	1.54799
930.256	1.0172
933.149	0.193092
936.042	2.51041
938.934	1.72257
941.827	2.2277
944.72	3.20248
947.612	4.10778
950.505	3.87023
953.398	2.03728
956.29	3.8907
959.183	5.1443
962.076	10.1129
964.969	18.5608
967.861	26.2881
970.754	40.894
973.647	52.0097
976.539	45.2271
979.432	14.0117
982.325	3.77664
985.217	3.05247
988.11	1.05273
991.003	0.354004
993.896	1.06516
996.788	0.418427
999.681	0.780045
1002.57	1.63312
1005.47	0.989212
1008.36	0.875092
1011.25	0.895233
1014.14	0.99501
1017.04	0.016769
1019.93	0.045486
1022.82	1.52951
1025.71	1.27142
1028.61	0.507217
1031.5	1.09029
1034.39	1.68593
1037.29	1.93144
1040.18	1.39981
1043.07	2.21336
1045.96	0.959808
1048.86	1.81265
1051.75	0.976135
1054.64	0.533463
1057.54	0.413162
1060.43	1.55431
1063.32	1.32034
1066.21	1.84059
1069.11	1.43657
1072	1.64557
1074.89	1.86462
1077.78	1.70128
1080.68	1.15286
1083.57	2.4399
1086.46	1.81151
1089.36	0.15126
1092.25	3.26367
1095.14	2.52268
1098.03	0.703568
1100.93	0.737
1103.82	0.254303
1106.71	1.08014
1109.6	1.593
1112.5	0.875534
1115.39	0.976089
1118.28	0.422958
1121.17	1.16545
1124.07	0.69397
1126.96	0.678329
1129.85	1.87834
1132.74	0.305283
1135.64	1.50403
1138.53	0.181946
1141.42	1.00308
1144.32	0.896271
1147.21	1.25354
1150.1	1.53197
1152.99	1.85445
1155.89	1.45386
1158.78	1.0518
1161.67	2.10288
1164.57	2.43947
1167.46	2.85561
1170.35	1.78511
1173.24	1.51852
1176.14	2.38664
1179.03	1.31339
1181.92	3.20738
1184.81	2.52721
1187.71	1.08514
1190.6	0.467361
1193.49	1.18266
1196.38	2.65036
1199.28	0.896729
1202.17	1.57851
1205.06	1.6131
1207.96	1.67877
1210.85	1.54077
1213.74	1.48453
1216.63	1.6152
1219.53	0.651535
1222.42	1.20369
1225.31	1.0351
1228.2	0.828369
1231.1	0.424316
1233.99	0.235962
1236.88	1.07736
1239.78	1.20036
1242.67	0.1875
1245.56	0.199554
1248.45	1.9008
1251.35	2.78831
1254.24	1.32048
1257.13	1.08983
1260.02	0.669769
1262.92	2.0891
1265.81	1.6068
1268.7	2.22527
1271.6	1.70813
1274.49	0.359161
1277.38	1.62471
1280.27	0.695068
1283.17	0.370575
1286.06	1.6414
