Measurement: Raman, 785 nm, unoriented, Raman Data Processed
Mineral: Stibnite
Rruff sample: R050016
Ideal chemistry: Sb_2_S_3_
Locality: Romania
Source: Eugene Schlepp
Description: Group of lead-gray prismatic crystals
Measured chemistry: (Sb_.996_As_.004_)_2_S_3_
Raman shift (cm-1)	intensity
90.19	0
93.565	12.716
96.94	15.247
100.315	5.146
103.69	12.553
107.064	36.06
110.439	97.309
113.814	126.344
117.189	181.246
120.564	202.115
123.939	3.836
127.313	487.632
130.688	694.901
134.063	632.194
137.438	546.983
140.813	751.869
144.188	1399.26
147.562	2249.25
150.937	3132.59
154.312	3880.46
157.687	3938.4
161.062	3381.02
164.436	3409.25
167.811	3880.3
171.186	4375.95
174.561	4912.99
177.936	5468.99
181.311	6381.57
184.685	7828.52
188.06	9934.77
191.435	11958
194.81	12461.6
198.185	12316.3
201.559	12099.6
204.934	11633.8
208.309	10716.2
211.684	9468.96
215.059	8116.14
218.434	7342.93
221.808	6786.96
225.183	6949.77
228.558	7670.09
231.933	9078.63
235.307	10725.3
238.682	11497
242.057	10690.9
245.432	8937.68
248.807	7401.76
252.182	6700.73
255.556	6558.43
258.931	6412.72
262.306	6369.95
265.681	6777.59
269.056	8217.64
272.431	11449.9
275.805	16700.2
279.18	23219.9
282.555	26140.7
285.93	21433.7
289.305	14521.5
292.679	10848.1
296.054	10189.9
299.429	11234.2
302.804	13291.9
306.179	16003.6
309.553	19502.4
312.928	20122.7
316.303	9384.55
319.678	2751.17
323.053	1048.46
326.428	545.195
329.802	243.893
333.177	89.626
336.552	17.203
339.927	59.971
343.302	63.902
346.677	77.689
350.051	58.274
353.426	61.617
356.801	59.661
360.176	67.388
363.551	67.716
366.925	97.672
370.3	118.585
373.675	97.662
377.05	121.988
380.425	113.621
383.799	101.459
387.174	110.713
390.549	116.785
393.924	114.401
397.299	95.647
400.674	110.699
404.048	93.07
407.423	87.337
410.798	73.861
414.173	59.261
417.548	11.11
420.922	6.024
424.297	17.398
427.672	29.844
431.047	49.973
434.422	65.994
437.797	52.501
441.171	58.329
444.546	86.014
447.921	120.408
451.296	119.691
454.671	128.875
458.045	117.247
461.42	161.661
464.795	189.458
468.17	157.171
471.545	186.26
474.919	185.984
478.294	201.826
481.669	190.053
485.044	195.299
488.419	231.005
491.794	223.638
495.168	223.181
498.543	248.337
501.918	273.254
505.293	244.695
508.668	248.698
512.042	251.294
515.417	239.213
518.792	214.813
522.167	214.952
525.542	211.707
528.917	212.002
532.291	179.489
535.666	170.063
539.041	205.464
542.416	197.547
545.791	181.624
549.166	163.142
552.54	133.94
555.915	133.621
559.29	145.038
562.665	137.045
566.04	119.75
569.414	117.359
572.789	136.582
576.164	124.947
579.539	127.699
582.914	121.105
586.289	125.476
589.663	117.793
593.038	110.66
596.413	111.64
599.788	104.671
603.162	77.408
606.537	77.64
609.912	96.115
613.287	57.894
616.662	72.406
620.037	58.361
623.411	47.049
626.786	25.363
630.161	28.264
633.536	6.967
636.911	4.508
640.286	7.763
643.66	2.297
647.035	18
650.41	21.638
653.785	13.724
657.16	1.358
660.534	2.194
663.909	8.984
667.284	9.667
670.659	1.534
674.034	21.475
677.409	4.863
680.783	3.549
684.158	16.815
687.533	21.738
690.908	1.484
694.283	18.774
697.657	21.066
701.032	13.562
704.407	14.412
707.782	6.539
711.157	17.671
714.531	15.068
717.906	0.929
721.281	29.569
724.656	8.893
728.031	6.434
731.406	6.758
734.78	14.902
738.155	15.19
741.53	12.094
744.905	24.132
748.28	14.311
751.654	5.692
755.029	4.122
758.404	18.913
761.779	11.517
765.154	7.622
768.529	9.016
771.903	7.337
775.278	10.74
778.653	10.629
782.028	0.232
785.403	13.402
788.778	14.367
792.152	1.575
795.527	9.062
798.902	5.178
802.277	8.707
805.652	5.56
809.026	22.098
812.401	13.097
815.776	21.715
819.151	13.21
822.526	10.337
825.901	20.913
829.275	19.194
832.65	14.249
836.025	15.446
839.4	1.833
842.774	4.338
846.149	16.65
849.524	23.681
852.899	1.801
856.274	9.522
859.649	29.682
863.023	9.13
866.398	22.259
869.773	5.673
873.148	16.463
876.523	3.577
879.898	8.603
883.272	1.429
886.647	15.436
890.022	7.441
893.397	21.993
896.772	34.69
900.146	11.909
903.521	20.727
906.896	23.725
910.271	0.675
913.646	19.783
917.021	2.088
920.395	12.802
923.77	38.984
927.145	14.766
930.52	13.671
933.895	28.901
937.269	20.415
940.644	29.382
944.019	19.476
947.394	36.08
950.769	26.274
954.143	12.464
957.518	6.027
960.893	7.042
964.268	3.987
967.643	17.467
971.018	17.334
974.392	10.603
977.767	30.732
981.142	8.433
984.517	21.305
987.892	14.252
991.266	21.02
994.641	17.746
998.016	14.788
1001.39	3.851
1004.77	23.45
1008.14	17.84
1011.51	13.422
1014.89	32.132
1018.26	17.733
1021.64	28.447
1025.02	7.939
1028.39	6.452
1031.76	11.817
1035.14	8.792
1038.51	11.669
1041.89	6.557
1045.26	5.86
1048.64	36.806
1052.01	23.106
1055.39	27.819
1058.76	18.487
1062.14	30.743
1065.51	12.614
1068.89	4.275
1072.26	8.192
1075.64	3.288
1079.01	12.298
1082.39	21.003
1085.76	12.238
1089.14	23.036
1092.51	23.413
1095.89	15.652
1099.26	44.111
1102.63	11.843
1106.01	9.142
1109.38	7.537
1112.76	9.33
1116.13	15.773
1119.51	20.665
1122.88	24.498
1126.26	29.831
1129.63	13.968
1133.01	15.964
1136.38	37.753
1139.76	13.753
1143.13	0.175
1146.51	20.508
1149.88	3.856
1153.26	14.12
1156.63	5.115
1160.01	16.775
1163.38	16.999
1166.76	17.4
1170.13	21.543
1173.51	10.181
1176.88	11.398
1180.26	8.055
1183.63	9.02
1187.01	14.326
1190.38	8.184
1193.76	10.161
1197.13	42.173
1200.51	33.035
1203.88	23.539
1207.26	16.549
1210.63	1.039
1214	0.328
1217.38	19.302
1220.75	9.153
1224.13	3.953
1227.5	27.086
1230.88	14.017
1234.25	24.926
1237.63	24.129
1241	31.6
1244.38	4.362
1247.75	1.225
1251.13	2.037
1254.5	26.168
1257.88	6.544
1261.25	9.109
1264.63	9.845
1268	2.584
1271.38	0.118
