Measurement: Raman, 785 nm, unoriented, Raman Data Processed
Mineral: Stibnite
Rruff sample: R050066
Ideal chemistry: Sb_2_S_3_
Locality: Wuling, Jiangxi Province, China
Source: Rock Currier
Description: Lead-gray prismatic crystal
Measured chemistry: Sb_2.00_S_3.00_
Raman shift (cm-1)	intensity
117.189	0
120.082	903.17
122.974	834.683
125.867	1901.18
128.76	4968.72
131.652	5787.07
134.545	3431.93
137.438	29.451
140.331	1764.24
143.223	725.289
146.116	2607.74
149.009	7058.99
151.901	11462.8
154.794	14578.6
157.687	12696.5
160.579	7153.27
163.472	5437.64
166.365	6844.37
169.258	9258.81
172.15	11283.6
175.043	13102.6
177.936	15228.8
180.828	18422.7
183.721	24093.4
186.614	33388.1
189.507	44998.9
192.399	53780.2
195.292	56876.2
198.185	57203.3
201.077	56720
203.97	53825.6
206.863	48026.3
209.755	39808.5
212.648	30652
215.541	22661.3
218.434	17156.9
221.326	14361.1
224.219	15034.3
227.112	19281.5
230.004	26997.4
232.897	37278.6
235.79	46445.1
238.682	49328.8
241.575	42641
244.468	30027.1
247.361	18904.3
250.253	12438.3
253.146	10031.3
256.039	9196.61
258.931	8983.94
261.824	9165.93
264.717	11326.7
267.609	17697
270.502	31262.2
273.395	55121.6
276.288	89906.9
279.18	129527
282.073	152386
284.966	135492
287.858	94403.1
290.751	61579
293.644	45581.5
296.536	42044.2
299.429	47459.9
302.322	58200.1
305.215	74031.7
308.107	95789.8
311	118882
313.893	106344
316.785	42459.6
319.678	10170.3
322.571	1108.8
325.463	1411.66
328.356	2042.1
331.249	2103.22
334.142	1781.98
337.034	1281.73
339.927	664.153
342.819	31.405
345.712	694.521
348.605	1395.94
351.498	2037.73
354.39	2654.88
357.283	3203.18
360.176	3669.9
363.069	4049.89
365.961	4380.73
368.854	4664.89
371.747	4985.32
374.639	5278.68
377.532	5594.04
380.425	5871.92
383.317	5949
386.21	5549.79
389.103	4926.1
391.996	4238.27
394.888	3534.68
397.781	2987.45
400.674	2506.49
403.566	2174.96
406.459	1993.1
409.352	1836.76
412.244	1774.48
415.137	1740.73
418.03	1681.28
420.922	1622.32
423.815	1625.15
426.708	1529.22
429.601	1462.21
432.493	1328.78
435.386	1173.55
438.279	1008.62
441.171	867.972
444.064	740.032
446.957	692.397
449.849	604.623
452.742	521.954
455.635	453.664
458.528	397.878
461.42	362.658
464.313	419.29
467.206	349.994
470.098	335.777
472.991	368.688
475.884	284.505
478.776	270.125
481.669	272.057
484.562	286.37
487.455	282.559
490.347	283.771
493.24	359.497
496.133	310.174
499.025	345.22
501.918	343.068
504.811	355.504
507.703	354.865
510.596	400.164
513.489	348.613
516.382	307.168
519.274	280.339
522.167	241.407
525.06	109.371
527.952	48.64
530.845	6.702
533.738	54.292
536.63	108.573
539.523	79.554
542.416	88.321
545.309	113.961
548.201	75.059
551.094	43.504
553.987	37.801
556.879	30.53
559.772	10.784
562.665	15.219
565.557	19.109
568.45	42.426
571.343	7.776
574.236	62.013
577.128	85.748
580.021	167.913
582.914	190.972
585.806	261.082
588.699	275.062
591.592	334.011
594.484	316.996
597.377	295.005
600.27	324.273
603.162	279.284
606.055	242.909
608.948	190.578
611.841	150.817
614.733	138.219
617.626	115.282
620.519	116.467
623.411	130.995
626.304	88.255
629.197	79.115
632.089	67.595
634.982	48.806
637.875	51.901
640.768	17.802
643.66	17.788
646.553	18.121
649.446	0.663
652.338	33.408
655.231	41.98
658.124	84.918
661.016	101.209
663.909	147.608
666.802	177.841
669.695	200.561
672.587	221.544
675.48	212.611
678.373	213.822
681.265	233.421
684.158	186.84
687.051	172.146
689.943	181.077
692.836	169.411
695.729	146.083
698.622	149.495
701.514	133.25
704.407	113.386
707.3	104.989
710.192	103.874
713.085	98.84
715.978	79.817
718.87	84.239
721.763	93.023
724.656	86.66
727.549	113.41
730.441	99.287
733.334	101.613
736.227	99.983
739.119	97.614
742.012	92.345
744.905	90.628
747.797	70.448
750.69	81.441
753.583	88.596
756.476	69.847
759.368	52.699
762.261	67.983
765.154	56.693
768.046	46.185
770.939	50.129
773.832	56.117
776.724	38.45
779.617	20.153
782.51	19.751
785.403	15.742
788.295	18.867
791.188	3.214
794.081	21.655
796.973	4.503
799.866	15.743
802.759	29.873
805.652	32.503
808.544	8.917
811.437	23.794
814.33	36.521
817.222	27.473
820.115	3.813
823.008	9.794
825.901	5.791
828.793	5.997
831.686	0.708
834.579	5.934
837.471	11.752
840.364	17.435
843.257	1.544
846.149	46.287
849.042	10.564
851.935	6.476
854.828	22.492
857.72	10.624
860.613	7.553
863.506	2.985
866.398	6.039
869.291	3.234
872.184	11.186
875.076	21.339
877.969	25.328
880.862	28.083
883.755	38.149
886.647	21.047
889.54	9.412
892.433	10.278
895.325	10.301
898.218	14.281
901.111	0.589
904.003	17.871
906.896	5.558
909.789	14.12
912.682	12.608
915.574	9.639
918.467	38.48
921.36	28.262
924.252	33.861
927.145	16.855
930.038	25.461
932.93	15.009
935.823	29.622
938.716	14.824
941.609	8.689
944.501	10.482
947.394	26.004
950.287	13.903
953.179	17.355
956.072	38.039
958.965	33.856
961.857	32.862
964.75	17.715
967.643	30.779
970.536	21.363
973.428	16.206
976.321	9.677
979.214	12.553
982.106	26.249
984.999	12.191
987.892	35.359
990.784	24.796
993.677	27.109
996.57	36.243
999.463	30.968
1002.36	34.175
1005.25	19.993
1008.14	33.194
1011.03	35.885
1013.93	10.221
1016.82	2.222
1019.71	25.99
1022.6	1.694
1025.5	8.407
1028.39	32.477
1031.28	44.576
1034.17	32.337
1037.07	34.308
1039.96	39.121
1042.85	30.263
1045.75	34.345
1048.64	40.448
1051.53	10.22
1054.42	26.721
1057.32	5.398
1060.21	12.083
1063.1	5.149
1065.99	34.702
1068.89	33.085
1071.78	28.551
1074.67	49.259
1077.57	54.275
1080.46	28.14
1083.35	34.709
1086.24	27.609
1089.14	9.016
1092.03	26.076
1094.92	8.491
1097.81	19.022
1100.71	22.95
1103.6	32.139
1106.49	55.918
1109.38	36.537
1112.28	48.89
1115.17	23.959
1118.06	5.775
1120.96	29.58
1123.85	11.222
1126.74	0.031
1129.63	15.692
1132.53	11.481
1135.42	35.555
1138.31	17.49
1141.2	23.128
1144.1	23.958
1146.99	27.097
1149.88	21.688
1152.78	8.164
1155.67	44.298
1158.56	12.232
1161.45	4.385
1164.35	11.514
1167.24	17.49
1170.13	7.79
1173.02	26.559
1175.92	22.084
1178.81	34.589
1181.7	47.473
1184.6	45.106
1187.49	27.776
1190.38	32.677
1193.27	14.479
1196.17	9.033
1199.06	5.43
1201.95	17.395
1204.84	14.147
1207.74	2.462
1210.63	21.088
1213.52	22.495
1216.41	54.579
1219.31	47.565
1222.2	36.69
1225.09	41.979
1227.99	43.023
1230.88	16.452
1233.77	15.278
1236.66	3.212
1239.56	5.986
1242.45	27.408
1245.34	31.255
1248.23	41.008
1251.13	24.371
1254.02	47.088
1256.91	36.664
1259.81	25.94
1262.7	0.393
1265.59	27.212
1268.48	10.683
1271.38	10.463
