Measurement: Raman, 532 nm, unoriented, Raman Data Processed
Mineral: Stibnite
Rruff sample: R050016
Ideal chemistry: Sb_2_S_3_
Locality: Romania
Source: Eugene Schlepp
Description: Group of lead-gray prismatic crystals
Measured chemistry: (Sb_.996_As_.004_)_2_S_3_
Raman shift (cm-1)	intensity
106.577	0
109.952	771.436
113.327	2232.8
116.702	4006.5
120.076	5499.32
123.451	6191.42
126.826	6668.68
130.201	7269.32
133.576	9204.07
136.951	12737.5
140.325	17358
143.7	19625.8
147.075	16352.4
150.45	12248.4
153.824	9459.99
157.199	7745.09
160.574	6759.44
163.949	6195.97
167.324	5731.08
170.699	5546.97
174.073	5593.86
177.448	6468.9
180.823	8551.61
184.198	11494.3
187.573	13905.1
190.947	10215.4
194.322	5797.72
197.697	4771.62
201.072	4418.95
204.447	4241.22
207.822	4165.79
211.196	4078.15
214.571	4031.06
217.946	4111.06
221.321	4202.41
224.696	4305.54
228.07	4683.57
231.445	5031.56
234.82	5795.44
238.195	7574.72
241.57	11820.5
244.945	17256.4
248.319	21746.1
251.694	21735.9
255.069	12576.9
258.444	8755.17
261.819	6959.63
265.193	6415.06
268.568	6111.46
271.943	5995.23
275.318	5971.66
278.693	5827.45
282.068	5593.59
285.442	5449.92
288.817	5308.95
292.192	5339.19
295.567	5113.35
298.942	4825.37
302.316	4238.27
305.691	3536.39
309.066	2720.12
312.441	2011.97
315.816	1528.14
319.19	1098.85
322.565	876.792
325.94	640.051
329.315	548.542
332.69	405.219
336.065	373.963
339.439	317.553
342.814	383.938
346.189	354.163
349.564	424.981
352.939	366.607
356.313	316.395
359.688	340.401
363.063	602.32
366.438	1042
369.813	1304.24
373.188	1021.89
376.562	507.811
379.937	103.735
383.312	59.047
386.687	102.866
390.062	85.313
393.436	152.237
396.811	157.489
400.186	196.839
403.561	182.382
406.936	170.747
410.31	107.255
413.685	56.059
417.06	0.696
420.435	8.816
423.81	32.36
427.185	135.248
430.559	272.106
433.934	643.056
437.309	1244.83
440.684	2209.57
444.059	3396.24
447.433	4310.66
450.808	3619.42
454.183	2250.03
457.558	1311.44
460.933	771.874
464.307	506.601
467.682	365.929
471.057	290.181
474.432	219.807
477.807	175.952
481.181	136.489
484.556	113.564
487.931	144.283
491.306	97.93
494.681	179.117
498.056	36.656
501.43	96.368
504.805	113.059
508.18	64.562
511.555	69.696
514.93	80.853
518.305	111.404
521.679	74.458
525.054	118.532
528.429	34.946
531.804	37.172
535.179	13.67
538.553	41.125
541.928	53.448
545.303	51.101
548.678	3.442
552.053	36.276
555.427	17.269
558.802	26.937
562.177	208.935
565.552	6.546
568.927	1.504
572.302	5.625
575.676	22.499
579.051	28.614
582.426	34.061
585.801	17.431
589.176	11.873
592.55	12.802
595.925	35.518
599.3	44.152
602.675	16.604
606.05	3.034
609.424	35.705
612.799	16.61
616.174	7.075
619.549	1.666
622.924	35.116
626.299	12.354
629.673	32.242
633.048	12.211
636.423	34.864
639.798	25.311
643.173	53.445
646.547	52.546
649.922	44.234
653.297	3.918
656.672	38.077
660.047	8.456
663.422	16.018
666.796	34.721
670.171	233.137
673.546	44.046
676.921	43.348
680.296	81.651
683.67	157.895
687.045	147.375
690.42	219.27
693.795	338.261
697.17	364.729
700.544	403.602
703.919	442.28
707.294	452.424
710.669	372.34
714.044	260.948
717.419	157.995
720.793	85.702
724.168	104.419
727.543	65.697
730.918	24.146
734.293	38.422
737.667	14.379
741.042	69.925
744.417	57.312
747.792	47.96
751.167	3.807
754.542	36.078
757.916	22.432
761.291	20.045
764.666	12.371
768.041	45.228
771.416	12.439
774.79	12.61
778.165	8.637
781.54	36.729
784.915	0.457
788.29	26.152
791.664	9.881
795.039	43.799
798.414	5.374
801.789	11.679
805.164	9.906
808.539	39.88
811.913	9.993
815.288	5.363
818.663	7.463
822.038	32.203
825.413	10.539
828.787	7.117
832.162	1.116
835.537	8.69
838.912	10.748
842.287	9.005
845.661	24.032
849.036	10.805
852.411	18.6
855.786	29.222
859.161	7.401
862.536	9.04
865.91	1.021
869.285	5.261
872.66	55.588
876.035	33.377
879.41	33.451
882.784	29.164
886.159	100.446
889.534	20.13
892.909	87.339
896.284	26.995
899.659	1.245
903.033	59.452
906.408	58.774
909.783	63.235
913.158	62.942
916.533	35.436
919.907	38.964
923.282	54.104
926.657	44.973
930.032	46.118
933.407	12.927
936.781	51.357
940.156	77.525
943.531	64.622
946.906	12.483
950.281	17.441
953.656	25.387
957.03	34.251
960.405	63.397
963.78	13.77
967.155	22.778
970.53	22.909
973.904	15.87
977.279	17.637
980.654	32.64
984.029	11.498
987.404	52.516
990.779	16.659
994.153	40.858
997.528	59.482
1000.9	12.1
1004.28	35.934
1007.65	17.316
1011.03	32.759
1014.4	7.337
1017.78	0.577
1021.15	39.548
1024.53	42.073
1027.9	65.209
1031.28	41.322
1034.65	33.637
1038.03	85.958
1041.4	53.615
1044.78	37.365
1048.15	53.426
1051.53	45.297
1054.9	30.156
1058.28	56.338
1061.65	128.239
1065.02	66.578
1068.4	101.148
1071.77	52.418
1075.15	34.586
1078.52	45.454
1081.9	36.737
1085.27	65.617
1088.65	55.435
1092.02	6.717
1095.4	77.803
1098.77	42.48
1102.15	19.494
1105.52	66.598
1108.9	54.37
1112.27	46.218
1115.65	15.639
1119.02	54.007
1122.4	37.822
1125.77	16.137
1129.15	11.948
1132.52	8.902
1135.9	37.366
1139.27	9.531
1142.64	49.717
1146.02	25.282
1149.39	57.422
1152.77	37.285
1156.14	29.198
1159.52	21.24
1162.89	2.628
1166.27	14.522
1169.64	17.309
1173.02	22.289
1176.39	34.563
1179.77	87.36
1183.14	39.691
1186.52	38.616
1189.89	0.101
1193.27	43.543
1196.64	18.365
1200.02	37.561
1203.39	2.185
1206.77	12.561
1210.14	42.554
1213.52	39.614
1216.89	2.923
1220.27	12.737
1223.64	8.678
1227.02	8.015
1230.39	44.751
1233.77	23.546
1237.14	32.404
1240.52	1.26
1243.89	66.591
1247.26	82.498
1250.64	59.139
1254.01	18.431
1257.39	13.403
1260.76	31.122
1264.14	20.758
1267.51	36.169
1270.89	60.106
1274.26	50.193
1277.64	52.092
1281.01	13.591
1284.39	29.403
1287.76	15.837
1291.14	34.73
1294.51	4.357
1297.89	53.973
