Measurement: Raman, 532 nm, unoriented, Raman Data Processed
Mineral: Stibiotantalite
Rruff sample: R050599
Ideal chemistry: Sb^3+^TaO_4_
Locality: Shengus, Pakistan
Source: Wayne Thompson
Description: Yellow fragment
Measured chemistry: Sb_1.00_(Ta_0.88_Nb_0.11_)_Î£=1_O_4_
Raman shift (cm-1)	intensity
149.934	0
152.826	9.01502
155.719	55.3386
158.612	205.096
161.504	457.447
164.397	906.422
167.29	1609.39
170.183	2260.13
173.075	1955.23
175.968	1386.53
178.861	1389.08
181.753	1744.64
184.646	2178.88
187.539	2605.29
190.431	3148.33
193.324	3282.34
196.217	2589.39
199.109	1693.72
202.002	1179.86
204.895	970.59
207.788	887.035
210.68	947.75
213.573	1104.52
216.466	1180.13
219.358	1139.77
222.251	1192.05
225.144	1417.74
228.036	1533.91
230.929	1357.64
233.822	1072.41
236.715	926.576
239.607	922.862
242.5	876.399
245.393	605.871
248.286	368.402
251.178	244.987
254.071	199.029
256.964	188.002
259.856	183.103
262.749	128.876
265.642	71.8127
268.534	28.3159
271.427	1.66614
274.32	20.8477
277.212	33.4465
280.105	36.8438
282.998	35.0397
285.891	26.3434
288.783	19.4895
291.676	3.49884
294.569	12.7266
297.461	22.5363
300.354	21.5973
303.247	22.3556
306.14	28.1863
309.032	36.2999
311.925	43.7758
314.818	58.1989
317.71	81.7196
320.603	103.25
323.496	119.044
326.389	127.951
329.281	142.489
332.174	147.858
335.067	148.015
337.959	135.33
340.852	126.14
343.745	106.427
346.637	79.1286
349.53	57.9533
352.423	43.4769
355.315	34.646
358.208	32.4554
361.101	23.275
363.994	24.712
366.886	22.9968
369.779	28.0133
372.672	33.045
375.565	36.5442
378.457	55.0315
381.35	91.9529
384.243	122.621
387.135	149.799
390.028	164.895
392.921	152.503
395.813	136.672
398.706	120.913
401.599	114.849
404.491	108.71
407.384	111.674
410.277	112.652
413.17	118.618
416.062	110.717
418.955	104.584
421.848	99.9394
424.74	90.1024
427.633	90.1723
430.526	97.4647
433.418	112.802
436.311	125.359
439.204	140.253
442.097	154.036
444.989	155.155
447.882	146.483
450.775	137.308
453.667	113.288
456.56	93.6673
459.453	78.1502
462.346	61.081
465.238	55.2492
468.131	35.8586
471.024	34.5513
473.916	24.9093
476.809	13.7254
479.702	8.11182
482.594	3.54938
485.487	1.15826
488.38	6.39313
491.273	7.8172
494.165	9.42114
497.058	6.68829
499.951	6.33398
502.843	0.243164
505.736	2.47266
508.629	0.877808
511.522	5.10083
514.414	0.820129
517.307	1.6676
520.2	6.15735
523.092	2.24078
525.985	2.46082
528.878	7.25415
531.77	18.1925
534.663	31.549
537.556	50.8252
540.448	74.0866
543.341	97.372
546.234	117.916
549.127	129.125
552.019	134.873
554.912	143.298
557.805	152.597
560.697	178.828
563.59	224.775
566.483	299.906
569.376	405.357
572.268	541.877
575.161	716.192
578.054	913.867
580.946	1151.22
583.839	1370.18
586.732	1591.48
589.625	1752.85
592.517	1807.58
595.41	1765.55
598.303	1612.72
601.195	1403.96
604.088	1183.32
606.981	982.425
609.874	798.03
612.766	659.88
615.659	557.472
618.552	474.585
621.444	414.501
624.337	370.416
627.23	341.508
630.122	303.335
633.015	257.07
635.908	212.345
638.801	142.104
641.693	99.6404
644.586	54.0349
647.479	19.7599
650.371	1.46381
653.264	16.9758
656.157	12.2195
659.049	2.29144
661.942	21.9781
664.835	61.1669
667.727	110.064
670.62	151.237
673.513	187.878
676.406	197.051
679.298	188.825
682.191	168.06
685.084	139.766
687.976	109.697
690.869	77.8694
693.762	50.1849
696.654	26.8266
699.547	8.69409
702.44	3.57318
705.333	2.99792
708.225	6.94452
711.118	10.1757
714.011	14.5206
716.904	18.7797
719.796	24.7318
722.689	25.2099
725.582	23.9132
728.474	15.3143
731.367	5.21887
734.26	0.117737
737.152	3.70892
740.045	5.11539
742.938	5.38599
745.831	6.08215
748.723	2.28326
751.616	0.253082
754.509	7.43015
757.401	8.8465
760.294	20.1903
763.187	26.7798
766.08	40.3503
768.972	55.7593
771.865	71.144
774.758	82.6693
777.65	99.1326
780.543	112.47
783.436	115.826
786.328	120.423
789.221	111.301
792.114	106.06
795.006	100.644
797.899	82.8627
800.792	75.2043
803.685	56.7542
806.577	49.7275
809.47	40.7801
812.363	34.2936
815.255	27.3853
818.148	22.022
821.041	22.8583
823.933	14.4128
826.826	19.1998
829.719	15.6447
832.612	15.6627
835.504	12.6757
838.397	11.7533
841.29	13.0368
844.182	14.282
847.075	9.24969
849.968	9.29413
852.861	11.2357
855.753	7.56485
858.646	7.78055
861.539	11.6943
864.431	9.7561
867.324	11.1931
870.217	9.18487
873.11	7.86633
876.002	7.56906
878.895	7.90939
881.788	10.3127
884.68	7.9559
887.573	9.79874
890.466	12.1131
893.358	8.14905
896.251	11.4605
899.144	12.9043
902.037	13.9331
904.929	13.8767
907.822	13.5362
910.715	17.9036
913.607	15.4587
916.5	16.0444
919.393	19.0977
922.285	21.1472
925.178	19.8231
928.071	16.1673
930.964	13.4603
933.856	16.4333
936.749	10.2443
939.642	9.62469
942.534	8.39612
945.427	1.60641
948.32	0.836517
951.212	2.73355
954.105	0.44751
956.998	1.89703
959.891	0.84021
962.783	0.149597
965.676	1.37314
968.569	0.925018
971.461	1.09805
974.354	3.62067
977.247	1.60025
980.139	4.37555
983.032	4.02814
985.925	3.04031
988.818	3.60062
991.71	5.25467
994.603	4.38434
997.496	3.77991
1000.39	6.15494
1003.28	6.68576
1006.17	5.91376
1009.07	3.27087
1011.96	8.56824
1014.85	5.02689
1017.75	6.79443
1020.64	6.79456
1023.53	3.32574
1026.42	7.28912
1029.32	6.44296
1032.21	6.32919
1035.1	7.66293
1037.99	4.39493
1040.89	6.04547
1043.78	4.51032
1046.67	6.03711
1049.56	5.36212
1052.46	8.53146
1055.35	5.112
1058.24	5.5997
1061.13	6.31888
1064.03	3.62698
1066.92	3.45291
1069.81	3.39172
1072.71	3.78909
1075.6	3.75531
1078.49	8.12604
1081.38	4.02005
1084.28	5.72876
1087.17	4.53036
1090.06	2.14179
1092.95	4.40479
1095.85	0.09314
1098.74	6.91333
1101.63	4.74817
1104.53	2.68408
1107.42	5.42435
1110.31	5.26495
1113.2	1.58057
1116.1	4.513
1118.99	4.11536
1121.88	4.38055
1124.78	0.650635
1127.67	0.621155
1130.56	3.14844
1133.45	3.81198
1136.35	4.99423
1139.24	0.844849
1142.13	5.14548
1145.02	4.47955
1147.92	3.47946
1150.81	3.50388
1153.7	4.96957
1156.59	1.79703
1159.49	4.45087
1162.38	1.06415
1165.27	3.11231
1168.16	4.82382
1171.06	4.24686
1173.95	0.656769
1176.84	3.8454
1179.74	1.67578
1182.63	2.12732
1185.52	3.34369
1188.41	4.87079
1191.31	3.8403
1194.2	5.496
1197.09	5.17505
1199.98	3.13208
1202.88	1.71939
1205.77	2.35123
1208.66	1.97174
1211.56	3.37402
1214.45	4.21945
1217.34	1.06583
1220.23	4.16095
1223.13	1.91446
1226.02	1.98325
1228.91	3.92282
1231.81	2.59143
1234.7	0.151642
1237.59	1.88043
1240.48	8.68689
1243.38	0.950073
1246.27	5.68991
1249.16	0.320984
1252.05	8.00314
1254.95	2.74542
1257.84	4.97183
1260.73	4.02066
1263.62	4.35486
1266.52	4.5462
1269.41	4.47589
1272.3	4.53293
1275.19	3.29333
1278.09	4.33432
1280.98	3.44287
1283.87	1.81769
1286.77	3.82001
1289.66	5.95084
1292.55	2.94476
1295.44	0.325531
1298.34	4.5033
1301.23	0.024567
