Measurement: Raman, 780 nm, unoriented, Raman Data Processed
Mineral: Stibiotantalite
Rruff sample: R050232
Ideal chemistry: Sb^3+^TaO_4_
Locality: Himalaya mine, Mesa Grande, San Diego County, California, USA
Source: Marcus Origlieri
Description: Brown crystal fragment
Measured chemistry: lighter and darker phases: Sb_1.00_(Ta_0.72_Nb_0.28_)_Î£=1_O_4_
Raman shift (cm-1)	intensity
98.1389	0
101.032	283.472
103.924	2041.99
106.817	5177.26
109.71	8747.51
112.602	9070.1
115.495	6237.53
118.388	3937.3
121.281	2208.8
124.173	1121.63
127.066	435.421
129.959	3.42871
132.851	212.413
135.744	257.637
138.637	179.02
141.529	95.5996
144.422	618.345
147.315	1384.34
150.208	2184.89
153.1	2985.33
155.993	4062.25
158.886	5835.46
161.778	8434.17
164.671	12378.3
167.564	17279.2
170.456	18382.4
173.349	13731.9
176.242	9907.83
179.135	8705.71
182.027	9443.16
184.92	11600.9
187.813	14746.1
190.705	17606
193.598	16955.8
196.491	12023
199.383	7549.76
202.276	5295.85
205.169	4353.16
208.061	4092.4
210.954	4427.44
213.847	5203.37
216.74	6194.49
219.632	7181.73
222.525	8058.2
225.418	9053.9
228.31	10144.6
231.203	10697.7
234.096	10114.9
236.988	8699.07
239.881	7402.97
242.774	6482.51
245.667	5669.16
248.559	4916.95
251.452	4365.87
254.345	3919.05
257.237	3367.84
260.13	2681.17
263.023	2054.07
265.916	1590.2
268.808	1241.2
271.701	988.551
274.594	761.391
277.486	559.988
280.379	343.833
283.272	158.183
286.164	8.73608
289.057	105.921
291.95	157.345
294.842	157.403
297.735	161.305
300.628	157.754
303.521	123.241
306.413	64.6719
309.306	6.98144
312.199	95.1799
315.091	204.573
317.984	316.382
320.877	394.652
323.769	431.011
326.662	434.18
329.555	426.14
332.448	416.158
335.34	445.023
338.233	504.505
341.126	534.647
344.018	505.036
346.911	449.809
349.804	396.442
352.697	344.02
355.589	262.193
358.482	187.617
361.375	117.821
364.267	79.1475
367.16	64.5698
370.053	70.3624
372.945	110.04
375.838	153.542
378.731	233.718
381.623	321.938
384.516	398.928
387.409	446.169
390.302	450.163
393.194	444.495
396.087	438.863
398.98	452.592
401.872	469.619
404.765	527.446
407.658	596.933
410.55	701.011
413.443	817.903
416.336	934.792
419.229	1020.57
422.121	1118.65
425.014	1290.12
427.907	1513.63
430.799	1804.29
433.692	2075.56
436.585	2295.2
439.478	2417.55
442.37	2463.09
445.263	2356.86
448.156	2125.95
451.048	1809.56
453.941	1448.74
456.834	1115.42
459.726	830.66
462.619	597.97
465.512	419.01
468.404	275.973
471.297	162.102
474.19	86.1814
477.083	29.1746
479.975	22.6028
482.868	46.7954
485.761	57.665
488.653	66.3152
491.546	61.384
494.439	44.7356
497.332	21.6587
500.224	10.4231
503.117	2.19849
506.01	32.2583
508.902	51.0828
511.795	61.3669
514.688	81.8367
517.58	90.8391
520.473	118.263
523.366	125.911
526.259	171.272
529.151	226.061
532.044	285.998
534.937	330.601
537.829	378.926
540.722	405.788
543.615	434.771
546.507	421.979
549.4	387.981
552.293	378.236
555.186	372.619
558.078	414.036
560.971	484.707
563.864	635.509
566.756	869.96
569.649	1204.64
572.542	1675.24
575.434	2244.14
578.327	2964.7
581.22	3842.05
584.112	4805.78
587.005	5897.47
589.898	6832.85
592.79	7573.6
595.683	7896.66
598.576	7756.06
601.469	7146.53
604.361	6338.05
607.254	5461.8
610.147	4647.39
613.039	3945.45
615.932	3330.37
618.825	2882.2
621.717	2475.48
624.61	2157.84
627.503	1863.66
630.396	1543.95
633.288	1199.06
636.181	869.654
639.074	572.052
641.966	321.289
644.859	165.199
647.752	49.9224
650.644	21.291
653.537	21.9468
656.43	51.4119
659.323	162.886
662.215	304.055
665.108	495.349
668.001	710.042
670.893	891.195
673.786	1003.48
676.679	1012.69
679.572	902.674
682.464	743.17
685.357	572.56
688.25	398.036
691.142	236.087
694.035	113.383
696.928	12.1328
699.82	43.6853
702.713	70.2856
705.606	78.2449
708.499	73.2974
711.391	43.7847
714.284	17.7673
717.177	25.8057
720.069	66.856
722.962	73.9653
725.855	70.4036
728.747	62.9889
731.64	57.7886
734.533	74.6183
737.426	75.1333
740.318	88.4624
743.211	109.823
746.104	140.756
748.996	166.539
751.889	208.412
754.782	260.048
757.674	291.314
760.567	344.512
763.46	393.421
766.352	444.138
769.245	519.408
772.138	582.823
775.031	673.043
777.923	749.901
780.816	824.372
783.709	869.277
786.601	897.659
789.494	911.438
792.387	890.732
795.279	895.591
798.172	865.85
801.065	824.86
803.958	765.713
806.85	724.45
809.743	655.44
812.636	586.403
815.528	513.462
818.421	462.212
821.314	415.316
824.207	376.784
827.099	342.109
829.992	306.417
832.885	281.744
835.777	239.565
838.67	208.177
841.563	169.599
844.455	130.399
847.348	103.963
850.241	80.3927
853.134	52.8956
856.026	34.6702
858.919	19.7997
861.812	5.32422
864.704	5.11926
867.597	4.77417
870.49	1.83581
873.382	15.5013
876.275	9.45264
879.168	6.66309
882.061	9.99158
884.953	4.07898
887.846	4.86072
890.739	10.7029
893.631	23.6982
896.524	17.4393
899.417	39.8734
902.309	35.9076
905.202	48.2137
908.095	52.1686
910.987	55.6439
913.88	58.6859
916.773	70.4724
919.666	84.1764
922.558	103.372
925.451	117.054
928.344	153.122
931.236	180.201
934.129	225.603
937.022	291.312
939.914	362.176
942.807	438.452
945.7	515.554
948.593	587.614
951.485	622.267
954.378	630.09
957.271	581.12
960.163	530.255
963.056	444.001
965.949	365.62
968.841	289.466
971.734	216.405
974.627	159.384
977.52	113.371
980.412	78.9483
983.305	53.0262
986.198	40.3421
989.09	20.5963
991.983	13.6064
994.876	9.79785
997.769	7.008
1000.66	2.54645
1003.55	7.04535
1006.45	7.28192
1009.34	5.92462
1012.23	8.59912
1015.12	0.02832
1018.02	4.46094
1020.91	5.22015
1023.8	8.35834
1026.7	15.3714
1029.59	12.4156
1032.48	20.2197
1035.37	27.0947
1038.27	23.7945
1041.16	32.0803
1044.05	36.5993
1046.94	41.8586
1049.84	42.9229
1052.73	47.134
1055.62	46.2819
1058.52	58.6422
1061.41	58.7212
1064.3	52.8881
1067.19	53.6022
1070.09	53.6469
1072.98	53.4449
1075.87	53.7346
1078.76	57.7194
1081.66	58.4359
1084.55	60.1684
1087.44	57.6608
1090.34	65.1959
1093.23	63.4406
1096.12	63.0324
1099.01	66.7777
1101.91	65.6486
1104.8	63.2426
1107.69	72.4393
1110.58	78.8542
1113.48	81.4029
1116.37	76.7243
1119.26	78.3523
1122.15	77.0342
1125.05	77.7806
1127.94	71.9537
1130.83	76.0804
1133.72	61.3768
1136.62	57.1642
1139.51	50.6646
1142.4	49.0503
1145.3	38.9352
1148.19	34.8898
1151.08	34.054
1153.97	25.0117
1156.87	16.0532
1159.76	11.4198
1162.65	5.04346
1165.55	6.08362
1168.44	6.07031
1171.33	3.18237
1174.22	8.23999
1177.12	21.5524
1180.01	37.84
1182.9	41.0782
1185.79	61.3153
1188.69	67.5183
1191.58	80.4957
1194.47	73.3656
1197.37	50.2113
1200.26	41.825
1203.15	44.3212
1206.04	47.1223
1208.94	34.8066
1211.83	13.9321
1214.72	24.1659
1217.61	12.4863
1220.51	0.240723
1223.4	7.48535
