Measurement: Raman, 532 nm, unoriented, Raman Data Processed
Mineral: Stibnite
Rruff sample: R050016
Ideal chemistry: Sb_2_S_3_
Locality: Romania
Source: Eugene Schlepp
Description: Group of lead-gray prismatic crystals
Measured chemistry: (Sb_.996_As_.004_)_2_S_3_
Raman shift (cm-1)	intensity
133.576	0
136.951	16.717
140.326	60.423
143.7	87.884
147.075	112.093
150.45	123.918
153.825	216.444
157.2	252.507
160.574	309.406
163.949	386.9
167.324	439.648
170.699	506.216
174.074	535.202
177.449	559.784
180.823	605.24
184.198	635.842
187.573	637.253
190.948	709.837
194.323	719.706
197.697	755.505
201.072	752.219
204.447	737.065
207.822	693.275
211.197	642.617
214.572	586.136
217.946	510.509
221.321	490.563
224.696	488.47
228.071	499.076
231.445	515.095
234.82	535.934
238.195	508.409
241.57	463.897
244.945	430.442
248.32	397.325
251.694	385.272
255.069	383.583
258.444	389.135
261.819	446.247
265.194	489.776
268.569	596.027
271.943	734.454
275.318	890.477
278.693	951.398
282.068	930.307
285.443	795.398
288.817	677.762
292.192	645.127
295.567	662.269
298.942	717.702
302.317	725.036
305.691	745.185
309.066	655.269
312.441	420.607
315.816	213.483
319.191	110.265
322.565	52.837
325.94	33.166
329.315	13.824
332.69	11.962
336.065	5.508
339.44	7.484
342.814	22.076
346.189	7.741
349.564	11.769
352.939	9.853
356.314	10.551
359.688	8.05
363.063	17.614
366.438	6.588
369.813	20.656
373.188	3.249
376.562	12.409
379.937	5.255
383.312	15.069
386.687	10.98
390.062	0.027
393.437	5.675
396.811	10.768
400.186	5.195
403.561	6.521
406.936	3.83
410.311	0.872
413.685	7.988
417.06	4.379
420.435	1.78
423.81	13.335
427.185	6.739
430.56	10.51
433.934	12.762
437.309	10.138
440.684	19.84
444.059	15.571
447.434	21.622
450.808	13.148
454.183	25.476
457.558	18.81
460.933	20.536
464.308	22.992
467.682	26.181
471.057	19.935
474.432	26.202
477.807	20.219
481.182	14.529
484.556	23.686
487.931	16.376
491.306	24.499
494.681	31.264
498.056	30.002
501.431	20.452
504.805	24.145
508.18	20.004
511.555	18.651
514.93	13.393
518.305	19.696
521.68	18.614
525.054	16.663
528.429	12.946
531.804	8.758
535.179	5.298
538.554	12.229
541.928	19.217
545.303	11.528
548.678	13.668
552.053	16.316
555.428	4.269
558.802	11.63
562.177	10.211
565.552	1.458
568.927	3.487
572.302	4.955
575.677	6.16
579.051	0.878
582.426	10.958
585.801	2.33
589.176	10.71
592.551	9.335
595.925	1.476
599.3	0.889
602.675	4.056
606.05	4.789
609.425	1.79
612.799	1.261
616.174	3.117
619.549	4.703
622.924	1.139
626.299	1.668
629.674	11.907
633.048	0.547
636.423	2.71
639.798	2.979
643.173	5.959
646.548	6.695
649.922	8.042
653.297	6.503
656.672	6.827
660.047	2.517
663.422	2.141
666.797	0.487
670.171	4.671
673.546	6.877
676.921	5.427
680.296	8.33
683.67	3.206
687.045	1.964
690.42	3.358
693.795	0.397
697.17	9.042
700.545	5.204
703.919	11.715
707.294	12.183
710.669	13.504
714.044	7.196
717.419	1.68
720.794	3.084
724.168	2.445
727.543	3.48
730.918	8.854
734.293	4.324
737.667	6.465
741.042	7.703
744.417	2.119
747.792	8.391
751.167	8.389
754.542	3.721
757.916	4.874
761.291	13.649
764.666	9.253
768.041	6.906
771.416	5.83
774.791	6.733
778.165	1.315
781.54	4.537
784.915	4.114
788.29	2.934
791.665	14.183
795.039	5.64
798.414	15.263
801.789	15.222
805.164	10.2
808.539	2.362
811.914	3.333
815.288	8.858
818.663	0.753
822.038	1.332
825.413	7.261
828.787	6.782
832.162	5.862
835.537	15.744
838.912	18.001
842.287	2.376
845.662	6.322
849.036	7.426
852.411	14.282
855.786	6.296
859.161	1.811
862.536	9.375
865.911	5.752
869.285	4.043
872.66	9.433
876.035	9.991
879.41	6.93
882.784	12.258
886.159	11.768
889.534	7.02
892.909	11.024
896.284	15.496
899.659	10.898
903.033	3.275
906.408	2.525
909.783	4.206
913.158	10.826
916.533	5.168
919.907	8.817
923.282	6.152
926.657	17.692
930.032	17.672
933.407	19.836
936.782	5.114
940.156	6.381
943.531	5.402
946.906	0.332
950.281	2.749
953.656	8.947
957.031	7.164
960.405	9.785
963.78	8.033
967.155	3.281
970.53	4.156
973.904	7.681
977.279	9.528
980.654	13.499
984.029	6.286
987.404	0.608
990.779	4.074
994.153	6.395
997.528	7.35
1000.9	10.352
1004.28	14.286
1007.65	15.956
1011.03	11.28
1014.4	5.594
1017.78	18.432
1021.15	2.879
1024.53	4.424
1027.9	6.871
1031.28	9.085
1034.65	9.181
1038.03	5.551
1041.4	17.78
1044.78	10.062
1048.15	0.592
1051.53	2.339
1054.9	10.762
1058.28	21.91
1061.65	6.71
1065.03	5.665
1068.4	14.915
1071.77	19.065
1075.15	6.076
1078.52	12.962
1081.9	20.395
1085.27	8.3
1088.65	20.067
1092.02	5.171
1095.4	8.661
1098.77	6.914
1102.15	8.705
1105.52	3.928
1108.9	4.829
1112.27	18.713
1115.65	1.341
1119.02	15.524
1122.4	5.599
1125.77	5.637
1129.15	5.104
1132.52	6.055
1135.9	12.152
1139.27	3.216
1142.64	9.231
1146.02	14.547
1149.39	20.498
1152.77	8.328
1156.14	11.606
1159.52	11.897
1162.89	5.85
1166.27	20.197
1169.64	15.534
1173.02	14.84
1176.39	16.741
1179.77	19.542
1183.14	13.328
1186.52	15.885
1189.89	22.485
1193.27	18.478
1196.64	17.773
1200.02	17.006
1203.39	12.226
1206.77	16.15
1210.14	2.365
1213.52	5.524
1216.89	1.947
1220.27	3.162
1223.64	14.446
1227.02	0.873
1230.39	9.977
1233.77	10.786
1237.14	19.739
1240.52	20.454
1243.89	10.334
1247.26	7.193
1250.64	3.745
1254.01	9.176
1257.39	1.887
1260.76	10.532
1264.14	5.537
1267.51	8.48
1270.89	9.519
1274.26	19.322
1277.64	11.447
1281.01	14.19
1284.39	11.127
1287.76	5.365
1291.14	0.295
1294.51	10.536
1297.89	11.607
