Measurement: Raman, 532 nm, unoriented, Raman Data Processed
Mineral: Stibiotantalite
Rruff sample: R050232
Ideal chemistry: Sb^3+^TaO_4_
Locality: Himalaya mine, Mesa Grande, San Diego County, California, USA
Source: Marcus Origlieri
Description: Brown crystal fragment
Measured chemistry: lighter and darker phases: Sb_1.00_(Ta_0.72_Nb_0.28_)_Î£=1_O_4_
Raman shift (cm-1)	intensity
100.978	0
103.871	25.6516
106.763	419.118
109.656	1117.56
112.549	1704.96
115.441	2023.45
118.334	1734.46
121.227	1257.61
124.119	644.546
127.012	142.438
129.905	83.5776
132.798	46.8965
135.69	95.0601
138.583	184.395
141.476	202.721
144.368	46.542
147.261	612.511
150.154	1576.15
153.046	2689.69
155.939	3884.23
158.832	5436.44
161.725	7561
164.617	10931.7
167.51	15274.5
170.403	17558.1
173.295	14221
176.188	10428.1
179.081	9196.26
181.973	9809.49
184.866	11787.5
187.759	14052.3
190.651	14913.2
193.544	13459.1
196.437	10264.8
199.33	7602.28
202.222	6895.97
205.115	7531.37
208.008	9023.91
210.9	11453.4
213.793	14621.6
216.686	18129
219.578	21176
222.471	23824.6
225.364	26491
228.257	29615.3
231.149	31325.7
234.042	29615.3
236.935	24949
239.827	20281.2
242.72	16677.2
245.613	14169.5
248.506	12679.7
251.398	11853.7
254.291	11089.5
257.184	9732.48
260.076	7851.93
262.969	5971.19
265.862	4556.45
268.754	3494.86
271.647	2645.34
274.54	1947.62
277.433	1357.61
280.325	824.142
283.218	424.037
286.111	105.005
289.003	137.871
291.896	194.637
294.789	259.27
297.681	266.928
300.574	229.057
303.467	208.976
306.36	138.756
309.252	42.4187
312.145	110.724
315.038	257.479
317.93	408.228
320.823	531.972
323.716	586.932
326.608	592.098
329.501	570.165
332.394	557.184
335.286	587.963
338.179	675.34
341.072	711.041
343.965	727.594
346.857	733.036
349.75	704.986
352.643	657.585
355.535	582.63
358.428	486.804
361.321	392.295
364.214	300.792
367.106	245.142
369.999	204.825
372.892	225.714
375.784	245.672
378.677	284.026
381.57	366.203
384.462	451.493
387.355	506.107
390.248	502.232
393.14	498.027
396.033	485.237
398.926	501.039
401.819	520.236
404.711	526.165
407.604	574.173
410.497	631.371
413.389	727.622
416.282	814.294
419.175	901.729
422.067	992.625
424.96	1150.17
427.853	1385.28
430.746	1702.69
433.638	2038.9
436.531	2358.75
439.424	2610.25
442.316	2819.76
445.209	2882.47
448.102	2793.31
450.994	2503.39
453.887	2092.69
456.78	1686.55
459.673	1353.43
462.565	1030.81
465.458	805.811
468.351	630.661
471.243	472.033
474.136	367.141
477.029	256.101
479.921	165.975
482.814	80.8769
485.707	2.70166
488.599	72.7156
491.492	101.616
494.385	112.195
497.278	132.48
500.17	119.217
503.063	88.5891
505.956	29.1948
508.848	1.24365
511.741	28.6157
514.634	86.8599
517.527	140.935
520.419	177.221
523.312	244.831
526.205	300.134
529.097	382.032
531.99	506.698
534.883	636.942
537.775	740.68
540.668	900.569
543.561	978.989
546.454	1023.35
549.346	1042.79
552.239	1056.56
555.132	1115.1
558.024	1277.85
560.917	1569.46
563.81	2030.19
566.702	2690.75
569.595	3576.68
572.488	4666.79
575.381	6030.19
578.273	7706.44
581.166	9615.32
584.059	11674.3
586.951	13707
589.844	15713.2
592.737	16958.1
595.629	17409.5
598.522	16865.2
601.415	15579.3
604.308	13849.5
607.2	11998
610.093	10242.4
612.986	8767.55
615.878	7461.92
618.771	6406.15
621.664	5513.92
624.556	4778.45
627.449	4036.48
630.342	3292.22
633.235	2543.42
636.127	1834.7
639.02	1229.78
641.913	708.521
644.805	354.963
647.698	76.8106
650.591	41.9614
653.483	74.8169
656.376	19.6514
659.269	199.688
662.162	533.373
665.054	875.465
667.947	1282.06
670.84	1648.64
673.732	1847.17
676.625	1862.33
679.518	1662.93
682.41	1357
685.303	1060.13
688.196	744.823
691.088	469.868
693.981	273.547
696.874	120.969
699.767	9.81226
702.659	69.772
705.552	98.4504
708.445	86.2627
711.337	78.575
714.23	58.9275
717.123	33.073
720.015	10.2483
722.908	36.7693
725.801	63.9522
728.694	35.8074
731.586	33.9841
734.479	42.5374
737.372	52.3242
740.264	82.8108
743.157	125.855
746.05	184.547
748.942	230.102
751.835	320.715
754.728	401.418
757.621	514.378
760.513	660.692
763.406	779.335
766.299	911.208
769.191	1078.56
772.084	1217.45
774.977	1330.9
777.87	1412.78
780.762	1433.33
783.655	1418.57
786.548	1362.1
789.44	1238.36
792.333	1088.16
795.226	958.505
798.118	800.945
801.011	678.653
803.904	568.755
806.796	478.265
809.689	395.282
812.582	332.005
815.475	283.664
818.367	252.676
821.26	193.841
824.153	158.565
827.045	140.459
829.938	126.111
832.831	103.678
835.723	80.3555
838.616	75.015
841.509	65.5579
844.402	60.8636
847.294	53.3679
850.187	27.6152
853.08	35.324
855.972	36.1453
858.865	32.7931
861.758	37.9285
864.65	49.5852
867.543	32.0182
870.436	43.4299
873.329	56.536
876.221	70.9597
879.114	83.2632
882.007	83.4594
884.899	101.455
887.792	129.252
890.685	132.708
893.577	150.414
896.47	172.326
899.363	177.961
902.256	179.041
905.148	178.404
908.041	181.047
910.934	156.353
913.826	157.675
916.719	154.747
919.612	141.743
922.505	128.194
925.397	109.153
928.29	101.154
931.183	84.72
934.075	57.9946
936.968	37.7024
939.861	30.9089
942.753	15.6987
945.646	3.3197
948.539	7.13818
951.432	11.5378
954.324	11.7993
957.217	14.7305
960.11	6.42419
963.002	12.5132
965.895	0.699829
968.788	10.5072
971.68	0.375427
974.573	9.50549
977.466	9.34357
980.359	8.85712
983.251	19.3044
986.144	20.9405
989.037	31.0866
991.929	30.0135
994.822	29.5904
997.715	39.843
1000.61	36.4253
1003.5	46.3088
1006.39	46.855
1009.28	47.169
1012.18	53.7082
1015.07	46.6489
1017.96	41.1716
1020.86	43.1425
1023.75	44.7216
1026.64	39.2028
1029.53	40.6046
1032.43	32.21
1035.32	35.0454
1038.21	27.1691
1041.11	36.0995
1044	31.8239
1046.89	23.4246
1049.78	18.4234
1052.68	21.4081
1055.57	21.1309
1058.46	22.7664
1061.35	16.9683
1064.25	12.8677
1067.14	21.166
1070.03	14.5203
1072.92	14.5373
1075.82	12.1428
1078.71	11.471
1081.6	9.841
1084.5	7.76718
1087.39	12.2944
1090.28	8.9444
1093.17	11.1558
1096.07	12.789
1098.96	16.5738
1101.85	15.5253
1104.74	8.70645
1107.64	9.84546
1110.53	7.32202
1113.42	11.8547
1116.32	9.90576
1119.21	2.366
1122.1	11.8281
1124.99	4.89346
1127.89	8.3273
1130.78	9.39041
1133.67	2.11041
1136.56	2.0643
1139.46	1.00046
1142.35	4.14807
1145.24	1.35043
1148.13	4.12558
1151.03	3.36374
1153.92	7.51328
1156.81	7.18106
1159.71	6.09357
1162.6	7.39514
1165.49	6.71481
1168.38	9.2085
1171.28	8.13425
1174.17	2.36169
1177.06	13.0249
1179.95	7.4176
1182.85	12.5561
1185.74	7.62466
1188.63	7.50742
1191.53	2.54303
1194.42	3.40717
1197.31	4.66653
1200.2	10.0369
1203.1	3.93018
1205.99	0.923309
1208.88	11.0942
1211.77	10.6148
1214.67	5.95453
1217.56	7.6019
1220.45	0.785706
1223.35	0
