Measurement: Raman, 532 nm, unoriented, Raman Data Processed
Mineral: Stibnite
Rruff sample: R050066
Ideal chemistry: Sb_2_S_3_
Locality: Wuling, Jiangxi Province, China
Source: Rock Currier
Description: Lead-gray prismatic crystal
Measured chemistry: Sb_2.00_S_3.00_
Raman shift (cm-1)	intensity
103.683	0
107.058	73.231
110.433	926.503
113.808	2958.08
117.183	6281.24
120.558	8441.6
123.932	9110.63
127.307	8914.26
130.682	9267.17
134.057	11178.4
137.432	14694.8
140.806	18574.8
144.181	19888.6
147.556	16801.4
150.931	13068.4
154.306	10268
157.68	8215.67
161.055	7286.6
164.43	6423.23
167.805	5519.37
171.18	4956.06
174.555	5128.97
177.929	6821.92
181.304	10596.5
184.679	15378.5
188.054	22370.1
191.429	9135.88
194.803	3143.26
198.178	1488.69
201.553	733.41
204.928	419.189
208.303	265.939
211.678	135.928
215.052	204.004
218.427	168.125
221.802	142.801
225.177	69
228.552	270.775
231.926	990.539
235.301	2402.47
238.676	5641.43
242.051	13425.1
245.426	23569.5
248.801	35934.5
252.176	36680.7
255.55	14036.5
258.925	5760.09
262.3	3583.14
265.675	3307.7
269.05	3230.11
272.424	2896.84
275.799	2985.66
279.174	3137.23
282.549	3291.7
285.924	3640.7
289.298	3715.52
292.673	3801.8
296.048	3679.18
299.423	3201.21
302.798	2853.67
306.172	2051.39
309.547	1493.81
312.922	843.826
316.297	296.49
319.672	21.283
323.047	272.854
326.422	151.209
329.796	30.025
333.171	84.768
336.546	115.617
339.921	303.947
343.296	430.832
346.67	697.338
350.045	822.332
353.42	916.266
356.795	1064.42
360.17	1194.95
363.544	1700.67
366.919	2566.68
370.294	3060.11
373.669	2510.5
377.044	1547.34
380.419	981.754
383.793	577.037
387.168	541.984
390.543	372.422
393.918	261.625
397.293	149.244
400.668	160.078
404.042	97.76
407.417	118.547
410.792	88.451
414.167	161.59
417.542	413.652
420.916	381.289
424.291	480.893
427.666	521.613
431.041	860.402
434.416	1619
437.79	2579.31
441.165	4247.05
444.54	6095.41
447.915	7058.15
451.29	5876.6
454.665	3236.42
458.039	2151.9
461.414	1141.38
464.789	865.613
468.164	618.83
471.539	644.852
474.914	405.025
478.288	311.27
481.663	315.912
485.038	446.27
488.413	521.193
491.788	333.105
495.162	130.684
498.537	33.734
501.912	45.865
505.287	217.93
508.662	14.262
512.036	21.551
515.411	2.82
518.786	0.49
522.161	267.844
525.536	199.775
528.911	195.848
532.286	103.436
535.66	23.295
539.035	65.314
542.41	47.533
545.785	158.32
549.159	158.223
552.534	73.107
555.909	85.654
559.284	37.855
562.659	46.973
566.034	132.789
569.408	125.365
572.783	273.359
576.158	234.463
579.533	66.223
582.908	101.1
586.282	262.127
589.657	220.488
593.032	189.074
596.407	153.559
599.782	127.889
603.157	99.207
606.531	249.004
609.906	279.414
613.281	373.303
616.656	263.566
620.031	174.049
623.406	380.705
626.78	427.227
630.155	344.277
633.53	241.881
636.905	132.432
640.28	112.344
643.654	42.1
647.029	5.676
650.404	181.645
653.779	198.818
657.154	180.131
660.529	94.918
663.903	151.133
667.278	178.67
670.653	166.432
674.028	243.793
677.403	150.133
680.778	205.602
684.152	343.074
687.527	502.52
690.902	547.502
694.277	737.348
697.652	849.768
701.026	826.943
704.401	766.939
707.776	631.373
711.151	571.812
714.526	357.479
717.901	299.633
721.275	212.307
724.65	157.957
728.025	53.635
731.4	220.949
734.775	183.178
738.149	99.445
741.524	5.555
744.899	182.105
748.274	305.984
751.649	467.758
755.023	123.254
758.398	211.727
761.773	71.598
765.148	79.891
768.523	127.355
771.898	267.398
775.272	134.027
778.647	200.055
782.022	127.266
785.397	43.652
788.772	130.688
792.146	166
795.521	225.719
798.896	104.574
802.271	51.824
805.646	124.59
809.021	103.359
812.395	42.012
815.77	24.793
819.145	7.988
822.52	9.578
825.895	162.918
829.269	204.441
832.644	201.922
836.019	18.852
839.394	104.07
842.769	166.855
846.144	8.168
849.518	112.352
852.893	51.336
856.268	153.625
859.643	175.207
863.018	259.02
866.393	287.113
869.767	137.324
873.142	98.785
876.517	91.883
879.892	309.848
883.267	271.543
886.641	284.223
890.016	272.207
893.391	429.367
896.766	544.137
900.141	418.133
903.516	284.551
906.89	241.945
910.265	228.219
913.64	181.5
917.015	31.922
920.39	52.438
923.764	319.402
927.139	405.219
930.514	360.719
933.889	269.594
937.264	252.984
940.638	338.027
944.013	234.258
947.388	146.512
950.763	34.359
954.138	38.996
957.513	143.281
960.888	68.012
964.262	21.598
967.637	95.492
971.012	5.477
974.387	48.336
977.761	241.566
981.136	224.832
984.511	88.133
987.886	26.289
991.261	73.145
994.636	32.578
998.01	68.68
1001.38	119.324
1004.76	139.078
1008.13	69.969
1011.51	48.32
1014.88	114.98
1018.26	69.723
1021.63	241.273
1025.01	96.355
1028.38	413.414
1031.76	230.34
1035.13	356.25
1038.51	350.512
1041.88	286.723
1045.26	112.594
1048.63	198.145
1052.01	178.348
1055.38	289.312
1058.76	442.566
1062.13	278.617
1065.51	183.012
1068.88	34.277
1072.26	71.086
1075.63	303.336
1079.01	1.582
1082.38	47.234
1085.76	222.184
1089.13	182.309
1092.51	54.172
1095.88	281
1099.26	405.969
1102.63	334.738
1106.01	236.504
1109.38	315.113
1112.75	111.746
1116.13	175.281
1119.5	139.641
1122.88	82.051
1126.25	219.371
1129.63	105.668
1133	226.633
1136.38	343.668
1139.75	438.723
1143.13	376.188
1146.5	222.469
1149.88	179.262
1153.25	217.488
1156.63	326.637
1160	353.09
1163.38	244.672
1166.75	266.738
1170.13	184.434
1173.5	207.906
1176.88	293.133
1180.25	384.988
1183.62	407.176
1187	278.812
1190.38	108.262
1193.75	77.305
1197.12	33.672
1200.5	104.66
1203.87	17.398
1207.25	146.832
1210.62	21.215
1214	88.125
1217.37	38.359
1220.75	73.805
1224.12	26.777
1227.5	221.633
1230.87	298.379
1234.25	291.008
1237.62	332.125
1241	393.824
1244.37	391.152
1247.75	594.031
1251.12	565.457
1254.5	163.898
1257.87	313.566
1261.25	438.184
1264.62	405.355
1268	347.441
1271.37	331.023
1274.75	323.895
1278.12	313.125
1281.49	253.66
1284.87	220.703
1288.24	336.324
1291.62	366.48
1294.99	122.027
1298.37	119.961
1301.74	0
