Measurement: Raman, 780 nm, unoriented, Raman Data Processed
Mineral: Stibiotantalite
Rruff sample: R050599
Ideal chemistry: Sb^3+^TaO_4_
Locality: Shengus, Pakistan
Source: Wayne Thompson
Description: Yellow fragment
Measured chemistry: Sb_1.00_(Ta_0.88_Nb_0.11_)_Î£=1_O_4_
Raman shift (cm-1)	intensity
149.437	0
152.33	8.74011
155.223	83.1034
158.115	387.338
161.008	962.483
163.901	1968.06
166.793	3485.48
169.686	4284.98
172.579	2971.94
175.472	1882.14
178.364	1843.56
181.257	2219.26
184.15	2064.83
187.042	1783.96
189.935	1974.37
192.828	2060.42
195.72	1751.08
198.613	1485.79
201.506	1490.74
204.399	1663.57
207.291	1943.81
210.184	2400.79
213.077	2874.62
215.969	3022.33
218.862	3093.78
221.755	3607.71
224.647	4419.75
227.54	4572.66
230.433	3773.67
233.326	2834.2
236.218	2304.01
239.111	2189.91
242.004	1850.84
244.896	1269.02
247.789	856.715
250.682	625.906
253.574	532.79
256.467	516.083
259.36	428.734
262.252	280.122
265.145	125.652
268.038	36.6089
270.931	21.5315
273.823	45.6951
276.716	65.1718
279.609	63.3819
282.501	45.5717
285.394	29.6008
288.287	3.77008
291.18	38.6371
294.072	66.8885
296.965	80.977
299.858	78.9876
302.75	62.431
305.643	57.9134
308.536	58.2925
311.428	63.8828
314.321	82.3226
317.214	115.49
320.106	151.586
322.999	184.416
325.892	208.244
328.784	220.112
331.677	213.688
334.57	202.335
337.463	189.693
340.355	175.707
343.248	150.771
346.141	110.981
349.033	89.1422
351.926	76.3314
354.819	67.4587
357.712	57.1213
360.604	44.6725
363.497	41.6157
366.39	41.9966
369.282	33.0695
372.175	17.8247
375.068	0.788452
377.96	0.613556
380.853	7.6405
383.746	23.7995
386.639	41.2804
389.531	47.6408
392.424	48.9995
395.317	49.733
398.209	52.2045
401.102	57.1109
403.995	70.3907
406.887	92.197
409.78	116.296
412.673	127.428
415.565	131.072
418.458	127.997
421.351	119.239
424.244	100.228
427.136	104.021
430.029	117.516
432.922	142.343
435.814	166.53
438.707	199.03
441.6	221.674
444.493	241.555
447.385	245.076
450.278	227.402
453.171	188.773
456.063	154.858
458.956	123.453
461.849	97.0216
464.741	74.8683
467.634	47.5949
470.527	36.1605
473.42	24.8339
476.312	16.0604
479.205	3.27622
482.098	4.50534
484.99	7.32806
487.883	12.3331
490.776	12.3961
493.668	17.6796
496.561	8.08893
499.454	5.93332
502.346	0.043549
505.239	6.26337
508.132	7.1369
511.024	13.3133
513.917	9.86676
516.81	7.49518
519.703	5.83313
522.595	8.09198
525.488	12.852
528.381	28.0585
531.273	45.3087
534.166	63.6457
537.059	91.6259
539.952	116.107
542.844	138.471
545.737	163.871
548.63	178.168
551.522	183.475
554.415	189.593
557.308	188.487
560.2	207.783
563.093	242.672
565.986	306.223
568.879	403.02
571.771	533.092
574.664	688.348
577.557	869.948
580.449	1079.46
583.342	1289.5
586.235	1503.37
589.127	1644.24
592.02	1676.07
594.913	1621.36
597.806	1465.65
600.698	1261.48
603.591	1054
606.484	858.148
609.376	684.453
612.269	557.143
615.162	461.802
618.054	392.704
620.947	339.148
623.84	304.661
626.732	276.145
629.625	254.461
632.518	216.827
635.41	180.223
638.303	129.511
641.196	85.2704
644.089	47.9455
646.981	21.51
649.874	0.872375
652.767	6.35602
655.659	10.635
658.552	3.68561
661.445	15.4175
664.337	40.8729
667.23	75.4165
670.123	108.833
673.016	134.1
675.908	135.058
678.801	124.157
681.694	104.836
684.586	79.5919
687.479	58.0059
690.372	33.3436
693.264	14.6718
696.157	0.565155
699.05	4.76828
701.943	7.4375
704.835	10.2354
707.728	6.82575
710.621	0.206177
713.513	3.91431
716.406	8.88599
719.299	23.6022
722.192	20.7207
725.084	18.1262
727.977	11.1556
730.87	10.4327
733.762	6.23938
736.655	1.85852
739.548	5.16367
742.44	2.31964
745.333	3.29294
748.226	10.9216
751.119	15.2828
754.011	14.4759
756.904	21.559
759.797	22.9987
762.689	27.6039
765.582	32.4023
768.475	42.5955
771.367	51.0228
774.26	60.8865
777.153	71.6131
780.045	78.2787
782.938	82.67
785.831	81.807
788.724	76.1335
791.616	75.7153
794.509	66.1086
797.402	58.5783
800.294	46.0102
803.187	41.1181
806.08	33.7706
808.972	28.7719
811.865	26.985
814.758	22.3807
817.65	16.5649
820.543	15.4259
823.436	14.8286
826.329	11.2487
829.221	7.58861
832.114	11.1946
835.007	7.04254
837.899	6.21201
840.792	6.2229
843.685	5.20441
846.577	5.07242
849.47	4.70367
852.363	3.50227
855.256	2.22263
858.148	1.57547
861.041	2.39122
863.934	0.781952
866.826	0.752426
869.719	3.0421
872.612	0.912811
875.505	2.4443
878.397	1.67528
881.29	0.948212
884.183	3.39127
887.075	4.84146
889.968	1.63522
892.861	3.86822
895.753	6.084
898.646	6.63103
901.539	5.53005
904.432	6.30724
907.324	6.22829
910.217	8.82767
913.11	9.22948
916.002	9.20766
918.895	11.9381
921.788	9.65132
924.68	10.4879
927.573	10.7174
930.466	8.23889
933.359	12.073
936.251	7.15538
939.144	2.58629
942.037	4.54329
944.929	2.35792
947.822	1.39412
950.715	0.701355
953.607	0.219421
956.5	0.379211
959.393	1.14052
962.285	3.23003
965.178	0.441803
968.071	1.56322
970.963	0.224182
973.856	5.73122
976.749	0.23671
979.642	1.18422
982.534	1.49361
985.427	0.130341
988.32	0.753372
991.212	2.05103
994.105	3.19737
996.998	2.97237
999.89	3.60904
1002.78	4.64368
1005.68	1.95169
1008.57	2.2542
1011.46	2.90407
1014.35	4.2885
1017.25	10.8673
1020.14	7.3465
1023.03	4.86053
1025.92	3.67918
1028.82	3.13336
1031.71	5.28345
1034.6	3.24329
1037.5	3.48885
1040.39	6.07355
1043.28	5.46086
1046.17	2.70778
1049.07	5.56661
1051.96	5.05472
1054.85	3.42575
1057.74	0.639679
1060.64	4.37111
1063.53	2.60953
1066.42	4.56816
1069.32	2.69792
1072.21	3.4266
1075.1	1.72484
1077.99	1.11262
1080.89	0.936356
1083.78	4.01689
1086.67	3.83392
1089.56	4.17992
1092.46	1.36737
1095.35	5.42452
1098.24	3.56535
1101.13	3.33502
1104.03	2.47337
1106.92	1.4812
1109.81	4.56412
1112.71	1.35941
1115.6	0.279266
1118.49	2.84787
1121.38	3.66881
1124.28	2.4751
1127.17	0.880493
1130.06	3.87335
1132.95	1.95046
1135.85	0.149185
1138.74	3.16457
1141.63	3.25586
1144.53	1.03619
1147.42	4.87674
1150.31	2.0502
1153.2	3.56851
1156.1	3.24719
1158.99	0.404465
1161.88	1.43628
1164.77	8.27582
1167.67	2.52901
1170.56	0.455261
1173.45	3.95334
1176.35	1.01462
1179.24	0.955032
1182.13	2.15076
1185.02	5.30516
1187.92	3.03197
1190.81	1.89972
1193.7	2.36818
1196.59	3.52251
1199.49	2.00186
1202.38	1.08518
1205.27	1.85695
1208.16	0.980423
1211.06	1.04137
1213.95	0.914047
1216.84	2.23511
1219.74	2.10632
1222.63	0.20932
1225.52	4.40132
1228.41	3.68414
1231.31	2.51454
1234.2	0.197678
1237.09	3.53189
1239.98	0.498795
1242.88	1.54111
1245.77	2.26503
1248.66	3.45811
1251.56	3.85017
1254.45	1.74206
1257.34	2.41802
1260.23	2.59553
1263.13	5.64203
1266.02	5.22096
1268.91	1.82321
1271.8	1.14444
1274.7	5.64859
1277.59	1.3858
1280.48	3.48799
1283.38	0.649231
1286.27	0
