Measurement: Raman, 785 nm, unoriented, Raman Data Processed
Mineral: Stibnite
Rruff sample: R050016
Ideal chemistry: Sb_2_S_3_
Locality: Romania
Source: Eugene Schlepp
Description: Group of lead-gray prismatic crystals
Measured chemistry: (Sb_.996_As_.004_)_2_S_3_
Raman shift (cm-1)	intensity
90.19	0
93.565	10.099
96.94	7.523
100.315	3.359
103.69	40.759
107.064	150.346
110.439	375.787
113.814	537.125
117.189	685.828
120.564	732.792
123.939	64.814
127.313	1972.04
130.688	2816.02
134.063	2466.95
137.438	2081.47
140.813	2855.84
144.188	5332.75
147.562	8669.68
150.937	11919.8
154.312	14390
157.687	14502.1
161.062	12432.3
164.436	12957.7
167.811	14799.9
171.186	16650.3
174.561	18494.2
177.936	20723.5
181.311	23961.5
184.685	29333.2
188.06	37048.3
191.435	44024.4
194.81	46212.2
198.185	45667.5
201.559	45196.9
204.934	43573.9
208.309	40108.3
211.684	35471.7
215.059	30818.8
218.434	27534.5
221.808	25967.9
225.183	26535.8
228.558	29264.4
231.933	34280.7
235.307	40277.8
238.682	43279
242.057	39988.4
245.432	33119.8
248.807	27513.3
252.182	24932.3
255.556	24285.8
258.931	23672.8
262.306	23597.9
265.681	24890.9
269.056	30199.5
272.431	41695.9
275.805	61276.9
279.18	83585.2
282.555	93357.6
285.93	75805.2
289.305	52211.6
292.679	39170.9
296.054	36954
299.429	41566.8
302.804	48821.4
306.179	58889.1
309.553	71581.7
312.928	71525.1
316.303	31882.3
319.678	9711.85
323.053	3883.49
326.428	1918.65
329.802	940.618
333.177	324.746
336.552	39.636
339.927	166.882
343.302	254.067
346.677	253.42
350.051	269.704
353.426	212.126
356.801	236.602
360.176	290.658
363.551	318.397
366.925	369.158
370.3	420.825
373.675	396.294
377.05	414.788
380.425	384.794
383.799	402.14
387.174	343.488
390.549	373.931
393.924	359.13
397.299	352.677
400.674	330.341
404.048	342.617
407.423	303.833
410.798	235.091
414.173	172.752
417.548	105.623
420.922	30.444
424.297	30.168
427.672	92.325
431.047	152.057
434.422	177.442
437.797	208.876
441.171	270.679
444.546	298.157
447.921	385.71
451.296	405.552
454.671	446.566
458.045	508.049
461.42	547.474
464.795	605.59
468.17	644.921
471.545	703.827
474.919	700.101
478.294	738.764
481.669	761.354
485.044	793.763
488.419	821.954
491.794	854.025
495.168	864.173
498.543	890.144
501.918	884.158
505.293	913.06
508.668	910.696
512.042	900.457
515.417	895.119
518.792	858.357
522.167	843.877
525.542	766.728
528.917	729.255
532.291	693.951
535.666	630.884
539.041	659.146
542.416	652.106
545.791	584.051
549.166	587.31
552.54	576.087
555.915	566.782
559.29	549.751
562.665	516.125
566.04	478.932
569.414	463.761
572.789	463.438
576.164	480.204
579.539	485.436
582.914	450.43
586.289	464.251
589.663	477.825
593.038	422.152
596.413	428.934
599.788	358.601
603.162	340.143
606.537	301.088
609.912	255.443
613.287	203.799
616.662	188.498
620.037	163.661
623.411	124.115
626.786	88.573
630.161	52.632
633.536	56.006
636.911	17.355
640.286	17.005
643.66	37.245
647.035	49.38
650.41	64.104
653.785	54.988
657.16	53.432
660.534	46.123
663.909	24.562
667.284	22.093
670.659	12.231
674.034	21.639
677.409	19.318
680.783	28.448
684.158	51.457
687.533	57.793
690.908	61.947
694.283	82.978
697.657	65.133
701.032	63.201
704.407	73.889
707.782	59.792
711.157	56.114
714.531	48.72
717.906	38.857
721.281	41.025
724.656	38.789
728.031	28.855
731.406	23.393
734.78	15.023
738.155	9.752
741.53	5.524
744.905	3.569
748.28	6.799
751.654	19.143
755.029	4.123
758.404	1.54
761.779	0.956
765.154	0.734
768.529	7.513
771.903	2.347
775.278	1.503
778.653	9.054
782.028	1.878
785.403	1.422
788.778	6.033
792.152	5.208
795.527	0.643
798.902	1.766
802.277	1.4
805.652	5.432
809.026	11.192
812.401	1.056
815.776	7.764
819.151	8.399
822.526	0.154
825.901	2.637
829.275	7.018
832.65	5.873
836.025	3.891
839.4	6.674
842.774	5.718
846.149	7.065
849.524	11.996
852.899	2.33
856.274	2.753
859.649	9.504
863.023	2.365
866.398	3.528
869.773	1.173
873.148	0.939
876.523	1.341
879.898	8.424
883.272	3.086
886.647	6.005
890.022	7.725
893.397	9.389
896.772	12.097
900.146	2.593
903.521	5.09
906.896	8.384
910.271	5.74
913.646	6.881
917.021	3.192
920.395	1.149
923.77	21.199
927.145	11.199
930.52	2.467
933.895	14.268
937.269	11.378
940.644	7.118
944.019	0.836
947.394	13.96
950.769	11.562
954.143	1.913
957.518	1.081
960.893	6.934
964.268	5.333
967.643	3.331
971.018	10.525
974.392	4.595
977.767	12.703
981.142	6.913
984.517	4.65
987.892	2.851
991.266	4.067
994.641	11.698
998.016	10.832
1001.39	2.883
1004.77	9.912
1008.14	9.549
1011.51	4.006
1014.89	12.704
1018.26	2.797
1021.64	4.734
1025.02	3.363
1028.39	0.868
1031.76	9.949
1035.14	5.533
1038.51	8.405
1041.89	7.926
1045.26	4.635
1048.64	13.113
1052.01	2.695
1055.39	16.805
1058.76	3.092
1062.14	13.485
1065.51	2.78
1068.89	6.32
1072.26	3.86
1075.64	3.186
1079.01	13.786
1082.39	5.489
1085.76	2.174
1089.14	6.104
1092.51	8.627
1095.89	5.789
1099.26	20.519
1102.63	6.727
1106.01	4.956
1109.38	4.229
1112.76	10.104
1116.13	12.515
1119.51	8.468
1122.88	9.728
1126.26	10.649
1129.63	5.736
1133.01	4.234
1136.38	19.992
1139.76	1.303
1143.13	2.444
1146.51	11.179
1149.88	4.753
1153.26	9.589
1156.63	3.957
1160.01	4.948
1163.38	6.648
1166.76	9.246
1170.13	6.242
1173.51	1.756
1176.88	8.086
1180.26	2.927
1183.63	0.724
1187.01	13.6
1190.38	4.94
1193.76	4.85
1197.13	22.832
1200.51	11.652
1203.88	12.695
1207.26	5.863
1210.63	1.851
1214	7.212
1217.38	13.939
1220.75	8.385
1224.13	7.161
1227.5	23.679
1230.88	9.255
1234.25	14.99
1237.63	11.541
1241	13.658
1244.38	0.059
1247.75	6.472
1251.13	10.003
1254.5	4.994
1257.88	7.638
1261.25	15.833
1264.63	9.325
1268	5.84
1271.38	6.546
