Measurement: Raman, 532 nm, unoriented, Raman Data Processed
Mineral: Stibnite
Rruff sample: R120137
Ideal chemistry: Sb_2_S_3_
Locality: Green Prospect, Churchill Co., Nevada, USA
Source: Benjamin N. Schumer
Description: Lead-gray prismatic crystals on matrix of senarmontite, sulphur and selenium
Raman shift (cm-1)	intensity
183.857	0
186.749	255.87
189.642	890.212
192.535	363.594
195.427	85.1885
198.32	48.2659
201.213	14.0304
204.105	4.40161
206.998	8.32904
209.891	0.795349
212.784	5.72278
215.676	9.57221
218.569	6.67633
221.462	6.45252
224.354	6.88702
227.247	18.3558
230.14	29.8049
233.032	76.5343
235.925	263.524
238.818	532.893
241.71	651.987
244.603	806.821
247.496	1137.53
250.389	2095.97
253.281	3573.54
256.174	2231.48
259.067	535.976
261.959	241.141
264.852	152.453
267.745	109.368
270.637	79.5669
273.53	59.5413
276.423	46.0792
279.316	34.4038
282.208	29.7748
285.101	21.4457
287.994	19.5963
290.886	14.6138
293.779	12.4239
296.672	9.86603
299.565	4.58496
302.457	1.4776
305.35	1.15417
308.243	0.237854
311.135	1.90045
314.028	0.225342
316.921	0.346802
319.813	0.408691
322.706	4.52069
325.599	2.07739
328.491	1.58533
331.384	0.882446
334.277	0.822693
337.17	4.28943
340.062	8.31934
342.955	17.0898
345.848	23.3534
348.74	30.1678
351.633	38.4892
354.526	58.0681
357.418	71.6216
360.311	67.6002
363.204	75.7001
366.097	100.833
368.989	171.377
371.882	270.468
374.775	250.269
377.667	97.3727
380.56	38.8158
383.453	15.4882
386.346	10.299
389.238	5.66809
392.131	10.6141
395.024	11.0613
397.916	12.1388
400.809	15.9056
403.702	7.60114
406.594	2.29858
409.487	3.9975
412.38	3.06909
415.272	2.25311
418.165	0.320923
421.058	0.261841
423.951	0.594055
426.843	4.48877
429.736	12.3656
432.629	29.837
435.521	79.4887
438.414	130.862
441.307	185.156
444.2	292.217
447.092	470.387
449.985	650.62
452.878	543.45
455.77	250.484
458.663	127.405
461.556	77.1508
464.448	47.2662
467.341	29.6793
470.234	20.4304
473.127	14.1345
476.019	12.1799
478.912	10.1212
481.805	9.58637
484.697	6.15216
487.59	0.052551
490.483	0.385376
493.375	2.1308
496.268	1.24756
499.161	0.178223
502.053	1.24133
504.946	3.57873
507.839	0.795898
510.732	2.13666
513.624	3.44537
516.517	2.90546
519.41	2.15338
522.302	9.38483
525.195	8.74646
528.088	7.49835
530.981	8.70532
533.873	6.53784
536.766	6.89984
539.659	5.91315
542.551	6.72638
545.444	0.16449
548.337	0.964172
551.229	4.52154
554.122	7.33789
557.015	0.094116
559.908	3.56769
562.8	2.896
565.693	2.43213
568.586	2.05841
571.478	3.34228
574.371	0.348877
577.264	2.3382
580.156	4.37122
583.049	0.186768
585.942	2.54901
588.835	2.2655
591.727	5.61182
594.62	5.72144
597.513	2.71228
600.405	3.50098
603.298	3.23431
606.191	1.71942
609.083	5.94263
611.976	4.26892
614.869	7.66596
617.761	4.37048
620.654	6.71808
623.547	3.71332
626.44	2.98834
629.332	5.12854
632.225	7.7774
635.118	2.70508
638.01	2.33978
640.903	2.12683
643.796	0.93811
646.688	0.929382
649.581	1.81781
652.474	0.317017
655.367	3.56403
658.259	2.13611
661.152	2.96918
664.045	0.106262
666.937	0.093506
669.83	4.99768
672.723	2.71478
675.615	5.08167
678.508	5.28003
681.401	6.53369
684.294	7.72693
687.186	10.0432
690.079	14.0527
692.972	21.1886
695.864	26.9529
698.757	39.4091
701.65	50.5768
704.543	64.7181
707.435	79.5449
710.328	92.6595
713.221	100.303
716.113	76.9158
719.006	44.1202
721.899	22.7962
724.791	12.6494
727.684	5.30487
730.577	6.22235
733.47	4.83301
736.362	1.19727
739.255	4.86951
742.148	5.51398
745.04	3.40936
747.933	5.52026
750.826	1.12683
753.718	1.3352
756.611	1.13403
759.504	0.575012
762.396	0.252991
765.289	3.51666
768.182	3.01141
771.075	2.80994
773.967	4.47119
776.86	5.00263
779.753	4.91376
782.645	0.214294
785.538	1.5224
788.431	1.13464
791.323	2.25543
794.216	1.92395
797.109	4.60669
800.002	0.505005
802.894	1.81067
805.787	0.036377
808.68	2.51233
811.572	5.8172
814.465	0.332764
817.358	3.37292
820.25	4.22369
823.143	6.74835
826.036	6.89062
828.929	3.35455
831.821	2.56574
834.714	2.40399
837.607	5.00171
840.5	5.3349
843.392	4.54913
846.285	4.08649
849.178	5.16284
852.07	4.59314
854.963	2.24567
857.856	3.51428
860.748	4.48077
863.641	3.83337
866.534	4.69482
869.427	4.15668
872.319	4.02686
875.212	3.71063
878.105	3.07172
880.997	4.19043
883.89	0.105103
886.783	0.796997
889.675	1.38861
892.568	2.33905
895.461	6.76062
898.354	5.97986
901.246	8.57288
904.139	8.4118
907.032	3.78668
909.924	10.8629
912.817	5.35925
915.71	8.37982
918.602	7.84387
921.495	4.33655
924.388	5.17334
927.28	3.58868
930.173	6.07404
933.066	5.64807
935.959	7.61615
938.851	6.06012
941.744	5.15369
944.637	7.98682
947.529	7.06555
950.422	2.98352
953.315	3.50482
956.207	0.349304
959.1	2.55115
961.993	4.92621
964.886	6.4007
967.778	6.47082
970.671	4.92889
973.564	6.32013
976.456	6.51007
979.349	8.43683
982.242	8.25116
985.135	3.38074
988.027	5.29938
990.92	1.422
993.813	4.73938
996.705	1.91815
999.598	3.14117
1002.49	0.533325
1005.38	3.42395
1008.28	3.69598
1011.17	3.37329
1014.06	5.81097
1016.95	1.41992
1019.85	3.29938
1022.74	3.11115
1025.63	1.04907
1028.53	6.53265
1031.42	5.05414
1034.31	5.90448
1037.2	6.039
1040.1	5.4068
1042.99	2.24237
1045.88	8.6601
1048.77	2.72967
1051.67	3.85388
1054.56	1.94531
1057.45	0.782166
1060.35	0.885498
1063.24	5.1062
1066.13	0.231018
1069.02	3.48132
1071.92	2.79016
1074.81	1.47852
1077.7	1.62225
1080.59	1.6474
1083.49	6.07208
1086.38	7.64801
1089.27	6.38214
1092.16	4.23053
1095.06	3.02563
1097.95	3.53693
1100.84	4.11108
1103.73	3.94977
1106.63	5.20587
1109.52	4.20636
1112.41	5.22894
1115.31	8.09827
1118.2	4.54663
1121.09	4.62134
1123.98	3.99597
1126.88	5.8559
1129.77	10.2288
1132.66	12.9597
1135.56	9.36725
1138.45	4.52991
1141.34	3.70282
1144.23	3.38275
1147.13	2.00372
1150.02	6.69098
1152.91	6.47394
1155.8	5.56543
1158.7	6.07831
1161.59	5.40289
1164.48	1.77801
1167.38	1.21967
1170.27	0.614563
1173.16	6.22095
1176.05	5.98968
1178.94	3.26965
1181.84	7.10022
1184.73	3.32593
1187.62	2.55042
1190.52	0.996277
1193.41	4.53925
1196.3	7.63684
1199.19	3.95667
1202.09	4.61218
1204.98	10.4295
1207.87	3.92487
1210.77	5.6131
1213.66	6.047
1216.55	4.90888
1219.44	3.57324
1222.34	3.16528
1225.23	1.80676
1228.12	6.2135
1231.01	4.5683
1233.91	2.91901
1236.8	0.995178
1239.69	1.59912
1242.59	5.65613
1245.48	0.813843
1248.37	5.26086
1251.26	2.73883
1254.16	5.1994
1257.05	5.65582
1259.94	5.3465
1262.83	8.26477
1265.73	6.91699
1268.62	8.65228
1271.51	5.05182
1274.4	4.24884
1277.3	3.0097
1280.19	3.30768
1283.08	7.40997
1285.97	3.09448
1288.87	5.22681
1291.76	3.81183
1294.65	2.12817
1297.55	1.0213
1300.44	2.23456
