Measurement: Raman, 532 nm, unoriented, Raman Data Processed
Mineral: Stibnite
Rruff sample: R050066
Ideal chemistry: Sb_2_S_3_
Locality: Wuling, Jiangxi Province, China
Source: Rock Currier
Description: Lead-gray prismatic crystal
Measured chemistry: Sb_2.00_S_3.00_
Raman shift (cm-1)	intensity
144.358	0
147.251	11.6253
150.144	7.55533
153.037	16.9922
155.929	21.3263
158.822	44.5881
161.715	62.5303
164.607	78.8932
167.5	96.3377
170.393	115.334
173.286	142.105
176.178	125.313
179.071	131.195
181.964	137.754
184.856	147.747
187.749	168.704
190.642	162.52
193.535	171.626
196.427	166.598
199.32	159.279
202.213	143.696
205.105	149.771
207.998	112.576
210.891	104.81
213.783	62.1387
216.676	53.7764
219.569	29.7468
222.462	45.4541
225.354	56.5255
228.247	43.5929
231.14	51.7197
234.032	67.4879
236.925	35.5851
239.818	53.3681
242.71	41.3718
245.603	35.3423
248.496	30.0533
251.388	45.195
254.281	65.0152
257.174	72.0609
260.067	104.038
262.959	143.616
265.852	181.6
268.745	249.488
271.637	326.983
274.53	404.523
277.423	470.311
280.315	473.531
283.208	453.915
286.101	424.576
288.994	375.753
291.886	385.061
294.779	405.833
297.672	419.667
300.564	424.927
303.457	428.468
306.35	387.979
309.243	331.543
312.135	225.165
315.028	120.512
317.921	54.5816
320.813	14.8981
323.706	6.54167
326.599	1.98366
329.491	10.266
332.384	6.56818
335.277	9.17671
338.17	6.00893
341.062	10.9616
343.955	4.74164
346.848	2.11531
349.74	3.11733
352.633	6.09373
355.526	3.22952
358.418	6.81615
361.311	12.9395
364.204	7.45053
367.097	6.18347
369.989	13.6691
372.882	19.1365
375.775	24.9056
378.667	30.4014
381.56	21.2024
384.453	19.6197
387.346	25.4661
390.238	22.0569
393.131	27.6412
396.024	24.9556
398.916	25.7048
401.809	26.752
404.702	14.9214
407.594	24.3359
410.487	8.94402
413.38	13.0808
416.272	13.8172
419.165	8.14648
422.058	22.6321
424.951	8.26215
427.843	19.8574
430.736	15.195
433.629	4.38304
436.521	19.6651
439.414	3.61963
442.307	2.5316
445.2	6.61397
448.092	13.5868
450.985	2.0236
453.878	15.2359
456.77	4.94824
459.663	15.4453
462.556	8.55902
465.448	15.1611
468.341	14.2851
471.234	22.9546
474.127	16.2769
477.019	19.6338
479.912	16.6804
482.805	11.7883
485.697	11.7409
488.59	9.94253
491.483	3.96083
494.375	4.75264
497.268	13.6034
500.161	17.8596
503.053	0.400581
505.946	12.6276
508.839	8.77263
511.732	11.6343
514.624	13.1351
517.517	11.1949
520.41	13.6568
523.302	6.52582
526.195	4.71359
529.088	6.91277
531.981	6.88243
534.873	8.53392
537.766	3.69701
540.659	4.1557
543.551	9.40013
546.444	6.39441
549.337	8.77857
552.229	8.57694
555.122	16.5045
558.015	13.3104
560.908	6.89076
563.8	13.4959
566.693	17.5989
569.586	3.55117
572.478	9.04846
575.371	0.691231
578.264	4.65574
581.156	10.9622
584.049	15.7714
586.942	6.181
589.835	10.282
592.727	14.1645
595.62	13.0531
598.513	7.8137
601.405	12.7686
604.298	11.1627
607.191	7.01742
610.083	14.103
612.976	12.4821
615.869	17.8008
618.762	1.50319
621.654	5.74219
624.547	0.696434
627.44	9.83801
630.332	7.13187
633.225	13.0189
636.118	6.22659
639.01	4.67357
641.903	1.87663
644.796	10.9934
647.689	6.66897
650.581	15.3103
653.474	10.0317
656.367	2.36575
659.259	7.70977
662.152	7.93572
665.045	6.97028
667.938	4.38323
670.83	11.0415
673.723	5.15848
676.616	7.19738
679.508	14.0671
682.401	18.2572
685.294	7.6329
688.186	8.85802
691.079	4.48946
693.972	14.1871
696.865	4.58165
699.757	2.2209
702.65	9.06712
705.543	1.5839
708.435	4.76587
711.328	4.02351
714.221	4.71778
717.113	15.3093
720.006	14.8546
722.899	15.0475
725.792	8.00261
728.684	15.3912
731.577	5.08934
734.47	11.7844
737.362	10.6558
740.255	7.28303
743.148	10.3436
746.04	8.56031
748.933	7.16358
751.826	0.335037
754.719	2.49239
757.611	11.9694
760.504	8.51777
763.397	15.659
766.289	18.3284
769.182	12.1014
772.075	9.79776
774.967	9.73652
777.86	7.26188
780.753	7.31853
783.646	9.16645
786.538	9.23692
789.431	4.1262
792.324	0.769562
795.216	13.2786
798.109	16.3593
801.002	11.3062
803.894	8.88644
806.787	14.3675
809.68	8.45657
812.573	5.21811
815.465	9.49305
818.358	8.49116
821.251	2.22307
824.143	10.1783
827.036	2.44416
829.929	7.04556
832.822	5.64998
835.714	6.61536
838.607	9.18369
841.5	2.90255
844.392	10.9985
847.285	13.1644
850.178	10.5762
853.07	16.6293
855.963	16.7684
858.856	6.63742
861.749	9.95161
864.641	8.34549
867.534	2.68762
870.427	7.44199
873.319	5.31274
876.212	4.87526
879.105	8.77511
881.997	9.30435
884.89	13.2998
887.783	11.8519
890.676	16.7902
893.568	10.5422
896.461	4.54671
899.354	10.4338
902.246	9.87165
905.139	0.083874
908.032	5.52015
910.924	15.6193
913.817	5.54791
916.71	2.59792
919.602	4.90517
922.495	2.27938
925.388	5.96091
928.281	6.57014
931.173	5.34818
934.066	6.55516
936.959	4.19205
939.851	5.39962
942.744	4.21647
945.637	0.777542
948.529	4.62809
951.422	1.00461
954.315	25.9112
957.208	23.0824
960.1	5.78196
962.993	6.78489
965.886	1.16125
968.778	8.28657
971.671	0.136589
974.564	4.54834
977.457	13.5486
980.349	6.3638
983.242	2.20886
986.135	3.71033
989.027	4.009
991.92	9.40372
994.813	3.11465
997.705	9.85337
1000.6	4.49679
1003.49	11.7171
1006.38	12.2705
1009.28	18.0058
1012.17	2.88497
1015.06	7.66507
1017.95	2.40084
1020.85	0.296356
1023.74	2.82558
1026.63	12.232
1029.53	6.89579
1032.42	8.33612
1035.31	6.52021
1038.2	7.29306
1041.1	10.8356
1043.99	15.0244
1046.88	15.4282
1049.77	13.0971
1052.67	4.14166
1055.56	13.8176
1058.45	4.81028
1061.35	5.00354
1064.24	8.30461
1067.13	5.80746
1070.02	5.63801
1072.92	8.10775
1075.81	6.0742
1078.7	3.27492
1081.59	4.43303
1084.49	8.34739
1087.38	14.026
1090.27	12.6206
1093.16	13.4623
1096.06	3.5431
1098.95	8.42812
1101.84	8.9738
1104.73	7.32529
1107.63	7.87547
1110.52	4.72532
1113.41	13.2175
1116.31	8.46704
1119.2	1.49646
1122.09	7.55308
1124.98	20.7231
1127.88	12.345
1130.77	1.53722
1133.66	7.77136
1136.56	8.58174
1139.45	2.76933
1142.34	3.26827
1145.23	1.28497
1148.13	6.71767
1151.02	6.31405
1153.91	5.87371
1156.8	6.30983
1159.7	4.85348
1162.59	13.4729
1165.48	3.06702
1168.38	6.87442
1171.27	14.9381
1174.16	13.5752
1177.05	9.19323
1179.95	17.082
1182.84	11.3464
1185.73	6.7988
1188.62	6.0639
1191.52	6.89789
1194.41	19.0341
1197.3	9.33164
1200.19	9.83207
1203.09	13.8053
1205.98	7.73908
1208.87	11.6839
1211.77	11.2301
1214.66	5.99322
1217.55	12.7906
1220.44	3.60295
1223.34	5.90771
1226.23	2.9696
1229.12	8.88282
1232.01	8.52908
1234.91	12.9346
1237.8	12.74
1240.69	13.5606
1243.59	12.535
1246.48	6.97776
1249.37	9.72275
1252.26	13.1766
1255.16	8.31321
1258.05	0.563721
1260.94	7.70383
1263.83	1.11704
1266.73	6.98749
1269.62	6.9458
1272.51	9.26466
1275.4	8.48673
1278.3	8.44765
1281.19	16.1047
1284.08	11.7579
1286.98	6.8987
1289.87	15.4648
1292.76	5.41176
1295.65	3.83936
1298.55	0.052973
