Measurement: Raman, 785 nm, unoriented, Raman Data Processed
Mineral: Stibnite
Rruff sample: R050066
Ideal chemistry: Sb_2_S_3_
Locality: Wuling, Jiangxi Province, China
Source: Rock Currier
Description: Lead-gray prismatic crystal
Measured chemistry: Sb_2.00_S_3.00_
Raman shift (cm-1)	intensity
104.145	172.101
107.038	172.958
109.931	200.892
112.823	241.714
115.716	282.862
118.609	377.291
121.501	534.229
124.394	801.316
127.287	1278.4
130.18	1846.18
133.072	2269.44
135.965	2257.7
138.858	2343.27
141.75	2779.85
144.643	3506.95
147.536	4482.65
150.429	5330.58
153.321	6018.07
156.214	6557.54
159.107	6981.06
161.999	7786.69
164.892	9139.17
167.785	10849
170.677	12985.3
173.57	15490.9
176.463	18554.1
179.356	21964
182.248	26063.5
185.141	30954.2
188.034	36649
190.926	41125.8
193.819	40678.7
196.712	37052.2
199.604	33715.1
202.497	31362.2
205.39	29076.8
208.282	26913.6
211.175	24479.3
214.068	22082.4
216.961	20354
219.853	19429.4
222.746	19192.2
225.639	19694.7
228.531	20825.3
231.424	22572.3
234.317	24746.1
237.209	26466.4
240.102	26805.2
242.995	25041.3
245.888	22408
248.78	19996.7
251.673	18520.8
254.566	17703.3
257.458	17115.3
260.351	16735.1
263.244	16770.2
266.137	17814.8
269.029	19721.8
271.922	22798.5
274.815	27394.1
277.707	33106.1
280.6	38897.1
283.493	40821.2
286.385	38239.7
289.278	35870.3
292.171	37250
295.063	42647.9
297.956	49864
300.849	55244.2
303.742	56349.3
306.634	54828.5
309.527	53279
312.42	48929.7
315.312	31348.1
318.205	15028.3
321.098	9062.46
323.99	6884.27
326.883	5718.62
329.776	4873.77
332.669	4295.15
335.561	3916.51
338.454	3530.85
341.347	3258.12
344.239	3027.04
347.132	2891.79
350.025	2741.21
352.918	2594.51
355.81	2529.07
358.703	2401.37
361.596	2320.57
364.488	2188.55
367.381	2060.75
370.274	1999.43
373.166	1887.76
376.059	1846.14
378.952	1787.29
381.844	1745.13
384.737	1696.94
387.63	1619.17
390.523	1582.31
393.415	1534.89
396.308	1510.07
399.201	1465.18
402.093	1450.67
404.986	1417.18
407.879	1407.59
410.772	1409.68
413.664	1370.52
416.557	1416.71
419.45	1414.75
422.342	1434.18
425.235	1419.85
428.128	1454.84
431.02	1453.65
433.913	1412.83
436.806	1451.19
439.699	1439.73
442.591	1465.52
445.484	1469.13
448.377	1470.6
451.269	1467.01
454.162	1483.73
457.055	1491.06
459.947	1487.79
462.84	1460.44
465.733	1471.07
468.625	1470.73
471.518	1463.85
474.411	1464.35
477.304	1475.5
480.196	1454.01
483.089	1453.23
485.982	1446.34
488.874	1436.93
491.767	1438.3
494.66	1438.14
497.553	1459.33
500.445	1435.36
503.338	1432.19
506.231	1432.4
509.123	1416.31
512.016	1404.79
514.909	1361.05
517.802	1367.59
520.694	1337.29
523.587	1318.9
526.48	1314.98
529.372	1264.97
532.265	1226.22
535.158	1229.75
538.05	1247.62
540.943	1214.64
543.836	1171.76
546.729	1164.16
549.621	1170.68
552.514	1117.34
555.407	1113.62
558.299	1062.48
561.192	1055.39
564.085	1041.98
566.977	1046.21
569.87	1003.61
572.763	1005.71
575.655	1001.04
578.548	986.643
581.441	988.943
584.333	1000.19
587.226	976.484
590.119	980.456
593.012	959.973
595.904	949.204
598.797	897.747
601.69	865.69
604.582	836.855
607.475	788.683
610.368	766.443
613.26	747.083
616.153	711.904
619.046	694.939
621.939	642.923
624.831	648.623
627.724	589.132
630.617	557.253
633.509	540.207
636.402	495.945
639.295	452.765
642.188	428.833
645.08	403.395
647.973	371.79
650.866	349.901
653.758	348.48
656.651	327.965
659.544	322.221
662.436	314.715
665.329	308.271
668.222	314.529
671.115	300.979
674.007	286.898
676.9	273.302
679.793	232.626
682.685	214.237
685.578	194.29
688.471	182.4
691.363	166.686
694.256	145.211
697.149	146.83
700.042	129.699
702.934	128.806
705.827	120.326
708.72	111.992
711.612	114.538
714.505	99.1335
717.398	107.018
720.29	103.005
723.183	102.704
726.076	104.591
728.968	100.706
731.861	96.8708
734.754	96.3772
737.647	92.9569
740.539	87.8656
743.432	84.9523
746.325	85.1427
749.217	84.29
752.11	84.2349
755.003	89.7062
757.895	76.9499
760.788	76.2878
763.681	78.8208
766.574	80.1415
769.466	77.1119
772.359	70.4892
775.252	80.8399
778.144	76.209
781.037	72.356
783.93	75.1729
786.822	70.9598
789.715	70.8788
792.608	69.8298
795.501	63.9963
798.393	66.8742
801.286	59.73
804.179	67.0015
807.071	62.2006
809.964	66.7096
812.857	66.8499
815.75	62.7025
818.642	61.0289
821.535	61.2347
824.428	58.9296
827.32	55.4682
830.213	52.9769
833.106	58.602
835.998	57.3513
838.891	53.5583
841.784	50.6189
844.677	44.463
847.569	50.4813
850.462	59.9156
853.355	51.8045
856.247	54.6945
859.14	53.8539
862.033	41.8049
864.925	46.5849
867.818	42.7745
870.711	45.882
873.604	47.2679
876.496	46.064
879.389	47.6935
882.282	53.2135
885.174	44.9453
888.067	49.3266
890.96	45.3095
893.852	41.6039
896.745	48.5742
899.638	41.1927
902.53	42.0135
905.423	43.7535
908.316	40.3068
911.209	43.2726
914.101	40.7195
916.994	38.9207
919.887	39.4409
922.779	39.9026
925.672	33.6173
928.565	35.3471
931.457	37.1723
934.35	36.1362
937.243	36.924
940.136	32.0134
943.028	35.628
945.921	35.9109
948.814	39.5189
951.706	31.7831
954.599	36.0052
957.492	31.7125
960.385	33.4082
963.277	34.1979
966.17	33.2177
969.063	33.9123
971.955	33.8745
974.848	29.3709
977.741	30.8232
980.633	28.2769
983.526	31.2085
986.419	33.497
989.312	29.4709
992.204	28.4666
995.097	31.3969
997.99	28.9717
1000.88	29.199
1003.77	26.4315
1006.67	28.1336
1009.56	26.6599
1012.45	24.5173
1015.35	27.4223
1018.24	21.865
1021.13	26.7228
1024.02	21.9278
1026.92	26.106
1029.81	24.1686
1032.7	26.8573
1035.6	19.2452
1038.49	31.8508
1041.38	22.2343
1044.27	24.5527
1047.17	24.3077
1050.06	23.6256
1052.95	21.1703
1055.84	25.8548
1058.74	24.3278
1061.63	26.2758
1064.52	21.0374
1067.41	28.1391
1070.31	27.9525
1073.2	21.9078
1076.09	21.2163
1078.98	19.365
1081.88	24.8338
1084.77	21.6556
1087.66	25.6326
1090.56	18.1371
1093.45	24.1669
1096.34	20.2633
1099.23	20.3027
1102.13	22.4746
1105.02	21.2369
1107.91	18.9834
1110.81	20.5052
1113.7	16.1518
1116.59	23.6061
1119.48	13.6321
1122.38	23.471
1125.27	29.3288
1128.16	16.8223
1131.05	18.7798
1133.95	11.8764
1136.84	18.3069
1139.73	19.1249
1142.62	14.3993
1145.52	20.0396
1148.41	21.6649
1151.3	15.5189
1154.19	18.3982
1157.09	21.745
1159.98	17.3515
1162.87	13.026
1165.77	17.2213
1168.66	21.5772
1171.55	21.4714
1174.44	18.9539
1177.34	21.255
1180.23	15.9927
1183.12	14.0111
1186.02	23.2294
1188.91	17.0929
1191.8	19.2875
1194.69	19.6312
1197.59	25.3747
1200.48	17.4099
1203.37	20.1398
1206.26	20.0307
1209.16	15.6173
1212.05	11.1649
1214.94	14.9843
1217.84	16.7901
1220.73	17.5201
1223.62	15.4526
1226.51	16.6799
1229.41	20.7916
1232.3	18.7337
1235.19	20.8793
