Measurement: Raman, 532 nm, unoriented, Raman Data Processed
Mineral: Stibivanite
Rruff sample: R080125
Ideal chemistry: Sb^3+^_2_V^4+^O_5_
Locality: Consolidated Durham mines, Lake George, York County, New Brunswick, Canada
Source: William W. Pinch
Description: Elongated sprays of green crystals on quartz
Raman shift (cm-1)	intensity
140.184	0
143.559	26.7953
146.933	177.793
150.308	432.292
153.683	266.044
157.058	23.409
160.433	6.51953
163.807	51.311
167.182	135.706
170.557	249.937
173.932	427.5
177.307	623.839
180.681	775.079
184.056	563.781
187.431	196.485
190.806	122.525
194.181	76.17
197.556	56.8557
200.93	84.3952
204.305	117.929
207.68	174.301
211.055	259.637
214.43	362.351
217.804	353.523
221.179	205.823
224.554	155.885
227.929	146.541
231.304	84.6587
234.679	26.6974
238.053	9.94977
241.428	16.3287
244.803	7.51562
248.178	16.5308
251.553	43.7655
254.928	71.5273
258.302	103.182
261.677	143.714
265.052	193.19
268.427	258.18
271.802	342.81
275.176	458.823
278.551	605.991
281.926	794.419
285.301	1014.69
288.676	1260.44
292.05	1470.65
295.425	1583.26
298.8	1542.77
302.175	1324.46
305.55	1028.52
308.925	779.904
312.299	625.256
315.674	440.559
319.049	274.779
322.424	185.411
325.799	144.734
329.173	121.624
332.548	101.739
335.923	87.6676
339.298	92.2679
342.673	104.904
346.048	107.95
349.422	83.7965
352.797	50.2676
356.172	26.3715
359.547	11.7722
362.922	1.92117
366.296	3.7928
369.671	4.24655
373.046	5.31029
376.421	6.9389
379.796	7.33229
383.171	4.89743
386.545	1.36
389.92	4.12849
393.295	10.0985
396.67	18.5146
400.045	28.7443
403.419	41.2563
406.794	60.7132
410.169	81.982
413.544	105.824
416.919	130.636
420.293	150.911
423.668	164.684
427.043	161.936
430.418	150.813
433.793	140.874
437.168	140.1
440.542	158.467
443.917	199.158
447.292	251.198
450.667	284.763
454.042	301.288
457.416	320.117
460.791	364.875
464.166	443.475
467.541	543.916
470.916	643.596
474.291	724.25
477.665	745.18
481.04	666.574
484.415	506.684
487.79	334.757
491.165	211.425
494.539	131.984
497.914	84.5394
501.289	54.1521
504.664	36.4129
508.039	23.6606
511.413	16.5258
514.788	12.2047
518.163	6.41637
521.538	0.022049
524.913	1.64424
528.288	1.18541
531.663	7.99661
535.037	19.6213
538.412	34.8786
541.787	50.3925
545.162	57.9156
548.537	50.4493
551.911	30.2083
555.286	11.5549
558.661	1.04564
562.036	3.37576
565.411	4.91948
568.785	4.0419
572.16	2.44298
575.535	1.33279
578.91	0.479538
582.285	4.54417
585.659	7.36493
589.034	14.6488
592.409	19.1818
595.784	24.7207
599.159	30.2328
602.534	34.454
605.908	36.09
609.283	36.014
612.658	32.0888
616.033	25.7095
619.408	17.2434
622.783	14.8357
626.157	7.89741
629.532	4.65855
632.907	1.22409
636.282	0.00444
639.657	0.433426
643.031	0.59581
646.406	1.15112
649.781	1.48186
653.156	5.38123
656.531	8.06943
659.905	10.4614
663.28	16.6816
666.655	24.1453
670.03	34.6587
673.405	49.0956
676.779	69.3245
680.154	94.3377
683.529	122.887
686.904	150.675
690.279	176.136
693.654	193.301
697.028	193.473
700.403	191.063
703.778	184.169
707.153	174.926
710.528	164.62
713.903	149.912
717.277	133.74
720.652	114.101
724.027	95.9736
727.402	79.2843
730.777	63.8897
734.151	54.9045
737.526	44.4248
740.901	36.0116
744.276	27.8814
747.651	21.8198
751.025	16.3594
754.4	12.5447
757.775	9.15553
761.15	6.5053
764.525	4.70328
767.9	2.27634
771.274	1.70085
774.649	0.378876
778.024	0.790024
781.399	0.472549
784.774	0.207382
788.149	1.77933
791.523	0.914185
794.898	0.040466
798.273	0.440033
801.648	0.053177
805.023	1.17479
808.397	1.88982
811.772	1.13898
815.147	1.95392
818.522	1.58662
821.897	0.744843
825.271	0.928619
828.646	2.13071
832.021	2.48975
835.396	3.10359
838.771	3.60896
842.146	4.70813
845.52	3.44536
848.895	2.47108
852.27	1.69318
855.645	3.05043
859.02	1.62346
862.394	2.4724
865.769	1.72839
869.144	0.874115
872.519	0.876892
875.894	0.02359
879.269	0.358292
882.643	0.222946
886.018	0.378906
889.393	0.699966
892.768	0.37439
896.143	0.297012
899.518	0.412262
902.892	0.601944
906.267	1.29321
909.642	2.14433
913.017	3.23451
916.391	3.47951
919.766	5.11263
923.141	4.87492
926.516	7.1664
929.891	9.44095
933.266	11.9843
936.64	16.4077
940.015	20.2284
943.39	26.4291
946.765	35.3058
950.14	38.9096
953.514	47.4795
956.889	59.3788
960.264	100.36
963.639	234.893
967.014	395.79
970.389	662.12
973.763	1267.01
977.138	1214.87
980.513	256.83
983.888	75.6363
987.263	36.0011
990.638	20.7071
994.012	11.696
997.387	7.61499
1000.76	3.87244
1004.14	2.73076
1007.51	1.6971
1010.89	0.871292
1014.26	0.395432
1017.64	0.286469
1021.01	0.117126
1024.39	0.151215
1027.76	0.670319
1031.13	0.059341
1034.51	0.822708
1037.88	0.671997
1041.26	0.417908
1044.63	1.45717
1048.01	0.912689
1051.38	3.07446
1054.76	1.25395
1058.13	2.93169
1061.51	3.38101
1064.88	2.8295
1068.26	3.46382
1071.63	5.54858
1075.01	9.61285
1078.38	16.0432
1081.76	25.0775
1085.13	40.0457
1088.51	18.5281
1091.88	5.3856
1095.26	4.47375
1098.63	2.92903
1102.01	1.91115
1105.38	1.69572
1108.76	0.332458
1112.13	0.777084
1115.51	0.173325
1118.88	0.995956
1122.26	1.78877
1125.63	0.884293
1129.01	0.205048
1132.38	0.360138
1135.76	0.352051
1139.13	0.750381
1142.5	0.15506
1145.88	0.207474
1149.25	0.754959
1152.63	1.28775
1156	2.15108
1159.38	0.200195
1162.75	0.932999
1166.13	1.93968
1169.5	2.83813
1172.88	2.01613
1176.25	2.69847
1179.63	3.78181
1183	2.97249
1186.38	4.12871
1189.75	4.33638
1193.13	7.43216
1196.5	8.47446
1199.88	9.79962
1203.25	10.6245
1206.63	12.9923
1210	14.7329
1213.38	16.3202
1216.75	16.3594
1220.12	17.3336
1223.5	17.3033
1226.88	15.1689
1230.25	13.9475
1233.62	13.4835
1237	12.0169
1240.37	10.9769
1243.75	9.01587
1247.12	9.23236
1250.5	8.28206
1253.87	5.00945
1257.25	5.46169
1260.62	4.76588
1264	3.42551
1267.37	2.5796
1270.75	3.3441
1274.12	2.37933
1277.5	0.94133
1280.87	2.38634
1284.25	1.07712
1287.62	1.49614
1291	1.17047
1294.37	0.200043
1297.75	1.9463
1301.12	0.958572
