Measurement: Raman, 532 nm, unoriented, Raman Data Processed
Mineral: Stibarsen
Rruff sample: R060115
Ideal chemistry: SbAs
Locality: Moctezuma, Sonora, Mexico
Source: University of Arizona Mineral Museum
Description: Tin-white reniform mass with many small inclusions of antimony
Measured chemistry: gray phase: Sb_1.00_As_1.00_; light inclusions: Sb_2.00_(Sb_1.12_As_0.88_)_Î£=2_
Raman shift (cm-1)	intensity
125.458	0
128.833	0.648685
132.208	4.53156
135.583	14.9069
138.958	38.0866
142.332	44.8745
145.707	29.3429
149.082	23.9497
152.457	25.8887
155.832	22.8107
159.207	20.2184
162.581	16.5445
165.956	13.2554
169.331	21.046
172.706	33.4039
176.081	39.1593
179.455	42.0553
182.83	56.6998
186.205	102.972
189.58	134.909
192.955	48.0572
196.329	16.9962
199.704	8.21624
203.079	4.16897
206.454	1.94146
209.829	0.517773
213.204	1.47581
216.578	0.490793
219.953	0.281073
223.328	0.203527
226.703	0.109978
230.078	0.410231
233.452	0.239178
236.827	0.455683
240.202	0.325609
243.577	0.188906
246.952	0.131615
250.327	0.281271
253.701	0.489023
257.076	0.416624
260.451	1.06675
263.826	0.507593
267.201	0.173296
270.575	0.94223
273.95	0.607374
277.325	2.24541
280.7	2.07774
284.075	1.17058
287.45	1.55963
290.825	2.07205
294.199	2.50916
297.574	2.42586
300.949	2.55069
304.324	3.67754
307.699	2.74706
311.073	3.51825
314.448	4.80276
317.823	4.41513
321.198	4.06029
324.573	4.36943
327.947	3.50037
331.322	3.41137
334.697	2.84836
338.072	2.23722
341.447	2.43519
344.822	2.83216
348.196	2.07366
351.571	1.79987
354.946	1.6525
358.321	1.53667
361.696	0.993808
365.07	1.66959
368.445	1.04892
371.82	1.05172
375.195	1.84254
378.57	0.613186
381.945	0.68158
385.32	0.026817
388.694	0.711733
392.069	0.043887
395.444	0.004494
398.819	0.865318
402.194	0.146727
405.568	0.415878
408.943	0.368116
412.318	0.504656
415.693	0.069725
419.068	0.972944
422.442	0.372422
425.817	0.42128
429.192	0.109884
432.567	0.15511
435.942	0.248096
439.317	0.053076
442.691	0.078765
446.066	0.43993
449.441	0.714407
452.816	1.05607
456.191	0.93397
459.565	0.163905
462.94	0.438396
466.315	0.204864
469.69	0.930262
473.065	0.112841
476.44	0.338542
479.815	0.406576
483.189	1.15659
486.564	0.801019
489.939	0.184209
493.314	0.751929
496.688	0.446414
500.063	0.998528
503.438	0.827138
506.813	0.647899
510.188	1.7453
513.563	0.549508
516.938	1.75267
520.312	0.091541
523.687	0.366602
527.062	0.660272
530.437	0.558505
533.812	1.01077
537.186	0.855819
540.561	1.51247
543.936	0.627669
547.311	0.838957
550.686	0.113964
554.061	0.294424
557.435	0.512864
560.81	1.06494
564.185	1.56028
567.56	0.122721
570.935	0.892389
574.309	0.874979
577.684	1.02924
581.059	0.926946
584.434	0.665676
587.809	0.76048
591.183	1.05654
594.558	1.18579
597.933	0.670412
601.308	0.412826
604.683	0.79799
608.058	0.343823
611.433	1.20314
614.807	0.381155
618.182	0.906784
621.557	0.732788
624.932	0.9744
628.307	1.20958
631.681	0.086779
635.056	0.351733
638.431	0.934639
641.806	0.989266
645.181	0.389282
648.556	1.4115
651.93	0.675043
655.305	1.15803
658.68	1.23344
662.055	0.857611
665.43	0.458404
668.804	0.365373
672.179	0.839737
675.554	1.29831
678.929	1.40441
682.304	0.603099
685.678	0.379992
689.053	1.13079
692.428	0.911043
695.803	0.332988
699.178	0.825693
702.553	0.002146
705.927	0.810535
709.302	0.347072
712.677	0.631241
716.052	0.412679
719.427	0.575415
722.802	0.721411
726.176	0.845751
729.551	0.783566
732.926	1.046
736.301	0.5396
739.676	0.595916
743.051	0.871759
746.425	0.731631
749.8	0.361128
753.175	0.415776
756.55	0.438792
759.925	0.494956
763.299	0.681646
766.674	1.21746
770.049	0.799055
773.424	1.70056
776.799	0.415696
780.173	1.13452
783.548	0.7391
786.923	0.603148
790.298	0.631761
793.673	0.231631
797.048	0.060488
800.422	0.638773
803.797	0.359865
807.172	0.709711
810.547	0.599203
813.922	0.51146
817.297	0.856299
820.671	1.34666
824.046	0.694059
827.421	1.50638
830.796	1.00658
834.171	1.35469
837.545	1.61168
840.92	1.74587
844.295	1.57873
847.67	1.75196
851.045	1.58083
854.42	1.84367
857.794	1.37114
861.169	1.5767
864.544	1.5867
867.919	1.5
871.294	1.08422
874.668	1.55364
878.043	0.884916
881.418	0.199429
884.793	1.26388
888.168	1.04222
891.543	0.224205
894.917	0.321314
898.292	0.33832
901.667	0.864182
905.042	1.00356
908.417	0.304301
911.792	0.418945
915.166	0.594478
918.541	0.320847
921.916	0.29554
925.291	0.478176
928.666	0.733602
932.04	0.909013
935.415	0.585753
938.79	0.563371
942.165	0.575282
945.54	0.383633
948.915	0.097485
952.289	0.172347
955.664	0.19193
959.039	0.35006
962.414	0.299989
965.789	0.997893
969.163	0.14354
972.538	0.494276
975.913	0.640023
979.288	0.140085
982.663	0.470284
986.038	0.759804
989.412	1.00378
992.787	0.016141
996.162	0.797394
999.537	0.871848
1002.91	1.37605
1006.29	1.36062
1009.66	0.606224
1013.04	0.925542
1016.41	0.200547
1019.79	0.78119
1023.16	0.894586
1026.54	1.05463
1029.91	0.951145
1033.29	0.732701
1036.66	0.572234
1040.04	0.957749
1043.41	1.26246
1046.78	0.516212
1050.16	1.49306
1053.53	1.26119
1056.91	0.067836
1060.28	1.30333
1063.66	0.594965
1067.03	1.04516
1070.41	0.391573
1073.78	0.560203
1077.16	0.200556
1080.53	0.725263
1083.91	0.253218
1087.28	0.337229
1090.66	0.519354
1094.03	0.614151
1097.41	0.527282
1100.78	0.375063
1104.16	0.549885
1107.53	0.066845
1110.91	0.300481
1114.28	0.495012
1117.66	0.454264
1121.03	0.751252
1124.4	0.502434
1127.78	0.692249
1131.15	0.590654
1134.53	0.054449
1137.9	0.764497
1141.28	0.837862
1144.65	0.204687
1148.03	0.030507
1151.4	0.325067
1154.78	0.537709
1158.15	0.167657
1161.53	0.635867
1164.9	0.674664
1168.28	0.042416
1171.65	0.501242
1175.03	0.374765
1178.4	0.693032
1181.78	0.126885
1185.15	0.211967
1188.53	0.666441
1191.9	0.424488
1195.28	0.594553
1198.65	1.24615
1202.03	0.882337
1205.4	0.602996
1208.78	0.448975
1212.15	0.145592
1215.53	0.887256
1218.9	0.942647
1222.28	0.041846
1225.65	0.51047
1229.03	0.692209
1232.4	1.09334
1235.77	0.974932
1239.15	0.345967
1242.52	0.024763
1245.9	1.37543
1249.27	0.327639
1252.65	0.090674
1256.02	1.12457
1259.4	0.48869
1262.77	0.472894
1266.15	0.818195
1269.52	0.750113
1272.9	0.592144
1276.27	0.944454
1279.65	0.537761
1283.02	0.456221
1286.4	0.909904
1289.77	0.11631
1293.15	0.504283
1296.52	0.377705
1299.9	0.253416
