Measurement: Raman, 780 nm, unoriented, Raman Data Processed
Mineral: Stibnite
Rruff sample: R120137
Ideal chemistry: Sb_2_S_3_
Locality: Green Prospect, Churchill Co., Nevada, USA
Source: Benjamin N. Schumer
Description: Lead-gray prismatic crystals on matrix of senarmontite, sulphur and selenium
Raman shift (cm-1)	intensity
121.091	0
124.466	30.3024
127.84	135.793
131.215	274.819
134.59	496.728
137.965	788.844
141.34	1134.01
144.714	1085.93
148.089	581.914
151.464	235.788
154.839	78.1354
158.214	7.86456
161.589	18.6754
164.963	15.7428
168.338	49.267
171.713	159.473
175.088	183.128
178.463	301.936
181.838	473.191
185.212	806.526
188.587	1331.42
191.962	345.194
195.337	104.96
198.712	55.5899
202.086	35.7799
205.461	27.0903
208.836	26.0751
212.211	27.1955
215.586	29.1261
218.96	23.4439
222.335	17.3443
225.71	31.0796
229.085	81.5448
232.46	248.171
235.834	447.215
239.209	573.46
242.584	871.748
245.959	1318.16
249.334	2100.82
252.709	2087.33
256.083	646.958
259.458	274.889
262.833	173.544
266.208	122.989
269.583	90.5204
272.957	66.2491
276.332	47.2145
279.707	32.2959
283.082	22.0577
286.457	14.3548
289.832	9.43329
293.206	4.38612
296.581	2.23543
299.956	0.379272
303.331	0.102737
306.706	0.832184
310.08	1.89983
313.455	2.2251
316.83	2.84384
320.205	2.92436
323.58	1.47388
326.954	1.71329
330.329	0.550644
333.704	4.02626
337.079	9.81888
340.454	12.8515
343.829	18.3027
347.203	23.7465
350.578	30.1333
353.953	40.3384
357.328	44.3719
360.703	49.4074
364.077	68.3796
367.452	105.036
370.827	137.245
374.202	83.1881
377.577	32.0903
380.952	15.1137
384.326	9.79211
387.701	12.3799
391.076	6.50255
394.451	7.2556
397.826	7.3508
401.2	5.08667
404.575	3.2364
407.95	2.06265
411.325	0.760712
414.7	0.064423
418.075	0.102036
421.449	3.99648
424.824	7.52736
428.199	19.1385
431.574	48.8879
434.949	87.5421
438.323	130.431
441.698	201.343
445.073	306.275
448.448	382.408
451.823	267.799
455.197	133.43
458.572	73.1093
461.947	44.0336
465.322	27.5081
468.697	18.8999
472.072	12.2072
475.446	7.66516
478.821	5.95145
482.196	3.0652
485.571	2.36374
488.946	1.34154
492.32	0.565491
495.695	0.582016
499.07	0.029785
502.445	0.544022
505.82	0.945953
509.195	1.8799
512.569	2.58089
515.944	3.60301
519.319	3.38602
522.694	3.73733
526.068	3.26151
529.443	4.08113
532.818	2.40018
536.193	2.23386
539.568	2.32506
542.943	1.50226
546.317	0.911942
549.692	0.759201
553.067	0.304504
556.442	0.008911
559.817	0.227554
563.192	0.186478
566.566	1.13985
569.941	0.090317
573.316	0.489716
576.691	0.089371
580.066	0.304077
583.44	0.974091
586.815	0.173706
590.19	1.19235
593.565	0.442993
596.94	1.09639
600.314	0.738258
603.689	1.21412
607.064	0.232605
610.439	0.951431
613.814	0.786598
617.188	0.744865
620.563	0.791809
623.938	0.40625
627.313	1.71907
630.688	0.579575
634.063	1.23199
637.437	0.542686
640.812	0.493912
644.187	0.982826
647.562	0.712067
650.937	1.09362
654.312	0.71888
657.686	1.44128
661.061	0.35321
664.436	0.605492
667.811	1.43681
671.186	2.42892
674.56	2.43889
677.935	3.71706
681.31	4.75957
684.685	7.99496
688.06	9.5132
691.434	12.1463
694.809	17.1789
698.184	23.1558
701.559	28.8283
704.934	34.4536
708.308	36.8381
711.683	36.0259
715.058	19.4075
718.433	10.3604
721.808	5.16249
725.183	3.81468
728.557	1.93594
731.932	1.48891
735.307	1.5358
738.682	0.111328
742.057	0.283974
745.432	0.813805
748.806	0.591568
752.181	1.25703
755.556	0.739136
758.931	0.01506
762.306	0.729256
765.68	0.590218
769.055	0.458115
772.43	4.28465
775.805	0.443993
779.18	0.973404
782.554	1.30504
785.929	0.674644
789.304	0.138405
792.679	0.141785
796.054	0.599213
799.428	1.51269
802.803	1.14459
806.178	2.16932
809.553	1.32143
812.928	0.934975
816.303	1.41852
819.677	0.991142
823.052	2.01907
826.427	1.49014
829.802	1.62712
833.177	1.24811
836.552	1.40916
839.926	1.69226
843.301	0.430618
846.676	1.44582
850.051	1.04604
853.426	0.544403
856.8	1.33717
860.175	1.07488
863.55	1.04261
866.925	0.213165
870.3	1.10602
873.674	0.252136
877.049	1.04629
880.424	0.453682
883.799	0.56678
887.174	0.895683
890.548	1.67731
893.923	1.54069
897.298	0.929886
900.673	0.662971
904.048	0.335716
907.423	0.189842
910.797	0.750824
914.172	0.425713
917.547	0.107536
920.922	1.27018
924.297	0.635986
927.671	0.667374
931.046	0.421623
934.421	0.644333
937.796	0.252464
941.171	1.08048
944.545	1.00073
947.92	0.961441
951.295	0.948303
954.67	0.941818
958.045	0.844673
961.42	1.18372
964.794	0.748337
968.169	0.135109
971.544	1.4469
974.919	0.456947
978.294	0.05957
981.668	0.251236
985.043	0.308708
988.418	1.16634
991.793	0.049416
995.168	0.476387
998.543	1.84586
1001.92	0.430908
1005.29	0.825142
1008.67	0.50946
1012.04	1.17906
1015.42	0.522202
1018.79	0.959
1022.17	0.46875
1025.54	1.58025
1028.92	1.06727
1032.29	0.599579
1035.67	1.87065
1039.04	1.11163
1042.41	0.855911
1045.79	0.806221
1049.16	0.675926
1052.54	0.577271
1055.91	2.12676
1059.29	1.70717
1062.66	0.016518
1066.04	2.41947
1069.41	0.309395
1072.79	0.813866
1076.16	3.59904
1079.54	1.43515
1082.91	0.518471
1086.29	1.01037
1089.66	0.952827
1093.04	0.793907
1096.41	0.382019
1099.79	0.675438
1103.16	0.339745
1106.54	1.03992
1109.91	0.317909
1113.29	1.13296
1116.66	0.76693
1120.04	1.09045
1123.41	0.604073
1126.79	0.741035
1130.16	0.815727
1133.54	1.35007
1136.91	0.453568
1140.29	0.924385
1143.66	0.894005
1147.03	0.653435
1150.41	1.08993
1153.78	0.254555
1157.16	1.01843
1160.53	1.01987
1163.91	1.21001
1167.28	0.554443
1170.66	1.60783
1174.03	3.79014
1177.41	1.81254
1180.78	1.76507
1184.16	1.32191
1187.53	0.670944
1190.91	1.33243
1194.28	2.88534
1197.66	1.69736
1201.03	1.83486
1204.41	0.692078
1207.78	1.41488
1211.16	1.10864
1214.53	0.02771
1217.91	0.222717
1221.28	1.03136
1224.65	0.509621
1228.03	0.944206
1231.4	0.220963
1234.78	0.122993
1238.15	1.04687
1241.53	0.822174
1244.9	0.846878
1248.28	0.673019
1251.65	0.599541
1255.03	0.812935
1258.4	0.307053
1261.78	0.606468
1265.15	1.05621
1268.53	0.649551
1271.9	0.872681
1275.28	0.682869
1278.65	0.204414
1282.03	0.517624
