Measurement: Raman, 532 nm, unoriented, Raman Data Processed
Mineral: Stichtite
Rruff sample: R050328
Ideal chemistry: Mg_6_Cr_2_CO_3_(OH)_16_4H_2_O
Locality: Dundas, Tasmania, Australia
Source: Marcus Origlieri
Description: Aggregate of contorted purple plates
Measured chemistry: Mg_6.00_(Cr_1.11_Al_0.71_Fe^3+^_0.18_)_Σ=2_(CO_3_)(OH)_16_·4H_2_O
Raman shift (cm-1)	intensity
184.438	0
187.331	10.9902
190.223	3.41016
193.116	7.53174
196.009	15.4924
198.901	24.3682
201.794	10.8206
204.687	11.166
207.579	8.53296
210.472	8.16602
213.365	7.51025
216.257	10.6646
219.15	9.89429
222.043	4.37964
224.936	1.65991
227.828	2.02417
230.721	3.33106
233.614	0.055176
236.506	4.2981
239.399	3.96777
242.292	9.96558
245.185	5.12305
248.077	2.23413
250.97	10.6421
253.863	20.3604
256.755	13.7349
259.648	6.95312
262.541	4.92651
265.433	14.8523
268.326	26.4077
271.219	31.7722
274.111	34.0847
277.004	39.7895
279.897	42.5818
282.79	54.1248
285.682	51.4756
288.575	63.2429
291.468	76.7808
294.36	52.905
297.253	60.6182
300.146	48.594
303.038	63.9263
305.931	69.8303
308.824	62.3359
311.717	63.1211
314.609	72.061
317.502	74.2978
320.395	83.2773
323.287	70.4556
326.18	74.8171
329.073	67.0964
331.966	53.1221
334.858	38.7078
337.751	26.0127
340.644	22.7373
343.536	15.9136
346.429	15.1694
349.322	27.2351
352.214	33.9067
355.107	25.2156
358	13.8887
360.892	16.2258
363.785	3.61279
366.678	1.34839
369.571	9.26636
372.463	4.15601
375.356	1.52905
378.249	10.8218
381.141	15.0183
384.034	20.6433
386.927	25.0767
389.82	15.1623
392.712	1.61182
395.605	4.35254
398.498	1.65625
401.39	3.33325
404.283	0.825684
407.176	11.7398
410.068	11.4436
412.961	10.9219
415.854	29.4187
418.747	31.7703
421.639	40.5378
424.532	50.4087
427.425	43.1616
430.317	61.4861
433.21	50.9797
436.103	63.7803
438.995	51.4707
441.888	52.4905
444.781	64.6111
447.673	79.7524
450.566	102.072
453.459	113.709
456.352	128.329
459.244	136.355
462.137	140.055
465.03	137.546
467.922	121.803
470.815	84.626
473.708	52.0195
476.601	25.8757
479.493	25.1636
482.386	9.56519
485.279	6.32202
488.171	1.32227
491.064	0.409424
493.957	6.22607
496.849	5.82715
499.742	21.199
502.635	39.7353
505.527	50.675
508.42	72.3313
511.313	124.727
514.206	183.306
517.098	278.904
519.991	386.046
522.884	527.036
525.776	693.794
528.669	892.277
531.562	1095.41
534.455	1304.52
537.347	1433.01
540.24	1379.35
543.133	1134.75
546.025	825.507
548.918	539.42
551.811	347.497
554.703	227.619
557.596	156.687
560.489	113.703
563.381	80.5273
566.274	47.4985
569.167	23.9746
572.06	6.34692
574.952	6.42285
577.845	13.1848
580.738	8.02026
583.63	5.29102
586.523	0.813721
589.416	5.13452
592.308	2.01196
595.201	8.52954
598.094	3.92383
600.987	11.0923
603.879	1.60132
606.772	8.36475
609.665	5.15967
612.557	11.1475
615.45	3.75977
618.343	6.66675
621.236	1.16113
624.128	3.19653
627.021	10.3318
629.914	1.65796
632.806	10.2678
635.699	7.35498
638.592	15.4878
641.484	11.5491
644.377	11.6851
647.27	9.45557
650.163	9.84106
653.055	10.3535
655.948	23.1221
658.841	33.7888
661.733	47.3582
664.626	51.5281
667.519	50.6565
670.411	52.1543
673.304	57.7039
676.197	79.6587
679.09	70.3765
681.982	71.0361
684.875	75.3027
687.768	55.3125
690.66	44.8364
693.553	49.2546
696.446	30.0952
699.338	35.3792
702.231	28.7266
705.124	19.8164
708.016	20.7219
710.909	19.1265
713.802	10.813
716.695	7.80151
719.587	0.212158
722.48	6.79663
725.373	7.60742
728.265	10.2932
731.158	9.43457
734.051	5.11646
736.943	4.56665
739.836	8.96118
742.729	3.33911
745.622	8.44898
748.514	6.0835
751.407	2.94751
754.3	0.634521
757.192	2.45752
760.085	5.2981
762.978	1.83911
765.87	10.9827
768.763	15.9248
771.656	4.72485
774.549	8.29004
777.441	6.1145
780.334	0.591309
783.227	7.46851
786.119	6.94165
789.012	21.0579
791.905	14.7949
794.798	16.522
797.69	3.52539
800.583	6.61377
803.476	14.9778
806.368	13.0491
809.261	14.4729
812.154	4.08398
815.046	0.288818
817.939	9.5
820.832	4.06738
823.725	16.2197
826.617	0.027588
829.51	1.80908
832.403	2.40674
835.295	5.20459
838.188	5.09814
841.081	7.04346
843.973	15.9168
846.866	4.26978
849.759	1.83594
852.652	11.6499
855.544	13.8726
858.437	11.6443
861.33	11.1453
864.222	13.6074
867.115	19.3557
870.008	11.6018
872.9	28.2048
875.793	11.084
878.686	10.5183
881.579	9.13721
884.471	14.7756
887.364	20.0869
890.257	24.1636
893.149	15.8413
896.042	15.2356
898.935	17.3779
901.827	19.2021
904.72	20.1794
907.613	14.5229
910.506	13.3979
913.398	8.27466
916.291	12.6633
919.184	12.0947
922.076	16.896
924.969	20.0735
927.862	16.1829
930.755	19.7305
933.647	12.7444
936.54	3.86108
939.433	0.665771
942.325	1.99902
945.218	11.6609
948.111	11.4251
951.003	2.20288
953.896	5.79028
956.789	2.27515
959.682	1.47876
962.574	5.66846
965.467	6.18726
968.36	12.3142
971.252	11.9075
974.145	14.085
977.038	12.4324
979.93	19.4714
982.823	20.2214
985.716	20.436
988.609	31.1853
991.501	31.4783
994.394	32.8071
997.287	27.7947
1000.18	34.5593
1003.07	37.625
1005.97	47.6245
1008.86	68.2947
1011.75	73.4294
1014.64	76.8398
1017.53	85.5569
1020.43	80.8062
1023.32	82.9336
1026.21	77.75
1029.11	74.7686
1032	75.4714
1034.89	84.499
1037.78	99.7761
1040.68	127.966
1043.57	162.814
1046.46	225.383
1049.36	285.3
1052.25	365.635
1055.14	447.235
1058.03	450.317
1060.93	326.048
1063.82	185.33
1066.71	107.909
1069.6	59.8484
1072.5	38.6841
1075.39	17.7141
1078.28	13.5735
1081.17	8.44971
1084.07	18.1067
1086.96	15.2835
1089.85	4.61499
1092.75	3.77197
1095.64	1.6814
1098.53	1.3335
1101.42	10.3262
1104.32	1.15015
1107.21	3.2356
1110.1	2.90674
1112.99	8.97461
1115.89	4.78125
1118.78	6.92212
1121.67	2.94946
1124.57	13.5854
1127.46	0.046387
1130.35	18.3115
1133.24	10.2136
1136.14	21.7876
1139.03	9.7627
1141.92	12.218
1144.81	20.9978
1147.71	9.74634
1150.6	16.3059
1153.49	1.08106
1156.38	5.53345
1159.28	11.8862
1162.17	12.3096
1165.06	23.6445
1167.96	24.9285
1170.85	19.1321
1173.74	24.9639
1176.63	19.1011
1179.53	14.031
1182.42	15.2163
1185.31	13.801
1188.2	16.4748
1191.1	15.8389
1193.99	32.8252
1196.88	15.0335
1199.78	8.3186
1202.67	15.9407
1205.56	14.9748
1208.45	27.4326
1211.35	7.55762
1214.24	24.1028
1217.13	15.9993
1220.02	14.9102
1222.92	12.0693
1225.81	11.5562
1228.7	10.0613
1231.6	11.1514
1234.49	15.4451
1237.38	9.72681
1240.27	1.23999
1243.17	2.79883
1246.06	6.04785
1248.95	10.3254
1251.84	6.80835
1254.74	8.42749
1257.63	6.40405
1260.52	9.67871
1263.41	16.8525
1266.31	5.65576
1269.2	8.39111
1272.09	18.8108
1274.99	9.92188
1277.88	10.2752
1280.77	9.82983
1283.66	12.5361
1286.56	13.2256
1289.45	22.8877
1292.34	10.4966
1295.23	14.6636
1298.13	0.858398
1301.02	8.98462
1303.91	0.011475
