Measurement: Raman, 785 nm, unoriented, Raman Data Processed
Mineral: Stichtite
Rruff sample: R060675
Ideal chemistry: Mg_6_Cr^3+^_2_CO_3_(OH)_16_4H_2_O
Locality: Nevada Creek, Dundas, Tasmania, Australia
Source: Michael Scott
Description: Purple massive, associated with green serpentine
Raman shift (cm-1)	intensity
159.615	0
162.508	154.049
165.401	399.161
168.293	637.606
171.186	649.961
174.079	429.451
176.971	177.566
179.864	47.899
182.757	98.295
185.65	66.798
188.542	136.192
191.435	83.835
194.328	150.279
197.22	187.308
200.113	47.619
203.006	14.604
205.898	68.747
208.791	14.845
211.684	143.009
214.577	137.188
217.469	16.228
220.362	52.898
223.255	35.567
226.147	69.786
229.04	50.148
231.933	19.856
234.825	8.594
237.718	40.035
240.611	62.327
243.503	101.444
246.396	34.728
249.289	85.959
252.182	121.072
255.074	45.943
257.967	157.553
260.86	157.586
263.752	280.597
266.645	230.53
269.538	228.778
272.431	188.804
275.323	223.104
278.216	345.126
281.109	490.751
284.001	511.274
286.894	681.99
289.787	624.931
292.679	642.541
295.572	618.454
298.465	547.898
301.358	679.325
304.25	759.207
307.143	857.263
310.036	863.951
312.928	761.453
315.821	754.04
318.714	691.552
321.606	689.666
324.499	664.666
327.392	693.804
330.284	587.505
333.177	506.432
336.07	376.695
338.963	287.956
341.855	281.944
344.748	326.096
347.641	269.7
350.533	401.544
353.426	460.491
356.319	413.604
359.211	314.444
362.104	265.89
364.997	248.797
367.89	278.888
370.782	250.625
373.675	381.154
376.568	439.316
379.46	377.848
382.353	342.781
385.246	252.014
388.138	184.994
391.031	240.756
393.924	289.092
396.817	353.688
399.709	419.843
402.602	421.77
405.495	411.744
408.387	335.998
411.28	412.793
414.173	527.312
417.065	645.235
419.958	727.605
422.851	941.266
425.744	875.986
428.636	933.97
431.529	989.436
434.422	959.775
437.314	1002.67
440.207	1117
443.1	1325.64
445.992	1353.51
448.885	1588.71
451.778	1929.6
454.671	1985.38
457.563	2362.86
460.456	2492.91
463.349	2317.65
466.241	1872.98
469.134	1451.72
472.027	1090.8
474.919	916.224
477.812	700.017
480.705	614.605
483.598	624.212
486.49	623.398
489.383	646.792
492.276	679.292
495.168	643.699
498.061	668.645
500.954	685.93
503.846	823.53
506.739	1047.86
509.632	1308.73
512.525	1748.45
515.417	2318.61
518.31	3102.06
521.203	3991.28
524.096	5269.4
526.988	6565.83
529.881	7722.83
532.774	8797.54
535.666	9095.41
538.559	8355.13
541.452	6332.05
544.344	4396.48
547.237	2953.45
550.13	1924.76
553.023	1258.43
555.915	974.62
558.808	740.469
561.701	576.643
564.593	468.176
567.486	327.179
570.379	214.962
573.271	155.059
576.164	119.015
579.057	78.636
581.95	115.364
584.842	156.769
587.735	56.184
590.628	33.638
593.52	33.062
596.413	8.75
599.306	114.572
602.198	20.669
605.091	102.259
607.984	25.853
610.876	2.207
613.769	35.21
616.662	13.68
619.555	17.713
622.447	9.515
625.34	65.777
628.233	79.688
631.125	164.531
634.018	199.915
636.911	268.599
639.803	393.78
642.696	320.178
645.589	351.569
648.482	302.823
651.374	368.023
654.267	400.259
657.16	455.723
660.052	571.118
662.945	675.877
665.838	736.298
668.73	972.067
671.623	1215.8
674.516	1760.36
677.409	2374.32
680.301	2993.87
683.194	3284.03
686.087	3075.81
688.979	2703.13
691.872	2182.82
694.765	1693.42
697.657	1360.5
700.55	1085.03
703.443	827.035
706.336	675.245
709.228	672.256
712.121	490.453
715.014	548.623
717.906	538.269
720.799	523.861
723.692	523.09
726.584	584.871
729.477	610.105
732.37	597.192
735.263	569.238
738.155	497.477
741.048	394.869
743.941	400.855
746.833	185.049
749.726	152.098
752.619	208.034
755.511	146.651
758.404	26.798
761.297	100.611
764.19	11.4
767.082	9.722
769.975	35.81
772.868	5.076
775.76	100.698
778.653	50.043
781.546	25.118
784.438	63.56
787.331	19.429
790.224	36.139
793.117	37.556
796.009	6.205
798.902	22.197
801.795	40.5
804.687	23.719
807.58	131.365
810.473	5.63
813.365	37.45
816.258	17.463
819.151	48.343
822.044	51.938
824.936	5.245
827.829	7.016
830.722	22.554
833.614	15.426
836.507	78.527
839.4	47.584
842.292	30.53
845.185	75.614
848.078	34.988
850.971	100.531
853.863	52.733
856.756	100.897
859.649	49.057
862.541	61.942
865.434	89.896
868.327	31.732
871.219	14.322
874.112	28.74
877.005	31.99
879.898	50.913
882.79	83.632
885.683	52.309
888.576	111.824
891.468	52.695
894.361	40.144
897.254	23.263
900.146	16.924
903.039	33.068
905.932	39.241
908.825	45.252
911.717	10.828
914.61	72.872
917.503	26.367
920.395	45.598
923.288	13.104
926.181	16.451
929.073	35.847
931.966	36.827
934.859	32.033
937.752	56.031
940.644	89.532
943.537	12.352
946.43	29.341
949.322	71.857
952.215	41.302
955.108	6.454
958	46.656
960.893	27.266
963.786	70.898
966.679	34.868
969.571	45.946
972.464	80.083
975.357	60.083
978.249	31.154
981.142	53.789
984.035	54.225
986.927	15.834
989.82	44.569
992.713	19.099
995.606	67.834
998.498	103.256
1001.39	133.028
1004.28	233.582
1007.18	173.483
1010.07	216.415
1012.96	202.34
1015.85	209.426
1018.75	212.052
1021.64	214.571
1024.53	116.613
1027.42	163.874
1030.32	179.758
1033.21	252.163
1036.1	283.545
1039	345.608
1041.89	403.414
1044.78	466.224
1047.67	718.779
1050.57	945.349
1053.46	1339.4
1056.35	1489.56
1059.24	1272.83
1062.14	812.396
1065.03	412.983
1067.92	220.934
1070.82	143.434
1073.71	150.464
1076.6	88.497
1079.49	113.391
1082.39	50.389
1085.28	55.069
1088.17	8.697
1091.07	62.158
1093.96	57.893
1096.85	15.443
1099.74	34.008
1102.63	8.667
1105.53	11.009
1108.42	31.104
1111.31	2.574
1114.21	28.442
1117.1	60.769
1119.99	26.302
1122.88	17.909
1125.78	22.021
1128.67	53.109
1131.56	2.231
1134.45	50.251
1137.35	1.776
1140.24	41.954
1143.13	42.542
1146.03	23.85
1148.92	35.213
1151.81	75.979
1154.7	15.192
1157.6	144.469
1160.49	61.674
1163.38	46.964
1166.28	61.112
1169.17	2.742
1172.06	30.124
1174.95	4.562
1177.85	68.883
1180.74	31.684
1183.63	15.955
1186.52	18.044
1189.42	50.396
1192.31	11.98
1195.2	35.919
1198.09	74.839
1200.99	99.08
1203.88	51.33
1206.77	8.086
1209.66	6.523
1212.56	3.117
1215.45	56.248
1218.34	58.57
1221.24	38.438
1224.13	84.3
1227.02	51.928
1229.91	1.125
1232.81	7.434
1235.7	16.549
1238.59	37.15
1241.48	37.316
1244.38	54.535
1247.27	31.024
1250.16	44.189
1253.06	110.296
1255.95	1.234
1258.84	65.518
1261.73	102.625
1264.63	64.285
1267.52	81.981
1270.41	37.364
