Measurement: Raman, 780 nm, unoriented, Raman Data Processed
Mineral: Stichtite
Rruff sample: R050328
Ideal chemistry: Mg_6_Cr_2_CO_3_(OH)_16_4H_2_O
Locality: Dundas, Tasmania, Australia
Source: Marcus Origlieri
Description: Aggregate of contorted purple plates
Measured chemistry: Mg_6.00_(Cr_1.11_Al_0.71_Fe^3+^_0.18_)_Σ=2_(CO_3_)(OH)_16_·4H_2_O
Raman shift (cm-1)	intensity
159.538	0
162.43	4.01489
165.323	14.9573
168.216	19.0359
171.108	8.87036
174.001	7.65112
176.894	0.740234
179.786	0.64624
182.679	6.07642
185.572	2.51611
188.465	1.79883
191.357	6.53613
194.25	2.79663
197.143	3.5144
200.035	10.9326
202.928	2.52954
205.821	1.604
208.714	1.87109
211.606	3.58765
214.499	3.66504
217.392	3.15503
220.284	4.97266
223.177	10.2983
226.07	16.4416
228.962	19.7293
231.855	26.5151
234.748	19.3247
237.641	23.865
240.533	21.9136
243.426	17.4087
246.319	21.1074
249.211	18.8494
252.104	19.127
254.997	14.5373
257.889	14.9731
260.782	17.7441
263.675	17.6902
266.567	21.4292
269.46	16.2752
272.353	21.7908
275.246	20.3975
278.138	27.9607
281.031	34.4196
283.924	40.8774
286.816	40.5089
289.709	47.2926
292.602	50.2736
295.495	49.6991
298.387	48.7727
301.28	55.0066
304.173	50.8565
307.065	50.7429
309.958	55.6964
312.851	55.8257
315.743	63.5953
318.636	68.0441
321.529	67.808
324.421	60.3834
327.314	52.5754
330.207	50.0919
333.1	34.3668
335.992	25.1802
338.885	21.0919
341.778	14.8227
344.67	13.1819
347.563	16.6326
350.456	9.69727
353.349	20.6757
356.241	13.3108
359.134	16.1536
362.027	1.66541
364.919	5.06104
367.812	0.700439
370.705	13.2878
373.597	5.5863
376.49	3.24609
379.383	0.921021
382.276	5.57263
385.168	3.26074
388.061	2.20532
390.954	4.16894
393.846	0.029541
396.739	0.266235
399.632	2.55457
402.524	4.40295
405.417	0.233887
408.31	8.88953
411.202	7.59253
414.095	15.9023
416.988	23.0817
419.881	24.1741
422.773	38.0554
425.666	46.9535
428.559	37.75
431.451	60.262
434.344	47.5452
437.237	55.4429
440.13	51.1956
443.022	61.5265
445.915	78.6803
448.808	71.7059
451.7	80.7445
454.593	81.916
457.486	100.283
460.378	98.9318
463.271	110.045
466.164	99.9393
469.057	87.5261
471.949	66.7565
474.842	33.7852
477.735	23.2733
480.627	13.6999
483.52	5.91235
486.413	0.983276
489.305	1.74768
492.198	3.23096
495.091	3.45215
497.983	9.10754
500.876	13.3415
503.769	20.2494
506.662	42.0129
509.554	71.552
512.447	103.429
515.34	154.276
518.232	218.278
521.125	306.625
524.018	419.945
526.91	526.73
529.803	649.541
532.696	768.691
535.589	860.372
538.481	907.818
541.374	829.496
544.267	660.046
547.159	458.538
550.052	296.69
552.945	187.527
555.837	131.619
558.73	84.5325
561.623	62.4493
564.516	34.7384
567.408	27.5017
570.301	25.0848
573.194	9.59241
576.086	6.0647
578.979	3.42761
581.872	2.17163
584.764	2.95813
587.657	0.198975
590.55	2.23071
593.443	1.98328
596.335	0.276733
599.228	2.3125
602.121	4.27527
605.013	0.469849
607.906	0.746582
610.799	0.782471
613.692	4.74353
616.584	7.48206
619.477	6.75647
622.37	9.71802
625.262	14.5653
628.155	10.1852
631.048	13.8536
633.94	15.5241
636.833	14.68
639.726	14.3556
642.619	14.8695
645.511	17.6569
648.404	19.3645
651.297	19.9189
654.189	17.7639
657.082	18.8809
659.975	21.8821
662.867	26.3679
665.76	25.0717
668.653	35.5699
671.545	32.1997
674.438	33.7606
677.331	36.7977
680.224	43.6265
683.116	45.2408
686.009	41.0938
688.902	38.553
691.794	26.5806
694.687	30.538
697.58	20.4818
700.472	17.1379
703.365	14.1792
706.258	15.0903
709.151	10.132
712.043	10.0759
714.936	6.60803
717.829	3.01074
720.721	3.37988
723.614	3.06738
726.507	3.15259
729.399	0.683594
732.292	6.82373
735.185	7.21106
738.078	0.443237
740.97	2.89624
743.863	1.18152
746.756	0.669922
749.648	2.58398
752.541	0.367554
755.434	3.04627
758.327	0.009155
761.219	2.6759
764.112	5.3374
767.005	3.31177
769.897	5.50085
772.79	4.93652
775.683	7.1825
778.575	2.09949
781.468	4.23425
784.361	5.32642
787.254	5.31824
790.146	3.04297
793.039	7.62305
795.932	6.98144
798.824	6.55798
801.717	4.05115
804.61	3.6521
807.502	9.8728
810.395	4.45642
813.288	7.29919
816.181	4.47583
819.073	3.78272
821.966	2.1803
824.859	5.14478
827.751	5.21399
830.644	6.45129
833.537	8.5144
836.429	5.91064
839.322	10.8054
842.215	8.90955
845.107	9.85608
848	7.65796
850.893	5.85547
853.786	5.94019
856.678	8.99487
859.571	10.0543
862.464	10.8695
865.356	8.26129
868.249	11.363
871.142	14.0019
874.034	7.50617
876.927	8.50513
879.82	6.5437
882.713	6.53943
885.605	8.68372
888.498	9.72681
891.391	6.29077
894.283	5.38092
897.176	0.123413
900.069	6.82007
902.962	4.61682
905.854	8.55347
908.747	1.34936
911.64	0.860779
914.532	1.60394
917.425	5.30341
920.318	0.88031
923.21	0.840881
926.103	2.40515
928.996	4.55939
931.888	0.473328
934.781	2.49445
937.674	0.962158
940.567	0.737
943.459	3.20587
946.352	2.38574
949.245	0.474487
952.137	2.59045
955.03	4.34168
957.923	1.92127
960.815	1.19763
963.708	4.41138
966.601	5.19525
969.494	0.418152
972.386	1.70447
975.279	1.88104
978.172	0.930237
981.064	1.42523
983.957	5.81268
986.85	7.4596
989.742	6.93115
992.635	12.5779
995.528	16.0587
998.42	16.0665
1001.31	18.5283
1004.21	23.2929
1007.1	26.8975
1009.99	29.538
1012.88	33.3936
1015.78	35.4198
1018.67	35.0707
1021.56	43.4992
1024.45	34.7274
1027.35	38.4744
1030.24	33.0703
1033.13	41.6345
1036.03	47.5201
1038.92	54.1611
1041.81	74.9506
1044.7	103.566
1047.6	130.651
1050.49	168.74
1053.38	197.341
1056.28	208.449
1059.17	186.027
1062.06	121.682
1064.95	69.674
1067.85	37.6508
1070.74	19.8843
1073.63	15.7257
1076.52	10.3188
1079.42	14.5113
1082.31	14.4582
1085.2	9.8139
1088.09	6.77771
1090.99	0.393188
1093.88	0.19574
1096.77	4.58984
1099.66	0.593445
1102.56	3.73816
1105.45	1.79547
1108.34	1.86365
1111.24	0.790405
1114.13	1.17572
1117.02	1.19519
1119.91	3.46845
1122.81	1.54065
1125.7	2.13654
1128.59	4.18903
1131.48	0.93335
1134.38	1.17273
1137.27	1.41724
1140.16	1.24231
1143.06	3.92621
1145.95	1.09625
1148.84	4.18219
1151.73	8.2442
1154.63	3.6485
1157.52	6.39185
1160.41	7.04388
1163.3	6.6004
1166.2	4.04413
1169.09	3.65002
1171.98	3.0235
1174.88	8.78497
1177.77	4.93127
1180.66	7.76257
1183.55	6.8971
1186.45	7.07465
1189.34	10.8617
1192.23	5.2724
1195.12	6.35529
1198.02	4.21466
1200.91	2.875
1203.8	4.45337
1206.69	5.92261
1209.59	4.64356
1212.48	2.46814
1215.37	3.96204
1218.27	4.513
1221.16	3.1416
1224.05	1.23328
1226.94	4.92248
1229.84	4.34204
1232.73	1.6062
1235.62	1.78491
1238.52	1.19403
1241.41	5.62775
1244.3	2.10492
1247.19	0.012268
1250.09	0.486328
1252.98	1.36706
1255.87	5.94751
1258.76	4.09369
1261.66	0.811401
1264.55	1.80139
1267.44	4.44659
1270.33	2.20044
1273.23	3.56842
1276.12	4.47632
1279.01	2.77539
1281.9	2.84796
1284.8	1.16425
