Measurement: Raman, 532 nm, unoriented, Raman Data Processed
Mineral: Stichtite
Rruff sample: R050475
Ideal chemistry: Mg_6_Cr_2_CO_3_(OH)_16_4H_2_O
Locality: near Dundas, Tasmania, Australia
Source: California Institute of Technology
Description: Aggregate of purple contorted plates
Measured chemistry: Mg_6.00_(Cr_0.97_Fe^3+^_0.75_Al_0.28_)_Σ=2_(CO_3_)(OH)_16_·4H_2_O ; (dark phase) C not measured but estimated by difference; light inclusion: chromite (Mg_0.53_Fe^2+^_0.47_)_Σ=1_(Cr^3+^_1.62_Al_0.33_Fe^3+^_0.05_)_Σ=2_O_4_
Raman shift (cm-1)	intensity
144.041	0
147.416	2.90027
150.79	3.91512
154.165	10.609
157.54	5.79898
160.915	6.01387
164.29	5.98901
167.664	2.49939
171.039	1.03429
174.414	2.26851
177.789	3.29451
181.164	1.44389
184.538	3.49078
187.913	4.09888
191.288	2.58449
194.663	1.9057
198.038	0.938812
201.412	0.518234
204.787	1.06703
208.162	0.459534
211.537	1.77602
214.912	0.543793
218.287	3.47757
221.661	4.82108
225.036	5.29123
228.411	4.74332
231.786	4.29256
235.161	4.4991
238.536	5.84229
241.91	5.19037
245.285	4.65996
248.66	5.43455
252.035	4.582
255.41	5.37779
258.784	4.7197
262.159	4.00864
265.534	3.77641
268.909	6.24458
272.284	5.37582
275.659	5.00838
279.033	5.9037
282.408	8.29169
285.783	8.35558
289.158	9.40015
292.533	10.3505
295.907	8.32518
299.282	9.24815
302.657	7.90956
306.032	7.00572
309.407	7.33993
312.781	6.89748
316.156	7.43138
319.531	6.83835
322.906	5.51193
326.281	3.99692
329.656	4.62022
333.03	3.03619
336.405	1.3802
339.78	0.90509
343.155	0.633972
346.53	3.32953
349.904	2.81473
353.279	2.98578
356.654	1.39838
360.029	2.35304
363.404	3.08884
366.779	0.411133
370.153	0.090088
373.528	0.824615
376.903	1.16693
380.278	0.299408
383.653	2.54764
387.027	1.01798
390.402	0.496429
393.777	0.254974
397.152	0.097839
400.527	0.284027
403.901	0.174591
407.276	0.310516
410.651	1.51737
414.026	2.6738
417.401	2.88431
420.776	6.42944
424.15	5.61279
427.525	4.93988
430.9	8.32596
434.275	8.30542
437.65	8.54105
441.024	11.0725
444.399	13.1081
447.774	13.5817
451.149	15.263
454.524	20.1264
457.899	22.3624
461.273	23.7396
464.648	19.179
468.023	13.9663
471.398	7.5321
474.773	5.0137
478.147	0.904938
481.522	0.240082
484.897	1.35892
488.272	2.18106
491.647	0.674713
495.022	1.57388
498.396	3.16998
501.771	6.79868
505.146	9.47858
508.521	14.8159
511.896	22.4117
515.27	32.4782
518.645	43.922
522.02	60.1401
525.395	76.5528
528.77	89.2038
532.145	93.7664
535.519	93.296
538.894	81.2046
542.269	58.0872
545.644	36.9632
549.019	22.893
552.394	14.0085
555.768	8.17505
559.143	4.6521
562.518	5.07474
565.893	0.953125
569.268	1.19238
572.642	2.40945
576.017	0.162415
579.392	0.846924
582.767	0.4198
586.142	0.950745
589.516	1.45468
592.891	1.22464
596.266	1.58865
599.641	0.466248
603.016	0.746368
606.39	0.912811
609.765	1.61188
613.14	1.00583
616.515	1.16623
619.89	0.036621
623.265	1.0249
626.639	1.40301
630.014	1.02252
633.389	2.2276
636.764	2.9646
640.139	2.71039
643.514	5.01572
646.888	4.02948
650.263	3.18298
653.638	5.98904
657.013	4.2558
660.388	4.46094
663.762	4.39121
667.137	6.48398
670.512	5.9613
673.887	6.20377
677.262	7.94034
680.636	6.85672
684.011	5.22275
687.386	4.15595
690.761	4.79828
694.136	2.56302
697.511	3.3512
700.885	3.26077
704.26	1.42572
707.635	3.42413
711.01	3.53098
714.385	2.83777
717.76	2.71188
721.134	3.1922
724.509	3.14914
727.884	1.35843
731.259	2.24765
734.634	2.2544
738.008	1.73968
741.383	0.705261
744.758	2.25522
748.133	0.096832
751.508	0.523285
754.882	1.46765
758.257	0.545349
761.632	0.20694
765.007	0.548401
768.382	0.924469
771.756	1.69107
775.131	0.358643
778.506	2.04166
781.881	1.686
785.256	2.6423
788.631	0.272797
792.005	2.26865
795.38	0.958832
798.755	1.1243
802.13	3.29333
805.505	2.27762
808.88	2.29791
812.254	1.41885
815.629	2.22378
819.004	2.41788
822.379	2.0625
825.754	0.092194
829.128	0.927185
832.503	1.45865
835.878	1.05933
839.253	2.99945
842.628	2.60916
846.003	2.68698
849.377	1.15478
852.752	1.47705
856.127	2.11026
859.502	3.20377
862.877	3.92944
866.251	0.662048
869.626	2.36233
873.001	2.97653
876.376	1.20129
879.751	1.33655
883.125	1.79074
886.5	0.840485
889.875	1.46011
893.25	1.46695
896.625	1.45053
900	0.688629
903.374	0.961609
906.749	1.29923
910.124	0.275269
913.499	1.53628
916.874	0.708801
920.249	2.24649
923.623	1.05991
926.998	0.274292
930.373	0.501831
933.748	0.853821
937.123	1.47394
940.497	0.082367
943.872	0.632294
947.247	0.749542
950.622	0.598511
953.997	1.05621
957.371	1.03027
960.746	0.915741
964.121	2.71512
967.496	0.654266
970.871	1.01669
974.245	0.674835
977.62	0.667938
980.995	3.18768
984.37	0.765076
987.745	0.589539
991.12	0.359711
994.494	3.44647
997.869	4.14349
1001.24	2.14325
1004.62	2.38797
1007.99	3.96851
1011.37	3.68842
1014.74	3.34433
1018.12	3.09326
1021.49	5.44202
1024.87	4.04248
1028.24	4.30682
1031.62	3.9007
1034.99	6.30743
1038.37	6.73074
1041.74	8.24768
1045.12	11.4099
1048.49	14.2845
1051.87	19.5857
1055.24	21.7568
1058.62	21.4796
1061.99	14.2416
1065.37	8.27997
1068.74	4.547
1072.12	1.57227
1075.49	3.04681
1078.87	2.32007
1082.24	1.55936
1085.62	2.57581
1088.99	0.153625
1092.36	0.850708
1095.74	0.891296
1099.11	2.03137
1102.49	2.53128
1105.86	1.52487
1109.24	0.891296
1112.61	0.320343
1115.99	1.15811
1119.36	0.810547
1122.74	1.52457
1126.11	2.52338
1129.49	1.34314
1132.86	3.27997
1136.24	2.4794
1139.61	2.3537
1142.99	1.95627
1146.36	0.039795
1149.74	2.16128
1153.11	1.60318
1156.49	0.736542
1159.86	0.337555
1163.23	1.95618
1166.61	2.62064
1169.98	1.8353
1173.36	0.594086
1176.73	2.14743
1180.11	0.550629
1183.48	2.14658
1186.86	0.922607
1190.23	0.319489
1193.61	0.85434
1196.98	2.56778
1200.36	1.6456
1203.73	0.490112
1207.11	2.05539
1210.48	1.28055
1213.86	1.94958
1217.23	0.970428
1220.61	3.15573
1223.98	2.13504
1227.36	2.23361
1230.73	0.026184
1234.11	0.871429
1237.48	1.86963
1240.86	1.32355
1244.23	1.04651
1247.61	0.255249
1250.98	0.861725
1254.36	2.10349
1257.73	1.71905
1261.11	2.4223
1264.48	2.05792
1267.86	0.938171
1271.23	2.65613
1274.6	1.06317
1277.98	2.06238
1281.35	1.88022
1284.73	1.42465
1288.1	2.47293
1291.48	2.29953
1294.85	2.21103
1298.23	1.94788
1301.6	0.005188
