Measurement: Raman, 532 nm, unoriented, Raman Data Processed
Mineral: Stilbite-Ca
Rruff sample: R050012
Ideal chemistry: NaCa_4_(Si_27_Al_9_)O_72_28H_2_O
Locality: Harborville, Nova Scotia, Canada
Source: University of Arizona Mineral Museum
Description: Globular aggregate of thin tabular white single crystals
Measured chemistry: (Na_1.50_K_0.03_)_Σ=1.53_Ca_4.15_(Si_26.17_Al_9.83_)O_72_·27.91H_2_O; H_2_O estimated by difference
Raman shift (cm-1)	intensity
148.215	0
151.108	212.859
154.001	391.405
156.894	439.789
159.786	399.91
162.679	365.026
165.572	328.3
168.464	318.857
171.357	280.78
174.25	205.051
177.143	123.785
180.035	124.442
182.928	156.075
185.821	51.1567
188.713	81.9702
191.606	61.4009
194.499	42.5444
197.391	44.7065
200.284	15.1343
203.177	9.31152
206.07	11.2124
208.962	48.4497
211.855	60.6992
214.748	11.8643
217.64	3.7959
220.533	34.5596
223.426	27.8838
226.318	53.1211
229.211	27.7671
232.104	7.84277
234.996	57.335
237.889	97.8574
240.782	147.036
243.675	155.198
246.567	147.342
249.46	151.215
252.353	131.008
255.245	74.9233
258.138	142.112
261.031	117.14
263.923	118.116
266.816	89.8335
269.709	122.093
272.602	60.6738
275.494	117.984
278.387	101.006
281.28	125.838
284.173	134.827
287.065	178.481
289.958	198.793
292.851	170.721
295.743	201.92
298.636	130.394
301.529	242.949
304.421	176.467
307.314	199.447
310.207	220.798
313.099	193.087
315.992	177.388
318.885	167.267
321.778	169.69
324.67	134.863
327.563	97.7422
330.456	102.963
333.348	36.395
336.241	26.9185
339.134	23.3872
342.026	13.2363
344.919	0.375488
347.812	30.3481
350.705	81.4888
353.597	2.26123
356.49	19.2212
359.383	46.3511
362.275	47.1484
365.168	117.028
368.061	192.001
370.954	271.516
373.846	384.672
376.739	501.651
379.632	580.939
382.524	841.998
385.417	1031.4
388.31	1174.87
391.202	1543.09
394.095	1898.86
396.988	2270.38
399.88	2772.43
402.773	3244.23
405.666	3403.58
408.559	3382.72
411.451	3172.58
414.344	2786.4
417.237	2294.75
420.129	1853.12
423.022	1492.11
425.915	1232.26
428.808	1122.93
431.7	813.689
434.593	670.784
437.486	567.13
440.378	517.792
443.271	502.919
446.164	509.852
449.056	569.86
451.949	567.088
454.842	614.63
457.735	634.52
460.627	524.015
463.52	429.694
466.413	339.722
469.305	215.588
472.198	137.023
475.091	230.353
477.983	313.049
480.876	533.527
483.769	877.547
486.661	1309.12
489.554	1764.54
492.447	2227.9
495.34	2448.34
498.232	2181.01
501.125	1528.03
504.018	951.838
506.911	575.565
509.803	339.329
512.696	170.417
515.589	104.422
518.481	69.8662
521.374	4.86231
524.267	21.9961
527.159	5.27246
530.052	53.6924
532.945	77.0391
535.837	12.1553
538.73	47.9258
541.623	55.1777
544.516	32.2861
547.408	58.9385
550.301	24.0176
553.194	10.4141
556.086	55.0078
558.979	84.5811
561.872	111.606
564.764	76.9141
567.657	82.2432
570.55	135.042
573.443	191.264
576.335	124.144
579.228	141.663
582.121	247.015
585.013	222.762
587.906	228.035
590.799	243.918
593.692	301.875
596.584	280.557
599.477	259.443
602.37	257.695
605.262	294.987
608.155	282.246
611.048	324.152
613.94	377.29
616.833	261.229
619.726	276.14
622.619	321.784
625.511	197.084
628.404	303.001
631.297	189.047
634.189	134.495
637.082	246.891
639.975	117.116
642.867	183.16
645.76	93.2168
648.653	106.081
651.545	119.873
654.438	110.256
657.331	132.539
660.224	16.4033
663.116	129.711
666.009	97.1123
668.902	103.691
671.794	35.5361
674.687	12.4648
677.58	6.54297
680.472	50.8438
683.365	26.4336
686.258	34.6455
689.151	7.34082
692.043	44.5381
694.936	25.4092
697.829	33.0791
700.721	54.5049
703.614	52.1309
706.507	64.9707
709.399	7.58301
712.292	27.8174
715.185	31.7383
718.078	21.0635
720.97	34.416
723.863	61.9512
726.756	50.291
729.648	66.3291
732.541	82.7031
735.434	118.535
738.327	93.3867
741.219	141.866
744.112	113.416
747.005	95.751
749.897	130.241
752.79	106.044
755.683	131.423
758.576	125.133
761.468	176.541
764.361	215.283
767.254	271.385
770.146	349.223
773.039	363.618
775.932	393.883
778.824	405.108
781.717	501.826
784.61	560.348
787.503	481.39
790.395	447.246
793.288	426.523
796.181	397.327
799.073	344.631
801.966	278.659
804.859	263.919
807.751	175.154
810.644	192.91
813.537	91.7227
816.429	122.442
819.322	40
822.215	42.8115
825.108	49.7539
828	19.6201
830.893	34.3398
833.786	15.2598
836.678	0.054688
839.571	47.416
842.464	18.5693
845.356	6.52051
848.249	43.2158
851.142	24.8691
854.035	58.3809
856.927	110.013
859.82	49.081
862.713	58.002
865.605	82.0225
868.498	63.4014
871.391	23.4473
874.284	111.753
877.176	118.603
880.069	129.304
882.962	115.291
885.854	177.058
888.747	96.418
891.64	159.662
894.533	57.3145
897.425	2.94531
900.318	130.708
903.211	148.746
906.103	133.124
908.996	107.176
911.889	60.7529
914.781	94.5801
917.674	133.102
920.567	10.4131
923.46	110.205
926.352	8.55859
929.245	72.5889
932.138	46.7773
935.03	58.7315
937.923	40.6621
940.816	110.57
943.708	7.69238
946.601	19.666
949.494	7.51953
952.386	24.6455
955.279	45.9678
958.172	19.834
961.065	76.459
963.957	1.25391
966.85	21.6348
969.743	27.9531
972.635	43.0147
975.528	57.9014
978.421	35.5742
981.313	91.1064
984.206	115.76
987.099	136.39
989.992	63.7188
992.884	76.3818
995.777	178.428
998.67	107.303
1001.56	189.066
1004.46	155.679
1007.35	182.197
1010.24	134.469
1013.13	144.726
1016.03	157.932
1018.92	257.975
1021.81	173.72
1024.7	118.052
1027.6	144.458
1030.49	9.58984
1033.38	22.6904
1036.28	139.91
1039.17	61.6719
1042.06	1.75684
1044.95	16.6924
1047.85	74.8867
1050.74	93.0596
1053.63	108.054
1056.52	0.460938
1059.42	92.9316
1062.31	39.1836
1065.2	20.8867
1068.09	0.150391
1070.99	94.4697
1073.88	123.166
1076.77	84.3428
1079.66	126.685
1082.56	163.698
1085.45	260.119
1088.34	257.961
1091.24	263.832
1094.13	326.205
1097.02	246.341
1099.91	303.955
1102.81	339.843
1105.7	376.364
1108.59	319.313
1111.48	375.986
1114.38	346.968
1117.27	333.729
1120.16	289.522
1123.06	408.155
1125.95	342.036
1128.84	316.048
1131.73	266.377
1134.63	304.478
1137.52	297.334
1140.41	249.448
1143.31	259.332
1146.2	308.305
1149.09	285.32
1151.98	260.505
1154.88	172.08
1157.77	176.237
1160.66	185.515
1163.55	149.682
1166.45	178.009
1169.34	94.8574
1172.23	121.689
1175.12	91.0635
1178.02	87.0664
1180.91	55.581
1183.8	19.9443
1186.69	46.5107
1189.59	20.499
1192.48	25.5234
1195.37	5.7207
1198.27	13.458
1201.16	27.5986
1204.05	93.001
1206.94	65.1094
1209.84	20.5137
1212.73	80.1611
1215.62	2.38574
1218.52	85.582
1221.41	69.793
1224.3	106.959
1227.19	7.61523
1230.09	79.7031
1232.98	171.695
1235.87	33.419
1238.76	18.9355
1241.66	162.981
1244.55	129.398
1247.44	147.31
1250.34	113.325
1253.23	74.4238
1256.12	109.39
1259.01	13.2969
1261.91	26.3799
1264.8	89.7656
1267.69	41.0732
1270.58	92.4365
1273.48	62.2275
1276.37	100.155
1279.26	102.405
1282.15	54.1435
1285.05	150.275
1287.94	46.252
1290.83	10.5908
1293.72	43.8789
1296.62	25.8193
1299.51	58.1826
1302.4	23.3828
