Measurement: Raman, 532 nm, unoriented, Raman Data Processed
Mineral: Stilbite-Ca
Rruff sample: R050106
Ideal chemistry: NaCa_4_(Si_27_Al_9_)O_72_28H_2_O
Locality: Corea, Sonora, Mexico
Source: Fred Devito
Description: White to colorless sheaflike aggregates of flattened single crystals
Measured chemistry: Na_1.42_Ca_4.28_(Si_26.02_Al_9.98_)O_72_Â·27.61H_2_O; trace amounts of K; H_2_O estimated by difference
Raman shift (cm-1)	intensity
133.513	0
136.406	284.106
139.299	723.291
142.192	1324.69
145.084	1921.81
147.977	1964
150.87	1937.06
153.762	1941.05
156.655	1765.17
159.548	1511.52
162.44	1202.02
165.333	1158.97
168.226	1183.23
171.119	1087.69
174.011	877.487
176.904	628.272
179.797	473.067
182.689	359.64
185.582	223.953
188.475	25.7881
191.368	32.9844
194.26	117.696
197.153	83.4331
200.046	143.064
202.938	2.08154
205.831	47.312
208.724	97.2822
211.616	231.468
214.509	191.636
217.402	440.406
220.294	480.496
223.187	554.06
226.08	637.879
228.972	652.712
231.865	778.182
234.758	776.79
237.651	799.964
240.543	678.276
243.436	679.208
246.329	604.48
249.221	453.284
252.114	395.497
255.007	295.377
257.899	233.991
260.792	203.219
263.685	173.107
266.578	300.397
269.47	217.198
272.363	349.806
275.256	412.597
278.148	394.364
281.041	508.667
283.934	484.048
286.827	402.039
289.719	473.77
292.612	423.137
295.505	394.76
298.397	403.907
301.29	411.164
304.183	350.018
307.075	311.112
309.968	419.489
312.861	339.424
315.753	302.094
318.646	231.797
321.539	185.701
324.432	206.408
327.324	68.5439
330.217	68.7461
333.11	11.3755
336.002	54.4058
338.895	10.46
341.788	53.019
344.68	61.667
347.573	82.2407
350.466	243.848
353.359	61.8052
356.251	71.2368
359.144	88.0684
362.037	158.602
364.929	373.727
367.822	518.273
370.715	757.063
373.608	1027.91
376.5	1356.38
379.393	1880.34
382.286	2405.9
385.178	2896.03
388.071	3715.74
390.964	4687.75
393.856	5595.49
396.749	6721.98
399.642	7459.19
402.534	8336.35
405.427	8614.56
408.32	8420.77
411.213	7609.1
414.105	6587.23
416.998	5436.77
419.891	4522.76
422.783	3858.96
425.676	3212.97
428.569	2595.18
431.461	2110.72
434.354	2084.06
437.247	1974.96
440.139	2016.88
443.032	1881.38
445.925	1979.43
448.818	2046.77
451.71	2139.09
454.603	2075.43
457.496	2029
460.388	1797.02
463.281	1433.74
466.174	1135.93
469.067	944.896
471.959	990.99
474.852	1064.04
477.745	1560.44
480.637	2069.57
483.53	2839.98
486.423	3627.85
489.315	4061.2
492.208	4471.04
495.101	4502.46
497.993	3719.52
500.886	2696.19
503.779	1723.79
506.672	864.648
509.564	481.648
512.457	189.776
515.35	119.221
518.242	45.73
521.135	5.3208
524.028	63.8948
526.92	125.669
529.813	182.058
532.706	101.526
535.599	8.45776
538.491	1.31909
541.384	14.9546
544.277	49.6309
547.169	71.1829
550.062	165.416
552.955	176.506
555.847	140.059
558.74	263.064
561.633	310.578
564.526	275.353
567.418	319.811
570.311	429.589
573.204	474.252
576.096	469.981
578.989	474.915
581.882	474.833
584.774	574.593
587.667	451.473
590.56	550.604
593.452	601.806
596.345	587.662
599.238	654.182
602.131	620.644
605.023	676.45
607.916	717.336
610.809	706.904
613.701	651.721
616.594	664.935
619.487	673.258
622.38	580.694
625.272	496.65
628.165	476.581
631.058	530.839
633.95	381.673
636.843	297.882
639.736	285.199
642.628	299.76
645.521	244.492
648.414	167.561
651.307	175.461
654.199	153.535
657.092	172.129
659.985	122.207
662.877	120.58
665.77	60.5369
668.663	43.5764
671.555	34.4558
674.448	6.50024
677.341	1.32764
680.234	52.5896
683.126	5.15845
686.019	12.1365
688.912	2.32349
691.804	22.2556
694.697	13.3721
697.59	15.5151
700.482	7.96899
703.375	16.6562
706.268	6.79639
709.16	2.55688
712.053	10.9463
714.946	59.1677
717.839	55.1631
720.731	34.1121
723.624	62.7319
726.517	65.5903
729.409	73.6599
732.302	7.13599
735.195	79.8093
738.087	43.438
740.98	77.533
743.873	100.091
746.766	80.2322
749.658	120.7
752.551	137.141
755.444	123.86
758.336	127.551
761.229	211.007
764.122	244.856
767.014	336.313
769.907	346.325
772.8	400.422
775.692	434.398
778.585	531.81
781.478	572.953
784.371	603.598
787.263	635.896
790.156	800.931
793.049	462.544
795.941	399.123
798.834	430.031
801.727	330.471
804.62	328.16
807.512	247.918
810.405	177.955
813.298	141.221
816.19	164.852
819.083	54.6089
821.976	36.175
824.868	47.3953
827.761	64.2695
830.654	27.1916
833.547	16.6931
836.439	4.32202
839.332	19.1111
842.225	15.6577
845.117	41.3689
848.01	20.2602
850.903	62.0234
853.795	218.809
856.688	3.1897
859.581	18.2573
862.473	25.6328
865.366	72.0186
868.259	107.627
871.152	8.06567
874.044	41.2344
876.937	7.13428
879.83	110.376
882.722	5.94775
885.615	83.1787
888.508	34.9221
891.4	116.661
894.293	105.408
897.186	119.259
900.079	57.7837
902.971	79.1045
905.864	66.2622
908.757	20.469
911.649	87.302
914.542	20.3315
917.435	57.2434
920.327	92.3447
923.22	63.3774
926.113	25.5281
929.005	51.1575
931.898	107.567
934.791	81.2478
937.684	71.3337
940.576	27.3332
943.469	18.0745
946.362	9.69531
949.254	3.9585
952.147	30.0513
955.04	33.1611
957.933	10.5383
960.825	44.301
963.718	54.1697
966.611	9.69653
969.503	41.302
972.396	84.2932
975.289	78.1397
978.181	80.2341
981.074	56.842
983.967	59.7437
986.86	76.2341
989.752	93.1335
992.645	51.675
995.538	62.4639
998.43	89.4465
1001.32	3.39331
1004.22	36.5425
1007.11	47.3442
1010	77.4477
1012.89	99.5007
1015.79	87.0288
1018.68	6.97583
1021.57	70.3379
1024.46	46.9602
1027.36	52.4898
1030.25	28.4802
1033.14	69.8584
1036.04	0.635742
1038.93	30.2705
1041.82	25.1958
1044.71	61.4219
1047.61	46.9175
1050.5	52.322
1053.39	5.60889
1056.28	14.5203
1059.18	22.6335
1062.07	32.2043
1064.96	167.89
1067.86	162.663
1070.75	124.01
1073.64	216.646
1076.53	367.821
1079.43	334.925
1082.32	421.161
1085.21	509.728
1088.1	512.549
1091	543.354
1093.89	615.7
1096.78	657.843
1099.67	639.467
1102.57	656.858
1105.46	678.295
1108.35	693.266
1111.24	651.1
1114.14	690.021
1117.03	646
1119.92	644.883
1122.82	629.929
1125.71	564.572
1128.6	543.46
1131.49	545.094
1134.39	556.645
1137.28	568.641
1140.17	493.942
1143.07	541.728
1145.96	529.35
1148.85	518.696
1151.74	469.278
1154.64	373.426
1157.53	418.534
1160.42	291.553
1163.31	259.39
1166.21	177.05
1169.1	130.583
1171.99	165.748
1174.88	174.464
1177.78	87.2395
1180.67	53.8857
1183.56	106.9
1186.46	20.9351
1189.35	33.3066
1192.24	10.6113
1195.13	35.5527
1198.03	13.0637
1200.92	15.9565
1203.81	26.0715
1206.7	24.0085
1209.6	17.8189
1212.49	11.416
1215.38	23.2166
1218.28	60.2932
1221.17	5.70972
1224.06	45.3184
1226.95	44.5647
1229.85	131.737
1232.74	77.9351
1235.63	36.0857
1238.52	153.476
1241.42	124.071
1244.31	136.035
1247.2	128.912
1250.1	33.3252
1252.99	53.0335
1255.88	61.0015
1258.77	77.1519
1261.67	79.7612
1264.56	65.7788
1267.45	12.3867
1270.34	29.3594
1273.24	14.9592
1276.13	45.5347
1279.02	65.95
1281.91	22.1084
1284.81	133.893
1287.7	0.227051
