Measurement: Raman, 785 nm, unoriented, Raman Data Processed
Mineral: Stilbite-Ca
Rruff sample: R050012
Ideal chemistry: NaCa_4_(Si_27_Al_9_)O_72_28H_2_O
Locality: Harborville, Nova Scotia, Canada
Source: University of Arizona Mineral Museum
Description: Globular aggregate of thin tabular white single crystals
Measured chemistry: (Na_1.50_K_0.03_)_Σ=1.53_Ca_4.15_(Si_26.17_Al_9.83_)O_72_·27.91H_2_O; H_2_O estimated by difference
Raman shift (cm-1)	intensity
125.359	0
128.251	90.0823
131.144	353.839
134.037	630.955
136.929	622.337
139.822	858.049
142.715	1199.82
145.607	1997.39
148.5	2575.29
151.393	2532.82
154.286	1849.93
157.178	1343.64
160.071	1246.49
162.964	1271.4
165.856	1301.06
168.749	1175.59
171.642	921.36
174.534	674.428
177.427	465.597
180.32	347.99
183.212	284.758
186.105	225.844
188.998	182.005
191.891	151.626
194.783	131.239
197.676	128.382
200.569	84.4382
203.461	47.6812
206.354	52.9395
209.247	27.3928
212.139	17.718
215.032	86.7402
217.925	53.9797
220.818	38.0154
223.71	3.98608
226.603	1.99365
229.496	2.95898
232.388	52.7703
235.281	70.637
238.174	91.2185
241.066	121.162
243.959	132.121
246.852	57.0669
249.745	76.8071
252.637	87.1487
255.53	73.7244
258.423	95.3796
261.315	132.998
264.208	117.132
267.101	123.839
269.993	128.946
272.886	101.234
275.779	77.8496
278.672	90.2515
281.564	74.8999
284.457	133.22
287.35	111.269
290.242	105.99
293.135	155.65
296.028	116.323
298.921	160.63
301.813	169.451
304.706	199.715
307.599	223.007
310.491	231.237
313.384	180.764
316.277	184.993
319.169	149.471
322.062	137.297
324.955	114.147
327.847	96.8555
330.74	80.4036
333.633	14.6599
336.526	35.8372
339.418	6.08643
342.311	5.37622
345.204	20.7541
348.096	15.8455
350.989	0.544434
353.882	35.1008
356.774	24.8965
359.667	3.63599
362.56	31.5737
365.452	87.5259
368.345	128.325
371.238	230.369
374.131	310.962
377.023	434.08
379.916	509.676
382.809	627.19
385.701	761.271
388.594	925.147
391.487	1150.97
394.38	1453.53
397.272	1707.06
400.165	2099.96
403.058	2380.02
405.95	2569.21
408.843	2547.73
411.736	2396.66
414.628	2127.79
417.521	1803.38
420.414	1481.75
423.307	1208.59
426.199	1004.01
429.092	742.248
431.985	610.35
434.877	496.04
437.77	400.154
440.663	374.18
443.555	340.122
446.448	345.075
449.341	380.238
452.234	391.578
455.126	442.863
458.019	382.401
460.912	347.379
463.804	286.807
466.697	217.566
469.59	140.554
472.483	136.326
475.375	145.97
478.268	265.019
481.161	418.187
484.053	667.529
486.946	1012.33
489.839	1454.19
492.731	1840.05
495.624	2039.95
498.517	1793.95
501.409	1327.04
504.302	870.519
507.195	494.781
510.088	309.635
512.98	197.184
515.873	93.7905
518.766	49.8175
521.658	7.07007
524.551	23.5923
527.444	8.12256
530.337	40.9426
533.229	7.94165
536.122	11.6392
539.015	28.1049
541.907	3.71692
544.8	20.3901
547.693	21.2179
550.585	27.5519
553.478	30.795
556.371	40.0792
559.263	26.9237
562.156	46.0011
565.049	89.5523
567.942	70.8884
570.834	89.7821
573.727	69.069
576.62	116.605
579.512	118.013
582.405	163.804
585.298	161.191
588.19	164.458
591.083	170.183
593.976	174.309
596.869	193.451
599.761	216.69
602.654	219.577
605.547	244.441
608.439	248.898
611.332	200.202
614.225	245.1
617.117	233.421
620.01	204.361
622.903	217.75
625.795	226.628
628.688	219.842
631.581	211.443
634.474	189.767
637.366	151.723
640.259	158.211
643.152	128.646
646.044	104.563
648.937	109.149
651.83	84.5106
654.722	73.766
657.615	53.3967
660.508	54.1309
663.401	52.1465
666.293	28.6443
669.186	10.9519
672.079	2.73181
674.971	29.3416
677.864	5.96533
680.757	3.66272
683.649	7.98132
686.542	0.807129
689.435	14.7004
692.328	13.8229
695.22	5.32007
698.113	1.6001
701.006	20.9804
703.898	3.44385
706.791	12.6451
709.684	7.63843
712.577	1.79004
715.469	16.5709
718.362	0.1073
721.255	21.1265
724.147	48.3717
727.04	33.5317
729.933	32.1414
732.825	42.2487
735.718	51.2625
738.611	43.7212
741.504	29.3166
744.396	47.5039
747.289	36.9888
750.182	44.9641
753.074	49.2944
755.967	73.8499
758.86	95.2034
761.752	103.446
764.645	101.276
767.538	160.304
770.431	161.083
773.323	212.163
776.216	225.846
779.109	262.169
782.001	288.959
784.894	320.533
787.787	321.101
790.679	307.798
793.572	324.373
796.465	263.663
799.357	224.394
802.25	217.732
805.143	154.176
808.036	136.702
810.928	108.266
813.821	68.4091
816.714	62.7289
819.606	55.9648
822.499	25.6202
825.392	31.1551
828.284	16.2383
831.177	17.7417
834.07	3.41663
836.963	16.3146
839.855	26.5414
842.748	15.2452
845.641	18.9901
848.533	14.4069
851.426	14.1575
854.319	4.06311
857.212	1.82446
860.104	21.1677
862.997	31.2223
865.89	8.86298
868.782	23.0214
871.675	39.4625
874.568	0.832397
877.46	14.2794
880.353	29.8723
883.246	26.5844
886.139	11.9378
889.031	52.4436
891.924	32.7368
894.817	35.9899
897.709	20.524
900.602	34.6884
903.495	35.915
906.388	35.0379
909.28	42.8556
912.173	18.121
915.066	33.3031
917.958	20.2024
920.851	36.6015
923.744	24.8351
926.636	37.7571
929.529	27.2642
932.422	3.10864
935.314	4.27649
938.207	14.6634
941.1	16.7375
943.993	0.348328
946.885	13.3519
949.778	7.32037
952.671	15.6326
955.563	21.9468
958.456	0.371277
961.349	26.6895
964.241	4.14319
967.134	0.480225
970.027	17.2263
972.92	21.7795
975.812	37.7042
978.705	0.489258
981.598	29.5708
984.49	7.24316
987.383	32.7874
990.276	49.491
993.168	28.6795
996.061	35.374
998.954	14.152
1001.85	42.9475
1004.74	56.579
1007.63	53.7525
1010.52	57.3284
1013.42	47.0536
1016.31	51.3831
1019.2	33.7282
1022.1	48.7055
1024.99	23.906
1027.88	32.3593
1030.77	65.6291
1033.67	28.3502
1036.56	7.65881
1039.45	26.6024
1042.34	4.57056
1045.24	24.6301
1048.13	3.75623
1051.02	10.5305
1053.91	1.6499
1056.81	3.3446
1059.7	4.71484
1062.59	24.4763
1065.49	12.491
1068.38	10.4616
1071.27	49.7996
1074.16	63.4169
1077.06	71.7611
1079.95	94.2343
1082.84	105.365
1085.73	105.828
1088.63	133.017
1091.52	180.466
1094.41	178.139
1097.31	181.005
1100.2	197.201
1103.09	186.778
1105.98	183.188
1108.88	191.482
1111.77	181.176
1114.66	234.682
1117.56	196.09
1120.45	206.571
1123.34	173.907
1126.23	187.59
1129.12	150.039
1132.02	174.016
1134.91	149.034
1137.8	166.387
1140.7	130.525
1143.59	130.495
1146.48	131.612
1149.37	121.532
1152.27	118.519
1155.16	89.709
1158.05	91.226
1160.94	58.4082
1163.84	67.1815
1166.73	39.054
1169.62	30.9483
1172.52	29.1182
1175.41	1.38715
1178.3	5.56165
1181.19	13.9554
1184.09	31.2717
1186.98	1.27069
1189.87	6.79669
1192.77	9.43182
1195.66	6.60388
1198.55	2.4956
1201.44	7.43426
1204.34	7.33929
1207.23	20.0709
1210.12	3.6872
1213.01	13.1763
1215.91	28.7237
1218.8	34.0042
1221.69	32.5729
1224.58	35.2592
1227.48	0.765747
1230.37	18.4631
1233.26	10.597
1236.15	32.3121
1239.05	10.4319
