Measurement: Raman, 514 nm, unoriented, Raman Data Processed
Mineral: Stilbite-Ca
Rruff sample: R050106
Ideal chemistry: NaCa_4_(Si_27_Al_9_)O_72_28H_2_O
Locality: Corea, Sonora, Mexico
Source: Fred Devito
Description: White to colorless sheaflike aggregates of flattened single crystals
Measured chemistry: Na_1.42_Ca_4.28_(Si_26.02_Al_9.98_)O_72_Â·27.61H_2_O; trace amounts of K; H_2_O estimated by difference
Raman shift (cm-1)	intensity
187.63	0
191.765	212.321
195.898	1.268
200.029	293.894
204.158	88.755
208.285	128.854
212.41	34.547
216.533	42.64
220.654	206.533
224.773	415.781
228.891	543.187
233.006	724.941
237.119	683.911
241.231	467.137
245.34	482.701
249.448	321.469
253.553	60.186
257.657	103.646
261.758	170.691
265.858	67.195
269.956	20.064
274.052	522.223
278.146	670.404
282.237	742.012
286.327	622.398
290.416	574.377
294.502	920.529
298.586	518.664
302.668	491.264
306.749	608.875
310.827	483.217
314.903	644.359
318.978	666.305
323.051	628.059
327.121	563.617
331.19	558.977
335.257	638.123
339.322	567.057
343.385	361.768
347.446	402.266
351.505	546.223
355.563	615.859
359.618	803.537
363.672	1071.27
367.723	1329.04
371.773	1842.6
375.821	2634.58
379.866	3009.97
383.91	3778.14
387.952	4957.29
391.992	6453.3
396.031	8544.95
400.067	11266.5
404.101	13988.6
408.134	14679.9
412.165	13975.5
416.193	12007.9
420.22	9883.67
424.245	7932.31
428.268	6850.07
432.289	5667.52
436.309	5206.89
440.326	4958.14
444.342	4839.28
448.355	4919.3
452.367	5236.16
456.377	5674.85
460.385	5323.33
464.391	4405.59
468.395	3363.62
472.398	2583.42
476.398	2438.98
480.397	2701.3
484.394	3384.39
488.389	5025.22
492.382	7125.81
496.373	8041.28
500.362	6585.19
504.349	3773.25
508.335	2145.4
512.319	1416.79
516.3	687.545
520.28	436.371
524.259	340.783
528.235	158.482
532.209	76.279
536.182	38.15
540.152	16.965
544.121	117.064
548.088	138.086
552.053	108.641
556.017	4.998
559.978	16.359
563.938	69.373
567.895	26.762
571.851	32.705
575.805	103.656
579.758	174.746
583.708	407.613
587.657	374.928
591.603	490.715
595.548	537.197
599.491	767.434
603.432	874.91
607.372	1005.21
611.309	933.926
615.245	1125.28
619.179	932.4
623.111	1225.9
627.041	647.996
630.97	615.676
634.896	814.947
638.821	555.803
642.744	680.234
646.665	612.25
650.584	511.188
654.502	367.662
658.418	421.285
662.331	436.525
666.244	159.447
670.154	273.359
674.062	309.664
677.969	354.287
681.874	423.219
685.777	284.93
689.678	392.342
693.577	149.949
697.475	336.5
701.371	243.922
705.265	412.604
709.157	48.074
713.047	383.99
716.936	5.875
720.823	316.162
724.708	262.283
728.591	215.559
732.472	287.777
736.352	265.566
740.23	408.773
744.106	453.947
747.98	278.424
751.853	451.881
755.723	347.588
759.592	125.406
763.459	450.494
767.325	485.637
771.188	595.332
775.05	423.703
778.91	608.93
782.768	671.836
786.625	698.865
790.479	619.674
794.332	598.465
798.183	577.225
802.033	483.381
805.88	76.668
809.726	166.293
813.57	178.107
817.413	4.758
821.253	16.238
825.092	127.42
828.929	23.406
832.764	105.381
836.598	17.588
840.429	80.844
844.259	125.047
848.088	376.697
851.914	130.662
855.739	154.762
859.562	58.918
863.383	162.768
867.203	8.961
871.02	85.1
874.836	55.17
878.65	63.223
882.463	27.295
886.274	85.43
890.083	184.371
893.89	129.475
897.695	104.705
901.499	18.543
905.301	44.229
909.102	111.35
912.9	348.785
916.697	111.695
920.492	136.715
924.285	290.568
928.077	138.141
931.867	327.842
935.655	317.424
939.442	65.881
943.226	216.229
947.009	257.465
950.791	182.588
954.57	189.869
958.348	144.379
962.124	212.232
965.899	70.244
969.671	280.008
973.442	296.236
977.211	293.049
980.979	504.082
984.745	214.881
988.509	420.016
992.271	527.746
996.032	581.943
999.791	229.963
1003.55	822.961
1007.3	652.092
1011.06	831.492
1014.81	737.596
1018.56	930.059
1022.31	1095.02
1026.06	620.209
1029.8	1073.96
1033.55	685.229
1037.29	746.416
1041.03	921.703
1044.77	1022.51
1048.5	887.053
1052.24	1140.95
1055.97	751.547
1059.7	896.297
1063.43	940.07
1067.16	754.91
1070.89	1130.76
1074.61	1175.84
1078.34	1113.67
1082.06	1589.63
1085.78	1634.61
1089.5	1679.54
1093.21	1498.14
1096.93	1665.98
1100.64	1804.1
1104.35	1807.9
1108.06	2030.27
1111.77	1759.75
1115.48	1965.06
1119.18	2005.32
1122.89	2148.52
1126.59	1893.89
1130.29	1822.36
1133.99	1438.54
1137.68	1424.51
1141.38	1464.29
1145.07	1622.54
1148.76	1494.92
1152.45	1261.94
1156.14	1592.89
1159.83	1147.8
1163.51	1046.27
1167.19	644.355
1170.88	733.16
1174.56	538.711
1178.23	317.523
1181.91	516.219
1185.59	301.395
1189.26	481.297
1192.93	360.723
1196.6	307.715
1200.27	395.387
1203.94	80.363
1207.6	432.945
1211.27	197.805
1214.93	191.812
1218.59	281.676
1222.25	316.613
1225.9	529.715
1229.56	311.691
1233.21	31.473
1236.86	53.203
1240.51	358.551
1244.16	361.777
1247.81	470.453
1251.45	211.086
1255.1	302.828
1258.74	389.727
1262.38	316.273
1266.02	180.176
1269.66	434.398
1273.29	119.527
1276.93	149.898
1280.56	184.898
1284.19	24.574
1287.82	45.996
1291.45	183.355
1295.07	252.141
1298.7	89.711
1302.32	101.648
1305.94	67.684
1309.56	58.797
1313.18	171.98
1316.8	99.16
1320.41	168.145
1324.02	105.504
1327.63	113.023
1331.24	31.586
1334.85	168.168
1338.46	278.914
1342.06	186.805
1345.67	361.906
1349.27	397.664
1352.87	325.184
1356.47	255.574
1360.07	504.996
1363.66	425.309
1367.25	555.746
1370.85	342.73
1374.44	439.824
1378.03	415.602
1381.61	558.656
1385.2	807.148
1388.78	786.105
1392.37	529.699
1395.95	273.184
1399.53	504.609
1403.1	505.492
1406.68	462.496
1410.26	460.031
1413.83	177.605
1417.4	349.789
1420.97	272.254
1424.54	236.777
1428.1	107.84
1431.67	19.461
1435.23	70.48
1438.8	8.207
1442.36	520.051
1445.91	143.598
1449.47	263.438
1453.03	280.652
1456.58	40.289
1460.13	143.266
1463.68	0
