Measurement: Raman, 780 nm, unoriented, Raman Data Processed
Mineral: Stilbite-Ca
Rruff sample: R050106
Ideal chemistry: NaCa_4_(Si_27_Al_9_)O_72_28H_2_O
Locality: Corea, Sonora, Mexico
Source: Fred Devito
Description: White to colorless sheaflike aggregates of flattened single crystals
Measured chemistry: Na_1.42_Ca_4.28_(Si_26.02_Al_9.98_)O_72_Â·27.61H_2_O; trace amounts of K; H_2_O estimated by difference
Raman shift (cm-1)	intensity
101.631	0
105.006	71.8008
108.381	257.607
111.756	51.7695
115.13	167.599
118.505	233.476
121.88	390.838
125.255	444.825
128.63	460.038
132.005	343.482
135.379	459.353
138.754	707.854
142.129	805.582
145.504	1121.41
148.879	1479.33
152.253	1650.86
155.628	1818.19
159.003	1651.17
162.378	1440.5
165.753	1256.77
169.127	1071.12
172.502	692.294
175.877	486.672
179.252	335.87
182.627	184.03
186.002	37.8252
189.376	28.7188
192.751	5.43506
196.126	24.5767
199.501	72.0718
202.876	46.4048
206.25	41.7212
209.625	18.6284
213	135.568
216.375	183.978
219.75	416.005
223.125	515.615
226.499	456.45
229.874	533.678
233.249	689.57
236.624	667.024
239.999	526.995
243.374	560.635
246.748	594.231
250.123	448.275
253.498	354.775
256.873	358.199
260.248	206.882
263.622	156.726
266.997	129.827
270.372	193.258
273.747	165.245
277.122	279.198
280.497	339.627
283.871	317.115
287.246	354.266
290.621	277.762
293.996	309.201
297.371	321.255
300.745	381.354
304.12	391.682
307.495	278.909
310.87	192.379
314.245	261.976
317.62	277.659
320.994	348.548
324.369	229.011
327.744	137.232
331.119	130.9
334.494	14.5581
337.868	8.58227
341.243	62.2463
344.618	0.833008
347.993	71.0923
351.368	124.481
354.743	32.2378
358.117	21.002
361.492	43.5693
364.867	181.137
368.242	346.401
371.617	579.354
374.991	755.014
378.366	1019.86
381.741	1252.46
385.116	1710.06
388.491	2105.59
391.865	2761.32
395.24	3486.09
398.615	4341.33
401.99	5152.32
405.365	5637.26
408.74	5605.6
412.114	5095.14
415.489	4259.2
418.864	3427.9
422.239	2665.75
425.614	2150.29
428.988	1698.73
432.363	1380.94
435.738	1161.89
439.113	1034.92
442.488	925.888
445.863	1075.62
449.237	1103.87
452.612	1081.87
455.987	1156.65
459.362	1117.73
462.737	856.67
466.111	676.344
469.486	505.772
472.861	383.575
476.236	632.944
479.611	828.958
482.986	1341.64
486.36	2038.48
489.735	2638.8
493.11	3284.66
496.485	3313.42
499.86	2640.34
503.235	1590.92
506.609	824.485
509.984	470.277
513.359	198.128
516.734	87.0066
520.109	5.55493
523.484	71.6105
526.858	46.5431
530.233	7.51917
533.608	30.5405
536.983	82.9635
540.357	31.8046
543.732	26.5664
547.107	88.9462
550.482	50.741
553.857	127.374
557.232	177.224
560.606	155.972
563.981	131.236
567.356	215.829
570.731	233.418
574.106	214.143
577.481	302.315
580.855	322.799
584.23	277.636
587.605	320.929
590.98	358.114
594.355	327.652
597.729	378.052
601.104	414.774
604.479	419.195
607.854	432.314
611.229	481.477
614.604	452.701
617.978	471.859
621.353	393.845
624.728	361.721
628.103	283.783
631.478	298.917
634.852	297.748
638.227	252.954
641.602	200.195
644.977	154.295
648.352	140.024
651.726	155.796
655.101	66.4353
658.476	95.4209
661.851	9.8136
665.226	86.0374
668.601	93.249
671.976	60.6929
675.35	7.75336
678.725	35.6054
682.1	13.1235
685.475	18.7092
688.85	15.985
692.224	65.4293
695.599	13.8981
698.974	36.3743
702.349	18.6509
705.724	13.3771
709.098	20.2742
712.473	11.2902
715.848	28.2941
719.223	42.2983
722.598	13.6403
725.972	63.1177
729.347	74.8894
732.722	55.8417
736.097	36.7034
739.472	54.4962
742.847	78.8742
746.221	48.6589
749.596	121.103
752.971	113.764
756.346	124.873
759.721	80.3272
763.096	139.315
766.47	227.921
769.845	178.243
773.22	192.61
776.595	387.828
779.97	343.194
783.344	388.673
786.719	429.482
790.094	485.466
793.469	438.567
796.844	345.658
800.218	279.79
803.593	261.548
806.968	208.595
810.343	146.515
813.718	89.9235
817.093	82.0592
820.467	84.6323
823.842	68.9644
827.217	97.1548
830.592	37.8798
833.967	1.90417
837.342	33.3082
840.716	35.9078
844.091	32.1136
847.466	32.2605
850.841	67.1814
854.216	4.94678
857.591	3.72778
860.965	14.8826
864.34	65.9698
867.715	47.1302
871.09	31.4088
874.465	50.1441
877.839	53.8975
881.214	55.4261
884.589	5.92163
887.964	102.383
891.339	67.569
894.713	25.2775
898.088	135.728
901.463	52.0081
904.838	57.4791
908.213	65.4898
911.587	53.0631
914.962	2.61108
918.337	51.1656
921.712	121.299
925.087	48.2071
928.462	41.5429
931.836	42.3719
935.211	120.576
938.586	53.205
941.961	52.5988
945.336	35.6619
948.711	49.7333
952.085	18.042
955.46	10.7023
958.835	20.2548
962.21	61.1201
965.585	16.9572
968.959	1.41412
972.334	34.7569
975.709	41.6044
979.084	30.932
982.459	142.732
985.833	97.9468
989.208	54.2111
992.583	28.3636
995.958	44.6281
999.333	64.6016
1002.71	92.5259
1006.08	82.2595
1009.46	108.522
1012.83	81.2029
1016.21	54.7711
1019.58	87.0382
1022.96	43.9927
1026.33	89.9692
1029.71	42.9224
1033.08	15.5846
1036.46	31.6933
1039.83	2.22022
1043.2	13.4995
1046.58	1.83221
1049.95	44.1961
1053.33	12.1392
1056.7	13.6869
1060.08	31.7274
1063.45	78.7312
1066.83	58.0928
1070.2	17.2625
1073.58	102.27
1076.95	124.801
1080.33	194.402
1083.7	210.638
1087.08	247.565
1090.45	234.386
1093.83	280.481
1097.2	357.475
1100.58	303.777
1103.95	316.409
1107.33	303.115
1110.7	310.537
1114.08	284.034
1117.45	301.15
1120.83	272.035
1124.2	227.396
1127.58	247.911
1130.95	200.067
1134.33	219.229
1137.7	183.17
1141.08	172.283
1144.45	227.748
1147.83	164.758
1151.2	217.213
1154.57	152.669
1157.95	183.493
1161.32	143.775
1164.7	86.3882
1168.07	71.8767
1171.45	106.798
1174.82	112.091
1178.2	43.4129
1181.57	106.674
1184.95	58.1785
1188.32	13.4977
1191.7	5.88208
1195.07	42.7991
1198.45	17.2771
1201.82	46.8435
1205.2	33.3202
1208.57	68.3358
1211.95	26.9145
1215.32	68.6393
1218.7	23.2139
1222.07	75.6536
1225.45	99.1542
1228.82	95.5292
1232.19	61.2451
1235.57	112.429
1238.94	102.996
1242.32	41.1371
1245.69	68.3731
1249.07	106.743
1252.44	85.0821
1255.82	40.2078
1259.19	44.998
1262.57	46.4786
1265.94	79.8857
1269.32	111.293
1272.69	64.0986
1276.07	70.4607
1279.44	109.96
