Measurement: Raman, 514 nm, unoriented, Raman Data Processed
Mineral: Stilbite-Ca
Rruff sample: R050012
Ideal chemistry: NaCa_4_(Si_27_Al_9_)O_72_28H_2_O
Locality: Harborville, Nova Scotia, Canada
Source: University of Arizona Mineral Museum
Description: Globular aggregate of thin tabular white single crystals
Measured chemistry: (Na_1.50_K_0.03_)_Σ=1.53_Ca_4.15_(Si_26.17_Al_9.83_)O_72_·27.91H_2_O; H_2_O estimated by difference
Raman shift (cm-1)	intensity
129.534	0
133.696	23.803
137.857	1185.29
142.016	2631.3
146.172	4736.66
150.327	6836.57
154.48	8467.29
158.63	8054.46
162.779	6966.6
166.926	5282.86
171.07	3994.47
175.213	3010.67
179.354	1962.15
183.493	1226.04
187.63	852.906
191.765	515.816
195.898	352.062
200.029	453.129
204.158	632.329
208.285	986.554
212.41	282.734
216.533	71.472
220.654	0.243
224.773	81.27
228.891	5.845
233.006	181.657
237.119	221.64
241.231	456.16
245.34	261.47
249.448	177.834
253.553	355.815
257.657	179.117
261.758	60.797
265.858	18.729
269.956	85.563
274.052	208.929
278.146	225.629
282.237	48.14
286.327	93.785
290.416	7.703
294.502	219.002
298.586	510.514
302.668	784.97
306.749	1138.99
310.827	1688.58
314.903	1791.26
318.978	1908.57
323.051	2127.35
327.121	1862.54
331.19	1937.98
335.257	1828.84
339.322	1866.63
343.385	1850.81
347.446	1813.3
351.505	1961.51
355.563	2187.2
359.618	2347.78
363.672	2748.5
367.723	3359.11
371.773	4139.36
375.821	4936.17
379.866	6160.85
383.91	6741.74
387.952	7597.38
391.992	8925.74
396.031	10807.1
400.067	13414
404.101	16656.8
408.134	19226.2
412.165	20428.1
416.193	18598.8
420.22	15813.4
424.245	13532.8
428.268	11042.8
432.289	8710.41
436.309	7080.99
440.326	5959.06
444.342	4937.27
448.355	4550.34
452.367	4319.3
456.377	4503.35
460.385	4633.9
464.391	4369.48
468.395	3898.18
472.398	4015.88
476.398	3681.91
480.397	5055.81
484.394	6065.63
488.389	9310.44
492.382	13992.3
496.373	18290.3
500.362	16885.5
504.349	11201.5
508.335	6394.58
512.319	3857.43
516.3	2611.07
520.28	1801.29
524.259	1211.18
528.235	717.582
532.209	480.945
536.182	337.02
540.152	166.508
544.121	185.646
548.088	41.387
552.053	35.536
556.017	25.745
559.978	52.211
563.938	126.408
567.895	142.72
571.851	197.091
575.805	157.491
579.758	86.16
583.708	169.845
587.657	276.681
591.603	483.889
595.548	490.653
599.491	682.124
603.432	949.297
607.372	1191.92
611.309	1426.17
615.245	1570.7
619.179	1681.47
623.111	1645.09
627.041	1840.51
630.97	1478.67
634.896	1434.58
638.821	1345.21
642.744	1071.59
646.665	974.704
650.584	876.568
654.502	654.186
658.418	242.561
662.331	237.683
666.244	576.539
670.154	51.872
674.062	69.7
677.969	40.987
681.874	104.174
685.777	15.27
689.678	41.498
693.577	44.365
697.475	77.428
701.371	112.048
705.265	158.201
709.157	18.837
713.047	46.512
716.936	272.427
720.823	332.251
724.708	416.75
728.591	369.66
732.472	484.56
736.352	535.985
740.23	593.622
744.106	719.433
747.98	830.111
751.853	931.803
755.723	1151.18
759.592	1380.42
763.459	1547.62
767.325	1604.29
771.188	2315.53
775.05	2750.21
778.91	3167.98
782.768	4088.89
786.625	4599.54
790.479	4957.6
794.332	4774.02
798.183	4510.06
802.033	4193.85
805.88	3949.03
809.726	2863.66
813.57	1989.57
817.413	1319.79
821.253	823.424
825.092	731.832
828.929	505.4
832.764	270.719
836.598	285.059
840.429	146.506
844.259	59.955
848.088	93.926
851.914	91.547
855.739	100.443
859.562	35.887
863.383	9.084
867.203	39.621
871.02	3.703
874.836	47.205
878.65	22.578
882.463	57.137
886.274	40.545
890.083	207.156
893.89	35.66
897.695	132.004
901.499	93.02
905.301	8.666
909.102	193.771
912.9	54.447
916.697	128.77
920.492	143.746
924.285	6.398
928.077	57.736
931.867	191.77
935.655	93.512
939.442	283.963
943.226	286.137
947.009	314.896
950.791	199.746
954.57	191.203
958.348	208.445
962.124	167.461
965.899	337.307
969.671	333.014
973.442	406.572
977.211	636.051
980.979	603.467
984.745	1065.32
988.509	979.15
992.271	1001.13
996.032	1142.69
999.791	1433.73
1003.55	1165.68
1007.3	1429.99
1011.06	1534.4
1014.81	1651
1018.56	1740.22
1022.31	1795.35
1026.06	2007.45
1029.8	1772.95
1033.55	1793.56
1037.29	1852.45
1041.03	1909.07
1044.77	1948.43
1048.5	1785.06
1052.24	2002.4
1055.97	1830.23
1059.7	1774.97
1063.43	2071.5
1067.16	1777.53
1070.89	1542.6
1074.61	1716
1078.34	1814.65
1082.06	2101
1085.78	2374.25
1089.5	2491.48
1093.21	2814.88
1096.93	2973.87
1100.64	3128.43
1104.35	3316.74
1108.06	3405.77
1111.77	3681.4
1115.48	3713.26
1119.18	3643.26
1122.89	3665.72
1126.59	3947.77
1130.29	3410.69
1133.99	3308.34
1137.68	3397.16
1141.38	2832.85
1145.07	2659.95
1148.76	2571.74
1152.45	2298.6
1156.14	2213.31
1159.83	1914.38
1163.51	1706.31
1167.19	1659.85
1170.88	1355.35
1174.56	1099.61
1178.23	997.125
1181.91	806.812
1185.59	766.982
1189.26	605.639
1192.93	549.994
1196.6	546.957
1200.27	378.266
1203.94	432.025
1207.6	370.408
1211.27	251.746
1214.93	141.094
1218.59	117.445
1222.25	170.969
1225.9	147.203
1229.56	227.193
1233.21	81.766
1236.86	224.723
1240.51	66.803
1244.16	86.203
1247.81	253.537
1251.45	271.01
1255.1	257.781
1258.74	22.615
1262.38	2.436
1266.02	129.9
1269.66	16.316
1273.29	232.191
1276.93	10.861
1280.56	75.404
1284.19	114.455
1287.82	96.457
1291.45	7.688
1295.07	60.35
1298.7	135.49
1302.32	112.719
1305.94	122.105
1309.56	108.609
1313.18	58.918
1316.8	94.598
1320.41	13.258
1324.02	136.871
1327.63	48.336
1331.24	132.5
1334.85	56.229
1338.46	2.072
1342.06	184.906
1345.67	47.611
1349.27	193.326
1352.87	266.412
1356.47	417.123
1360.07	331.35
1363.66	237.684
1367.25	449.979
1370.85	445.416
1374.44	337.756
1378.03	170.316
1381.61	297.732
1385.2	552.479
1388.78	224.512
1392.37	529.047
1395.95	460.258
1399.53	347.512
1403.1	451.133
1406.68	98.395
1410.26	215.838
1413.83	317
1417.4	313.959
1420.97	173.467
1424.54	198.93
1428.1	70.967
1431.67	74.959
1435.23	261.852
1438.8	392.086
1442.36	323.049
1445.91	290.262
1449.47	260.764
1453.03	489.221
1456.58	595.611
1460.13	288.594
1463.68	289.102
1467.23	20.215
1470.78	322.664
1474.33	2.986
1477.87	147.381
1481.42	128.934
1484.96	156.861
1488.5	173.496
1492.04	234.232
1495.57	142.883
