Measurement: Raman, 532 nm, unoriented, Raman Data Processed
Mineral: Stillwellite-(Ce)
Rruff sample: R060899
Ideal chemistry: CeBSiO_5_
Locality: Dara-i-Pioz, Alayskiy Range, South Tien- Shan Mountains, Tajikistan
Source: Michael Scott
Description: Red or green (depending upon light source) hexagonal prism associated with aegirine and orthoclase
Raman shift (cm-1)	intensity
169.252	0
172.145	23.0635
175.038	95.0137
177.931	9.41406
180.823	89.5332
183.716	174.694
186.609	164.714
189.501	117.793
192.394	128.564
195.287	153.725
198.179	42.0684
201.072	89.0029
203.965	109.534
206.858	142.698
209.75	48.9463
212.643	28.0986
215.536	36.9727
218.428	23.2051
221.321	12.4785
224.214	33.1494
227.107	96.4307
229.999	104.815
232.892	229.252
235.785	277.531
238.677	426.262
241.57	661.138
244.463	943.233
247.355	1404.38
250.248	1889.91
253.141	2204.59
256.033	2221.71
258.926	1847.83
261.819	1594.03
264.712	1406.55
267.604	1297.36
270.497	1185.06
273.39	1163.24
276.282	1380.41
279.175	1564.21
282.068	1847.22
284.96	2197.41
287.853	2670.38
290.746	3392.62
293.639	4125.92
296.531	4946.84
299.424	5704.11
302.317	6232.62
305.209	6303.1
308.102	5987.86
310.995	5348.92
313.887	4553.89
316.78	3674.05
319.673	2580.25
322.565	1794.01
325.458	1057.4
328.351	661.873
331.244	247.86
334.136	83.3779
337.029	76.6846
339.922	190.826
342.814	128.221
345.707	150.16
348.6	73.3223
351.493	113.492
354.385	435.404
357.278	695.873
360.171	1012.74
363.063	1459.46
365.956	1830.26
368.849	2038.76
371.741	2280.18
374.634	2453.4
377.527	2421.76
380.419	2704.62
383.312	3112.86
386.205	4052.11
389.098	5462.95
391.99	7487.14
394.883	10324.3
397.776	13067.7
400.668	15151
403.561	15637.8
406.454	14008.9
409.346	11336.7
412.239	8620.16
415.132	6343.05
418.024	4655.46
420.917	3284.79
423.81	2380.44
426.703	1623
429.595	1131.99
432.488	773.623
435.381	598.308
438.273	587.593
441.166	602.267
444.059	649.269
446.952	910.722
449.844	1177.52
452.737	1792.74
455.63	2694.2
458.522	4143.13
461.415	6169.47
464.308	8589.47
467.2	10659
470.093	10787.9
472.986	8454.09
475.878	5725.6
478.771	4008.74
481.664	2892.04
484.557	2260.96
487.449	1662.39
490.342	1283.85
493.235	902.161
496.127	645.592
499.02	383.737
501.913	199.268
504.805	72.46
507.698	37.2002
510.591	110.897
513.484	164.893
516.376	148.69
519.269	66.335
522.162	35.5693
525.054	73.3975
527.947	180.311
530.84	179.048
533.732	208.482
536.625	209.217
539.518	237.836
542.41	276.326
545.303	304.877
548.196	407.517
551.089	451.383
553.981	575.207
556.874	727.8
559.767	778.899
562.659	699.244
565.552	518.458
568.445	376.409
571.337	188.062
574.23	69.8096
577.123	34.6987
580.016	6.99854
582.908	24.7217
585.801	66.4956
588.694	3.88281
591.586	38.2925
594.479	72.6782
597.372	210.186
600.264	299.024
603.157	346.836
606.05	276.981
608.942	270.676
611.835	304.659
614.728	333.041
617.621	320.007
620.513	393.734
623.406	409.881
626.299	472.546
629.191	478.15
632.084	453.549
634.977	532.737
637.87	606.591
640.762	644.401
643.655	722.47
646.548	844.463
649.44	1013.84
652.333	1153.05
655.226	1154.84
658.118	1217.87
661.011	1321.31
663.904	1354.6
666.797	1442.11
669.689	1488.03
672.582	1426.54
675.475	1226.84
678.367	944.946
681.26	693.375
684.153	498.722
687.045	377.362
689.938	299.211
692.831	129.182
695.723	176.503
698.616	43.4648
701.509	29.6279
704.402	16.0942
707.294	30.0322
710.187	27.1445
713.08	15.1157
715.972	15.5718
718.865	63.9326
721.758	129.632
724.65	137.628
727.543	116.95
730.436	126.522
733.328	173.981
736.221	114.209
739.114	141.042
742.007	139.8
744.899	102.056
747.792	133.67
750.685	58.2495
753.577	3.05713
756.47	20.1631
759.363	2.33106
762.255	38.1875
765.148	0.456055
768.041	8.89844
770.934	56.6997
773.826	26.3911
776.719	43.606
779.612	89.6831
782.504	91.3311
785.397	101.475
788.29	143.137
791.183	195.203
794.075	233.994
796.968	266.588
799.861	393.585
802.753	282.509
805.646	255.501
808.539	263.428
811.431	302.64
814.324	204.302
817.217	217.239
820.109	248.376
823.002	119.99
825.895	105.144
828.788	164.448
831.68	120.757
834.573	33.521
837.466	89.5225
840.358	12.3696
843.251	26.2021
846.144	6.5542
849.036	19.8599
851.929	49.5581
854.822	58.623
857.715	49.3291
860.607	66.8916
863.5	59.7393
866.393	121.683
869.285	183.023
872.178	323.812
875.071	487.013
877.963	781.882
880.856	1240.81
883.749	1894.31
886.641	2766.89
889.534	3954.3
892.427	5676.49
895.32	7857.21
898.212	10197.7
901.105	11537
903.998	11357.4
906.89	9494.05
909.783	7167.09
912.676	5227.92
915.568	3877.52
918.461	2942.9
921.354	2391.04
924.246	2079.45
927.139	1820.44
930.032	1745.11
932.925	1753.38
935.817	1770.73
938.71	1920.32
941.603	2058.12
944.495	2165.19
947.388	2132.26
950.281	2109.7
953.173	1789.05
956.066	1333.94
958.959	908.679
961.852	571.226
964.744	253.595
967.637	146.456
970.53	117.072
973.422	69.6533
976.315	2.90918
979.208	32.6133
982.101	26.3857
984.993	70.2891
987.886	73.3682
990.779	185.181
993.671	249.15
996.564	445.47
999.457	609.102
1002.35	850.29
1005.24	1142.57
1008.13	1344.9
1011.03	1695.67
1013.92	1968.44
1016.81	2146.07
1019.71	2070.38
1022.6	1892.78
1025.49	1649.87
1028.38	1382.69
1031.28	1046.88
1034.17	805.995
1037.06	624.941
1039.95	481.851
1042.85	415.285
1045.74	210.383
1048.63	182.599
1051.53	186.607
1054.42	108.868
1057.31	109.203
1060.2	53.2002
1063.1	4.52051
1065.99	24.2876
1068.88	12.4941
1071.77	6.71533
1074.67	29.6831
1077.56	65.2026
1080.45	39.6938
1083.35	35.3813
1086.24	5.22021
1089.13	2.62891
1092.02	25.6504
1094.92	5.11816
1097.81	1.63574
1100.7	84.3916
1103.59	79.2681
1106.49	81.4019
1109.38	71.8779
1112.27	50.1543
1115.16	93.8428
1118.06	95.2383
1120.95	84.0781
1123.84	146.466
1126.73	182.663
1129.63	233.984
1132.52	272.162
1135.41	255.833
1138.31	226.12
1141.2	168.086
1144.09	208.184
1146.98	250.663
1149.88	285.86
1152.77	286.567
1155.66	350.507
1158.56	337.317
1161.45	328.106
1164.34	392.681
1167.23	424.606
1170.13	418.38
1173.02	453.664
1175.91	433.33
1178.8	471.606
1181.7	433.13
1184.59	459.453
1187.48	427.459
1190.38	457.247
1193.27	435.302
1196.16	408.043
1199.05	464.457
1201.94	386.688
1204.84	388.42
1207.73	368.388
1210.62	335.379
1213.52	361.959
1216.41	272.852
1219.3	246.543
1222.19	280.34
1225.09	222.36
1227.98	251.731
1230.87	163.982
1233.77	160.58
1236.66	172.029
1239.55	135.464
1242.44	103.519
1245.34	101.356
1248.23	113.994
1251.12	32.5381
1254.01	35.8813
1256.91	45.0185
1259.8	13.8091
1262.69	13.8301
1265.59	41.1504
1268.48	10.7515
1271.37	58.1538
1274.26	77.8989
1277.16	52.0674
1280.05	6.67041
1282.94	77.3447
1285.83	6.51147
1288.73	59.0764
1291.62	0
