Measurement: Raman, 780 nm, unoriented, Raman Data Processed
Mineral: Stishovite
Rruff sample: R080042
Ideal chemistry: SiO_2_
Locality: Synthetic at 15 GPa/1500ºC
Source: Jürgen Konzett
Description: Transparent single crystal
Measured chemistry: Si_1.00_O_2_; trace amounts of Fe and Al
Raman shift (cm-1)	intensity
139.851	0
142.743	2.54013
145.636	3.2525
148.529	0.172302
151.421	3.25427
154.314	3.56076
157.207	3.5242
160.1	1.31958
162.992	1.83579
165.885	0.82547
168.778	1.37024
171.67	0.26181
174.563	1.77432
177.456	0.302185
180.348	1.55469
183.241	1.68991
186.134	0.018433
189.026	1.4595
191.919	0.245911
194.812	0.855011
197.705	1.78928
200.597	0.581635
203.49	0.320587
206.383	1.88153
209.275	6.3797
212.168	19.0706
215.061	15.376
217.953	18.5754
220.846	26.6949
223.739	35.536
226.632	48.0789
229.524	102.445
232.417	73.1885
235.31	6.11783
238.202	0.782166
241.095	1.02151
243.988	1.55887
246.881	0.387421
249.773	0.714081
252.666	0.39444
255.559	0.869507
258.451	1.07272
261.344	1.38696
264.237	1.75058
267.129	1.92834
270.022	1.78421
272.915	2.26974
275.808	2.07346
278.7	0.360229
281.593	2.60175
284.486	3.25623
287.378	4.08017
290.271	3.45914
293.164	5.12875
296.056	4.60184
298.949	4.0556
301.842	2.62546
304.735	3.4115
307.627	3.15768
310.52	0.898438
313.413	1.09604
316.305	2.88712
319.198	1.18399
322.091	1.47998
324.983	0.774719
327.876	1.9071
330.769	2.07666
333.661	2.2048
336.554	0.532379
339.447	1.82361
342.339	0.882233
345.232	1.56595
348.125	0.440094
351.018	1.90125
353.91	0.330261
356.803	0.69342
359.696	1.86984
362.588	0.60437
365.481	0.906311
368.374	1.53336
371.267	0.437561
374.159	0.858063
377.052	2.47607
379.945	0.578064
382.837	1.35123
385.73	1.47083
388.623	0.79361
391.515	1.08048
394.408	0.879211
397.301	1.93207
400.193	0.969147
403.086	1.25607
405.979	1.29846
408.872	1.4585
411.764	1.59967
414.657	1.30566
417.55	3.63834
420.442	1.60156
423.335	3.13001
426.228	2.70572
429.12	1.93716
432.013	1.4491
434.906	2.19241
437.799	2.19852
440.691	4.13507
443.584	3.05441
446.477	2.5318
449.369	2.45093
452.262	2.51315
455.155	1.01294
458.048	3.92837
460.94	2.51654
463.833	3.26968
466.726	3.53372
469.618	2.58783
472.511	2.7496
475.404	3.62802
478.296	2.19586
481.189	2.42932
484.082	2.71039
486.974	1.12482
489.867	1.15472
492.76	2.20563
495.653	0.95816
498.545	0.85434
501.438	1.74475
504.331	0.459076
507.223	0.555603
510.116	0.961639
513.009	0.460754
515.902	0.871857
518.794	0.434753
521.687	0.221161
524.58	0.364105
527.472	0.175354
530.365	1.63171
533.258	1.75772
536.15	0.522919
539.043	0.117828
541.936	0.657227
544.829	0.333923
547.721	0.545715
550.614	0.239349
553.507	1.2966
556.399	0.7966
559.292	0.720428
562.185	1.37897
565.077	0.411896
567.97	2.44247
570.863	3.01456
573.756	5.90387
576.648	7.5618
579.541	7.88736
582.434	12.6836
585.326	20.7929
588.219	34.544
591.112	15.6091
594.004	4.04074
596.897	4.37909
599.79	1.15784
602.683	2.06943
605.575	2.02341
608.468	3.20233
611.361	4.50253
614.253	4.95653
617.146	2.74768
620.039	2.31758
622.931	1.82234
625.824	2.19774
628.717	1.90004
631.61	0.810608
634.502	1.39603
637.395	0.4991
640.288	2.63506
643.18	1.69533
646.073	0.992264
648.966	0.902283
651.858	0.728271
654.751	1.43805
657.644	2.3591
660.537	1.77978
663.429	2.07797
666.322	0.909882
669.215	2.44156
672.107	1.02145
675	1.39937
677.893	2.07153
680.785	1.25478
683.678	1.08235
686.571	0.882919
689.463	0.43808
692.356	1.98141
695.249	0.427994
698.142	0.645615
701.034	0.006821
703.927	0.672424
706.82	1.0892
709.712	1.74359
712.605	1.8998
715.498	1.64023
718.39	3.98273
721.283	4.80904
724.176	7.42546
727.069	8.99913
729.961	15.0495
732.854	18.1234
735.747	28.4498
738.639	40.0634
741.532	52.6208
744.425	69.0375
747.317	88.6624
750.21	107.909
753.103	109.857
755.996	86.9787
758.888	58.0326
761.781	36.2878
764.674	23.3878
767.566	14.9757
770.459	10.1473
773.352	8.21024
776.245	6.13219
779.137	4.2877
782.03	2.4579
784.923	1.09709
787.815	1.28337
790.708	1.61163
793.601	1.60089
796.493	1.37686
799.386	0.048355
802.279	0.59671
805.172	1.21933
808.064	0.791962
810.957	0.362015
813.85	1.1973
816.742	0.921097
819.635	0.702072
822.528	1.33038
825.42	2.00381
828.313	0.910172
831.206	1.66931
834.098	2.00836
836.991	1.82689
839.884	1.96959
842.777	2.08592
845.669	1.21581
848.562	1.2988
851.455	0.816986
854.347	0.807983
857.24	0.337494
860.133	0.292496
863.025	1.20528
865.918	0.666229
868.811	0.657074
871.704	0.608292
874.596	0.287827
877.489	1.24979
880.382	1.33626
883.274	0.717026
886.167	0.56868
889.06	1.46155
891.952	1.39581
894.845	2.2856
897.738	1.38672
900.631	1.87245
903.523	2.68671
906.416	2.65225
909.309	2.65488
912.201	1.59624
915.094	1.98473
917.987	1.97072
920.88	0.164536
923.772	1.66804
926.665	0.727661
929.558	1.24889
932.45	0.0065
935.343	0.597
938.236	1.15506
941.128	2.6167
944.021	1.64729
946.914	1.67862
949.807	3.94643
952.699	2.71176
955.592	4.95114
958.485	7.56378
961.377	8.38501
964.27	8.29813
967.163	5.16397
970.055	5.18126
972.948	3.12946
975.841	2.20764
978.734	1.13789
981.626	1.23643
984.519	0.681839
987.412	0.908691
990.304	1.3022
993.197	0.161819
996.09	0.574783
998.982	3.09047
1001.88	2.43336
1004.77	0.970383
1007.66	1.62341
1010.55	1.69554
1013.45	3.05972
1016.34	1.76001
1019.23	1.14453
1022.12	1.92494
1025.02	2.42056
1027.91	2.7496
1030.8	2.01759
1033.69	2.10202
1036.59	1.58331
1039.48	3.08177
1042.37	2.27592
1045.27	0.93483
1048.16	1.27168
1051.05	2.05096
1053.94	0.35025
1056.84	0.132965
1059.73	1.32924
1062.62	1.93639
1065.52	0.258224
1068.41	0.235382
1071.3	0.458023
1074.19	0.300949
1077.09	1.10376
1079.98	2.08051
1082.87	2.46738
1085.76	2.15732
1088.66	1.97922
1091.55	1.68961
1094.44	3.6133
1097.33	1.44136
1100.23	1.09474
1103.12	1.49541
1106.01	1.3432
1108.9	1.4286
1111.8	2.25859
1114.69	0.535538
1117.58	1.67895
1120.48	0.00563
1123.37	0.08725
1126.26	1.84674
1129.15	1.03538
1132.05	0.431213
1134.94	0.006088
1137.83	0.773926
1140.72	0.274689
1143.62	0.341019
1146.51	0.255005
1149.4	0.368301
1152.3	0.786636
1155.19	1.61397
1158.08	0.764297
1160.97	0.268173
1163.87	0.765808
1166.76	0.674225
1169.65	0.260193
1172.54	0.003677
1175.44	1.99307
1178.33	2.79805
1181.22	2.62956
1184.12	2.95966
1187.01	1.17421
1189.9	1.15042
1192.79	0.912842
1195.69	0.229843
1198.58	0.735931
1201.47	0.312469
1204.36	1.85577
1207.26	1.66606
1210.15	1.53525
1213.04	2.38123
1215.93	0.819366
1218.83	1.49704
1221.72	1.23337
1224.61	0.702347
1227.51	1.28714
1230.4	0.773911
1233.29	2.81711
1236.18	2.44546
1239.08	2.37413
1241.97	2.2514
1244.86	2.45909
1247.76	1.89413
1250.65	1.90158
1253.54	1.85155
1256.43	1.18939
1259.33	1.54628
1262.22	0.019821
1265.11	0.292404
