Measurement: Raman, 532 nm, unoriented, Raman Data Processed
Mineral: Stishovite
Rruff sample: R080042
Ideal chemistry: SiO_2_
Locality: Synthetic at 15 GPa/1500ºC
Source: Jürgen Konzett
Description: Transparent single crystal
Measured chemistry: Si_1.00_O_2_; trace amounts of Fe and Al
Raman shift (cm-1)	intensity
140.168	0
143.061	0.018974
145.953	0.205147
148.846	1.14324
151.739	1.69836
154.631	2.26828
157.524	0.675198
160.417	1.06913
163.31	1.71657
166.202	0.240471
169.095	0.117306
171.988	0.834969
174.88	0.404781
177.773	0.173748
180.666	0.955536
183.558	0.077274
186.451	0.98069
189.344	0.999962
192.237	1.05116
195.129	0.563286
198.022	0.240536
200.915	1.22968
203.807	0.947819
206.7	0.846668
209.593	3.09041
212.485	20.3929
215.378	27.8573
218.271	31.2925
221.163	38.8116
224.056	46.3094
226.949	62.9436
229.842	145.949
232.734	227.01
235.627	10.203
238.52	2.10267
241.412	2.28879
244.305	1.77248
247.198	0.961853
250.09	0.04557
252.983	0.056988
255.876	1.3121
258.769	0.549587
261.661	0.056652
264.554	0.115322
267.447	1.2778
270.339	1.71831
273.232	0.646976
276.125	1.61245
279.017	0.985481
281.91	0.861897
284.803	0.648216
287.696	0.282928
290.588	1.01181
293.481	0.663513
296.374	0.891281
299.266	0.127258
302.159	0.866463
305.052	0.328556
307.945	0.177849
310.837	0.873241
313.73	0.581882
316.623	0.864288
319.515	0.555611
322.408	1.1903
325.301	0.934864
328.193	1.61159
331.086	1.61132
333.979	0.902519
336.872	0.731049
339.764	1.69346
342.657	2.02835
345.55	0.372326
348.442	1.52206
351.335	1.30853
354.228	1.66682
357.12	0.67485
360.013	1.06461
362.906	0.577473
365.798	0.323055
368.691	0.282917
371.584	0.573864
374.477	0.065453
377.369	0.058151
380.262	0.940739
383.155	0.974934
386.047	1.67155
388.94	1.97975
391.833	3.02623
394.726	0.985889
397.618	1.5456
400.511	1.3756
403.404	1.33073
406.296	0.491821
409.189	1.57173
412.082	0.497726
414.974	1.25565
417.867	0.641903
420.76	1.79603
423.652	1.33664
426.545	0.377094
429.438	0.965881
432.331	0.952137
435.223	0.803852
438.116	0.5854
441.009	0.036755
443.901	0.605389
446.794	0.132092
449.687	0.117405
452.579	0.536163
455.472	0.398453
458.365	0.452721
461.258	0.156532
464.15	0.078293
467.043	0.263596
469.936	0.12682
472.828	0.769943
475.721	0.621151
478.614	1.1509
481.507	0.941326
484.399	1.50034
487.292	0.815807
490.185	1.35848
493.077	1.23745
495.97	0.461582
498.863	1.10231
501.755	0.220436
504.648	0.369312
507.541	1.30257
510.433	0.764694
513.326	0.246586
516.219	1.80944
519.112	0.813175
522.004	0.61504
524.897	0.347847
527.79	0.231083
530.682	0.923328
533.575	0.824745
536.468	0.731804
539.361	0.09486
542.253	0.653469
545.146	0.506504
548.039	0.691586
550.931	0.536232
553.824	0.440487
556.717	0.428829
559.609	1.50612
562.502	1.31733
565.395	1.65828
568.288	1.81047
571.18	2.29844
574.073	6.3036
576.966	9.26187
579.858	10.6871
582.751	17.2402
585.644	29.2643
588.536	46.8705
591.429	36.0403
594.322	6.95822
597.214	2.38833
600.107	1.33585
603	1.09982
605.893	0.901585
608.785	1.31839
611.678	0.752777
614.571	0.707565
617.463	0.348225
620.356	0.042656
623.249	1.30373
626.141	1.29419
629.034	1.3769
631.927	1.56603
634.819	2.09025
637.712	3.90612
640.605	2.94223
643.498	2.80394
646.39	1.78332
649.283	1.05339
652.176	1.62949
655.068	1.0286
657.961	0.767792
660.854	1.25889
663.746	1.41278
666.639	2.29702
669.532	1.3874
672.425	1.78044
675.317	0.909985
678.21	0.199451
681.103	0.006927
683.995	0.224545
686.888	0.642597
689.781	0.102375
692.673	0.231091
695.566	0.900452
698.459	0.675549
701.352	0.067078
704.244	0.822769
707.137	0.288254
710.03	0.923668
712.922	2.87365
715.815	4.18102
718.708	6.66947
721.601	8.16118
724.493	12.1893
727.386	15.5281
730.279	21.0894
733.171	29.817
736.064	46.5392
738.957	69.7111
741.849	99.8297
744.742	136.183
747.635	185.146
750.528	238.359
753.42	267.038
756.313	236.51
759.206	162.318
762.098	103.166
764.991	66.938
767.884	45.2247
770.776	32.8196
773.669	23.9315
776.562	18.4048
779.455	13.4291
782.347	9.24705
785.24	7.62272
788.133	6.25069
791.025	4.84832
793.918	3.28223
796.811	2.14967
799.703	2.06853
802.596	2.76828
805.489	2.46174
808.381	2.84792
811.274	2.79554
814.167	2.57184
817.06	3.75628
819.952	3.64278
822.845	3.92877
825.738	3.61607
828.63	2.92117
831.523	2.92817
834.416	3.09817
837.308	3.35152
840.201	2.12428
843.094	1.68513
845.987	0.782673
848.879	1.00896
851.772	0.153175
854.665	0.251793
857.557	0.206989
860.45	0.139908
863.343	0.316597
866.236	0.545166
869.128	0.740059
872.021	0.094505
874.914	0.581371
877.806	0.163788
880.699	0.160217
883.592	0.845997
886.484	1.09295
889.377	1.72606
892.27	3.51078
895.163	5.37721
898.055	6.26335
900.948	5.60697
903.841	6.06716
906.733	5.4259
909.626	7.22044
912.519	5.6593
915.411	4.87101
918.304	5.08859
921.197	5.3465
924.09	4.00909
926.982	3.65683
929.875	3.06709
932.768	2.78229
935.66	2.47173
938.553	3.33015
941.446	1.62538
944.338	2.10539
947.231	3.69143
950.124	5.73013
953.016	8.25099
955.909	14.0208
958.802	19.0111
961.695	22.7374
964.587	26.5856
967.48	25.8841
970.373	16.8127
973.265	11.8732
976.158	7.2869
979.051	4.51382
981.943	3.13664
984.836	1.07839
987.729	1.91112
990.621	0.858986
993.514	0.113754
996.407	0.425674
999.3	0.239376
1002.19	0.621593
1005.09	1.0653
1007.98	0.651325
1010.87	1.05482
1013.76	0.921593
1016.66	1.15285
1019.55	1.08446
1022.44	0.341087
1025.33	0.263168
1028.23	1.18667
1031.12	1.76798
1034.01	1.0387
1036.9	0.61208
1039.8	0.650475
1042.69	0.819164
1045.58	0.911407
1048.48	0.300858
1051.37	0.863487
1054.26	0.147537
1057.15	0.251621
1060.05	1.14734
1062.94	0.656303
1065.83	0.300819
1068.72	0.958942
1071.62	0.851791
1074.51	0.804184
1077.4	0.463726
1080.3	1.94246
1083.19	1.95726
1086.08	2.66034
1088.97	2.82171
1091.87	3.50566
1094.76	3.82408
1097.65	3.55998
1100.54	3.79123
1103.44	3.70981
1106.33	4.53251
1109.22	6.05088
1112.12	6.05876
1115.01	6.99622
1117.9	4.49815
1120.79	3.35376
1123.69	1.72492
1126.58	1.0823
1129.47	0.601616
1132.36	0.651691
1135.26	0.209709
1138.15	1.03175
1141.04	0.362179
1143.93	0.863411
1146.83	0.27063
1149.72	1.56512
1152.61	0.688866
1155.51	0.587791
1158.4	1.51635
1161.29	0.444675
1164.18	0.286388
1167.08	1.1229
1169.97	0.471348
1172.86	0.515446
1175.75	0.869175
1178.65	3.37649
1181.54	3.90649
1184.43	4.04038
1187.33	3.61948
1190.22	3.11954
1193.11	1.96342
1196	1.17815
1198.9	0.73106
1201.79	0.281612
1204.68	1.01316
1207.57	0.736691
1210.47	1.53593
1213.36	1.44459
1216.25	2.69933
1219.14	1.97689
1222.04	3.65943
1224.93	3.46686
1227.82	2.80166
1230.72	2.72427
1233.61	3.15115
1236.5	2.48363
1239.39	2.72917
1242.29	2.92751
1245.18	2.5915
1248.07	3.69999
1250.96	3.82096
1253.86	1.99432
1256.75	1.38901
1259.64	1.82378
1262.54	1.37302
1265.43	0.414795
1268.32	0.398506
1271.21	0.137012
1274.11	0.552948
1277	0.124454
1279.89	0.831646
1282.78	1.46202
1285.68	0.712978
1288.57	0.271961
1291.46	1.78082
1294.36	1.17003
