Measurement: Raman, 532 nm, unoriented, Raman Data Processed
Mineral: Stishovite
Rruff sample: R070183
Ideal chemistry: SiO_2_
Locality: Synthetic
Source: P. Dera
Description: Colorless fragment
Measured chemistry: Si_1.00_O_2_
Raman shift (cm-1)	intensity
197.391	0
200.284	51.8955
203.177	36.8184
206.07	52.4717
208.962	69.1367
211.855	39.5176
214.748	107.856
217.64	387.133
220.533	525.093
223.426	838.843
226.318	1639.35
229.211	2982.79
232.104	3602.47
234.996	214.507
237.889	68.6113
240.782	73.5244
243.675	69.2529
246.567	170.573
249.46	101.342
252.353	115.603
255.245	78.1875
258.138	206.323
261.031	65.6074
263.923	175.606
266.816	39.294
269.709	77.3223
272.602	50.6514
275.494	117.005
278.387	57.3545
281.28	125.439
284.173	35.4756
287.065	172.916
289.958	103.495
292.851	110.769
295.743	41.2393
298.636	21.6426
301.529	61.4141
304.421	118.992
307.314	26.4805
310.207	87.4551
313.099	20.5762
315.992	89.6406
318.885	28.7129
321.778	56.4629
324.67	50.8125
327.563	86.291
330.456	37.4551
333.348	8.95117
336.241	12.1406
339.134	14.5098
342.026	99.6777
344.919	91.8945
347.812	106.4
350.705	132.693
353.597	127.941
356.49	145.174
359.383	204.012
362.275	184.725
365.168	165.861
368.061	145.768
370.954	153.231
373.846	78.0957
376.739	69.9336
379.632	125.326
382.524	130.492
385.417	248.877
388.31	160.785
391.202	179.545
394.095	121.291
396.988	176.301
399.88	62.0098
402.773	85.084
405.666	11.5684
408.559	94.4082
411.451	7.39258
414.344	41.9727
417.237	90.1641
420.129	66.4707
423.022	84.3652
425.915	107.504
428.808	81.0879
431.7	16.2539
434.593	3.38867
437.486	104.336
440.378	48.5156
443.271	45.0957
446.164	50.9277
449.056	25.8652
451.949	28.9492
454.842	177.412
457.735	24.2188
460.627	32.9805
463.52	117.481
466.413	132.967
469.305	30.0645
472.198	154.258
475.091	142.897
477.983	132.08
480.876	13.3516
483.769	84.9375
486.661	91.2109
489.554	131.701
492.447	100.062
495.34	181.435
498.232	121.322
501.125	242.072
504.018	181.438
506.911	129.279
509.803	157.455
512.696	124.082
515.589	127.693
518.481	27.3984
521.374	76.666
524.267	66
527.159	12.377
530.052	61.6387
532.945	80.0508
535.837	19.4004
538.73	69.6523
541.623	60.1719
544.516	1.13477
547.408	89.4746
550.301	0.421875
553.194	22.7754
556.086	56.9238
558.979	22.2383
561.872	0.644531
564.764	47.0605
567.657	4.58984
570.55	80.1289
573.443	128.369
576.335	228.611
579.228	422.055
582.121	583.979
585.013	1000.39
587.906	1737.98
590.799	827.129
593.692	106.088
596.584	146.441
599.477	43.1934
602.37	102.562
605.262	282.738
608.155	153
611.048	143.342
613.94	197.344
616.833	183.068
619.726	209.176
622.619	282.998
625.511	256.99
628.404	337.514
631.297	285.824
634.189	295.932
637.082	341.834
639.975	456.693
642.867	355.799
645.76	314.994
648.653	268.457
651.545	282.934
654.438	354.002
657.331	315.465
660.224	306.246
663.116	219.877
666.009	215.211
668.902	139.84
671.794	42.3457
674.687	145.15
677.58	100.84
680.472	26.627
683.365	188.402
686.258	33.8164
689.151	10.1797
692.043	46.125
694.936	25.2598
697.829	39.8711
700.721	26.584
703.614	140.815
706.507	59.4062
709.399	98.2637
712.292	107.672
715.185	106.894
718.078	220.859
720.97	204.301
723.863	217.4
726.756	389.912
729.648	379.213
732.541	765.309
735.434	922.057
738.327	1476.82
741.219	2277.1
744.112	3275.85
747.005	4829.73
749.897	6281.99
752.79	6880
755.683	5691.14
758.576	3858.02
761.468	2412.51
764.361	1692.26
767.254	1091.44
770.146	851.062
773.039	606.75
775.932	484.803
778.824	368.369
781.717	309.621
784.61	184.217
787.503	217.674
790.395	159.418
793.288	264.973
796.181	8.11523
799.073	57.5508
801.966	42.4629
804.859	143.768
807.751	92.9531
810.644	63.0156
813.537	91.8887
816.429	88.5078
819.322	55.9922
822.215	76.2754
825.108	40.916
828	1.22266
830.893	44.3223
833.786	76.8906
836.678	34.1602
839.571	66.7344
842.464	71.0703
845.356	134.434
848.249	151.49
851.142	102.113
854.035	268.562
856.927	264.693
859.82	144.133
862.713	200.566
865.605	109.576
868.498	100.738
871.391	3.30273
874.284	13.4316
877.176	17.7891
880.069	110.805
882.962	116.74
885.854	85.3106
888.747	45.0371
891.64	136.453
894.533	157.029
897.425	132.08
900.318	200.035
903.211	116.939
906.103	310.744
908.996	159.797
911.889	177.666
914.781	174.654
917.674	3.45508
920.567	124.434
923.46	198.125
926.352	24.3809
929.245	8.41016
932.138	27.75
935.03	81.082
937.923	72.5957
940.816	12.9824
943.708	35.0898
946.601	28.5879
949.494	132.305
952.386	165.252
955.279	314.627
958.172	412.725
961.065	573.092
963.957	465.553
966.85	531.137
969.743	301.898
972.635	212.103
975.528	162.309
978.421	177.578
981.313	5.17969
984.206	104.346
987.099	39.0527
989.992	36.666
992.884	55.457
995.777	52.8516
998.67	4.5
1001.56	60.0781
1004.46	70.0137
1007.35	101.127
1010.24	98.3379
1013.13	120.15
1016.03	79.2227
1018.92	77.6309
1021.81	27.3574
1024.7	131.154
1027.6	71.8106
1030.49	147.867
1033.38	69.5938
1036.28	118.643
1039.17	186.26
1042.06	38.4688
1044.95	106.676
1047.85	52.3242
1050.74	120.449
1053.63	51.1777
1056.52	186.316
1059.42	43.248
1062.31	71.1445
1065.2	45.5586
1068.09	10.8789
1070.99	99.6172
1073.88	130.185
1076.77	96.8633
1079.66	36.4258
1082.56	12.4844
1085.45	117.133
1088.34	191.449
1091.24	28.5527
1094.13	43.1875
1097.02	184.787
1099.91	206.062
1102.81	103.393
1105.7	201.92
1108.59	210.894
1111.48	123.178
1114.38	155.871
1117.27	224.322
1120.16	195.348
1123.06	55.209
1125.95	179.143
1128.84	59.3867
1131.73	171.967
1134.63	239.713
1137.52	124.111
1140.41	101.59
1143.31	101.045
1146.2	142.057
1149.09	191.731
1151.98	101.51
1154.88	185.703
1157.77	312.445
1160.66	195.463
1163.55	88
1166.45	221.195
1169.34	206.033
1172.23	132.731
1175.12	79.1328
1178.02	92.5117
1180.91	154.81
1183.8	107.775
1186.69	179.453
1189.59	26.3398
1192.48	15.8379
1195.37	49.8926
1198.27	96.7383
1201.16	38.9375
1204.05	84.959
1206.94	64.9844
1209.84	62.3496
1212.73	80.3301
1215.62	29.3867
1218.52	36.8301
1221.41	117.35
1224.3	258.211
1227.19	62.9844
1230.09	73.8008
1232.98	22.8926
1235.87	142.557
1238.76	228.338
1241.66	116.156
1244.55	63.6836
1247.44	154.693
1250.34	140.57
1253.23	268.625
1256.12	136.168
1259.01	206.184
1261.91	123.25
1264.8	144.652
1267.69	182.219
1270.58	176.791
1273.48	311.734
1276.37	185.213
1279.26	45.7656
1282.15	110.334
1285.05	162.123
1287.94	140.397
1290.83	75.5762
1293.72	79.1133
1296.62	104.557
1299.51	120.242
1302.4	114.176
1305.3	82.4238
1308.19	84.334
1311.08	80.2559
1313.97	76.8984
