Measurement: Raman, 780 nm, unoriented, Raman Data Processed
Mineral: Stoiberite
Rruff sample: R080056
Ideal chemistry: Cu_5_O_2_(VO_4_)_2_
Locality: Izalco Volcano, Sonsonate Department, El Salvador
Source: Michael Scott
Description: Black, exhibiting a metallic sheen; reddish brown under the microscope
Raman shift (cm-1)	intensity
150.338	0
153.23	0.450939
156.123	1.24632
159.016	1.60011
161.909	2.18746
164.801	1.96224
167.694	2.41114
170.587	1.31852
173.479	0.377609
176.372	0.060902
179.265	0.109798
182.157	0.244431
185.05	0.127323
187.943	0.447491
190.835	1.09976
193.728	3.36356
196.621	4.02276
199.514	9.26234
202.406	22.3999
205.299	59.4069
208.192	77.8509
211.084	84.1308
213.977	106.235
216.87	136.794
219.762	182.688
222.655	268.172
225.548	367.164
228.441	165.853
231.333	47.2285
234.226	20.448
237.119	12.5193
240.011	9.52301
242.904	10.8678
245.797	9.69931
248.69	3.56802
251.582	1.41258
254.475	1.82575
257.368	2.74301
260.26	5.62138
263.153	9.64481
266.046	18.0957
268.938	33.8375
271.831	63.0467
274.724	88.717
277.616	108.898
280.509	141.033
283.402	178.307
286.295	227.67
289.187	298.581
292.08	330.1
294.973	226.322
297.865	164.286
300.758	120.806
303.651	75.2758
306.543	47.2078
309.436	31.153
312.329	20.2928
315.221	15.1023
318.114	10.1693
321.007	7.31957
323.9	5.64079
326.792	4.03937
329.685	2.99602
332.578	2.44535
335.47	1.43464
338.363	0.38509
341.256	0.034142
344.149	0.029419
347.041	0.881512
349.934	0.699982
352.827	0.314789
355.719	0.144491
358.612	0.662943
361.505	0.263147
364.397	0.622061
367.29	1.38927
370.183	1.75308
373.075	2.99445
375.968	4.41502
378.861	5.84798
381.754	8.95447
384.646	12.7636
387.539	18.2837
390.432	25.7971
393.324	35.3128
396.217	45.4586
399.11	54.6077
402.002	64.9945
404.895	77.668
407.788	86.3602
410.681	84.6682
413.573	66.1423
416.466	43.1798
419.359	26.1721
422.251	17.3065
425.144	10.9733
428.037	6.9291
430.93	4.438
433.822	2.75728
436.715	1.87141
439.608	1.17555
442.5	0.272196
445.393	0.319407
448.286	0.373127
451.178	0.458145
454.071	0.266287
456.964	0.501291
459.856	0.548454
462.749	0.654711
465.642	1.812
468.535	2.50486
471.427	4.31072
474.32	6.64064
477.213	9.94004
480.105	14.133
482.998	18.0169
485.891	22.5077
488.783	27.6788
491.676	31.9666
494.569	34.1409
497.462	32.925
500.354	29.0199
503.247	22.3477
506.14	15.2234
509.032	9.91061
511.925	6.0981
514.818	3.8152
517.71	2.56552
520.603	1.21288
523.496	0.958269
526.389	0.219732
529.281	0.597803
532.174	0.00559
535.067	0.243162
537.959	0.473278
540.852	0.102499
543.745	0.498953
546.638	0.059496
549.53	0.388784
552.423	1.02946
555.316	2.18589
558.208	3.46501
561.101	4.19902
563.994	5.3429
566.886	6.3777
569.779	8.00317
572.672	9.32012
575.564	10.841
578.457	12.8096
581.35	14.2986
584.243	17.3624
587.135	19.2695
590.028	22.3148
592.921	23.6164
595.813	26.1587
598.706	27.7364
601.599	30.5499
604.491	32.9013
607.384	35.2779
610.277	34.6607
613.169	29.3763
616.062	21.2863
618.955	13.5968
621.848	8.76094
624.74	5.17484
627.633	3.06941
630.526	1.94273
633.418	1.34842
636.311	0.476147
639.204	0.636688
642.096	0.620237
644.989	0.454771
647.882	1.09026
650.775	1.18051
653.667	1.46951
656.56	1.83966
659.453	2.07645
662.345	2.2333
665.238	1.96072
668.131	1.92869
671.024	1.91013
673.916	1.81566
676.809	1.58557
679.702	1.32323
682.594	0.750668
685.487	1.04379
688.38	0.798265
691.272	0.528389
694.165	0.28348
697.058	0.291302
699.951	0.388464
702.843	0.037971
705.736	0.235638
708.629	0.00494
711.521	0.048193
714.414	0.22448
717.307	0.350892
720.199	0.228932
723.092	0.05162
725.985	0.275684
728.877	0.168537
731.77	0.005695
734.663	0.108126
737.556	0.284565
740.448	0.047956
743.341	0.26815
746.234	0.258327
749.126	0.496031
752.019	0.611341
754.912	0.59304
757.804	0.430588
760.697	0.736877
763.59	0.737778
766.482	0.195007
769.375	0.975834
772.268	0.420582
775.161	0.771826
778.053	1.15984
780.946	1.48826
783.839	2.47946
786.731	3.77539
789.624	5.83613
792.517	9.6492
795.409	13.9192
798.302	20.9731
801.195	32.4662
804.088	48.5891
806.98	64.6071
809.873	79.7527
812.766	94.1943
815.658	103.031
818.551	99.5184
821.444	83.1119
824.337	66.7197
827.229	56.835
830.122	54.3167
833.015	57.3566
835.907	65.2445
838.8	73.9801
841.693	82.4788
844.585	87.4492
847.478	86.6757
850.371	78.1569
853.264	63.4995
856.156	47.6836
859.049	33.1298
861.942	23.7541
864.834	16.2306
867.727	10.5698
870.62	7.77694
873.512	5.33309
876.405	3.58155
879.298	2.4511
882.191	1.58371
885.083	0.669027
887.976	0.051744
890.869	0.074677
893.761	0.035873
896.654	0.421902
899.547	0.941151
902.439	0.140474
905.332	0.06995
908.225	0.366471
911.117	0.182904
914.01	0.313304
916.903	0.112838
919.796	0.079484
922.688	0.6287
925.581	0.616722
928.474	1.67298
931.366	2.76151
934.259	3.41951
937.152	4.50598
940.044	5.8943
942.937	6.49774
945.83	7.4867
948.723	7.43479
951.615	7.03459
954.508	6.9843
957.401	5.94068
960.293	5.17947
963.186	3.94777
966.079	2.99825
968.971	2.74696
971.864	2.07605
974.757	1.53359
977.65	1.40136
980.542	1.35624
983.435	0.963458
986.328	0.504382
989.22	0.580429
992.113	0.286664
995.006	0.219518
997.899	0.230069
1000.79	0.02779
1003.68	0.402147
1006.58	0.21857
1009.47	0.179793
1012.36	0.64576
1015.25	0.372266
1018.15	0.609208
1021.04	1.2184
1023.93	0.811916
1026.83	0.616092
1029.72	0.065563
1032.61	0.371303
1035.5	0.472802
1038.4	0.172641
1041.29	0.72961
1044.18	0.444065
1047.07	0.747715
1049.97	0.847695
1052.86	0.875305
1055.75	0.597828
1058.64	0.235561
1061.54	0.044664
1064.43	0.109487
1067.32	0.310871
1070.22	0.094643
1073.11	0.361215
1076	0.373902
1078.89	0.47399
1081.79	0.22513
1084.68	0.289624
1087.57	0.567701
1090.46	0.700409
1093.36	0.502202
1096.25	0.36923
1099.14	0.054458
1102.04	0.184675
1104.93	0.17754
1107.82	0.587718
1110.71	0.580789
1113.61	0.229787
1116.5	0.037856
1119.39	0.679845
1122.29	0.163155
1125.18	0.689557
1128.07	0.387488
1130.96	0.224098
1133.86	0.109359
1136.75	0.024683
1139.64	0.198236
1142.53	0.002922
1145.43	0.036932
1148.32	0.250669
1151.21	0.306598
1154.1	0.127489
1157	0.354349
1159.89	0.106737
1162.78	0.150268
1165.67	0.134643
1168.57	0.009897
1171.46	0.716758
1174.35	0.517695
1177.25	0.437146
1180.14	0.520994
1183.03	0.303513
1185.92	0.273705
1188.82	0.641028
1191.71	0.50332
1194.6	0.260599
1197.49	0.426686
1200.39	0.889415
1203.28	0.444196
1206.17	0.29121
1209.07	0.398784
1211.96	0.078755
1214.85	0.326289
1217.74	0.208876
1220.64	0.371104
1223.53	0.406911
1226.42	0.490032
1229.31	0.603139
1232.21	0.651348
1235.1	0.479894
1237.99	0.523014
1240.88	0.030632
1243.78	0.310233
1246.67	0.693495
1249.56	0.334278
1252.46	0.197772
1255.35	0.273879
1258.24	0.418235
1261.13	0.331248
1264.03	0.283286
1266.92	0.633606
1269.81	0.522137
1272.7	0.323916
1275.6	0.309025
1278.49	0.046988
1281.38	0.193219
1284.28	0.204562
