Measurement: Raman, 532 nm, unoriented, Raman Data Processed
Mineral: Stoiberite
Rruff sample: R080056
Ideal chemistry: Cu_5_O_2_(VO_4_)_2_
Locality: Izalco Volcano, Sonsonate Department, El Salvador
Source: Michael Scott
Description: Black, exhibiting a metallic sheen; reddish brown under the microscope
Raman shift (cm-1)	intensity
150.665	0
153.558	0.271721
156.451	1.25599
159.343	0.603127
162.236	1.19771
165.129	1.38909
168.021	2.25679
170.914	1.653
173.807	0.628983
176.699	0.106113
179.592	0.652229
182.485	0.554302
185.377	0.388783
188.27	0.002497
191.163	0.54126
194.056	0.52927
196.948	2.15944
199.841	2.58429
202.734	3.86249
205.626	6.63645
208.519	10.045
211.412	11.812
214.304	14.9875
217.197	17.8066
220.09	25.5349
222.983	39.9314
225.875	57.7481
228.768	35.2828
231.661	13.4895
234.553	6.19118
237.446	4.39892
240.339	4.67287
243.232	5.48075
246.124	5.85302
249.017	3.6971
251.91	1.01042
254.802	0.324047
257.695	0.480288
260.588	0.417894
263.48	0.081997
266.373	1.64576
269.266	3.27356
272.159	5.18592
275.051	8.8052
277.944	13.3986
280.837	18.469
283.729	25.0138
286.622	33.8285
289.515	45.0288
292.407	53.074
295.3	49.5802
298.193	45.7968
301.086	45.1176
303.978	39.7805
306.871	35.7053
309.764	30.9392
312.656	26.1493
315.549	20.502
318.442	16.3498
321.334	12.6101
324.227	10.0048
327.12	8.5118
330.012	7.31309
332.905	6.55777
335.798	5.20322
338.691	3.83057
341.583	3.17755
344.476	2.03088
347.369	0.87108
350.261	0.378674
353.154	0.136427
356.047	0.144499
358.94	0.076132
361.832	0.022308
364.725	0.174881
367.618	0.118168
370.51	0.547228
373.403	0.503002
376.296	0.940432
379.188	1.17727
382.081	3.37782
384.974	4.80003
387.866	7.49358
390.759	10.3202
393.652	15.0218
396.545	20.5009
399.437	25.5096
402.33	31.4309
405.223	34.1665
408.115	36.2272
411.008	36.253
413.901	34.0555
416.793	28.8363
419.686	21.6804
422.579	14.531
425.472	9.40889
428.364	5.54947
431.257	2.9728
434.15	1.80645
437.042	0.567278
439.935	0.087049
442.828	0.434868
445.721	0.054558
448.613	0.066015
451.506	0.156744
454.399	0.426157
457.291	0.791546
460.184	0.985493
463.077	0.805773
465.969	0.980137
468.862	0.852484
471.755	0.267267
474.647	1.27975
477.54	1.87868
480.433	2.10132
483.326	2.96605
486.218	3.26101
489.111	4.74323
492.004	5.81821
494.896	6.31754
497.789	7.40358
500.682	7.11911
503.575	5.82688
506.467	4.43813
509.36	4.40714
512.253	3.6793
515.145	2.84617
518.038	2.30246
520.931	3.19807
523.823	3.70583
526.716	5.28639
529.609	6.41805
532.501	7.02331
535.394	6.68603
538.287	3.8599
541.18	2.07766
544.072	0.152752
546.965	0.437351
549.858	0.445351
552.75	0.532703
555.643	0.863474
558.536	1.43683
561.428	3.37102
564.321	5.37137
567.214	6.86629
570.107	9.59161
572.999	11.1949
575.892	13.126
578.785	15.386
581.677	18.303
584.57	22.2042
587.463	26.6038
590.356	28.9979
593.248	31.2707
596.141	31.2651
599.034	28.9927
601.926	25.7764
604.819	21.7387
607.712	18.4946
610.604	14.6641
613.497	11.257
616.39	8.78661
619.283	5.53636
622.175	3.80372
625.068	2.77575
627.961	1.15789
630.853	1.02429
633.746	0.561382
636.639	0.456703
639.531	0.605801
642.424	0.943825
645.317	1.53739
648.21	2.08818
651.102	2.7341
653.995	3.85022
656.888	4.3395
659.78	5.28337
662.673	4.88666
665.566	5.18424
668.458	4.30383
671.351	4.52421
674.244	3.83806
677.136	3.61633
680.029	3.32191
682.922	2.94904
685.815	2.37551
688.707	2.13139
691.6	1.97109
694.493	1.64361
697.385	1.12125
700.278	1.50067
703.171	1.03725
706.063	0.5457
708.956	0.759438
711.849	0.4436
714.741	0.223091
717.634	0.210075
720.527	0.37582
723.42	0.285948
726.312	0.108536
729.205	0.295172
732.098	0.288757
734.99	0.4177
737.883	0.511095
740.776	0.167593
743.668	0.435831
746.561	0.036776
749.454	0.025518
752.347	0.381556
755.239	0.154013
758.132	0.194859
761.025	0.952581
763.917	0.150671
766.81	0.14226
769.703	0.530869
772.596	0.932167
775.488	1.67775
778.381	2.35881
781.274	3.59278
784.166	5.70858
787.059	7.72584
789.952	12.0659
792.844	17.9311
795.737	27.6789
798.63	40.9829
801.523	62.7187
804.415	95.954
807.308	139.622
810.201	198.379
813.093	269.723
815.986	347.218
818.879	392.12
821.771	356.746
824.664	276.591
827.557	210.001
830.449	175.072
833.342	160.427
836.235	166.721
839.128	184.87
842.02	212.284
844.913	246.668
847.806	276.6
850.698	277.242
853.591	241.416
856.484	188.499
859.376	134.456
862.269	92.3474
865.162	63.0796
868.055	42.9136
870.947	28.9412
873.84	19.2234
876.733	12.8342
879.625	8.9935
882.518	5.17913
885.411	3.97372
888.303	2.66152
891.196	1.12833
894.089	1.02206
896.982	0.53326
899.874	0.863255
902.767	1.32597
905.66	0.630848
908.552	0.747875
911.445	0.535809
914.338	0.013241
917.231	0.013092
920.123	0.394577
923.016	0.119434
925.909	1.13166
928.801	2.88928
931.694	5.46489
934.587	7.67974
937.479	11.0921
940.372	15.2732
943.265	19.9338
946.158	23.7938
949.05	25.7661
951.943	25.7225
954.836	25.0153
957.728	23.4771
960.621	20.079
963.514	17.2644
966.406	14.1449
969.299	11.9588
972.192	9.26788
975.085	7.00697
977.977	5.40632
980.87	4.4307
983.763	3.76244
986.655	3.49675
989.548	2.6041
992.441	2.09702
995.333	0.954403
998.226	0.726027
1001.12	0.552443
1004.01	0.134226
1006.9	0.130205
1009.8	0.048861
1012.69	0.008089
1015.58	0.031315
1018.48	0.074652
1021.37	0.461679
1024.26	0.964237
1027.15	1.00296
1030.05	0.987953
1032.94	1.14329
1035.83	1.21463
1038.72	2.1031
1041.62	1.82062
1044.51	1.71126
1047.4	1.82955
1050.3	1.2576
1053.19	1.31931
1056.08	1.44226
1058.97	1.21944
1061.87	1.24061
1064.76	1.76052
1067.65	1.24679
1070.54	0.715479
1073.44	0.754301
1076.33	0.773436
1079.22	0.722481
1082.11	0.803936
1085.01	0.700451
1087.9	1.32351
1090.79	1.14833
1093.68	1.5541
1096.58	1.24499
1099.47	2.05629
1102.36	2.09824
1105.26	1.68275
1108.15	2.12236
1111.04	2.3831
1113.93	2.8293
1116.83	2.37136
1119.72	1.36223
1122.61	1.28537
1125.51	1.07716
1128.4	0.918053
1131.29	0.878462
1134.18	0.556915
1137.08	0.524965
1139.97	0.516346
1142.86	0.207041
1145.75	0.126307
1148.65	0.326464
1151.54	0.077536
1154.43	0.247122
1157.33	0.250626
1160.22	0.007277
1163.11	0.352474
1166	0.594931
1168.89	1.32859
1171.79	0.991064
1174.68	1.18573
1177.57	1.7681
1180.47	1.77201
1183.36	2.07541
1186.25	2.32276
1189.14	2.25784
1192.04	2.56048
1194.93	2.19201
1197.82	1.80542
1200.71	1.34618
1203.61	1.81001
1206.5	1.53898
1209.39	1.10951
1212.29	0.739067
1215.18	0.240326
1218.07	0.212196
1220.96	0.122936
1223.86	0.636471
1226.75	0.811127
1229.64	0.280411
1232.54	0.232521
1235.43	0.156956
1238.32	0.81572
1241.21	0.8834
1244.11	0.989239
1247	1.40331
1249.89	0.972252
1252.78	1.23629
1255.68	0.910065
1258.57	1.09669
1261.46	0.778091
1264.35	0.608849
1267.25	0.06332
1270.14	0.12011
