Measurement: Raman, 532 nm, unoriented, Raman Data Processed
Mineral: Stokesite
Rruff sample: R060587
Ideal chemistry: CaSnSi_3_O_9_2H_2_O
Locality: Urucum mine, Galileia, Minas Gerais, Brazil
Source: Michael Scott
Description: Spherical aggregate of colorless prismatic crystals
Raman shift (cm-1)	intensity
89.7832	0
93.158	96.6446
96.5328	177.555
99.9077	333.299
103.282	806.221
106.657	1572.57
110.032	1166.89
113.407	507.627
116.782	209.387
120.157	49.8134
123.531	5.87659
126.906	19.9231
130.281	13.9511
133.656	4.44873
137.031	32.2311
140.405	90.1103
143.78	145.746
147.155	223.579
150.53	330.652
153.905	443.256
157.28	545.538
160.654	610.642
164.029	639.256
167.404	601.678
170.779	516.986
174.154	420.114
177.528	333.146
180.903	242.558
184.278	165.383
187.653	85.8195
191.028	33.8491
194.403	6.47571
197.777	4.5943
201.152	25.9194
204.527	75.6347
207.902	154.69
211.277	284.724
214.651	494.186
218.026	765.364
221.401	1098.61
224.776	1578.24
228.151	2333.65
231.525	3093.47
234.9	2852.98
238.275	2078.16
241.65	1544.48
245.025	1284.39
248.4	1118.63
251.774	997.219
255.149	895.624
258.524	762.969
261.899	616.159
265.274	518.396
268.649	436.066
272.023	306.427
275.398	189.737
278.773	107.578
282.148	57.2491
285.523	26.2793
288.897	9.7948
292.272	1.43008
295.647	6.18375
299.022	9.25717
302.397	9.8338
305.772	8.48694
309.146	3.36667
312.521	0.364716
315.896	9.36981
319.271	14.647
322.646	19.2484
326.02	25.1122
329.395	30.3011
332.77	33.6368
336.145	34.7482
339.52	33.4224
342.894	34.9921
346.269	33.3085
349.644	33.0368
353.019	32.7643
356.394	35.2931
359.769	44.6009
363.143	56.1521
366.518	62.7032
369.893	55.5902
373.268	40.7253
376.643	24.1461
380.017	8.65329
383.392	1.66885
386.767	0.077637
390.142	2.68921
393.517	6.591
396.892	16.8575
400.266	34.0016
403.641	59.2859
407.016	94.2342
410.391	139.662
413.766	192.464
417.14	236.439
420.515	252.974
423.89	236.681
427.265	197.532
430.64	158.457
434.014	122.032
437.389	95.6642
440.764	77.1646
444.139	65.3772
447.514	61.0597
450.889	60.9516
454.263	63.6191
457.638	64.2431
461.013	42.6319
464.388	7.07517
467.763	8.59564
471.137	11.8285
474.512	11.3362
477.887	7.42499
481.262	4.60599
484.637	21.5726
488.012	21.6211
491.386	39.389
494.761	64.4937
498.136	103.003
501.511	158.22
504.886	219.06
508.26	261.973
511.635	281.458
515.01	347.39
518.385	466.574
521.76	574.784
525.135	646.845
528.509	694.749
531.884	744.348
535.259	810.946
538.634	902.608
542.009	1031.92
545.384	1205.52
548.758	1439.67
552.133	1712.22
555.508	2000.98
558.883	2228.07
562.258	2262.68
565.632	1988.01
569.007	1533.48
572.382	1104.12
575.757	772.133
579.132	536.924
582.506	368.5
585.881	249.028
589.256	168.691
592.631	112.307
596.006	73.1187
599.381	46.2426
602.755	26.8977
606.13	12.2661
609.505	4.62729
612.88	2.66373
616.255	7.73956
619.63	8.70218
623.004	8.76843
626.379	4.31247
629.754	1.89197
633.129	13.5852
636.504	25.6273
639.878	48.294
643.253	77.3037
646.628	117.584
650.003	186.461
653.378	272.739
656.752	373.732
660.127	475.212
663.502	502.482
666.877	412.802
670.252	274.178
673.626	166.943
677.001	98.5963
680.376	56.5841
683.751	30.7688
687.126	15.0254
690.501	7.04431
693.875	3.21426
697.25	1.40225
700.625	2.64139
704	11.7081
707.375	19.9432
710.75	38.192
714.124	51.0007
717.499	42.5245
720.874	26.489
724.249	15.7092
727.624	11.9146
730.998	9.17606
734.373	9.61151
737.748	8.02562
741.123	3.77162
744.498	1.36003
747.872	0.156754
751.247	0.76001
754.622	0.650513
757.997	0.752731
761.372	0.616928
764.747	0.090134
768.121	0.603378
771.496	0.927521
774.871	1.65157
778.246	1.63789
781.621	2.31914
784.995	4.10391
788.37	2.76239
791.745	3.60947
795.12	1.70929
798.495	1.64932
801.87	3.33516
805.244	4.25119
808.619	4.65939
811.994	3.03534
815.369	1.0192
818.744	1.1915
822.119	0.389465
825.493	0.672699
828.868	0.007004
832.243	2.44527
835.618	0.384491
838.993	0.90506
842.367	1.44614
845.742	1.95992
849.117	1.32484
852.492	0.348114
855.867	1.64235
859.241	1.51584
862.616	0.361343
865.991	2.47476
869.366	0.790985
872.741	6.17206
876.115	8.56692
879.49	13.2906
882.865	24.4077
886.24	35.6806
889.615	59.8221
892.99	98.4193
896.364	152.951
899.739	201.727
903.114	185.756
906.489	146.557
909.864	112.757
913.239	94.1569
916.613	90.8123
919.988	108.32
923.363	150.517
926.738	223.338
930.113	336.956
933.487	501.556
936.862	668.228
940.237	690.881
943.612	494.136
946.987	297.07
950.361	179.08
953.736	110.122
957.111	69.6125
960.486	44.9042
963.861	27.9959
967.236	17.9695
970.61	9.53055
973.985	4.42981
977.36	0.944641
980.735	1.59857
984.11	1.26749
987.485	3.11163
990.859	0.614594
994.234	1.57101
997.609	5.52014
1000.98	14.4212
1004.36	24.663
1007.73	39.862
1011.11	60.8034
1014.48	82.9474
1017.86	93.7664
1021.23	108.132
1024.61	135.717
1027.98	159.805
1031.36	143.95
1034.73	109.414
1038.11	67.6758
1041.48	41.2017
1044.86	23.36
1048.23	13.8774
1051.61	6.36163
1054.98	2.4032
1058.36	2.39984
1061.73	2.07452
1065.11	0.547028
1068.48	2.19763
1071.86	8.73187
1075.23	19.0443
1078.6	40.5063
1081.98	77.5764
1085.35	137.087
1088.73	208.79
1092.1	193.589
1095.48	112.607
1098.85	62.8495
1102.23	35.667
1105.6	23.9475
1108.98	13.042
1112.35	7.78818
1115.73	4.60706
1119.1	2.89539
1122.48	5.07306
1125.85	7.3071
1129.23	11.5252
1132.6	20.3982
1135.98	29.8478
1139.35	46.27
1142.73	75.3789
1146.1	119.984
1149.48	188.983
1152.85	274.186
1156.22	296.822
1159.6	212.223
1162.97	117.722
1166.35	64.6417
1169.72	35.3337
1173.1	21.0748
1176.47	12.2132
1179.85	5.79663
1183.22	3.83835
1186.6	1.9657
1189.97	2.13474
1193.35	0.003387
1196.72	1.97006
1200.1	0.053253
1203.47	0.045044
1206.85	0.925385
1210.22	0.352234
1213.6	0.862946
1216.97	1.45962
1220.35	0.910614
1223.72	0.573944
1227.1	0.772858
1230.47	2.63742
1233.85	0.991241
1237.22	2.95956
1240.6	0.203918
1243.97	3.73099
1247.35	2.53329
1250.72	4.91507
1254.1	3.09
1257.47	4.25574
1260.85	1.00989
1264.22	1.68085
1267.59	0.542572
1270.97	0.397186
1274.34	2.35938
1277.72	1.27164
1281.09	3.19901
1284.47	0.083771
1287.84	1.56665
1291.22	1.28921
1294.59	2.89621
1297.97	1.94833
1301.34	0.621307
