Measurement: Raman, 780 nm, unoriented, Raman Data Processed
Mineral: Stokesite
Rruff sample: R060587
Ideal chemistry: CaSnSi_3_O_9_2H_2_O
Locality: Urucum mine, Galileia, Minas Gerais, Brazil
Source: Michael Scott
Description: Spherical aggregate of colorless prismatic crystals
Raman shift (cm-1)	intensity
91.5599	0
94.9347	173.247
98.3096	400.517
101.684	848.925
105.059	1564.57
108.434	1504.86
111.809	647.981
115.184	264.941
118.558	86.7897
121.933	7.81598
125.308	13.6625
128.683	23.169
132.058	16.1177
135.433	0.897644
138.807	27.4413
142.182	69.3693
145.557	107.555
148.932	166.355
152.307	249.77
155.681	334.381
159.056	409.082
162.431	455.155
165.806	460.33
169.181	422.381
172.555	367.844
175.93	303.717
179.305	245.505
182.68	180.492
186.055	116.989
189.43	64.3887
192.804	26.1297
196.179	13.0331
199.554	16.5241
202.929	40.9325
206.304	84.57
209.678	155.689
213.053	274.281
216.428	436.498
219.803	639.963
223.178	924.732
226.553	1333.03
229.927	1927.53
233.302	2170.01
236.677	1745.26
240.052	1250.79
243.427	969.415
246.801	829.869
250.176	727.722
253.551	643.42
256.926	557.647
260.301	447.9
263.675	341.475
267.05	261.843
270.425	190.936
273.8	119.923
277.175	69.5746
280.55	35.4007
283.924	13.7201
287.299	3.94658
290.674	1.75413
294.049	5.15279
297.424	6.98338
300.798	7.63004
304.173	5.77031
307.548	3.74629
310.923	2.25447
314.298	2.52631
317.673	7.44614
321.047	10.6737
324.422	13.965
327.797	17.6282
331.172	20.9424
334.547	22.6291
337.921	23.5599
341.296	21.5671
344.671	21.8916
348.046	19.7433
351.421	18.8912
354.796	19.9533
358.17	21.2429
361.545	25.6314
364.92	30.3772
368.295	30.4901
371.67	24.0701
375.044	13.8804
378.419	7.36647
381.794	2.79437
385.169	1.12045
388.544	1.52644
391.918	4.6082
395.293	10.2333
398.668	18.3915
402.043	32.0689
405.418	50.416
408.793	76.1934
412.167	106.511
415.542	137.757
418.917	157.096
422.292	159.659
425.667	142.402
429.041	116.936
432.416	91.7563
435.791	71.2678
439.166	52.8866
442.541	42.0334
445.915	32.1328
449.29	27.452
452.665	23.7475
456.04	23.4015
459.415	19.366
462.789	9.1329
466.164	0.336258
469.539	2.72002
472.914	4.97882
476.289	5.13779
479.664	3.86653
483.038	1.28662
486.413	3.28984
489.788	11.1928
493.163	21.7831
496.538	37.1826
499.913	61.7537
503.287	97.5905
506.662	127.203
510.037	146.438
513.412	168.08
516.787	227.191
520.161	302.364
523.536	354.571
526.911	387.285
530.286	414.076
533.661	442.746
537.035	483.2
540.41	543.125
543.785	620.774
547.16	728.232
550.535	863.904
553.909	1024.97
557.284	1181.17
560.659	1277.68
564.034	1224.6
567.409	1013.37
570.784	756.748
574.158	529.482
577.533	365.584
580.908	252.156
584.283	169.063
587.658	115.305
591.033	76.7037
594.407	51.8796
597.782	34.8414
601.157	20.5917
604.532	12.7789
607.907	4.43832
611.281	0.695015
614.656	2.64854
618.031	4.23537
621.406	4.38824
624.781	3.6937
628.155	0.150795
631.53	2.54038
634.905	9.98785
638.28	21.8978
641.655	32.892
645.029	50.7537
648.404	78.7295
651.779	117.68
655.154	167.895
658.529	232.538
661.904	285.206
665.278	274.195
668.653	203.927
672.028	129.242
675.403	78.0356
678.778	46.1968
682.153	26.9084
685.527	14.6387
688.902	7.1068
692.277	4.12475
695.652	1.68585
699.027	1.60427
702.401	3.6046
705.776	5.54441
709.151	10.8963
712.526	18.6502
715.901	21.2541
719.275	15.8598
722.65	8.44713
726.025	4.60397
729.4	2.40636
732.775	2.07799
736.149	1.54231
739.524	1.3159
742.899	0.057011
746.274	0.356071
749.649	0.742058
753.024	0.177929
756.398	0.195709
759.773	0.486958
763.148	2.15883
766.523	0.408371
769.898	0.238358
773.273	0.777615
776.647	1.03257
780.022	1.28246
783.397	1.14116
786.772	1.73005
790.146	2.01807
793.521	2.16944
796.896	1.87707
800.271	2.29834
803.646	1.23514
807.021	0.563423
810.395	0.302288
813.77	0.457016
817.145	0.036674
820.52	0.91993
823.895	0.431995
827.269	0.13702
830.644	0.512272
834.019	0.149681
837.394	0.213482
840.769	0.194592
844.144	6.32495
847.518	1.42995
850.893	1.09797
854.268	1.20388
857.643	0.586685
861.018	2.62127
864.393	0.306892
867.767	1.33553
871.142	1.16983
874.517	2.43901
877.892	2.18589
881.266	3.62614
884.641	5.87623
888.016	9.82008
891.391	15.6865
894.766	26.0546
898.141	39.3267
901.515	46.9582
904.89	43.8214
908.265	38.1792
911.64	30.2818
915.015	25.1363
918.389	26.3069
921.764	31.9319
925.139	44.499
928.514	65.375
931.889	96.64
935.264	136.315
938.638	159.74
942.013	137.822
945.388	88.9978
948.763	52.8559
952.138	31.5606
955.512	19.8207
958.887	12.711
962.262	7.94639
965.637	4.69134
969.012	2.90971
972.386	0.80463
975.761	0.056763
979.136	0.001839
982.511	0.544456
985.886	0.614552
989.261	0.35957
992.635	0.017719
996.01	0.426159
999.385	2.57438
1002.76	3.18947
1006.13	6.0931
1009.51	9.27952
1012.88	13.4073
1016.26	18.0324
1019.63	22.0536
1023.01	27.6402
1026.38	36.4316
1029.76	39.5225
1033.13	33.0056
1036.51	24.9825
1039.88	15.4793
1043.26	9.3659
1046.63	5.478
1050.01	3.38825
1053.38	1.63618
1056.76	2.88739
1060.13	0.231373
1063.51	0.840691
1066.88	1.442
1070.26	3.19859
1073.63	6.22426
1077.01	12.7851
1080.38	23.7478
1083.76	42.4205
1087.13	71.8321
1090.51	91.0393
1093.88	67.7442
1097.26	37.2393
1100.63	20.1126
1104	11.4366
1107.38	6.50099
1110.75	3.63686
1114.13	1.24957
1117.5	0.239498
1120.88	0.242393
1124.25	0.416134
1127.63	0.576488
1131	4.66873
1134.38	3.35952
1137.75	5.95718
1141.13	10.0097
1144.5	16.8464
1147.88	27.5888
1151.25	43.7815
1154.63	56.833
1158	50.3344
1161.38	30.4406
1164.75	17.4512
1168.13	8.54325
1171.5	4.503
1174.88	2.66017
1178.25	1.79418
1181.62	0.857729
1185	0.089081
1188.38	0.060989
1191.75	0.137701
1195.12	0.165037
1198.5	0.160582
1201.87	0.012012
1205.25	0.0847014
1208.62	0.152046
1212	0.83424
1215.37	0.420588
1218.75	0.194717
1222.12	0.73786
1225.5	0.336128
1228.87	0.561821
1232.25	0.428242
1235.62	1.08824
1239	0.999102
1242.37	1.45754
1245.75	1.174
1249.12	0.42732
1252.5	0.635426
1255.87	0.742619
1259.25	0.392786
1262.62	0.487886
1265.99	1.00231
1269.37	0.335188
1272.74	0.633013
1276.12	0.697796
1279.49	0.696325
1282.87	0.106108
