Measurement: Raman, 532 nm, unoriented, Raman Data Processed
Mineral: Stolzite
Rruff sample: R130615
Ideal chemistry: PbWO_4_
Locality: Reef mine, Cochise County, Arizona, USA
Source: Ron Gibbs
Description: Bipyramidal orange crystals
Raman shift (cm-1)	intensity
200.249	0
203.141	1.11556
206.034	1.92929
208.927	2.60011
211.819	1.56516
214.712	1.03336
217.605	2.81
220.497	2.74779
223.39	3.06943
226.283	3.57973
229.175	1.39428
232.068	0.192612
234.961	0.268639
237.854	0.628746
240.746	0.062363
243.639	0.29351
246.532	0.245659
249.424	0.12693
252.317	0.644279
255.21	0.201805
258.103	0.342979
260.995	1.25609
263.888	1.62877
266.781	4.04078
269.673	5.7465
272.566	7.95432
275.459	9.6657
278.351	14.5837
281.244	20.1509
284.137	27.8122
287.029	38.9654
289.922	51.2709
292.815	72.7157
295.708	97.584
298.6	136.924
301.493	202.387
304.386	301.84
307.278	443.075
310.171	619.24
313.064	809.194
315.957	1050.69
318.849	1363.71
321.742	1675.93
324.635	1749.69
327.527	1336.83
330.42	754.434
333.313	409.01
336.205	247.155
339.098	170.689
341.991	132.275
344.884	116.455
347.776	114.702
350.669	127.383
353.562	139.386
356.454	129.639
359.347	83.2454
362.24	48.1598
365.132	29.67
368.025	19.341
370.918	12.8018
373.81	9.44391
376.703	7.53435
379.596	6.08298
382.489	4.73305
385.381	2.38132
388.274	0.856979
391.167	0.203835
394.059	0.675079
396.952	1.59702
399.845	2.71971
402.738	0.236496
405.63	0.416832
408.523	0.402954
411.416	1.28929
414.308	0.613907
417.201	0.117249
420.094	0.137863
422.986	0.224991
425.879	1.00976
428.772	2.22964
431.664	3.15308
434.557	4.29196
437.45	5.30731
440.343	5.53487
443.235	7.03752
446.128	6.41425
449.021	4.95853
451.913	4.5873
454.806	3.62486
457.699	2.33377
460.591	2.65456
463.484	3.03605
466.377	4.0312
469.27	2.4219
472.162	2.27814
475.055	2.17479
477.948	1.39658
480.84	1.37294
483.733	1.24253
486.626	2.12267
489.519	1.6554
492.411	0.978203
495.304	0.087593
498.197	15.8366
501.089	2.40819
503.982	1.76863
506.875	1.77696
509.767	1.39714
512.66	1.70861
515.553	0.770409
518.446	0.593597
521.338	1.17207
524.231	0.195885
527.124	0.008759
530.016	0.209351
532.909	0.384941
535.802	0.226517
538.694	0.465454
541.587	0.063477
544.48	0.190887
547.372	0.40815
550.265	0.636513
553.158	0.022537
556.051	0.045593
558.943	0.380943
561.836	0.492043
564.729	0.039055
567.621	0.012375
570.514	0.802666
573.407	0.51236
576.299	0.342163
579.192	1.25066
582.085	0.944672
584.977	1.54424
587.87	1.37946
590.763	1.80404
593.656	2.52568
596.548	2.44715
599.441	2.82366
602.334	3.77473
605.226	4.0013
608.119	4.78618
611.012	3.97268
613.904	5.86294
616.797	6.51186
619.69	6.82867
622.583	6.96397
625.475	7.47961
628.368	8.69249
631.261	8.91363
634.153	9.24397
637.046	12.7388
639.939	13.4075
642.832	14.0324
645.724	16.2269
648.617	15.5353
651.51	15.6807
654.402	16.233
657.295	13.3521
660.188	11.7735
663.08	10.8134
665.973	10.374
668.866	8.86421
671.759	8.28122
674.651	6.47961
677.544	5.44882
680.437	4.44428
683.329	3.52033
686.222	2.55565
689.115	2.23001
692.007	1.11424
694.9	0.029785
697.793	0.897247
700.686	1.07257
703.578	0.304276
706.471	0.121155
709.364	2.65822
712.256	4.27348
715.149	5.01117
718.042	5.81891
720.934	7.58775
723.827	11.2166
726.72	19.6827
729.612	37.0049
732.505	66.2089
735.398	113.974
738.291	181.865
741.183	268.372
744.076	387.884
746.969	510.339
749.861	553.468
752.754	434.565
755.647	280.933
758.54	216.754
761.432	218.55
764.325	245.868
767.218	231.6
770.11	141.417
773.003	68.1834
775.896	33.1057
778.788	17.2756
781.681	6.70619
784.574	1.05038
787.467	0.429214
790.359	2.7186
793.252	2.07591
796.145	3.10716
799.037	2.95523
801.93	1.617
804.823	0.396683
807.716	3.18234
810.608	7.21692
813.501	13.6075
816.394	17.622
819.286	20.5488
822.179	22.1016
825.072	22.851
827.964	23.8709
830.857	26.0361
833.75	26.9163
836.643	32.3039
839.535	37.7426
842.428	46.5909
845.321	57.5869
848.213	75.708
851.106	111.784
853.999	182.722
856.891	324.157
859.784	502.923
862.677	730.442
865.569	1117.11
868.462	1538.9
871.355	1365.94
874.248	675.621
877.14	304.355
880.033	161.669
882.926	111.579
885.818	112.117
888.711	164.035
891.604	332.924
894.496	620.107
897.389	932.039
900.282	1502.59
903.175	2475.38
906.067	2798.19
908.96	1416.46
911.853	533.723
914.745	244.037
917.638	133.232
920.531	80.7409
923.423	49.6633
926.316	31.518
929.209	18.6692
932.102	10.8213
934.994	6.62503
937.887	3.03848
940.78	1.0047
943.672	0.183273
946.565	0.287613
949.458	1.71994
952.351	0.283325
955.243	3.39415
958.136	3.61011
961.029	2.17632
963.921	0.438156
966.814	1.19025
969.707	0.361435
972.599	1.57109
975.492	1.75794
978.385	2.78079
981.278	4.14308
984.17	4.36807
987.063	5.33231
989.956	6.85996
992.848	7.54719
995.741	7.6337
998.634	7.72971
1001.53	7.66989
1004.42	8.58498
1007.31	7.328
1010.2	9.67913
1013.1	7.98772
1015.99	8.08898
1018.88	6.64407
1021.77	6.12129
1024.67	5.72894
1027.56	3.99583
1030.45	4.437
1033.35	3.87091
1036.24	3.78043
1039.13	3.58841
1042.02	3.8681
1044.92	3.42624
1047.81	4.20158
1050.7	2.87949
1053.6	2.74959
1056.49	2.86871
1059.38	1.63025
1062.27	1.17325
1065.17	1.98761
1068.06	0.784973
1070.95	0.869049
1073.84	0.317749
1076.74	0.788254
1079.63	0.452789
1082.52	0.520874
1085.41	0.99469
1088.31	1.54359
1091.2	1.88225
1094.09	1.68397
1096.98	1.39668
1099.88	1.41263
1102.77	1.69458
1105.66	0.394302
1108.56	1.50407
1111.45	1.50636
1114.34	0.760101
1117.23	0.317535
1120.13	0.949707
1123.02	0.95256
1125.91	0.613022
1128.81	0.20694
1131.7	0.761063
1134.59	0.366837
1137.48	0.042984
1140.38	0.647873
1143.27	0.702988
1146.16	0.830231
1149.05	0.885605
1151.95	1.27387
1154.84	0.680222
1157.73	0.487732
1160.62	0.199509
1163.52	1.54665
1166.41	0.188904
1169.3	1.38904
1172.2	0.306625
1175.09	0.981064
1177.98	0.647385
1180.87	2.16388
1183.77	1.10115
1186.66	1.39
1189.55	0.584946
1192.44	0.09993
1195.34	1.47478
1198.23	0.901642
1201.12	1.54875
1204.02	0.908951
1206.91	1.63084
1209.8	0.952301
1212.69	2.28474
1215.59	1.01526
1218.48	1.13016
1221.37	0.669785
1224.26	0.998718
1227.16	0.744644
1230.05	1.10815
1232.94	0.286453
1235.84	0.443253
1238.73	0.271545
1241.62	0.445709
1244.51	0.273529
1247.41	0.830048
1250.3	1.44756
1253.19	0.58699
1256.08	1.3219
1258.98	1.82843
1261.87	1.16074
1264.76	1.81799
1267.65	1.37001
1270.55	0.791016
1273.44	0.548508
1276.33	0.845322
1279.23	0.787964
1282.12	1.01828
1285.01	0.983093
1287.9	0.54303
1290.8	0.559341
1293.69	1.14491
1296.58	0.751083
1299.47	0.250198
1302.37	0
