Measurement: Raman, 780 nm, unoriented, Raman Data Processed
Mineral: Stolzite
Rruff sample: R050568
Ideal chemistry: PbWO_4_
Locality: Broken Hill, New South Wales, Australia
Source: University of Arizona Mineral Museum
Description: Yellowish brown tetragonal dipyramidal crystals
Measured chemistry: Pb_1.00_W_1.00_O_4_
Raman shift (cm-1)	intensity
92.0654	0
95.4403	25.3719
98.8151	15.5517
102.19	2.46765
105.565	5.02637
108.939	5.97266
112.314	17.5292
115.689	19.9758
119.064	11.4482
122.439	4.85669
125.814	0.591888
129.188	0.582031
132.563	3.25147
135.938	0.428131
139.313	9.11505
142.688	24.9793
146.062	54.7399
149.437	102.443
152.812	200.026
156.187	330.4
159.562	464.935
162.936	592.182
166.311	733.202
169.686	884.278
173.061	991.716
176.436	909.423
179.811	586.678
183.185	294.972
186.56	152.622
189.935	81.0968
193.31	44.6277
196.685	18.0537
200.06	4.76996
203.434	0.935974
206.809	5.17355
210.184	8.12616
213.559	13.8889
216.934	17.1214
220.308	19.5613
223.683	23.2848
227.058	27.034
230.433	24.9003
233.808	24.7331
237.182	21.2539
240.557	21.856
243.932	16.3159
247.307	12.4678
250.682	5.84158
254.056	2.55292
257.431	1.83267
260.806	3.43616
264.181	4.50522
267.556	6.31262
270.931	3.71063
274.305	4.21698
277.68	6.89105
281.055	15.1587
284.43	31.7616
287.805	57.8428
291.18	98.9753
294.554	166.546
297.929	284.087
301.304	487.562
304.679	775.488
308.054	1111.26
311.428	1472.99
314.803	1833.78
318.178	2149.12
321.553	2150.7
324.928	1740.63
328.302	1163.62
331.677	647.125
335.052	429.131
338.427	406.291
341.802	418.464
345.176	461.061
348.551	535.721
351.926	602.711
355.301	586.436
358.676	370.865
362.051	207.545
365.425	156.8
368.8	143.479
372.175	138.827
375.55	126.116
378.925	107.164
382.3	92.891
385.674	75.7941
389.049	56.852
392.424	40.2041
395.799	26.9187
399.174	12.6242
402.548	6.52402
405.923	1.98956
409.298	0.503693
412.673	4.63901
416.048	5.71219
419.422	5.78268
422.797	5.3555
426.172	3.57214
429.547	2.23538
432.922	0.59552
436.296	0.097046
439.671	5.22046
443.046	7.05215
446.421	7.039
449.796	9.22888
453.171	15.2012
456.545	11.5881
459.92	18.033
463.295	18.0514
466.67	21.4385
470.045	20.3798
473.42	24.961
476.794	22.5517
480.169	33.9096
483.544	20.3938
486.919	20.5048
490.293	29.0642
493.668	34.2973
497.043	42.0571
500.418	55.3397
503.793	70.9658
507.168	83.7889
510.542	101.27
513.917	116.67
517.292	138.64
520.667	144.552
524.042	153.371
527.417	157.882
530.791	153.851
534.166	145.147
537.541	136.999
540.916	126.757
544.291	115.293
547.665	99.2645
551.04	91.7306
554.415	76.0944
557.79	68.0688
561.165	60.4736
564.539	54.0955
567.914	47.9075
571.289	44.6957
574.664	40.0478
578.039	41.8881
581.413	28.2241
584.788	17.3213
588.163	18.6696
591.538	11.792
594.913	8.93466
598.288	7.05908
601.662	3.66242
605.037	5.14807
608.412	2.92633
611.787	1.41492
615.162	3.37235
618.537	2.61999
621.911	3.56763
625.286	5.40686
628.661	4.112
632.036	3.28732
635.41	8.4664
638.785	16.8738
642.16	8.51364
645.535	2.24852
648.91	3.24745
652.285	8.82269
655.659	9.97423
659.034	14.934
662.409	16.3952
665.784	21.9391
669.159	26.6794
672.534	24.2044
675.908	20.684
679.283	17.8626
682.658	13.1548
686.033	10.0963
689.408	8.68556
692.782	8.62219
696.157	10.1311
699.532	16.8407
702.907	20.4478
706.282	20.1477
709.656	27.6564
713.031	28.2928
716.406	32.4396
719.781	34.9754
723.156	35.9856
726.53	34.5966
729.905	41.2676
733.28	49.5228
736.655	66.8064
740.03	93.1284
743.405	140.486
746.779	231.604
750.154	400.093
753.529	556.009
756.904	695.304
760.279	854.719
763.654	913.556
767.028	623.468
770.403	271.889
773.778	124.86
777.153	65.5813
780.528	32.7227
783.902	9.65793
787.277	0.085953
790.652	4.28645
794.027	4.56404
797.402	5.18063
800.776	0.982086
804.151	6.62555
807.526	12.2277
810.901	19.6568
814.276	22.3987
817.65	28.1478
821.025	30.8231
824.4	28.6276
827.775	26.3756
831.15	27.9418
834.525	29.0292
837.899	28.3593
841.274	27.1432
844.649	21.8207
848.024	14.1394
851.399	6.21159
854.774	3.71967
858.148	3.78812
861.523	8.40671
864.898	14.9982
868.273	24.5113
871.648	33.2947
875.022	47.2107
878.397	78.7088
881.772	140.206
885.147	274.576
888.522	659.361
891.896	1670.98
895.271	2514.55
898.646	3749.22
902.021	5289.08
905.396	4492.61
908.77	1549.27
912.145	605.835
915.52	305.088
918.895	173.647
922.27	104.337
925.645	66.9644
929.019	43.3796
932.394	27.7536
935.769	19.1141
939.144	14.156
942.519	7.12546
945.894	4.45145
949.268	0.797249
952.643	0.054039
956.018	0.397179
959.393	2.23145
962.768	0.442856
966.142	1.91203
969.517	2.02007
972.892	1.15702
976.267	0.154945
979.642	1.64905
983.016	0.861839
986.391	3.24703
989.766	2.29481
993.141	0.543465
996.516	3.19591
999.89	0.004997
1003.26	2.94601
1006.64	4.32779
1010.01	5.21208
1013.39	4.49666
1016.76	3.11156
1020.14	1.84176
1023.51	3.77017
1026.89	4.5246
1030.26	5.99242
1033.64	5.36768
1037.01	7.98278
1040.39	11.0719
1043.76	9.06844
1047.14	4.73662
1050.51	3.94745
1053.89	2.46251
1057.26	3.1673
1060.64	0.234573
1064.01	0.386223
1067.39	3.81392
1070.76	3.05069
1074.14	1.08217
1077.51	0.750885
1080.89	0.780167
1084.26	3.80174
1087.64	5.85703
1091.01	5.13847
1094.38	8.66096
1097.76	9.81702
1101.13	13.1178
1104.51	19.6172
1107.88	24.4116
1111.26	31.7956
1114.63	30.5733
1118.01	26.7231
1121.38	22.0951
1124.76	17.6641
1128.13	15.2947
1131.51	15.3719
1134.88	15.2405
1138.26	15.5785
1141.63	18.5647
1145.01	19.3772
1148.38	24.1239
1151.76	22.9437
1155.13	23.2612
1158.51	22.3117
1161.88	22.9655
1165.26	20.4349
1168.63	20.5616
1172.01	19.467
1175.38	18.1701
1178.76	21.9874
1182.13	24.833
1185.51	25.2875
1188.88	20.0483
1192.26	9.93289
1195.63	1.14642
1199.01	1.67648
1202.38	2.75955
1205.75	1.34451
1209.13	0.480499
1212.5	3.65393
1215.88	9.9902
1219.25	16.8453
1222.63	19.9787
1226	19.7902
1229.38	8.27814
1232.75	8.57873
1236.13	6.93628
1239.5	7.2337
1242.88	15.465
1246.25	14.0611
1249.63	14.095
1253	18.3469
1256.38	19.6843
1259.75	20.4857
1263.13	8.28284
1266.5	3.88776
1269.88	0.78064
1273.25	6.20068
1276.62	10.9821
1280	16.0263
1283.38	5.77026
