Measurement: Raman, 532 nm, unoriented, Raman Data Processed
Mineral: Stolzite
Rruff sample: R070552
Ideal chemistry: PbWO_4_
Locality: Kangaloolah, Tuena, Georgiana County, New South Wales, Australia
Source: James Shigley
Description: Colorless to light tan dipyramidal crystals
Raman shift (cm-1)	intensity
93.2656	0
96.6404	14.0697
100.015	31.5232
103.39	39.1377
106.765	66.3404
110.14	74.9097
113.514	35.4317
116.889	2.02332
120.264	17.9974
123.639	9.677
127.014	29.6057
130.389	84.2488
133.763	230.234
137.138	437.939
140.513	658.191
143.888	984.186
147.263	1293.04
150.637	1699.97
154.012	2149.53
157.387	2897.41
160.762	3974.24
164.137	5279.5
167.512	6902.02
170.886	9233.63
174.261	11511.5
177.636	11309
181.011	8034.29
184.386	5686.19
187.761	5058.64
191.135	4573.86
194.51	3244.98
197.885	1964.1
201.26	1244.35
204.635	941.856
208.009	751.678
211.384	618.834
214.759	520.461
218.134	445.012
221.509	428.3
224.883	368.96
228.258	368.123
231.633	271.117
235.008	230.419
238.383	180.63
241.758	121.322
245.132	111.489
248.507	62.1389
251.882	36.5198
255.257	9.2998
258.632	14.706
262.007	8.64575
265.381	6.48633
268.756	1.69849
272.131	25.3025
275.506	59.4985
278.881	69.9416
282.255	20.8208
285.63	120.754
289.005	347.288
292.38	553.38
295.755	999.872
299.13	1665.12
302.504	2834.93
305.879	4860.73
309.254	8501.79
312.629	14126.3
316.004	21683.2
319.378	31248.6
322.753	39246.1
326.128	41468.3
329.503	27568.4
332.878	12136.3
336.252	5918.54
339.627	3646.98
343.002	2957.63
346.377	3171.8
349.752	3970.09
353.127	5004.94
356.501	5065.11
359.876	2619.1
363.251	1233.34
366.626	903.946
370.001	872.96
373.375	945.062
376.75	1064.27
380.125	944.212
383.5	729.063
386.875	442.915
390.25	161.705
393.624	7.5
396.999	65.186
400.374	37.7539
403.749	167.283
407.124	316.456
410.498	290.007
413.873	286.505
417.248	259.515
420.623	248.181
423.998	364.918
427.373	504.769
430.747	726.618
434.122	842.897
437.497	810.415
440.872	580.977
444.247	362.209
447.622	159.079
450.996	2.70068
454.371	27.8586
457.746	44.8674
461.121	100.794
464.496	181.498
467.87	135.733
471.245	146.457
474.62	48.6152
477.995	25.4973
481.37	38.7869
484.745	42.408
488.119	5.08569
491.494	53.2668
494.869	26.4546
498.244	61.5335
501.619	32.1526
504.993	13.4565
508.368	48.5818
511.743	59.7954
515.118	61.5791
518.493	49.8291
521.867	85.5215
525.242	103.896
528.617	41.8596
531.992	92.0288
535.367	65.6902
538.742	29.3904
542.116	68.9519
545.491	80.1963
548.866	11.5095
552.241	4.23657
555.616	13.0386
558.99	37.3757
562.365	41.9773
565.74	9.06714
569.115	31.6948
572.49	67.7725
575.865	120.631
579.239	180.796
582.614	280.998
585.989	369.88
589.364	438.565
592.739	592.862
596.114	717.77
599.488	838.322
602.863	941.722
606.238	1063.44
609.613	1225.21
612.987	1348.49
616.362	1467.85
619.737	1627.19
623.112	1705.2
626.487	1893.31
629.862	1996.47
633.236	2132.39
636.611	2225.09
639.986	2282.58
643.361	2457.14
646.736	2536.46
650.111	2506.31
653.485	2522.68
656.86	2561.76
660.235	2337.34
663.61	2205.24
666.985	1950.21
670.36	1723.78
673.734	1486.82
677.109	1235.01
680.484	1037.83
683.859	889.956
687.234	701.46
690.608	554.105
693.983	409.431
697.358	289.89
700.733	222.628
704.108	188.887
707.482	79.1589
710.857	53.1504
714.232	43.6645
717.607	80.9231
720.982	54.113
724.357	28.26
727.731	108.222
731.106	368.191
734.481	916.619
737.856	2404.54
741.231	5493.88
744.606	9073.17
747.98	12979.1
751.355	15259.2
754.73	9610.2
758.105	6838.83
761.48	7168.54
764.854	7135.93
768.229	4029.99
771.604	1658.76
774.979	768.116
778.354	360.299
781.729	181.228
785.103	80.9344
788.478	3.08887
791.853	28.5685
795.228	57.04
798.602	36.832
801.977	30.9021
805.352	38.2194
808.727	48.397
812.102	121.041
815.477	157.52
818.851	191.913
822.226	271.537
825.601	332.636
828.976	336.191
832.351	368.133
835.726	375.943
839.1	407.155
842.475	348.015
845.85	308.385
849.225	264.632
852.6	165.318
855.975	82.4214
859.349	60.2954
862.724	88.9813
866.099	206.987
869.474	344.453
872.849	569.651
876.223	951.098
879.598	1501.67
882.973	2442.57
886.348	4401.8
889.723	9079.49
893.097	24535
896.472	54626.3
899.847	88084.1
903.222	123037
906.597	81326.3
909.972	26270
913.346	10575.2
916.721	5491.05
920.096	3290.83
923.471	2064.37
926.846	1335.76
930.221	873.978
933.595	627.502
936.97	416.872
940.345	282.502
943.72	223.908
947.095	119.076
950.469	51.2779
953.844	16.8651
957.219	24.048
960.594	31.8861
963.969	40.6013
967.343	4.73108
970.718	11.2285
974.093	5.34351
977.468	24.2892
980.843	102.518
984.217	80.5094
987.592	93.3468
990.967	113.26
994.342	105.52
997.717	105.877
1001.09	96.5591
1004.47	98.9853
1007.84	105.441
1011.22	129.941
1014.59	88
1017.97	110.034
1021.34	132.444
1024.71	121.665
1028.09	125.784
1031.46	157.697
1034.84	118.048
1038.21	146.898
1041.59	143.18
1044.96	145.155
1048.34	123.649
1051.71	135.105
1055.09	93.4292
1058.46	75.0246
1061.84	84.9814
1065.21	31.713
1068.59	48.7115
1071.96	30.225
1075.34	30.2123
1078.71	23.0652
1082.09	2.83655
1085.46	0.135803
1088.84	3.4317
1092.21	11.1489
1095.59	4.70404
1098.96	8.62763
1102.34	27.859
1105.71	12.7642
1109.09	29.9996
1112.46	28.0992
1115.84	33.5596
1119.21	42.1119
1122.59	33.0173
1125.96	1.6745
1129.34	8.31714
1132.71	12.531
1136.08	2.33716
1139.46	28.462
1142.83	17.9469
1146.21	24.8546
1149.58	22.8513
1152.96	17.224
1156.33	25.7307
1159.71	31.2514
1163.08	44.2816
1166.46	37.4139
1169.83	46.4545
1173.21	47.8271
1176.58	30.4983
1179.96	25.4686
1183.33	33.0054
1186.71	26.5041
1190.08	13.1021
1193.46	33.7879
1196.83	36.6732
1200.21	17.572
1203.58	25.5597
1206.96	26.8713
1210.33	24.1824
1213.7	22.1846
1217.08	33.8387
1220.45	16.3699
1223.83	9.44427
1227.2	22.264
1230.58	8.14517
1233.95	17.3331
1237.33	14.1361
1240.7	4.15979
1244.08	3.73099
1247.45	0.04306
1250.83	64.4494
1254.2	11.8157
1257.58	4.35611
1260.95	11.832
1264.33	18.3623
1267.7	14.9502
1271.08	11.3577
1274.45	5.17361
1277.83	15.0266
1281.2	6.63373
1284.58	13.0201
1287.95	13.6636
1291.33	11.1176
1294.7	10.8943
1298.08	7.08435
