Measurement: Raman, 532 nm, unoriented, Raman Data Processed
Mineral: Stolzite
Rruff sample: R050568
Ideal chemistry: PbWO_4_
Locality: Broken Hill, New South Wales, Australia
Source: University of Arizona Mineral Museum
Description: Yellowish brown tetragonal dipyramidal crystals
Measured chemistry: Pb_1.00_W_1.00_O_4_
Raman shift (cm-1)	intensity
91.1152	0
94.4901	30.0142
97.8649	73.4529
101.24	87.3845
104.615	124.236
107.989	58.5971
111.364	11.9408
114.739	3.64571
118.114	34.2527
121.489	179.817
124.863	369.491
128.238	497.07
131.613	733.596
134.988	1024.21
138.363	1304.3
141.738	1523.83
145.112	1760.93
148.487	2165.81
151.862	2563.2
155.237	3257.72
158.612	4248.8
161.987	5356.76
165.361	6577.74
168.736	8311.53
172.111	10797.6
175.486	12460.2
178.861	10175.2
182.235	5734.81
185.61	3126
188.985	1933.21
192.36	1286.18
195.735	884.347
199.109	631.693
202.484	478.282
205.859	350.612
209.234	270.986
212.609	242.62
215.984	171.385
219.358	130.842
222.733	114.523
226.108	78.1231
229.483	51.7933
232.858	31.6406
236.232	4.99011
239.607	11.3113
242.982	19.3055
246.357	20.023
249.732	15.7793
253.107	18.0242
256.481	22.4702
259.856	20.6382
263.231	0.442871
266.606	50.207
269.981	64.937
273.356	107.755
276.73	148.742
280.105	226.188
283.48	345.25
286.855	488.139
290.23	703.851
293.604	1011.53
296.979	1521.55
300.354	2373.48
303.729	3784.88
307.104	5826.6
310.479	8533.92
313.853	11988.3
317.228	16559
320.603	20874.3
323.978	21163.9
327.353	17055
330.728	9729.46
334.102	5106.01
337.477	3433.69
340.852	3068.53
344.227	3167.21
347.602	3669.58
350.976	4855.87
354.351	6356.45
357.726	5226.66
361.101	2249.57
364.476	1021.18
367.851	539.934
371.225	351.527
374.6	205.717
377.975	141.968
381.35	92.7404
384.725	54.5785
388.099	43.2972
391.474	3.67029
394.849	10.3745
398.224	24.0975
401.599	19.1886
404.974	20.4491
408.348	6.99585
411.723	4.00342
415.098	16.5901
418.473	33.7377
421.848	44.343
425.223	57.3417
428.597	92.5658
431.972	96.7761
435.347	108.134
438.722	111.459
442.097	130.458
445.471	117.277
448.846	104.627
452.221	110.3
455.596	101.253
458.971	102.732
462.346	89.8654
465.72	62.7412
469.095	54.4443
472.47	43.3081
475.845	31.9797
479.22	31.5942
482.594	26.0645
485.969	7.40125
489.344	0.540527
492.719	13.6791
496.094	0.744751
499.469	4.6543
502.843	5.01502
506.218	4.77795
509.593	6.88892
512.968	3.61609
516.343	17.2769
519.717	36.0398
523.092	37.3502
526.467	51.5804
529.842	43.8602
533.217	39.7203
536.592	31.5306
539.966	18.2544
543.341	20.7197
546.716	22.9004
550.091	25.5996
553.466	7.64844
556.841	8.91101
560.215	0.019897
563.59	10.3624
566.965	29.3556
570.34	51.6708
573.715	43.947
577.09	29.5709
580.464	29.9896
583.839	16.7062
587.214	17.9479
590.589	15.7737
593.964	15.5844
597.338	23.5737
600.713	11.2811
604.088	0.714966
607.463	6.87537
610.838	2.3656
614.212	1.60291
617.587	16.541
620.962	2.47095
624.337	12.4266
627.712	1.02368
631.087	2.70373
634.461	16.9374
637.836	37.8408
641.211	27.109
644.586	51.6621
647.961	56.5328
651.336	35.5447
654.71	52.4252
658.085	54.1954
661.46	63.8877
664.835	94.3678
668.21	96.5045
671.585	87.7651
674.959	53.0881
678.334	75.9421
681.709	60.552
685.084	58.1929
688.459	73.1997
691.833	44.8096
695.208	25.0811
698.583	23.2522
701.958	25.5418
705.333	16.7949
708.707	1.15772
712.082	14.0789
715.457	6.96509
718.832	8.54175
722.207	9.13672
725.582	21.7209
728.956	79.9243
732.331	149.856
735.706	241.279
739.081	443.2
742.456	792.119
745.831	1439.61
749.205	2587.7
752.58	4111.5
755.955	5575.68
759.33	8098.83
762.705	10992
766.08	10116.2
769.454	4904.03
772.829	2297.53
776.204	1203.81
779.579	493.632
782.954	165.928
786.328	8.22803
789.703	37.0181
793.078	23.5261
796.453	77.1047
799.828	248.006
803.202	561.087
806.577	1007.4
809.952	1612.76
813.327	2187.91
816.702	2298.67
820.077	1718.42
823.451	1112.25
826.826	676.776
830.201	410.26
833.576	281.598
836.951	193.99
840.326	125.978
843.7	93.6038
847.075	53.3376
850.45	16.1543
853.825	22.0169
857.2	25.5635
860.574	57.2014
863.949	192.338
867.324	345.366
870.699	477.306
874.074	533.599
877.448	756.303
880.823	1231.9
884.198	2206.2
887.573	4425.45
890.948	11148.6
894.323	23077.3
897.697	39221.5
901.072	74778.7
904.447	101519
907.822	41382.4
911.197	14166.9
914.572	6647.06
917.946	3637.35
921.321	2147.84
924.696	1336.68
928.071	842.886
931.446	546.44
934.821	376.45
938.195	220.278
941.57	149.703
944.945	71.5681
948.32	16.4067
951.695	17.2341
955.069	18.2366
958.444	5.7439
961.819	27.1602
965.194	6.00586
968.569	4.70483
971.943	14.0144
975.318	32.5557
978.693	61.0034
982.068	70.7253
985.443	93.6406
988.818	90.7273
992.192	124.821
995.567	76.3411
998.942	94.8892
1002.32	85.4529
1005.69	88.5576
1009.07	94.2844
1012.44	84.0576
1015.82	78.8254
1019.19	73.4851
1022.57	48.5801
1025.94	27.9104
1029.32	27.3413
1032.69	28.3245
1036.07	43.9924
1039.44	40.7117
1042.82	37.207
1046.19	33.521
1049.56	30.8149
1052.94	47.0847
1056.31	20.6277
1059.69	25.115
1063.06	13.4299
1066.44	1.88452
1069.81	7.97119
1073.19	8.68188
1076.56	0.395264
1079.94	12.6516
1083.31	10.0835
1086.69	5.93213
1090.06	0.892822
1093.44	16.0796
1096.81	20.0327
1100.19	32.6099
1103.56	57.9912
1106.94	60.2944
1110.31	67.5476
1113.69	90.3525
1117.06	60.1169
1120.44	55.2693
1123.81	37.1099
1127.18	20.8518
1130.56	18.2722
1133.93	8.7915
1137.31	10.9959
1140.68	22.5388
1144.06	20.3672
1147.43	20.8074
1150.81	13.8335
1154.18	24.4011
1157.56	39.1177
1160.93	23.102
1164.31	38.846
1167.68	35.8176
1171.06	48.7817
1174.43	40.0308
1177.81	30.1523
1181.18	48.6934
1184.56	42.8428
1187.93	37.136
1191.31	15.0032
1194.68	5.77295
1198.06	6.46216
1201.43	3.82617
1204.81	5.00854
1208.18	10.9331
1211.56	7.51807
1214.93	29.332
1218.31	14.3931
1221.68	30
1225.06	22.3381
1228.43	22.823
1231.81	34.6116
1235.18	26.6279
1238.55	19.9002
1241.93	30.864
1245.3	20.8486
1248.68	30.1785
1252.05	45.3621
1255.43	28.6206
1258.8	19.1079
1262.18	23.573
1265.55	19.0525
1268.93	7.68164
1272.3	25.0112
1275.68	3.58374
1279.05	12.4341
1282.43	2.86157
1285.8	5.62549
1289.18	29.0303
1292.55	16.2256
1295.93	9.28271
1299.3	2.07788
1302.68	0
