Measurement: Raman, 780 nm, unoriented, Raman Data Processed
Mineral: Stolzite
Rruff sample: R130615
Ideal chemistry: PbWO_4_
Locality: Reef mine, Cochise County, Arizona, USA
Source: Ron Gibbs
Description: Bipyramidal orange crystals
Raman shift (cm-1)	intensity
93.1281	0
96.5029	4.7991
99.8777	2.52435
103.252	8.06679
106.627	6.44098
110.002	2.76851
113.377	0.010544
116.752	0.105148
120.127	3.37785
123.501	4.65653
126.876	6.10979
130.251	6.66969
133.626	6.0287
137.001	5.5445
140.375	3.72661
143.75	2.59314
147.125	5.02885
150.5	12.1361
153.875	26.3555
157.25	42.4792
160.624	61.6798
163.999	82.9079
167.374	114.81
170.749	151.971
174.124	174.807
177.498	149.606
180.873	110.516
184.248	103.217
187.623	118.328
190.998	123.654
194.373	93.3225
197.747	55.3717
201.122	35.1185
204.497	27.2167
207.872	21.6984
211.247	19.784
214.621	18.484
217.996	18.6632
221.371	20.9535
224.746	20.6934
228.121	20.4245
231.495	18.4117
234.87	15.8151
238.245	13.8459
241.62	5.9733
244.995	0.04657
248.369	4.75458
251.744	9.79861
255.119	12.1867
258.494	12.6876
261.869	6.56457
265.244	2.32584
268.618	15.8855
271.993	29.8728
275.368	49.369
278.743	69.9527
282.118	91.92
285.493	114.067
288.867	136.326
292.242	164.253
295.617	196.112
298.992	242.672
302.366	322.501
305.741	461.377
309.116	663.549
312.491	973.308
315.866	1478.8
319.241	2194.03
322.615	2831.62
325.99	2495.16
329.365	1417.3
332.74	798.858
336.115	590.521
339.49	555.7
342.864	589.658
346.239	639.836
349.614	675.268
352.989	689.669
356.364	638.687
359.738	530.982
363.113	438.683
366.488	363.753
369.863	313.797
373.238	272.475
376.613	241.852
379.987	214.433
383.362	187.086
386.737	158.292
390.112	125.067
393.486	95.6929
396.861	64.6869
400.236	40.9817
403.611	24.8736
406.986	7.29584
410.361	1.75446
413.735	8.70752
417.11	11.337
420.485	10.6634
423.86	9.17306
427.235	4.13647
430.61	4.90543
433.984	14.1343
437.359	21.4652
440.734	28.6734
444.109	35.5067
447.484	39.3438
450.858	40.7889
454.233	39.0742
457.608	36.0268
460.983	31.6038
464.358	28.9766
467.733	25.8492
471.107	18.3624
474.482	12.2308
477.857	8.00107
481.232	3.26193
484.606	0.541199
487.981	0.545166
491.356	0.773376
494.731	3.71118
498.106	6.87744
501.481	11.7188
504.855	18.4595
508.23	24.1446
511.605	34.3223
514.98	42.7749
518.355	49.9595
521.73	56.6849
525.104	62.0877
528.479	64.3517
531.854	64.9386
535.229	63.0879
538.604	63.9655
541.978	60.7949
545.353	56.2107
548.728	50.115
552.103	47.9725
555.478	41.5799
558.852	39.2801
562.227	35.4633
565.602	31.5853
568.977	28.9414
572.352	24.6007
575.726	21.8018
579.101	16.741
582.476	13.2564
585.851	11.2497
589.226	8.78523
592.601	5.48476
595.975	3.78175
599.35	1.45041
602.725	1.01366
606.1	1.24194
609.475	1.27779
612.85	1.30185
616.224	1.94548
619.599	0.718323
622.974	1.54932
626.349	0.473541
629.723	1.17087
633.098	3.87079
636.473	8.29967
639.848	14.1716
643.223	20.1608
646.598	25.6641
649.972	30.0564
653.347	33.393
656.722	36.3054
660.097	37.4178
663.472	37.7341
666.846	35.9624
670.221	31.8864
673.596	27.882
676.971	23.4195
680.346	18.2759
683.721	13.7643
687.095	11.8183
690.47	9.59067
693.845	8.98782
697.22	10.5963
700.595	13.6122
703.97	19.1528
707.344	27.1897
710.719	33.9156
714.094	40.0796
717.469	41.8801
720.843	43.1097
724.218	43.1237
727.593	46.2028
730.968	53.3809
734.343	68.6245
737.718	95.9222
741.092	146.256
744.467	224.433
747.842	299.078
751.217	261.667
754.592	153.268
757.966	102.48
761.341	98.1203
764.716	110.561
768.091	83.5606
771.466	37.791
774.841	16.3266
778.215	4.57719
781.59	0.985428
784.965	0.726357
788.34	2.14051
791.715	2.42466
795.089	2.13332
798.464	2.17289
801.839	2.22282
805.214	0.657616
808.589	1.53198
811.963	3.59379
815.338	6.77657
818.713	8.71686
822.088	11.3897
825.463	14.6072
828.838	18.3406
832.212	20.8998
835.587	24.9018
838.962	28.0021
842.337	32.8882
845.712	40.3897
849.087	54.0901
852.461	83.6809
855.836	144.486
859.211	246.506
862.586	448.167
865.961	854.1
869.335	1156.26
872.71	629.72
876.085	248.736
879.46	115.654
882.835	74.2673
886.209	71.4339
889.584	115.833
892.959	234.92
896.334	434.293
899.709	921.26
903.083	1987.14
906.458	1820.6
909.833	628.216
913.208	228.284
916.583	108.235
919.958	59.4034
923.332	33.934
926.707	19.9019
930.082	11.8813
933.457	6.83522
936.832	3.278
940.207	2.44014
943.581	0.95063
946.956	0.701382
950.331	0.327736
953.706	0.490166
957.081	0.062737
960.455	1.07555
963.83	1.36785
967.205	0.109489
970.58	0.80402
973.955	0.128998
977.329	0.293308
980.704	0.476822
984.079	0.05125
987.454	0.457291
990.829	0.119728
994.203	0.094418
997.578	0.320938
1000.95	0.417625
1004.33	0.585663
1007.7	1.50446
1011.08	0.699356
1014.45	0.756371
1017.83	1.99251
1021.2	1.33562
1024.58	1.2142
1027.95	1.15981
1031.33	1.75343
1034.7	2.12084
1038.08	1.02006
1041.45	1.61549
1044.83	1.28893
1048.2	0.942009
1051.58	0.131142
1054.95	0.578796
1058.33	0.614174
1061.7	1.0988
1065.08	0.767349
1068.45	1.09473
1071.82	0.436501
1075.2	1.25806
1078.57	1.04259
1081.95	2.59197
1085.32	3.60719
1088.7	5.38532
1092.07	6.14641
1095.45	7.62984
1098.82	9.2408
1102.2	11.6179
1105.57	12.8771
1108.95	13.7776
1112.32	15
1115.7	16.8511
1119.07	17.9992
1122.45	20.0719
1125.82	23.691
1129.2	26.2949
1132.57	28.4021
1135.95	30.2365
1139.32	32.0509
1142.69	32.6131
1146.07	34.9851
1149.44	39.296
1152.82	39.3569
1156.19	41.5729
1159.57	43.1115
1162.94	45.867
1166.32	49.268
1169.69	54.5463
1173.07	62.9481
1176.44	68.8797
1179.82	77.4489
1183.19	80.1974
1186.57	86.7391
1189.94	90.4963
1193.32	96.0166
1196.69	97.6875
1200.07	101.061
1203.44	95.6529
1206.82	94.1298
1210.19	86.7167
1213.57	75.5962
1216.94	60.5644
1220.32	40.8795
1223.69	14.3944
1227.07	6.31592
1230.44	4.73859
1233.82	2.57739
1237.19	4.34851
1240.57	3.47797
1243.94	10.7946
1247.32	17.6046
1250.69	25.5983
1254.06	35.9937
1257.44	28.2691
1260.81	25.2048
1264.19	21.8763
1267.56	20.5431
1270.94	18.6709
1274.31	17.8256
1277.69	11.6634
1281.06	9.49219
