Measurement: Raman, 532 nm, unoriented, Raman Data Processed
Mineral: Stottite
Rruff sample: R120089
Ideal chemistry: Fe^2+^Ge^4+^(OH)_6_
Locality: Tsumeb, Namibia
Source: William W Pinch
Description: Yellow to red gemmy crystals and fragments associated with chalcocite R120090, siderite and tennantite
Raman shift (cm-1)	intensity
170.524	0
173.416	4.70518
176.309	12.9008
179.202	13.2429
182.094	15.9523
184.987	22.0685
187.88	24.8819
190.773	23.8204
193.665	23.0204
196.558	24.4029
199.451	23.2758
202.343	20.386
205.236	20.9531
208.129	16.8288
211.021	11.1303
213.914	7.44286
216.807	4.50145
219.699	0.861031
222.592	0.208954
225.485	1.06251
228.377	0.608528
231.27	0.425629
234.163	0.419144
237.056	2.86637
239.948	1.5517
242.841	0.330902
245.734	5.85557
248.626	13.484
251.519	24.6771
254.412	35.5504
257.305	49.9176
260.197	69.1356
263.09	96.3834
265.983	112.263
268.875	78.2398
271.768	36.6448
274.661	31.2935
277.553	44.5145
280.446	69.9488
283.339	98.3107
286.232	131.613
289.124	180.66
292.017	266.358
294.91	385.209
297.802	428.752
300.695	271.803
303.588	121.954
306.481	55.2169
309.373	24.8981
312.266	11.1301
315.159	11.3536
318.051	18.2398
320.944	25.0457
323.837	41.0757
326.729	73.3686
329.622	107.894
332.515	110.16
335.408	66.342
338.3	34.5242
341.193	26.6151
344.086	30.6836
346.978	34.4094
349.871	40.6494
352.764	52.702
355.656	68.2698
358.549	78.2344
361.442	72.7319
364.334	45.4623
367.227	19.8221
370.12	6.87227
373.012	3.97427
375.905	0.691521
378.798	1.97047
381.691	4.51559
384.583	2.96791
387.476	0.164543
390.369	4.54246
393.261	9.71223
396.154	15.5996
399.047	26.1421
401.94	38.5785
404.832	52.2695
407.725	69.8787
410.618	86.6609
413.51	106.934
416.403	118.94
419.296	119.122
422.188	113.145
425.081	105.002
427.974	98.8234
430.866	93.151
433.759	84.7561
436.652	78.1409
439.545	72.1488
442.437	66.5301
445.33	66.4911
448.223	66.1268
451.115	62.2427
454.008	55.6723
456.901	43.3117
459.793	30.8733
462.686	21.4373
465.579	14.9731
468.472	10.2365
471.364	8.45648
474.257	6.96175
477.15	5.18557
480.042	6.19349
482.935	7.07167
485.828	6.59302
488.721	5.87968
491.613	5.38766
494.506	3.40435
497.399	1.61409
500.291	1.02814
503.184	1.31101
506.077	0.107914
508.969	1.01234
511.862	1.27249
514.755	0.84586
517.648	0.493767
520.54	0.36396
523.433	0.711685
526.326	0.652817
529.218	0.257767
532.111	0.586121
535.004	0.899094
537.896	1.22918
540.789	1.21597
543.682	0.426003
546.575	0.905952
549.467	1.97306
552.36	6.61377
555.253	8.12185
558.145	10.59
561.038	9.71497
563.931	9.10205
566.823	5.67869
569.716	4.23544
572.609	2.40682
575.502	3.34937
578.394	5.56896
581.287	7.79005
584.18	13.2899
587.072	17.1478
589.965	24.3322
592.858	32.4594
595.75	42.6479
598.643	56.7453
601.536	74.4848
604.428	96.6741
607.321	128.844
610.214	170.261
613.107	227.455
615.999	304.13
618.892	409.677
621.785	541.319
624.677	704.467
627.57	882.509
630.463	1059.6
633.356	1171.51
636.248	1169.36
639.141	1034.29
642.034	817.181
644.926	611.398
647.819	447.225
650.712	325.52
653.604	242.053
656.497	181.281
659.39	134.999
662.283	104.791
665.175	79.7378
668.068	61.79
670.961	48.2075
673.853	37.8332
676.746	28.7081
679.639	21.9405
682.531	17.188
685.424	11.3909
688.317	8.04253
691.21	5.25015
694.102	2.93715
696.995	1.36233
699.888	0.173973
702.78	0.914177
705.673	0.599548
708.566	1.55627
711.458	1.16939
714.351	0.698784
717.244	0.539574
720.136	1.66847
723.029	0.307182
725.922	0.050079
728.815	0.841736
731.707	1.16341
734.6	0.893169
737.493	1.79417
740.385	2.12102
743.278	2.74955
746.171	3.62616
749.063	4.5119
751.956	4.69796
754.849	3.96218
757.742	5.08468
760.634	6.17421
763.527	4.91434
766.42	4.23656
769.312	3.29018
772.205	3.33394
775.098	2.32024
777.99	1.99624
780.883	0.646492
783.776	0.942032
786.669	0.554672
789.561	0.382179
792.454	0.492569
795.347	0.343948
798.239	0.95343
801.132	0.190376
804.025	0.791191
806.918	1.37386
809.81	2.55337
812.703	1.59187
815.596	2.33028
818.488	3.46986
821.381	2.91254
824.274	3.24931
827.166	4.28242
830.059	4.63502
832.952	3.81392
835.845	4.96889
838.737	6.46468
841.63	7.76724
844.523	9.40691
847.415	9.36032
850.308	10.315
853.201	15.1945
856.093	12.5069
858.986	12.924
861.879	12.0977
864.771	13.9406
867.664	12.9539
870.557	13.5906
873.45	16.0889
876.342	20.1653
879.235	25.9377
882.128	33.6582
885.02	45.182
887.913	59.2229
890.806	76.3022
893.698	91.1081
896.591	105.045
899.484	113.148
902.377	116.11
905.269	110.951
908.162	100.774
911.055	84.4461
913.947	63.7564
916.84	45.1586
919.733	31.3513
922.625	23.8139
925.518	16.8261
928.411	13.1013
931.304	10.7663
934.196	7.31974
937.089	4.69951
939.982	3.17907
942.875	1.8399
945.767	0.261089
948.66	1.00437
951.553	0.336632
954.445	0.359737
957.338	0.323292
960.231	0.632515
963.123	0.31097
966.016	0.508804
968.909	0.327785
971.802	0.390739
974.694	0.531273
977.587	0.217232
980.48	0.712601
983.372	0.574841
986.265	0.459324
989.158	2.34262
992.05	1.35771
994.943	2.40045
997.836	2.04085
1000.73	2.24564
1003.62	3.62142
1006.51	2.45619
1009.41	2.55402
1012.3	3.28539
1015.19	3.27887
1018.09	4.20334
1020.98	3.96798
1023.87	2.87951
1026.76	3.07465
1029.66	2.20203
1032.55	2.51979
1035.44	3.00539
1038.33	2.05546
1041.23	1.48745
1044.12	0.491936
1047.01	1.56234
1049.9	1.7977
1052.8	2.08318
1055.69	2.11496
1058.58	1.2359
1061.47	1.21927
1064.37	1.06337
1067.26	0.368221
1070.15	0.390236
1073.05	0.048618
1075.94	0.320282
1078.83	0.059818
1081.72	0.167709
1084.62	0.539341
1087.51	0.382168
1090.4	0.39262
1093.3	0.504921
1096.19	0.517986
1099.08	1.90422
1101.97	1.09132
1104.87	2.25959
1107.76	2.91841
1110.65	4.50484
1113.54	5.00218
1116.44	5.34138
1119.33	6.30135
1122.22	5.55505
1125.12	4.54396
1128.01	4.84449
1130.9	5.44031
1133.79	5.13398
1136.68	6.73318
1139.58	7.17864
1142.47	9.09795
1145.36	9.24029
1148.26	11.1366
1151.15	10.2486
1154.04	10.1319
1156.93	10.2156
1159.83	8.97002
1162.72	8.99826
1165.61	8.92183
1168.51	8.17365
1171.4	8.73402
1174.29	8.18539
1177.18	7.82033
1180.08	7.84594
1182.97	7.76365
1185.86	7.23925
1188.75	9.2301
1191.65	10.7043
1194.54	11.4132
1197.43	10.299
1200.33	8.67423
1203.22	7.95904
1206.11	6.68842
1209	7.07809
1211.9	6.21701
1214.79	5.72871
1217.68	3.82095
1220.57	3.73228
1223.47	2.88568
1226.36	2.05257
1229.25	1.58126
1232.14	1.14084
1235.04	0.233765
1237.93	0.129406
1240.82	0.391693
1243.71	0.474743
1246.61	0.430805
1249.5	0.423752
1252.39	0.265785
1255.29	0.023911
1258.18	0.629536
1261.07	0.491882
1263.96	0.033947
1266.86	1.51074
1269.75	0.66053
1272.64	0.101204
1275.54	1.28408
1278.43	0.655563
1281.32	0.55941
1284.21	0.919401
1287.11	0.904171
1290	1.32802
1292.89	1.57787
1295.78	0.786396
1298.68	0.53903
1301.57	0.49041
