Measurement: Raman, 780 nm, unoriented, Raman Data Processed
Mineral: Stottite
Rruff sample: R120089
Ideal chemistry: Fe^2+^Ge^4+^(OH)_6_
Locality: Tsumeb, Namibia
Source: William W Pinch
Description: Yellow to red gemmy crystals and fragments associated with chalcocite R120090, siderite and tennantite
Raman shift (cm-1)	intensity
138.851	0
141.744	1.27844
144.636	1.2719
147.529	0.150822
150.422	1.58311
153.315	3.28773
156.207	4.70692
159.1	8.16837
161.993	12.0519
164.885	14.7678
167.778	21.8985
170.671	29.5803
173.563	37.5951
176.456	41.1719
179.349	40.1422
182.242	40.0701
185.134	41.5834
188.027	38.9625
190.92	27.8795
193.812	22.7528
196.705	20.1103
199.598	18.6969
202.49	14.7255
205.383	13.1781
208.276	9.35379
211.168	5.86063
214.061	5.58622
216.954	3.64329
219.847	0.397717
222.739	1.05188
225.632	0.572964
228.525	0.456108
231.417	1.06444
234.31	1.23617
237.203	2.24107
240.095	0.386635
242.988	2.59441
245.881	9.17107
248.774	16.7819
251.666	26.4442
254.559	34.0019
257.452	49.449
260.344	66.3194
263.237	91.0948
266.13	104.64
269.022	63.5365
271.915	34.946
274.808	37.7858
277.701	59.9372
280.593	89.8721
283.486	112.838
286.379	145.39
289.271	202.55
292.164	293.275
295.057	406.578
297.95	405.659
300.842	229.988
303.735	109.709
306.628	51.9115
309.52	26.1547
312.413	18.354
315.306	17.8199
318.198	19.7225
321.091	25.6505
323.984	41.7672
326.877	68.3642
329.769	99.7651
332.662	99.1465
335.555	55.7614
338.447	30.3137
341.34	26.261
344.233	26.6579
347.125	26.7969
350.018	26.8064
352.911	30.0066
355.803	35.2158
358.696	38.5645
361.589	31.4913
364.482	17.8693
367.374	5.7695
370.267	2.99894
373.16	0.720116
376.052	0.478546
378.945	3.34555
381.838	2.58058
384.731	0.237164
387.623	0.7682
390.516	3.31679
393.409	7.81131
396.301	11.8473
399.194	18.8252
402.087	24.7541
404.979	33.0255
407.872	41.9738
410.765	52.0559
413.658	62.046
416.55	68.9451
419.443	67.8474
422.336	63.8178
425.228	57.7546
428.121	55.753
431.014	50.2357
433.906	48.8422
436.799	44.3988
439.692	43.051
442.584	41.9529
445.477	42.1705
448.37	42.4254
451.263	40.0792
454.155	34.8721
457.048	26.1936
459.941	17.7956
462.833	11.1873
465.726	7.51688
468.619	5.0018
471.512	2.73563
474.404	3.26335
477.297	3.40979
480.19	3.15646
483.082	3.12292
485.975	2.96725
488.868	3.02285
491.76	1.10303
494.653	0.193722
497.546	1.51082
500.438	0.146019
503.331	0.748627
506.224	0.557888
509.117	0.635029
512.009	0.550068
514.902	1.31259
517.795	0.971882
520.687	0.563828
523.58	0.824745
526.473	0.791035
529.365	0.462582
532.258	0.698044
535.151	0.714867
538.044	0.713448
540.936	0.515091
543.829	0.870987
546.722	0.463356
549.614	0.43277
552.507	3.04345
555.4	5.24279
558.293	6.76424
561.185	5.60648
564.078	4.0513
566.971	2.82141
569.863	1.52736
572.756	2.37909
575.649	3.74321
578.541	5.03577
581.434	7.17881
584.327	12.6483
587.22	16.0577
590.112	22.9069
593.005	29.295
595.898	37.6422
598.79	48.6494
601.683	64.9936
604.576	83.5076
607.468	106.397
610.361	140.761
613.254	187.277
616.146	247.14
619.039	329.079
621.932	423.086
624.825	537.856
627.717	661.237
630.61	780.014
633.503	850.136
636.395	823.116
639.288	699.913
642.181	543.711
645.073	402.717
647.966	288.605
650.859	211.335
653.752	154.486
656.644	115.823
659.537	86.648
662.43	64.9715
665.322	52.0919
668.215	39.5546
671.108	30.7246
674	23.4128
676.893	17.4867
679.786	13.4681
682.679	9.20026
685.571	6.93059
688.464	5.01712
691.357	2.47922
694.249	0.06657
697.142	0.114254
700.035	1.21784
702.928	0.471764
705.82	0.103115
708.713	1.59947
711.606	1.64321
714.498	0.505112
717.391	1.35076
720.284	0.283863
723.176	0.39846
726.069	0.184528
728.962	1.05856
731.855	0.322935
734.747	1.31226
737.64	0.673077
740.533	1.0054
743.425	1.86573
746.318	2.12962
749.211	2.60961
752.103	3.02421
754.996	2.94739
757.889	2.60818
760.782	2.75701
763.674	4.45037
766.567	3.08402
769.46	3.12634
772.352	2.58586
775.245	1.99621
778.138	1.28275
781.03	0.834625
783.923	1.20213
786.816	0.516855
789.708	0.355846
792.601	1.55086
795.494	0.282827
798.387	0.527351
801.279	1.70665
804.172	0.012175
807.065	0.740118
809.957	3.9408
812.85	0.581133
815.743	0.464079
818.635	0.0639
821.528	0.725597
824.421	1.34035
827.314	0.782192
830.206	0.443699
833.099	1.95646
835.992	1.15862
838.884	0.983805
841.777	1.185
844.67	1.43658
847.562	1.40891
850.455	2.53259
853.348	3.59607
856.241	3.34816
859.133	3.43182
862.026	3.50001
864.919	5.50042
867.811	5.7231
870.704	7.6312
873.597	8.42427
876.49	9.99098
879.382	9.52697
882.275	14.5112
885.168	18.033
888.06	23.1206
890.953	27.1977
893.846	32.1934
896.738	37.0606
899.631	39.8299
902.524	39.5917
905.417	37.7856
908.309	33.0153
911.202	27.3958
914.095	19.6799
916.987	13.4668
919.88	9.3478
922.773	5.47386
925.665	5.19481
928.558	3.94808
931.451	2.55211
934.343	2.53451
937.236	1.18416
940.129	1.73813
943.022	0.04657
945.914	0.499044
948.807	0.675278
951.7	0.01409
954.592	0.559916
957.485	0.157213
960.378	0.889832
963.27	0.669733
966.163	0.584759
969.056	0.6784
971.949	0.046488
974.841	0.529438
977.734	0.27005
980.627	0.100597
983.519	0.997999
986.412	0.179329
989.305	0.879597
992.197	1.06769
995.09	1.71808
997.983	1.93063
1000.88	1.09934
1003.77	1.74197
1006.66	1.64464
1009.55	0.638891
1012.45	1.58325
1015.34	1.89849
1018.23	1.86686
1021.12	1.21771
1024.02	2.42159
1026.91	1.8088
1029.8	1.63325
1032.69	1.46532
1035.59	2.44793
1038.48	0.872916
1041.37	1.88862
1044.27	1.20449
1047.16	1.07847
1050.05	0.004237
1052.94	0.74964
1055.84	1.36308
1058.73	0.103328
1061.62	1.17728
1064.52	0.858971
1067.41	0.058497
1070.3	0.448405
1073.19	0.397166
1076.09	0.578398
1078.98	0.82139
1081.87	1.1397
1084.76	1.80138
1087.66	1.77192
1090.55	0.868809
1093.44	0.020273
1096.34	0.80845
1099.23	0.780797
1102.12	0.17206
1105.01	0.688528
1107.91	0.229872
1110.8	1.72804
1113.69	0.278191
1116.58	1.12733
1119.48	1.28337
1122.37	1.20972
1125.26	0.744463
1128.15	1.27767
1131.05	1.19028
1133.94	1.74879
1136.83	2.58338
1139.72	1.84485
1142.62	3.40311
1145.51	3.19993
1148.4	3.83021
1151.3	3.65725
1154.19	2.98621
1157.08	2.9029
1159.97	1.91755
1162.87	2.8699
1165.76	1.81988
1168.65	1.62106
1171.55	1.58311
1174.44	1.66427
1177.33	1.71201
1180.22	1.46504
1183.12	1.27135
1186.01	1.63674
1188.9	2.08573
1191.79	2.54422
1194.69	2.87106
1197.58	3.00044
1200.47	1.77663
1203.37	1.54992
1206.26	2.48143
1209.15	1.90205
1212.04	1.88381
1214.93	1.3133
1217.83	0.959747
1220.72	1.44414
1223.61	1.08941
1226.51	1.42873
1229.4	0.343592
1232.29	0.907387
1235.18	0.130862
1238.08	0.27292
1240.97	0.279513
1243.86	0.593609
1246.76	0.190833
1249.65	0.09936
1252.54	1.31368
1255.43	0.42557
1258.33	0.253142
1261.22	0.714471
1264.11	1.15646
1267	0.940249
1269.9	1.28106
1272.79	0.437612
1275.68	1.20591
1278.58	1.05703
1281.47	0.14353
1284.36	0.254898
