Measurement: Raman, 780 nm, unoriented, Raman Data Processed
Mineral: Strakhovite
Rruff sample: R080039
Ideal chemistry: NaBa_3_(Mn^2+^,Mn^3+^)_4_[Si_4_O_10_(OH)_2_][Si_2_O_7_]O_2_(F,OH)H_2_O
Locality: Dzhavodi Area, Ir-Nimi manganese deposit, Taikan Ridge, Khabarovskiy Kray, Far-Eastern Region, Russia
Source: Michael Scott
Description: Dark green vitreous massive
Raman shift (cm-1)	intensity
129.647	0
133.022	0.056526
136.396	4.55751
139.771	10.7314
143.146	14.6689
146.521	20.2337
149.895	21.1122
153.27	16.8827
156.645	12.9505
160.02	14.9138
163.395	18.2718
166.77	21.575
170.144	25.7643
173.519	26.1439
176.894	22.7712
180.269	17.9717
183.644	12.6175
187.018	8.83933
190.393	4.45648
193.768	6.22651
197.143	4.92784
200.518	2.86864
203.893	1.48516
207.267	0.547798
210.642	1.24696
214.017	0.028389
217.392	4.17408
220.767	5.35159
224.142	6.38379
227.516	6.49321
230.891	5.71527
234.266	6.04388
237.641	7.44188
241.016	9.55817
244.39	12.6656
247.765	14.342
251.14	14.617
254.515	12.3172
257.89	7.83686
261.264	4.98252
264.639	3.21531
268.014	1.85095
271.389	0.260979
274.764	1.49488
278.139	1.87173
281.513	0.281677
284.888	3.47339
288.263	5.28602
291.638	9.7432
295.013	14.1807
298.387	17.9707
301.762	23.8876
305.137	24.5618
308.512	23.5109
311.887	18.7076
315.262	15.6348
318.636	12.1905
322.011	10.7027
325.386	7.34631
328.761	8.27192
332.136	8.22534
335.51	9.94675
338.885	12.8082
342.26	15.5823
345.635	15.8271
349.01	13.7933
352.385	10.9243
355.759	7.0945
359.134	5.27382
362.509	3.57569
365.884	4.00502
369.259	6.30496
372.633	8.63563
376.008	12.1125
379.383	13.5431
382.758	13.914
386.133	11.9008
389.507	9.26148
392.882	8.12322
396.257	8.67982
399.632	8.51003
403.007	11.9837
406.382	13.483
409.756	11.4963
413.131	8.34568
416.506	4.23443
419.881	2.31864
423.256	1.10487
426.63	1.56997
430.005	2.8283
433.38	1.09831
436.755	1.1689
440.13	0.159439
443.505	1.28561
446.879	1.23307
450.254	0.966957
453.629	1.80917
457.004	0.058754
460.379	0.608047
463.753	1.15617
467.128	3.17512
470.503	5.56239
473.878	8.4622
477.253	8.2861
480.627	6.98394
484.002	6.60048
487.377	7.1067
490.752	6.36406
494.127	7.44285
497.502	8.67808
500.876	11.1796
504.251	11.0361
507.626	11.9936
511.001	11.4276
514.376	13.0814
517.75	13.293
521.125	12.868
524.5	12.6832
527.875	12.7011
531.25	15.4539
534.625	14.4637
537.999	16.7066
541.374	23.4327
544.749	32.2503
548.124	41.3381
551.499	51.97
554.873	61.5082
558.248	68.7048
561.623	66.9279
564.998	57.5991
568.373	45.3196
571.747	36.6806
575.122	30.5581
578.497	27.8018
581.872	24.4756
585.247	20.009
588.621	17.497
591.996	13.6852
595.371	9.88944
598.746	6.88755
602.121	7.1137
605.496	3.86842
608.87	3.96068
612.245	3.6041
615.62	2.92358
618.995	4.17471
622.37	2.7755
625.745	2.07797
629.119	0.275974
632.494	0.040661
635.869	1.46003
639.244	0.572834
642.619	0.544697
645.993	0.192924
649.368	0.177181
652.743	0.557961
656.118	0.793259
659.493	0.766495
662.867	1.46605
666.242	0.383762
669.617	0.725792
672.992	1.15391
676.367	1.77816
679.742	2.90091
683.116	2.43734
686.491	2.37573
689.866	2.09691
693.241	2.62229
696.616	2.61729
699.99	3.64968
703.365	2.4118
706.74	4.00605
710.115	3.72565
713.49	3.84137
716.865	3.77917
720.239	3.98739
723.614	3.56761
726.989	2.90784
730.364	1.7791
733.739	1.50704
737.113	1.25593
740.488	0.798855
743.863	0.428604
747.238	0.786617
750.613	0.797714
753.987	0.248367
757.362	0.618088
760.737	0.516396
764.112	1.43168
767.487	1.09708
770.862	0.194317
774.236	0.90247
777.611	0.212204
780.986	1.37654
784.361	0.463203
787.736	1.74794
791.111	1.54805
794.485	2.26421
797.86	2.88145
801.235	3.86317
804.61	4.77452
807.985	5.19107
811.359	5.66507
814.734	5.22411
818.109	3.50484
821.484	3.26809
824.859	2.40123
828.234	2.78888
831.608	2.28495
834.983	2.52332
838.358	2.74077
841.733	2.66751
845.107	2.64617
848.482	1.36834
851.857	1.74489
855.232	1.42514
858.607	3.15575
861.982	2.68148
865.356	2.61863
868.731	4.00821
872.106	4.45486
875.481	4.50824
878.856	5.03413
882.231	5.04358
885.605	4.73401
888.98	5.97904
892.355	6.65462
895.73	6.3027
899.105	7.74154
902.479	6.54341
905.854	5.15231
909.229	3.94392
912.604	3.3264
915.979	2.04844
919.354	1.20693
922.728	1.09228
926.103	0.320301
929.478	1.05077
932.853	0.151035
936.227	1.39138
939.602	0.260334
942.977	0.771645
946.352	1.26834
949.727	0.750023
953.102	1.31539
956.476	1.76395
959.851	1.84875
963.226	2.0042
966.601	4.13506
969.976	3.90442
973.351	5.09987
976.725	5.53943
980.1	4.708
983.475	4.70815
986.85	3.76579
990.225	6.38475
993.599	3.87775
996.974	4.92554
1000.35	7.27635
1003.72	9.11773
1007.1	10.4987
1010.47	13.3085
1013.85	13.6897
1017.22	12.9899
1020.6	10.3552
1023.97	9.84916
1027.35	7.86765
1030.72	6.62753
1034.1	5.40553
1037.47	5.09007
1040.85	3.96783
1044.22	2.59583
1047.6	1.95975
1050.97	1.92171
1054.35	2.31705
1057.72	0.920574
1061.1	0.736893
1064.47	0.412907
1067.85	0.31216
1071.22	0.286386
1074.6	1.18719
1077.97	0.165478
1081.35	0.715416
1084.72	1.27088
1088.09	0.964205
1091.47	2.01567
1094.84	1.42441
1098.22	1.93643
1101.59	2.09739
1104.97	3.08897
1108.34	1.98162
1111.72	2.30468
1115.09	1.3974
1118.47	1.83143
1121.84	1.67601
1125.22	1.01679
1128.59	0.946394
1131.97	0.749889
1135.34	1.66058
1138.72	0.115208
1142.09	0.028238
1145.47	1.40088
1148.84	0.927588
1152.22	0.854475
1155.59	0.432577
1158.96	0.321129
1162.34	0.673759
1165.71	1.03166
1169.09	1.46776
1172.46	1.61124
1175.84	1.68297
1179.21	1.38354
1182.59	1.36763
1185.96	0.606386
1189.34	1.12422
1192.71	0.962791
1196.09	1.37104
1199.46	1.089
1202.84	0.951693
1206.21	1.62199
1209.59	0.802526
1212.96	1.02115
1216.34	0.919722
1219.71	1.60571
1223.09	0.51622
1226.46	1.26911
1229.84	1.21486
1233.21	1.64461
1236.59	1.28822
1239.96	0.030716
1243.34	0.379242
1246.71	1.88185
1250.09	0.920149
1253.46	0.6057
1256.84	0.60947
1260.21	1.62227
1263.59	0.150497
1266.96	1.16713
1270.33	1.52999
1273.71	1.6588
1277.08	1.32659
1280.46	0.680649
1283.83	0.941025
1287.21	0.067408
