Measurement: Raman, 532 nm, unoriented, Raman Data Processed
Mineral: Strakhovite
Rruff sample: R080039
Ideal chemistry: NaBa_3_(Mn^2+^,Mn^3+^)_4_[Si_4_O_10_(OH)_2_][Si_2_O_7_]O_2_(F,OH)H_2_O
Locality: Dzhavodi Area, Ir-Nimi manganese deposit, Taikan Ridge, Khabarovskiy Kray, Far-Eastern Region, Russia
Source: Michael Scott
Description: Dark green vitreous massive
Raman shift (cm-1)	intensity
130.356	0
133.731	0.898865
137.105	4.98291
140.48	18.5559
143.855	24.2864
147.23	35.3585
150.605	32.2295
153.979	26.8095
157.354	13.5942
160.729	5.63966
164.104	2.70581
167.479	1.9465
170.853	2.07691
174.228	0.995026
177.603	0.616447
180.978	0.449287
184.353	0.300667
187.728	1.41595
191.102	1.28815
194.477	6.82559
197.852	16.1942
201.227	19.6836
204.602	13.0749
207.976	5.25581
211.351	0.517319
214.726	0.12191
218.101	1.59526
221.476	0.983765
224.851	4.38446
228.225	4.53381
231.6	2.9515
234.975	4.43477
238.35	8.63365
241.725	19.3457
245.1	31.6033
248.474	48.8908
251.849	67.6062
255.224	75.6108
258.599	59.6787
261.974	36.2493
265.348	21.9254
268.723	13.963
272.098	12.0081
275.473	9.0259
278.848	8.14722
282.222	5.32391
285.597	4.82081
288.972	5.40386
292.347	8.54816
295.722	12.9875
299.096	17.6946
302.471	22.3996
305.846	29.2978
309.221	34.7384
312.596	39.0905
315.971	38.0097
319.345	34.8899
322.72	29.223
326.095	22.5118
329.47	15.1717
332.845	15.1109
336.219	12.9894
339.594	7.64717
342.969	9.47685
346.344	12.683
349.719	15.6092
353.094	9.67998
356.468	2.60963
359.843	0.294281
363.218	1.07436
366.593	0.417076
369.968	1.77463
373.342	8.30208
376.717	15.758
380.092	22.6623
383.467	24.8726
386.842	21.6019
390.217	15.6821
393.591	8.73138
396.966	0.84938
400.341	0.832924
403.716	1.91255
407.091	9.59616
410.465	14.6683
413.84	15.2492
417.215	11.1445
420.59	8.51944
423.965	5.65008
427.339	6.77403
430.714	9.90888
434.089	17.2887
437.464	19.9206
440.839	17.1893
444.214	17.9921
447.588	19.62
450.963	15.9945
454.338	6.25703
457.713	0.809273
461.088	1.73894
464.462	1.74484
467.837	2.41509
471.212	1.11649
474.587	5.72637
477.962	7.49497
481.337	7.37738
484.711	2.009
488.086	0.732101
491.461	1.35082
494.836	1.34327
498.211	8.00518
501.586	17.9299
504.96	26.5343
508.335	36.805
511.71	45.4194
515.085	47.2056
518.46	47.3629
521.834	45.4278
525.209	45.609
528.584	49.5264
531.959	52.4608
535.334	52.7039
538.708	52.0373
542.083	59.5818
545.458	76.3878
548.833	94.8099
552.208	120.668
555.582	155.954
558.957	195.423
562.332	230.252
565.707	229.483
569.082	197.478
572.457	165.688
575.831	147.587
579.206	138.06
582.581	130.577
585.956	117.665
589.331	100.737
592.706	81.0527
596.08	61.5721
599.455	45.5612
602.83	31.916
606.205	20.9178
609.58	13.7581
612.954	10.9185
616.329	8.42924
619.704	7.75999
623.079	6.4911
626.454	5.37513
629.828	3.02367
633.203	0.607094
636.578	1.06835
639.953	1.85999
643.328	0.801811
646.703	1.54096
650.077	0.501617
653.452	1.0533
656.827	0.312214
660.202	1.27451
663.577	1.80261
666.952	1.5131
670.326	2.18504
673.701	2.91475
677.076	2.97037
680.451	3.79607
683.826	3.80856
687.2	3.79324
690.575	4.99573
693.95	4.85065
697.325	3.07254
700.7	4.88387
704.074	4.07542
707.449	3.74755
710.824	4.20237
714.199	5.16385
717.574	4.81853
720.948	6.0105
724.323	5.88604
727.698	5.34861
731.073	5.42542
734.448	4.46854
737.823	4.93816
741.197	5.16201
744.572	5.55053
747.947	5.20544
751.322	5.77074
754.697	3.88066
758.072	2.93028
761.446	2.33154
764.821	2.93093
768.196	2.1342
771.571	1.86462
774.946	0.578327
778.32	1.08024
781.695	0.550476
785.07	0.422638
788.445	0.049839
791.82	0.483913
795.194	0.45747
798.569	2.28892
801.944	3.69141
805.319	6.92437
808.694	9.53282
812.068	10.617
815.443	10.0062
818.818	8.165
822.193	6.02324
825.568	3.58582
828.943	2.2379
832.317	2.19292
835.692	2.80554
839.067	2.8906
842.442	2.78293
845.817	2.53255
849.192	2.21736
852.566	1.02037
855.941	0.25248
859.316	0.066525
862.691	0.249165
866.066	0.155235
869.44	1.15021
872.815	3.00349
876.19	6.45756
879.565	6.62373
882.94	8.76911
886.314	10.9468
889.689	15.2325
893.064	20.4928
896.439	25.6404
899.814	30.8914
903.189	34.422
906.563	32.7202
909.938	26.3854
913.313	19.0075
916.688	11.9162
920.063	5.30193
923.438	1.3092
926.812	0.957176
930.187	0.681183
933.562	0.334461
936.937	1.34098
940.312	3.17389
943.686	4.28573
947.061	5.84247
950.436	6.08224
953.811	6.03924
957.186	4.68721
960.56	3.55915
963.935	2.0411
967.31	3.30735
970.685	5.77369
974.06	10.3502
977.434	14.0076
980.809	16.1571
984.184	15.4408
987.559	11.7195
990.934	8.91562
994.309	7.07551
997.683	5.67472
1001.06	6.00771
1004.43	10.2774
1007.81	15.0009
1011.18	23.6879
1014.56	33.5726
1017.93	41.8104
1021.31	42.1034
1024.68	33.3689
1028.06	25.2634
1031.43	20.257
1034.81	16.961
1038.18	12.793
1041.56	9.08828
1044.93	7.24357
1048.31	5.8915
1051.68	5.34856
1055.06	3.69504
1058.43	2.71704
1061.81	2.91782
1065.18	2.29109
1068.56	0.668751
1071.93	0.063614
1075.3	0.653667
1078.68	0.487595
1082.05	0.0802
1085.43	0.595436
1088.8	0.438046
1092.18	1.39672
1095.55	2.19236
1098.93	3.63337
1102.3	4.40174
1105.68	4.41359
1109.05	5.08784
1112.43	4.98286
1115.8	4.2766
1119.18	3.91815
1122.55	2.87111
1125.93	2.29837
1129.3	1.42426
1132.68	1.0486
1136.05	0.916611
1139.43	0.462677
1142.8	0.139294
1146.17	0.060402
1149.55	1.98337
1152.92	1.21103
1156.3	0.936928
1159.67	1.12941
1163.05	1.63898
1166.42	2.00237
1169.8	1.1731
1173.17	1.97522
1176.55	2.25472
1179.92	1.8556
1183.3	2.5892
1186.67	2.36185
1190.05	1.78313
1193.42	1.88174
1196.8	1.30604
1200.17	1.00283
1203.55	0.902843
1206.92	0.930691
1210.3	0.920666
1213.67	0.507362
1217.05	0.305267
1220.42	1.04966
1223.8	0.05584
1227.17	0.868938
1230.55	0.093075
1233.92	0.064266
1237.3	0.762222
1240.67	0.430004
1244.05	0.503345
1247.42	0.107414
1250.8	0.510933
1254.17	0.227562
1257.54	0.497393
1260.92	0.031385
1264.29	0.060823
1267.67	0.539419
1271.04	0.57646
1274.42	0.505148
1277.79	0.376665
1281.17	0.080475
1284.54	0.055851
1287.92	1.46741
1291.29	0.947859
1294.67	0.739914
1298.04	0.340921
1301.42	0.759399
1304.79	0.046185
