Measurement: Raman, 532 nm, unoriented, Raman Data Processed
Mineral: Strashimirite
Rruff sample: R060142
Ideal chemistry: Cu^2+^_4_(As^5+^O_4_)_2_(OH)_2_2.5H_2_O
Locality: Majuba Hill, Pershing County, Nevada, USA
Source: Marcus Origlieri
Description: White to colorless fibrous or hair-like aggregate
Raman shift (cm-1)	intensity
173.416	0
176.309	0.718721
179.202	1.10891
182.094	1.7289
184.987	1.9971
187.88	3.35321
190.773	3.91542
193.665	4.59066
196.558	5.05994
199.451	6.49915
202.343	8.60188
205.236	9.49433
208.129	11.368
211.021	14.9274
213.914	17.3921
216.807	18.9567
219.699	19.793
222.592	17.8471
225.485	15.6246
228.377	13.3125
231.27	10.9265
234.163	8.69315
237.056	6.99585
239.948	3.98003
242.841	2.77033
245.734	1.41575
248.626	0.303064
251.519	0.137856
254.412	0.165293
257.305	0.473778
260.197	1.05031
263.09	0.089785
265.983	0.305296
268.875	0.361805
271.768	2.28022
274.661	4.80537
277.553	6.11698
280.446	7.91801
283.339	7.7792
286.232	6.67249
289.124	5.11319
292.017	4.98251
294.91	4.7202
297.802	6.18063
300.695	6.99807
303.588	7.7216
306.481	8.1484
309.373	9.54383
312.266	8.83255
315.159	8.54992
318.051	7.57828
320.944	7.58605
323.837	8.10537
326.729	9.54724
329.622	11.2343
332.515	11.2147
335.408	11.9606
338.3	13.0872
341.193	12.5896
344.086	13.063
346.978	11.4246
349.871	9.57655
352.764	8.05234
355.656	6.55043
358.549	5.45788
361.442	4.01816
364.334	2.82266
367.227	1.70126
370.12	1.04845
373.012	0.341389
375.905	0.183989
378.798	0.318441
381.691	0.499176
384.583	0.162004
387.476	0.027571
390.369	0.167795
393.261	0.480297
396.154	1.02212
399.047	0.820246
401.94	0.79767
404.832	1.50832
407.725	1.67287
410.618	2.91877
413.51	4.18817
416.403	3.87432
419.296	4.4866
422.188	3.41739
425.081	2.81494
427.974	2.62175
430.866	2.01781
433.759	1.02932
436.652	0.882574
439.545	1.09265
442.437	1.15906
445.33	0.555639
448.223	0.528465
451.115	0.119461
454.008	0.495934
456.901	0.308521
459.793	0.294327
462.686	0.424631
465.579	0.825855
468.472	0.592226
471.364	1.25004
474.257	1.04614
477.15	1.49906
480.042	1.43284
482.935	1.98379
485.828	3.38637
488.721	3.05947
491.613	4.29594
494.506	4.72473
497.399	5.70429
500.291	6.73188
503.184	7.22062
506.077	8.61128
508.969	9.22708
511.862	10.1672
514.755	9.05949
517.648	7.07488
520.54	5.85322
523.433	4.90684
526.326	4.55774
529.218	3.97865
532.111	3.19555
535.004	2.79953
537.896	3.06505
540.789	2.84628
543.682	2.88327
546.575	2.70916
549.467	3.21658
552.36	3.3925
555.253	3.76853
558.145	3.12413
561.038	2.64336
563.931	2.36699
566.823	1.49416
569.716	0.972055
572.609	1.22971
575.502	0.570856
578.394	0.107775
581.287	0.843115
584.18	0.136221
587.072	0.482506
589.965	0.390827
592.858	0.16024
595.75	0.064314
598.643	0.024805
601.536	0.001778
604.428	0.185217
607.321	0.555878
610.214	0.493221
613.107	0.709612
615.999	0.109726
618.892	0.028297
621.785	0.68667
624.677	0.562851
627.57	1.15457
630.463	0.531618
633.356	1.06151
636.248	0.718271
639.141	0.278526
642.034	0.512058
644.926	0.90971
647.819	0.861639
650.712	0.989508
653.604	0.806776
656.497	0.50963
659.39	0.794428
662.283	1.24082
665.175	1.35066
668.068	1.24899
670.961	0.922726
673.853	1.1231
676.746	1.24881
679.639	1.08276
682.531	1.02614
685.424	1.16248
688.317	1.62218
691.21	1.91236
694.102	1.60259
696.995	1.62122
699.888	1.52099
702.78	1.85676
705.673	1.3914
708.566	1.7759
711.458	1.56337
714.351	0.456598
717.244	0.723824
720.136	1.1424
723.029	0.702473
725.922	0.737097
728.815	1.11592
731.707	0.374924
734.6	0.634407
737.493	0.587687
740.385	0.25034
743.278	0.385269
746.171	0.346882
749.063	0.155226
751.956	0.150593
754.849	0.340143
757.742	0.136921
760.634	0.184666
763.527	0.082554
766.42	0.034021
769.312	0.672001
772.205	0.439907
775.098	0.870232
777.99	1.75815
780.883	2.08488
783.776	4.07298
786.669	5.37209
789.561	7.22051
792.454	9.24882
795.347	11.2851
798.239	14.6509
801.132	19.8674
804.025	25.0969
806.918	32.1366
809.81	41.4976
812.703	49.4866
815.596	53.0271
818.488	52.4595
821.381	48.2153
824.274	44.7837
827.166	41.7462
830.059	41.7816
832.952	46.2048
835.845	55.0785
838.737	67.4828
841.63	83.6893
844.523	104.631
847.415	126.201
850.308	146.995
853.201	159.424
856.093	146.038
858.986	107.05
861.879	69.8793
864.771	44.0112
867.664	29.1733
870.557	20.0262
873.45	14.3461
876.342	10.0529
879.235	7.07289
882.128	5.44716
885.02	4.25357
887.913	3.83474
890.806	3.18513
893.698	1.65582
896.591	1.62445
899.484	0.768373
902.377	0.221136
905.269	0.174408
908.162	0.783934
911.055	0.312002
913.947	0.382618
916.84	0.036573
919.733	0.100626
922.625	0.106833
925.518	0.14394
928.411	0.259903
931.304	0.204044
934.196	0.19347
937.089	0.281557
939.982	0.392374
942.875	0.023277
945.767	0.265652
948.66	0.613297
951.553	0.488277
954.445	0.998301
957.338	0.674433
960.231	0.929531
963.123	0.663069
966.016	1.32715
968.909	1.1325
971.802	0.954325
974.694	0.376228
977.587	0.883038
980.48	0.851791
983.372	0.887953
986.265	1.00449
989.158	0.998623
992.05	0.554832
994.943	0.36541
997.836	0.944923
1000.73	0.473417
1003.62	0.391874
1006.51	0.7421
1009.41	0.54365
1012.3	0.358753
1015.19	0.376608
1018.09	0.859933
1020.98	1.42454
1023.87	0.579192
1026.76	0.9706
1029.66	1.02388
1032.55	1.08989
1035.44	0.694261
1038.33	1.21547
1041.23	1.1146
1044.12	0.762719
1047.01	1.01844
1049.9	0.469901
1052.8	0.437647
1055.69	0.280575
1058.58	0.840361
1061.47	0.57105
1064.37	0.626154
1067.26	0.385177
1070.15	0.151238
1073.05	0.555125
1075.94	0.843298
1078.83	0.325792
1081.72	0.60941
1084.62	0.362066
1087.51	0.431438
1090.4	0.918338
1093.3	0.169312
1096.19	0.231864
1099.08	0.185532
1101.97	0.24348
1104.87	0.209156
1107.76	0.016487
1110.65	0.074586
1113.54	0.388528
1116.44	0.243916
1119.33	0.404005
1122.22	0.082301
1125.12	0.422452
1128.01	0.483258
1130.9	0.246634
1133.79	0.404041
1136.68	0.773612
1139.58	0.461419
1142.47	0.157049
1145.36	0.289844
1148.26	0.170847
1151.15	0.390716
1154.04	0.682959
1156.93	0.015175
1159.83	0.020608
1162.72	0.647677
1165.61	0.196526
1168.51	0.209292
1171.4	0.267243
1174.29	0.158502
1177.18	0.365961
1180.08	0.594351
1182.97	0.452164
1185.86	0.23326
1188.75	0.444166
1191.65	0.344327
1194.54	0.283213
1197.43	0.148164
1200.33	0.476541
1203.22	0.542112
1206.11	0.328162
1209	0.55438
1211.9	0.39838
1214.79	0.005849
1217.68	0.119272
1220.57	0.067284
1223.47	0.261696
1226.36	0.485209
1229.25	0.358081
1232.14	0.425128
1235.04	0.429644
1237.93	0.521705
1240.82	0.260982
1243.71	0.281576
1246.61	0.41261
1249.5	0.289279
1252.39	0.096488
1255.29	1.22746
1258.18	0.7377
1261.07	0.509924
1263.96	0.913652
1266.86	0.302413
1269.75	0.357235
1272.64	0.27317
1275.54	0.473827
1278.43	0.83529
1281.32	0.166368
1284.21	0.897305
1287.11	0.399915
1290	0.493906
1292.89	0.784777
1295.78	0.762175
1298.68	0.526866
1301.57	0.092326
