Measurement: Raman, 532 nm, unoriented, Raman Data Processed
Mineral: Strashimirite
Rruff sample: R060335
Ideal chemistry: Cu^2+^_4_(As^5+^O_4_)_2_(OH)_2_2.5H_2_O
Locality: Burrus mine, Pyramid District, Washoe County, Nevada, USA
Source: Michael Scott
Description: Light green tufts on green platy chalcophyllite
Raman shift (cm-1)	intensity
172.452	0
175.345	0.65416
178.237	4.25881
181.13	4.8827
184.023	7.39193
186.916	13.4558
189.808	16.455
192.701	18.8838
195.594	19.1587
198.486	22.2246
201.379	24.2943
204.272	26.625
207.164	28.6287
210.057	32.244
212.95	33.7459
215.843	35.9278
218.735	36.3522
221.628	34.8715
224.521	31.0426
227.413	28.9962
230.306	26.8111
233.199	25.2007
236.091	23.4296
238.984	21.5442
241.877	18.8986
244.769	14.7942
247.662	10.1408
250.555	5.46624
253.448	2.44618
256.34	0.298943
259.233	0.141411
262.126	2.30749
265.018	0.20372
267.911	0.073586
270.804	1.18153
273.697	4.90953
276.589	8.82379
279.482	12.6692
282.375	17.5389
285.267	22.7702
288.16	28.412
291.053	34.098
293.945	39.1202
296.838	40.3211
299.731	34.6547
302.623	26.0428
305.516	17.48
308.409	11.8808
311.302	8.22382
314.194	5.56696
317.087	4.72658
319.98	2.37326
322.872	3.22717
325.765	1.59641
328.658	3.35743
331.55	2.94399
334.443	4.26876
337.336	5.50269
340.229	5.78912
343.121	4.70935
346.014	3.30829
348.907	3.23252
351.799	2.10757
354.692	3.0008
357.585	2.47527
360.478	2.03773
363.37	2.40772
366.263	1.12853
369.156	2.21119
372.048	2.49586
374.941	2.29986
377.834	1.80514
380.726	1.28274
383.619	0.710823
386.512	0.202934
389.404	0.29071
392.297	0.024872
395.19	0.547356
398.083	1.15559
400.975	0.253113
403.868	0.465668
406.761	0.976692
409.653	0.685516
412.546	0.373802
415.439	0.208023
418.332	0.051788
421.224	1.0123
424.117	0.185928
427.01	0.458344
429.902	0.375977
432.795	1.17958
435.688	2.61706
438.58	3.42308
441.473	4.11843
444.366	5.10505
447.259	6.5579
450.151	7.27892
453.044	8.43832
455.937	7.74513
458.829	9.41228
461.722	10.4343
464.615	10.0615
467.507	12.3119
470.4	11.6825
473.293	12.5374
476.185	12.9477
479.078	14.7361
481.971	14.6867
484.864	17.3646
487.756	17.1334
490.649	17.529
493.542	18.6965
496.434	21.7359
499.327	22.1122
502.22	22.9806
505.113	23.246
508.005	23.1278
510.898	20.9801
513.791	19.9404
516.683	18.6134
519.576	17.3329
522.469	17.4706
525.361	15.7883
528.254	15.4828
531.147	14.031
534.04	13.8736
536.932	13.8452
539.825	11.6439
542.718	12.8076
545.61	12.2774
548.503	12.6644
551.396	12.5063
554.288	12.0165
557.181	11.4593
560.074	10.5104
562.967	10.3153
565.859	8.36819
568.752	7.17806
571.645	5.9609
574.537	4.57491
577.43	2.89596
580.323	1.65678
583.216	0.642414
586.108	0.123013
589.001	0.398758
591.894	1.28953
594.786	0.60664
597.679	0.774952
600.572	0.558609
603.464	0.19014
606.357	1.1102
609.25	1.02959
612.142	3.13828
615.035	3.65694
617.928	4.66721
620.821	4.18058
623.713	3.71067
626.606	3.16329
629.499	3.46659
632.391	3.62817
635.284	3.82323
638.177	4.82335
641.069	5.26182
643.962	6.30453
646.855	6.09282
649.747	6.17879
652.64	6.41902
655.533	5.76075
658.426	5.13185
661.318	4.65
664.211	4.81857
667.104	4.6021
669.996	4.98992
672.889	4.61393
675.782	4.11484
678.674	3.20485
681.567	4.69037
684.46	4.36984
687.353	3.93156
690.245	4.63623
693.138	4.50599
696.031	5.04566
698.923	5.54706
701.816	5.4906
704.709	5.48059
707.601	6.4097
710.494	5.01219
713.387	5.76001
716.28	5.30873
719.172	4.31396
722.065	3.16846
724.958	3.25682
727.85	3.29624
730.743	2.20148
733.636	2.76357
736.529	1.67814
739.421	1.23341
742.314	0.976158
745.207	0.306606
748.099	0.426857
750.992	0.413265
753.885	1.08997
756.777	0.93927
759.67	1.87526
762.563	1.79893
765.456	1.86911
768.348	1.10996
771.241	0.676895
774.134	0.533676
777.026	1.38857
779.919	1.72845
782.812	4.04084
785.704	6.07067
788.597	8.48
791.49	10.5829
794.383	13.5753
797.275	16.7973
800.168	21.5292
803.061	26.8592
805.953	34.5605
808.846	43.4881
811.739	53.5959
814.631	68.5232
817.524	84.2142
820.417	104.004
823.309	126.182
826.202	150.878
829.095	175.161
831.988	201.306
834.88	226.407
837.773	247.707
840.666	265.442
843.558	275.027
846.451	280.775
849.344	275.875
852.236	268.709
855.129	259.253
858.022	246.457
860.915	228.422
863.807	202.879
866.7	178.641
869.593	151.075
872.485	123.913
875.378	102.164
878.271	81.8661
881.163	65.5027
884.056	53.4957
886.949	45.8196
889.842	39.0143
892.734	32.7916
895.627	28.145
898.52	24.6827
901.412	20.4843
904.305	17.7648
907.198	15.1077
910.091	12.5554
912.983	9.18576
915.876	6.80504
918.769	5.33131
921.661	2.89417
924.554	1.12479
927.447	0.560963
930.339	0.895519
933.232	1.75501
936.125	2.16878
939.018	0.099873
941.91	2.10856
944.803	1.92316
947.696	1.42813
950.588	2.34543
953.481	0.021603
956.374	0.526161
959.266	1.79027
962.159	3.97788
965.052	5.78465
967.944	7.63548
970.837	9.80938
973.73	13.3384
976.623	16.1205
979.515	19.4348
982.408	21.4511
985.301	21.5855
988.193	18.8938
991.086	14.3979
993.979	11.1658
996.871	8.23826
999.764	6.12719
1002.66	4.42866
1005.55	3.43994
1008.44	2.56594
1011.34	1.7249
1014.23	1.00246
1017.12	1.44326
1020.01	1.33865
1022.91	0.99263
1025.8	0.965139
1028.69	1.39482
1031.58	1.93766
1034.48	0.866499
1037.37	1.65299
1040.26	1.14499
1043.15	0.815767
1046.05	1.06493
1048.94	1.0287
1051.83	1.13391
1054.73	1.59634
1057.62	0.639143
1060.51	1.04318
1063.4	0.641756
1066.3	1.01117
1069.19	0.55014
1072.08	0.787403
1074.97	0.508909
1077.87	0.413101
1080.76	0.783459
1083.65	0.843985
1086.55	0.421516
1089.44	0.666534
1092.33	1.31979
1095.22	1.01948
1098.12	1.46041
1101.01	1.59271
1103.9	1.42984
1106.79	1.44271
1109.69	1.6587
1112.58	2.00919
1115.47	1.90943
1118.37	2.15575
1121.26	1.83624
1124.15	1.83486
1127.04	1.70457
1129.94	1.79287
1132.83	0.664791
1135.72	0.738556
1138.61	1.19284
1141.51	0.930859
1144.4	0.486622
1147.29	0.195528
1150.18	0.010345
1153.08	0.530506
1155.97	0.176527
1158.86	0.52737
1161.76	0.353788
1164.65	0.248627
1167.54	0.192253
1170.43	0.392517
1173.33	0.092781
1176.22	0.523878
1179.11	0.074951
1182	0.06521
1184.9	0.383711
1187.79	0.317053
1190.68	0.643202
1193.58	0.792028
1196.47	0.471706
1199.36	0.476168
1202.25	0.584015
1205.15	0.917273
1208.04	0.743258
1210.93	0.433693
1213.82	1.37817
1216.72	1.34117
1219.61	0.954399
1222.5	0.845169
1225.39	0.99317
1228.29	0.165545
1231.18	0.782574
1234.07	0.427509
1236.97	0.206186
1239.86	0.431608
1242.75	0.52725
1245.64	0.429037
1248.54	0.055595
1251.43	0.764406
1254.32	0.635071
1257.21	0.313982
1260.11	0.692608
1263	0.694918
1265.89	0.013699
1268.79	0.582413
1271.68	0.267258
1274.57	0.909206
1277.46	0.534132
1280.36	0.047714
1283.25	0.564657
1286.14	0.705524
1289.03	0.487663
1291.93	0.824009
1294.82	0.411421
1297.71	0.452816
1300.61	0.472763
