Measurement: Raman, 785 nm, unoriented, Raman Data Processed
Mineral: Strelkinite
Rruff sample: R070046
Ideal chemistry: Na_2_(UO_2_)_2_(VO_4_)_2_6H_2_O
Locality: Basaral occurrence, southwest Balkhash region, Kazakhstan
Source: Michael Scott
Description: Yellow massive
Raman shift (cm-1)	intensity
160.362	0
163.254	45.7085
166.147	131.321
169.04	207.41
171.932	329.058
174.825	346.944
177.718	359.099
180.61	393.144
183.503	443.5
186.396	409.123
189.288	397.07
192.181	387.221
195.074	398.096
197.967	296.499
200.859	186.801
203.752	109.692
206.645	117.768
209.537	129.401
212.43	199.072
215.323	295.407
218.215	394.708
221.108	550.961
224.001	624.712
226.894	752.378
229.786	916.411
232.679	957.237
235.572	987.648
238.464	967.8
241.357	1094.84
244.25	1155.61
247.143	1223.58
250.035	1287.78
252.928	1239.12
255.821	1133.51
258.713	948.1
261.606	779.036
264.499	551.762
267.391	364.632
270.284	263.882
273.177	134.386
276.07	17.811
278.962	100.061
281.855	105.549
284.748	112.437
287.64	132.452
290.533	23.4561
293.426	200.502
296.318	484.929
299.211	870.619
302.104	1298.1
304.997	1756.68
307.889	2076.22
310.782	2197.55
313.675	2057.64
316.567	1798.45
319.46	1424.97
322.353	1022.61
325.245	686.342
328.138	641.778
331.031	744.668
333.923	997.078
336.816	1316.22
339.709	1819.98
342.602	2370.34
345.494	3014.01
348.387	3592.19
351.28	4307.66
354.172	5131.63
357.065	6223.25
359.958	7259.36
362.851	8313.6
365.743	9163.13
368.636	9635.25
371.529	9498.69
374.421	8461.48
377.314	7004.55
380.207	5433.57
383.099	3941.99
385.992	2801.08
388.885	2192.16
391.777	1900.06
394.67	1779.21
397.563	1846.4
400.456	1978.38
403.348	2255.91
406.241	2415.11
409.134	2416.92
412.026	2210.8
414.919	1632.1
417.812	1076.67
420.704	657.147
423.597	303.201
426.49	92.1404
429.383	27.51
432.275	94.7998
435.168	110.904
438.061	140.742
440.953	143.269
443.846	91.8855
446.739	38.3662
449.632	66.9236
452.524	226.521
455.417	426.614
458.31	673.704
461.202	938.437
464.095	1332.05
466.988	1720.56
469.88	2135.52
472.773	2404.97
475.666	2691.91
478.558	2746.24
481.451	2587.5
484.344	2270.77
487.237	1783.95
490.129	1296.39
493.022	854.106
495.915	531.662
498.807	356.942
501.7	254.596
504.593	204.571
507.486	240.764
510.378	271.3
513.271	438.685
516.164	649.164
519.056	916.973
521.949	1293.83
524.842	1744.41
527.734	2239.28
530.627	2728.58
533.52	3026.6
536.413	3204.54
539.305	3071.72
542.198	2756.71
545.091	2202.17
547.983	1753.91
550.876	1335.31
553.769	1146.39
556.661	1071.48
559.554	1215.83
562.447	1453.54
565.34	1733.23
568.232	1980.83
571.125	2230.53
574.018	2392.8
576.91	2414.71
579.803	2307.18
582.696	2055.71
585.588	1651.78
588.481	1326.65
591.374	988.155
594.266	694.79
597.159	518.208
600.052	324.701
602.945	157.988
605.837	84.9019
608.73	39.7178
611.623	49.7419
614.515	127.287
617.408	93.075
620.301	13.2026
623.193	85.3672
626.086	213.7
628.979	430.832
631.872	646.914
634.764	895.139
637.657	1205.14
640.55	1431.09
643.442	1486.82
646.335	1495.84
649.228	1402.39
652.12	1203.37
655.013	951.205
657.906	723.473
660.799	525.987
663.691	325.225
666.584	199.557
669.477	85.5077
672.369	12.3525
675.262	30.7891
678.155	59.8362
681.048	33.4329
683.94	6.2561
686.833	58.4148
689.726	99.7305
692.618	184.733
695.511	301.183
698.404	448.073
701.296	633.597
704.189	824.961
707.082	1175.37
709.975	1546.19
712.867	2090.32
715.76	2780.51
718.653	3699.16
721.545	4959.09
724.438	6619.24
727.331	8795.75
730.223	11073.1
733.116	13333.9
736.009	15019.2
738.902	15590
741.794	15123.2
744.687	14338
747.58	12921.5
750.472	11240
753.365	9475.69
756.258	7735.45
759.15	6182.29
762.043	4842.45
764.936	3734.08
767.828	2915.42
770.721	2213.85
773.614	1717.39
776.507	1332.09
779.399	982.487
782.292	748.508
785.185	510.636
788.077	340.928
790.97	188.061
793.863	50.4717
796.755	16.3564
799.648	30.7773
802.541	72.1843
805.434	20.5068
808.326	75.2119
811.219	287.293
814.112	627.976
817.004	1160.57
819.897	1786.77
822.79	2263.3
825.683	2405.81
828.575	2196.57
831.468	1807.42
834.361	1401.19
837.253	1042.47
840.146	825.478
843.039	625.966
845.931	542.463
848.824	451.722
851.717	362.019
854.61	308.832
857.502	210.801
860.395	164.079
863.288	92.4194
866.18	57.0101
869.073	5.43286
871.966	18.6201
874.858	32.4364
877.751	14.1301
880.644	5.46375
883.537	4.43909
886.429	4.87543
889.322	16.7314
892.215	21.0909
895.107	1.966
898	12.1263
900.893	49.7858
903.785	36.267
906.678	67.9528
909.571	96.312
912.463	90.9486
915.356	126.377
918.249	149.857
921.142	170.049
924.034	171.671
926.927	185.064
929.82	225.611
932.712	247.422
935.605	278.284
938.498	335.619
941.39	431.796
944.283	505.201
947.176	636.208
950.069	818.961
952.961	1012.57
955.854	1214.31
958.747	1394.67
961.639	1636.37
964.532	1874.52
967.425	2156.65
970.317	2469.44
973.21	2836.64
976.103	2945.38
978.996	2926.46
981.888	2597.2
984.781	2060.61
987.674	1479.59
990.566	1101.96
993.459	762.533
996.352	511.918
999.245	328.22
1002.14	183.696
1005.03	121.87
1007.92	60.96
1010.82	44.4382
1013.71	23.1648
1016.6	11.3436
1019.49	5.53729
1022.39	8.77466
1025.28	2.10956
1028.17	9.33716
1031.06	11.707
1033.96	16.4257
1036.85	0.560791
1039.74	4.58636
1042.63	4.71838
1045.53	2.22583
1048.42	22.1164
1051.31	6.22485
1054.21	12.545
1057.1	16.9065
1059.99	8.99585
1062.88	22.8818
1065.78	41.0442
1068.67	25.4984
1071.56	35.9399
1074.45	63.423
1077.35	82.1554
1080.24	183.285
1083.13	286.996
1086.03	469.707
1088.92	290.694
1091.81	109.721
1094.7	30.1704
1097.6	26.6974
1100.49	29.8801
1103.38	23.096
1106.27	17.3518
1109.17	10.7419
1112.06	13.7121
1114.95	9.84424
1117.85	12.0578
1120.74	1.61395
1123.63	15.9967
1126.52	15.0008
1129.42	17.3757
1132.31	7.18527
1135.2	13.3631
1138.09	6.68729
1140.99	13.2683
1143.88	11.8241
1146.77	21.6232
1149.66	18.3733
1152.56	3.09815
1155.45	15.0806
1158.34	6.20682
1161.24	25.1412
1164.13	23.5918
1167.02	22.35
1169.91	10.3865
1172.81	3.36307
1175.7	0.730164
1178.59	20.626
1181.48	11.5415
1184.38	0.535278
1187.27	1.52872
1190.16	3.1449
1193.06	13.4673
1195.95	22.2637
1198.84	28.2525
1201.73	37.3471
1204.63	32.3334
1207.52	22.8947
1210.41	25.4952
1213.3	24.8679
1216.2	29.9771
1219.09	10.8726
1221.98	14.0874
1224.88	2.8829
1227.77	28.7924
1230.66	24.2619
1233.55	19.257
1236.45	0
