Measurement: Raman, 785 nm, unoriented, Raman Data Processed
Mineral: Strengite
Rruff sample: R040177
Ideal chemistry: Fe^3+^PO_4_2H_2_O
Locality: Plegstein, Oberpfalz, Bavaria, Germany
Source: University of Arizona Mineral Museum
Description: Light purple crystals
Measured chemistry: Fe^3+^PO_4_Â·2H_2_O
Raman shift (cm-1)	intensity
135.965	0
138.858	7.21933
141.75	21.168
144.643	162.158
147.536	381.751
150.429	792.108
153.321	1191.36
156.214	860.232
159.107	493.002
161.999	539.231
164.892	951.198
167.785	1721.03
170.677	1883.16
173.57	1420.67
176.463	1164.35
179.356	1405.02
182.248	2104.46
185.141	1976.28
188.034	1941.2
190.926	2585.28
193.819	2557.33
196.712	1383.84
199.604	645.319
202.497	300.833
205.39	146.14
208.282	151.841
211.175	317.188
214.068	696.955
216.961	653.145
219.853	111.794
222.746	-1.87634
225.639	17.1934
228.531	84.9187
231.424	74.2449
234.317	50.5787
237.209	161.667
240.102	478.684
242.995	893.106
245.888	1099.73
248.78	958.837
251.673	599.882
254.566	299.126
257.458	197.078
260.351	294.408
263.244	492.187
266.137	640.872
269.029	392.018
271.922	168.974
274.815	62.6057
277.707	10.3
280.6	3.68789
283.493	4.85328
286.385	118.566
289.278	303.967
292.171	504.308
295.063	615.622
297.956	631.809
300.849	557.078
303.742	369.142
306.634	184.364
309.527	97.8408
312.42	106.523
315.312	139.836
318.205	188.902
321.098	341.729
323.99	587.869
326.883	974.234
329.776	1244.53
332.669	1386.45
335.561	1357.79
338.454	1366.74
341.347	1364.17
344.239	1316.88
347.132	1193.24
350.025	930.147
352.918	616.977
355.81	336.587
358.703	116.935
361.596	18.1095
364.488	3.08395
367.381	1.95842
370.274	10.6185
373.166	30.1407
376.059	131.867
378.952	218.13
381.844	173.11
384.737	119.26
387.63	94.6027
390.523	131.883
393.415	194.505
396.308	191.895
399.201	244.304
402.093	254.76
404.986	227.48
407.879	267.369
410.772	361.592
413.664	499.395
416.557	699.043
419.45	837.909
422.342	825.912
425.235	734.43
428.128	604.259
431.02	631.506
433.913	656.68
436.806	796.793
439.699	898.405
442.591	978.678
445.484	923.522
448.377	760.153
451.269	560.446
454.162	409.569
457.055	322.63
459.947	354.786
462.84	482.396
465.733	730.894
468.625	1052.91
471.518	1507.54
474.411	2072.94
477.304	2647.24
480.196	3205.05
483.089	3432.64
485.982	3377.66
488.874	2939.14
491.767	2328.08
494.66	1713.42
497.553	1172.06
500.445	778.195
503.338	478.836
506.231	263.059
509.123	145.744
512.016	58.7251
514.909	1.40991
517.802	21.6726
520.694	40.2468
523.587	29.1551
526.48	11.292
529.372	5.2262
532.265	15.2075
535.158	17.99
538.05	11.658
540.943	4.48968
543.836	15.8733
546.729	40.8144
549.621	71.5607
552.514	130.398
555.407	179.531
558.299	271.58
561.192	393.67
564.085	508.331
566.977	505.409
569.87	473.189
572.763	368.749
575.655	301.982
578.548	266.963
581.441	216.807
584.333	186.169
587.226	185.053
590.119	196.492
593.012	173.086
595.904	150.69
598.797	125.799
601.69	131.177
604.582	114.441
607.475	107.722
610.368	93.9185
613.26	97.0345
616.153	92.5805
619.046	62.1672
621.939	55.9201
624.831	67.1209
627.724	57.2212
630.617	51.5302
633.509	32.8451
636.402	38.877
639.295	37.6936
642.188	13.8955
645.08	11.0061
647.973	18.0975
650.866	20.3215
653.758	4.25217
656.651	6.72089
659.544	5.68384
662.436	3.93121
665.329	2.52963
668.222	4.10809
671.115	3.9454
674.007	3.65421
676.9	5.03186
679.793	3.21185
682.685	11.8512
685.578	21.3633
688.471	16.547
691.363	16.2127
694.256	31.8289
697.149	30.1773
700.042	31.3207
702.934	35.4273
705.827	32.4105
708.72	44.332
711.612	50.5472
714.505	56.4132
717.398	51.2136
720.29	61.6917
723.183	78.636
726.076	80.0246
728.968	85.1736
731.861	90.8659
734.754	117.085
737.647	125.677
740.539	138.367
743.432	156.709
746.325	152.996
749.217	173.594
752.11	161.976
755.003	158.328
757.895	157.264
760.788	167.88
763.681	135.013
766.574	134.315
769.466	105
772.359	103.522
775.252	107.325
778.144	86.1788
781.037	74.329
783.93	64.2932
786.822	75.8446
789.715	59.1546
792.608	56.2503
795.501	39.4615
798.393	20.9949
801.286	34.559
804.179	36.535
807.071	20.0034
809.964	32.434
812.857	21.4817
815.75	5.1991
818.642	8.8417
821.535	15.5917
824.428	8.0639
827.32	7.87906
830.213	4.85086
833.106	2.12088
835.998	16.4713
838.891	19.4802
841.784	28.9492
844.677	30.9565
847.569	33.9281
850.462	44.0784
853.355	42.9902
856.247	52.997
859.14	57.0021
862.033	70.4359
864.925	65.6646
867.818	75.8861
870.711	49.6495
873.604	58.4692
876.496	57.2301
879.389	52.0056
882.282	41.1587
885.174	27.6594
888.067	24.1784
890.96	4.5119
893.852	0.959076
896.745	13.5397
899.638	21.102
902.53	10.3017
905.423	3.75891
908.316	22.0558
911.209	27.064
914.101	9.56195
916.994	22.1436
919.887	10.4294
922.779	12.8377
925.672	15.2997
928.565	16.8821
931.457	20.9795
934.35	70.7783
937.243	82.3208
940.136	133.954
943.028	174.121
945.921	244.691
948.814	299.685
951.706	393.222
954.599	518.097
957.492	674.247
960.385	972.677
963.277	1374.28
966.17	2083.28
969.063	3195.78
971.955	5140.37
974.848	7902.4
977.741	11370.2
980.633	13420.3
983.526	12313.1
986.419	9370.85
989.312	6893.62
992.204	6006.78
995.097	6289.3
997.99	6232.77
1000.88	5407.77
1003.77	4374.23
1006.67	3234.71
1009.56	2549.69
1012.45	2448.84
1015.35	2670.95
1018.24	3400.99
1021.13	4265.09
1024.02	4478.46
1026.92	3434.95
1029.81	2150.87
1032.7	1252.16
1035.6	778.684
1038.49	481.656
1041.38	317.378
1044.27	193.659
1047.17	132.391
1050.06	83.1561
1052.95	22.6763
1055.84	5.95233
1058.74	10.1036
1061.63	11.2622
1064.52	16.961
1067.41	30.8577
1070.31	15.9141
1073.2	13.0782
1076.09	3.17871
1078.98	10.3522
1081.88	0.267578
1084.77	2.4021
1087.66	20.9145
1090.56	16.184
1093.45	51.8066
1096.34	92.8504
1099.23	107.354
1102.13	168.796
1105.02	235.815
1107.91	310.908
1110.81	401.828
1113.7	525.513
1116.59	617.883
1119.48	642.194
1122.38	495.791
1125.27	348.12
1128.16	214.493
1131.05	131.409
1133.95	80.0981
1136.84	62.7499
1139.73	51.1623
1142.62	32.1276
1145.52	31.2763
1148.41	15.0376
1151.3	19.2765
1154.19	15.3974
1157.09	16.6455
1159.98	12.1125
1162.87	24.3514
1165.77	2.44995
1168.66	34.9502
1171.55	15.2828
1174.44	30.5208
1177.34	15.5801
1180.23	28.886
1183.12	22.2927
1186.02	26.1065
1188.91	24.6059
1191.8	35.0955
1194.69	16.8417
1197.59	46.4422
1200.48	18.7413
1203.37	1.66614
1206.26	27.502
1209.16	12.975
1212.05	2.83209
1214.94	12.56
1217.84	6.8092
1220.73	19.853
1223.62	5.99765
1226.51	5.47739
1229.41	6.64853
1232.3	5.6922
