Measurement: Raman, 780 nm, unoriented, Raman Data Processed
Mineral: Strengite
Rruff sample: R070590
Ideal chemistry: Fe^3+^PO_4_2H_2_O
Locality: Foddersack Mountain, near Norman, Montgomery County, Arkansas, USA
Source: James Shigley
Description: Radiating aggregates of bladed pale purple crystals
Raman shift (cm-1)	intensity
137.586	0
140.479	243.585
143.372	791.95
146.264	1071.03
149.157	854.786
152.05	1223.31
154.943	1179.29
157.835	346.155
160.728	103.421
163.621	194.789
166.513	1498.72
169.406	3255.74
172.299	3979.81
175.192	4161.33
178.084	5398.85
180.977	8672
183.87	11500
186.762	12221.8
189.655	14326.8
192.548	16262.3
195.44	12778.9
198.333	7953.9
201.226	4897.73
204.119	3219.8
207.011	2386.31
209.904	2395.16
212.797	3427.63
215.689	4713.46
218.582	3654.21
221.475	2025.11
224.368	1290.65
227.26	975.276
230.153	391.241
233.046	69.6216
235.938	311.201
238.831	179.782
241.724	308.038
244.616	999.506
247.509	1231.42
250.402	1146.06
253.294	926.069
256.187	962.516
259.08	1250.76
261.973	2002.86
264.865	2738.34
267.758	2465.62
270.651	1501.64
273.543	1001.5
276.436	847.425
279.329	932.598
282.221	1366.72
285.114	2152.59
288.007	3387.08
290.9	4715.59
293.792	5603.22
296.685	6003.15
299.578	5663.65
302.47	4553.01
305.363	2971.6
308.256	1780.07
311.149	1060.94
314.041	620.166
316.934	254.851
319.827	223.899
322.719	362.268
325.612	853.342
328.505	1440.24
331.397	2050.47
334.29	2450.22
337.183	2757.35
340.075	3022.32
342.968	2983.31
345.861	3030.05
348.754	2512.97
351.646	1869.27
354.539	1106.72
357.432	507.834
360.324	172.675
363.217	124.019
366.11	202.197
369.002	98.9136
371.895	25.8857
374.788	386.283
377.681	583.073
380.573	597.715
383.466	276.135
386.359	58.126
389.252	18.7183
392.144	50.648
395.037	133.697
397.93	194.484
400.822	237.853
403.715	189.85
406.608	247.64
409.5	461.64
412.393	831.562
415.286	1439.73
418.178	2065.83
421.071	2620.71
423.964	2707.12
426.857	2749.82
429.749	2862.1
432.642	3287.15
435.535	3986.74
438.427	4767.19
441.32	5406.18
444.213	5686.28
447.106	5142.46
449.998	4000.75
452.891	2706.63
455.784	1618.73
458.676	1028.62
461.569	648.498
464.462	725.842
467.354	1033.48
470.247	1500.17
473.14	2164.58
476.033	3009.32
478.925	3935.94
481.818	4939.13
484.711	5535.07
487.603	5636.13
490.496	5170.12
493.389	4313.73
496.281	3217.09
499.174	2284.07
502.067	1482.75
504.959	888.921
507.852	519.666
510.745	279.081
513.638	77.3557
516.53	44.0308
519.423	57.3313
522.316	69.3931
525.208	82.1799
528.101	25.4009
530.994	27.2974
533.886	76.2378
536.779	114.423
539.672	185.808
542.565	225.326
545.457	274.23
548.35	322.696
551.243	478.959
554.135	634.769
557.028	854.73
559.921	1155.48
562.813	1438.85
565.706	1627.62
568.599	1614.94
571.492	1508.65
574.384	1289.29
577.277	1150.51
580.17	994.005
583.062	956.027
585.955	931.281
588.848	853.462
591.74	868.038
594.633	777.363
597.526	729.332
600.419	642.96
603.311	574.596
606.204	551.162
609.097	506.185
611.989	486.557
614.882	397.573
617.775	365.015
620.668	319.256
623.56	296.057
626.453	259.576
629.346	224.377
632.238	183.64
635.131	127.088
638.024	87.2304
640.916	67.1859
643.809	62.941
646.702	59.2946
649.595	3.63428
652.487	0.641846
655.38	23.9762
658.273	33.5737
661.165	1.13013
664.058	3.36389
666.951	4.24329
669.843	15.8283
672.736	13.3315
675.629	9.46362
678.522	20.0572
681.414	2.4668
684.307	39.1359
687.2	9.16174
690.092	67.5129
692.985	23.9753
695.878	51.7941
698.77	62.6755
701.663	39.5847
704.556	44.33
707.449	69.9794
710.341	82.2069
713.234	106.896
716.127	107.394
719.019	129.042
721.912	131.292
724.805	110.987
727.697	162.757
730.59	214.827
733.483	201.444
736.376	201.863
739.268	209.796
742.161	252.682
745.054	297.057
747.946	296.43
750.839	314.516
753.732	307.912
756.625	319.412
759.517	314.858
762.41	333.477
765.303	300.6
768.195	277.543
771.088	281.71
773.981	224.241
776.873	234.772
779.766	216.508
782.659	196.775
785.552	228.371
788.444	200.309
791.337	171.659
794.23	159.324
797.122	175.941
800.015	160.393
802.908	169.586
805.8	106.07
808.693	106.697
811.586	85.2948
814.479	85.2654
817.371	47.3074
820.264	48.4976
823.157	29.7719
826.049	19.9707
828.942	29.9424
831.835	20.015
834.727	15.4602
837.62	0.164185
840.513	38.8131
843.406	57.0834
846.298	49.9508
849.191	134.713
852.084	117.885
854.976	167.138
857.869	191.566
860.762	202.956
863.654	263.421
866.547	231.413
869.44	270.952
872.333	287.795
875.225	224.628
878.118	223.033
881.011	154.056
883.903	152.825
886.796	83.1417
889.689	99.8132
892.582	0.779297
895.474	10.3268
898.367	4.19299
901.26	1.84985
904.152	40.2913
907.045	43.1631
909.938	29.5029
912.83	45.0701
915.723	39.5073
918.616	44.2913
921.509	18.4893
924.401	29.0659
927.294	18.1851
930.187	12.167
933.079	37.3828
935.972	130.935
938.865	185.698
941.757	289.15
944.65	430.217
947.543	615.633
950.436	846.007
953.328	1215.77
956.221	1739.97
959.114	2430.82
962.006	3493.46
964.899	5195.32
967.792	8070.62
970.684	13103
973.577	21059
976.47	31739.9
979.362	41511.5
982.255	43659.6
985.148	36207.4
988.041	25692.9
990.933	18326.2
993.826	15161.7
996.719	14520.5
999.611	14588.1
1002.5	14806.9
1005.4	13482.8
1008.29	11184.6
1011.18	9783.74
1014.08	9563.05
1016.97	10419.2
1019.86	12143.2
1022.75	13136.3
1025.65	10928.5
1028.54	7338.5
1031.43	4722.65
1034.32	3291.13
1037.22	2449.13
1040.11	1863.45
1043	1460.41
1045.89	1085.68
1048.79	722.118
1051.68	438.087
1054.57	237.954
1057.46	102.684
1060.36	7.13037
1063.25	47.8184
1066.14	31.6846
1069.04	90.5085
1071.93	73.4356
1074.82	48.1724
1077.71	56.8975
1080.61	6.97461
1083.5	7.29004
1086.39	69.8
1089.29	109.85
1092.18	185.238
1095.07	241.473
1097.96	338.676
1100.86	477.085
1103.75	617.485
1106.64	818.701
1109.53	1053.4
1112.43	1314.46
1115.32	1663.18
1118.21	1840.99
1121.11	1732.64
1124	1321.09
1126.89	934.721
1129.78	644.446
1132.68	490.508
1135.57	363.311
1138.46	256.285
1141.35	148.108
1144.25	71.3149
1147.14	64.3245
1150.03	64.9967
1152.92	3.64978
1155.82	27.7862
1158.71	8.20996
1161.6	8.07886
1164.49	50.0247
1167.39	5.14807
1170.28	32.6091
1173.17	14.6931
1176.07	23.3368
1178.96	27.121
1181.85	16.0265
1184.74	43.8356
1187.64	9.08118
1190.53	41.5032
1193.42	25.5669
1196.32	17.7178
1199.21	10.1307
1202.1	29.3806
1204.99	26.3413
1207.89	4.98975
1210.78	7.35449
1213.67	28.9188
1216.56	12.3702
1219.46	6.95996
1222.35	8.08813
1225.24	7.81836
1228.13	0.722656
1231.03	0.239868
1233.92	0.933105
1236.81	25.5798
1239.71	43.6663
1242.6	55.2063
1245.49	10.2322
1248.38	40.0127
1251.28	37.8956
1254.17	18.6385
1257.06	4.16772
1259.95	123.566
1262.85	22.3306
1265.74	28.0538
1268.63	13.971
1271.53	12.7236
1274.42	37.4025
1277.31	24.6852
1280.2	19.261
