Measurement: Raman, 514 nm, unoriented, Raman Data Processed
Mineral: Strengite
Rruff sample: R040177
Ideal chemistry: Fe^3+^PO_4_2H_2_O
Locality: Plegstein, Oberpfalz, Bavaria, Germany
Source: University of Arizona Mineral Museum
Description: Light purple crystals
Measured chemistry: Fe^3+^PO_4_Â·2H_2_O
Raman shift (cm-1)	intensity
54.266	0
58.464	110.139
62.661	4.954
66.856	49.15
71.048	377.212
75.239	174.43
79.427	376.632
83.614	1194.78
87.798	2153.64
91.981	4657.74
96.161	3766.09
100.34	751.446
104.516	100.565
108.691	20.156
112.864	122.104
117.034	425.442
121.203	1154.29
125.369	493.299
129.534	32.645
133.696	48.613
137.857	354.411
142.016	914.829
146.172	1177.11
150.327	1636.65
154.48	1495.6
158.63	907.055
162.779	1668.09
166.926	3461.69
171.07	3224.78
175.213	2672.56
179.354	4634.93
183.493	6116.96
187.63	8251.65
191.765	11271
195.898	6740.98
200.029	3174.6
204.158	1704.86
208.285	1885.84
212.41	3932.26
216.533	3543.47
220.654	1771.96
224.773	1609.1
228.891	1090.94
233.006	523.23
237.119	731.409
241.231	1704.49
245.34	2394.35
249.448	2009.72
253.553	1320.44
257.657	1260.73
261.758	2096.35
265.858	2561.39
269.956	1872.8
274.052	1301.23
278.146	981.79
282.237	1007.82
286.327	1778.23
290.416	2827.79
294.502	3339.13
298.586	3422.18
302.668	2507.96
306.749	1758.76
310.827	1476.56
314.903	1394.36
318.978	1462.15
323.051	2034.9
327.121	3080.65
331.19	3799.43
335.257	4226.3
339.322	4696.3
343.385	4671.43
347.446	4147.65
351.505	3060.95
355.563	2159.8
359.618	1575.16
363.672	1345.41
367.723	1256.15
371.773	1322.62
375.821	1768.39
379.866	1957.51
383.91	1876.43
387.952	1789.07
391.992	1897.11
396.031	2017
400.067	1975.65
404.101	1867.04
408.134	1793.12
412.165	2069.88
416.193	2657.29
420.22	2972.33
424.245	3012.97
428.268	3237.2
432.289	3698.99
436.309	4866.31
440.326	6118.19
444.342	6531.6
448.355	5680.49
452.367	4038.82
456.377	2669.58
460.385	1939.79
464.391	1722.4
468.395	1961.37
472.398	2578.7
476.398	3624.36
480.397	5016.44
484.394	5717.76
488.389	5266.27
492.382	4075.08
496.373	2745.67
500.362	1530.51
504.349	817.581
508.335	358.456
512.319	102.288
516.3	48.719
520.28	132.121
524.259	145.451
528.235	222.874
532.209	113.417
536.182	78.861
540.152	91.748
544.121	35.235
548.088	43.627
552.053	199.554
556.017	448.181
559.978	899.209
563.938	1313.84
567.895	1390.24
571.851	1181.45
575.805	926.455
579.758	843.238
583.708	824.791
587.657	885.097
591.603	858.145
595.548	759.92
599.491	592.411
603.432	447.605
607.372	381.49
611.309	339.057
615.245	289.293
619.179	259.19
623.111	248.737
627.041	242.925
630.97	189.744
634.896	153.186
638.821	132.24
642.744	96.861
646.665	48.972
650.584	26.417
654.502	20.036
658.418	34.238
662.331	11.519
666.244	25.362
670.154	13.693
674.062	7.688
677.969	11.747
681.874	12.803
685.777	11.83
689.678	9.432
693.577	34.308
697.475	13.837
701.371	88.623
705.265	29.157
709.157	75.264
713.047	77.957
716.936	138.273
720.823	171.228
724.708	201.827
728.591	259.075
732.472	319.976
736.352	333.766
740.23	357.985
744.106	413.963
747.98	493.521
751.853	495.751
755.723	548.663
759.592	530.262
763.459	445.553
767.325	431.544
771.188	405.241
775.05	414.649
778.91	397.78
782.768	341.629
786.625	343.215
790.479	311.54
794.332	324.29
798.183	284.262
802.033	281.167
805.88	275.286
809.726	231.373
813.57	187.258
817.413	133.091
821.253	100.68
825.092	89.969
828.929	30.51
832.764	20.602
836.598	0.013
840.429	41.376
844.259	15.491
848.088	12.923
851.914	42.98
855.739	58.356
859.562	92.073
863.383	82.409
867.203	118.652
871.02	150.632
874.836	109.731
878.65	83.463
882.463	37.251
886.274	9.355
890.083	32.113
893.89	24.678
897.695	2.354
901.499	30.14
905.301	92.025
909.102	144.034
912.9	165.171
916.697	229.434
920.492	266.829
924.285	383.354
928.077	491.007
931.867	580.806
935.655	798.749
939.442	1020.84
943.226	1242.07
947.009	1543.46
950.791	1992.06
954.57	2539.88
958.348	3299.03
962.124	4444.58
965.899	6287.55
969.671	10074
973.442	17726.8
977.211	34753.1
980.979	54386.7
984.745	51559.8
988.509	32524.3
992.271	20649.2
996.032	17779.2
999.791	16810.6
1003.55	16072.4
1007.3	13510.7
1011.06	11808.9
1014.81	11015.9
1018.56	11466
1022.31	16048.8
1026.06	17130.8
1029.8	10927.1
1033.55	5960.14
1037.29	3545.95
1041.03	2319.41
1044.77	1681.97
1048.5	1231.76
1052.24	992.093
1055.97	749.342
1059.7	604.579
1063.43	492.318
1067.16	425.464
1070.89	344.549
1074.61	319.431
1078.34	286.989
1082.06	292.054
1085.78	280.315
1089.5	337.691
1093.21	332.182
1096.93	382.281
1100.64	441.001
1104.35	672.822
1108.06	936.737
1111.77	1086.74
1115.48	1330.81
1119.18	1708.95
1122.89	1455.17
1126.59	935.436
1130.29	445.749
1133.99	241.115
1137.68	103.518
1141.38	63.919
1145.07	39.329
1148.76	3.9
1152.45	5.327
1156.14	30.277
1159.83	34.992
1163.51	3.753
1167.19	31.49
1170.88	27.955
1174.56	3.067
1178.23	4.9
1181.91	2.451
1185.59	9.619
1189.26	5.99
1192.93	16.501
1196.6	16.526
1200.27	12.838
1203.94	1.068
1207.6	9.728
1211.27	14.726
1214.93	3.312
1218.59	32.915
1222.25	37.322
1225.9	21.06
1229.56	56.631
1233.21	51.118
1236.86	91.138
1240.51	62.517
1244.16	89.326
1247.81	106.861
1251.45	119.15
1255.1	130.284
1258.74	114.75
1262.38	132.373
1266.02	154.821
1269.66	131.175
1273.29	103.161
1276.93	91.95
1280.56	147.663
1284.19	124.329
1287.82	110.53
1291.45	84.488
1295.07	101.179
1298.7	98.221
1302.32	130.992
1305.94	83.514
1309.56	115.977
1313.18	119.466
1316.8	81.759
1320.41	74.085
1324.02	77.441
1327.63	57.68
1331.24	53.962
1334.85	75.653
1338.46	29.087
1342.06	13.944
1345.67	15.589
1349.27	45.567
1352.87	36.743
1356.47	28.927
1360.07	20.766
1363.66	25.689
1367.25	21.698
1370.85	6.95
1374.44	43.538
1378.03	27.723
1381.61	25.087
1385.2	25.658
1388.78	15.941
1392.37	32.935
1395.95	26.187
1399.53	39.937
1403.1	46.013
1406.68	61.558
1410.26	5.892
1413.83	57.181
1417.4	59.22
1420.97	59.085
1424.54	65.165
1428.1	75.614
1431.67	51.593
1435.23	90.703
1438.8	65.621
1442.36	35.798
1445.91	81.324
1449.47	76.769
1453.03	66.08
1456.58	86.248
1460.13	44.884
1463.68	66.01
1467.23	72.068
1470.78	30.354
1474.33	19.941
1477.87	43.457
1481.42	43.644
1484.96	69.512
1488.5	46.183
1492.04	50.693
1495.57	54.099
1499.11	50.402
1502.64	70.168
1506.17	49.632
1509.71	24.69
1513.23	33.985
