Measurement: Raman, 532 nm, unoriented, Raman Data Processed
Mineral: Strengite
Rruff sample: R040177
Ideal chemistry: Fe^3+^PO_4_2H_2_O
Locality: Plegstein, Oberpfalz, Bavaria, Germany
Source: University of Arizona Mineral Museum
Description: Light purple crystals
Measured chemistry: Fe^3+^PO_4_Â·2H_2_O
Raman shift (cm-1)	intensity
132.788	0
136.163	13.0535
139.537	146.569
142.912	316.52
146.287	452.742
149.662	714.509
153.037	1316.12
156.411	1046.39
159.786	844.472
163.161	1453.1
166.536	2834.18
169.911	3796.17
173.286	3234.38
176.66	3432.95
180.035	5250.31
183.41	7675.08
186.785	9493.19
190.16	13792
193.535	14240.7
196.909	7193.39
200.284	3818.49
203.659	2170.82
207.034	1580.23
210.409	1795.52
213.783	2891.3
217.158	2396.66
220.533	817.361
223.908	710.906
227.283	790.059
230.657	454.334
234.032	128.733
237.407	114.033
240.782	403.493
244.157	865.902
247.532	923.606
250.906	383.049
254.281	55.843
257.656	138.006
261.031	188.2
264.406	804.654
267.781	864.092
271.155	640.083
274.53	649.549
277.905	421.116
281.28	499.019
284.655	1057.99
288.029	1999.12
291.404	2932.69
294.779	3327.88
298.154	3200.66
301.529	2513.38
304.904	1514.3
308.278	926.05
311.653	710.528
315.028	639.213
318.403	729.379
321.778	1234.94
325.152	2064.03
328.527	3153.46
331.902	3706.51
335.277	3948.81
338.652	4118.09
342.026	3899.05
345.401	3567.75
348.776	2788.71
352.151	2013.86
355.526	1231.08
358.901	593.229
362.275	269.198
365.65	19.7646
369.025	110.232
372.4	138.565
375.775	19.5225
379.149	74.1377
382.524	10.5073
385.899	10.7183
389.274	87.4033
392.649	154.945
396.024	168.15
399.398	208.394
402.773	136.044
406.148	264.582
409.523	628.718
412.898	1155.65
416.272	1901.59
419.647	2419.3
423.022	2562.39
426.397	2504.99
429.772	2673.47
433.147	3300.61
436.521	4148.29
439.896	5018.09
443.271	5358.6
446.646	4846.11
450.021	3672.91
453.396	2461.16
456.77	1666.28
460.145	1382.59
463.52	1498.42
466.895	2051.46
470.27	3010.02
473.644	4310.43
477.019	5695.66
480.394	7193.34
483.769	7846.51
487.144	7561.12
490.519	6462.46
493.893	4802.15
497.268	3193.23
500.643	1902.76
504.018	1116.42
507.393	554.742
510.767	213.787
514.142	25.011
517.517	24.5742
520.892	85.6407
524.267	77.7997
527.641	43.1193
531.016	19.4308
534.391	59.4723
537.766	92.644
541.141	175.857
544.516	243.5
547.89	321.376
551.265	547.515
554.64	781.189
558.015	1057.21
561.39	1398.6
564.764	1656.97
568.139	1742.77
571.514	1672.12
574.889	1653.78
578.264	1679.18
581.639	1737.49
585.013	1828.8
588.388	1879.89
591.763	1740.33
595.138	1543.21
598.513	1315.67
601.888	1060.1
605.262	897.585
608.637	769.399
612.012	617.754
615.387	547.584
618.762	476.382
622.136	436.738
625.511	378.347
628.886	301.305
632.261	265.234
635.636	208.245
639.01	159.478
642.385	129.079
645.76	66.6682
649.135	34.7578
652.51	2.3595
655.885	5.95947
659.259	18.441
662.634	26.0592
666.009	26.9537
669.384	8.61768
672.759	10.84
676.134	1.05066
679.508	0.853149
682.883	8.77734
686.258	6.87512
689.633	27.1886
693.008	26.6316
696.382	36.2341
699.757	49.2675
703.132	160.651
706.507	89.458
709.882	93.1461
713.256	123.235
716.631	139.666
720.006	165.11
723.381	186.826
726.756	242.289
730.131	297.442
733.505	336.356
736.88	366.544
740.255	445.86
743.63	462.958
747.005	561.639
750.38	570.402
753.754	579.922
757.129	580.991
760.504	546.648
763.879	519.861
767.254	478.113
770.628	419.124
774.003	363.058
777.378	314.083
780.753	301.212
784.128	241.996
787.503	236.511
790.877	190.822
794.252	178.863
797.627	187.39
801.002	131.221
804.377	119.021
807.751	114.91
811.126	63.8346
814.501	61.6608
817.876	42.267
821.251	13.7385
824.625	22.3538
828	31.188
831.375	18.8867
834.75	43.5579
838.125	44.9783
841.5	116.12
844.874	139.285
848.249	177.405
851.624	207.585
854.999	218.122
858.374	277.269
861.749	295.956
865.123	298.922
868.498	289.127
871.873	218.299
875.248	241.185
878.623	190.636
881.997	129.046
885.372	70.6288
888.747	26.5803
892.122	22.7347
895.497	23.5662
898.871	33.9742
902.246	80.938
905.621	27.4314
908.996	50.6788
912.371	57.637
915.746	61.9966
919.12	38.8113
922.495	12.9631
925.87	41.604
929.245	119.026
932.62	279.06
935.995	390.05
939.369	644.279
942.744	984.362
946.119	1262.78
949.494	1724.24
952.869	2310.49
956.243	3201.48
959.618	4549.26
962.993	6737.27
966.368	10902.5
969.743	18417.9
973.117	31123.1
976.492	49657.4
979.867	66331.1
983.242	64614
986.617	45915.3
989.992	29901.7
993.366	23377.1
996.741	20869
1000.12	18057.4
1003.49	15776.1
1006.87	13994.4
1010.24	13518.1
1013.62	14372.7
1016.99	16976.4
1020.37	21494.6
1023.74	22421.8
1027.12	15446.4
1030.49	8537.45
1033.86	4626.85
1037.24	2687.3
1040.61	1649.28
1043.99	1034.09
1047.36	607.703
1050.74	296.334
1054.11	71.1274
1057.49	6.78491
1060.86	46.845
1064.24	78.0952
1067.61	73.0107
1070.99	73.8047
1074.36	78.9836
1077.74	58.9355
1081.11	14.8922
1084.49	70.3827
1087.86	128.759
1091.24	249.08
1094.61	376.558
1097.99	579.781
1101.36	850.711
1104.73	1159.66
1108.11	1402.38
1111.48	1560
1114.86	1622.34
1118.23	1705.98
1121.61	1346.74
1124.98	827.288
1128.36	447.499
1131.73	283.254
1135.11	152.083
1138.48	67.3784
1141.86	71.0785
1145.23	14.7396
1148.61	17.6807
1151.98	32.2285
1155.36	12.3713
1158.73	2.04871
1162.11	22.6834
1165.48	10.9297
1168.86	53.1243
1172.23	45.7379
1175.61	48.8667
1178.98	56.1467
1182.36	38.3389
1185.73	66.838
1189.11	33.7252
1192.48	49.3226
1195.86	32.4795
1199.23	17.8339
1202.61	21.4913
1205.98	2.59241
1209.36	11.6059
1212.73	2.67658
1216.1	8.30963
1219.48	17.6212
1222.85	18.6101
1226.23	18.5613
1229.6	0.137939
1232.98	21.842
1236.35	35.9341
1239.73	15.4099
1243.1	26.4169
1246.48	35.5206
1249.85	19.5514
1253.23	26.1017
1256.6	36.8088
1259.98	48.7775
1263.35	20.4646
1266.73	23.169
1270.1	25.0201
1273.48	3.48328
1276.85	12.2004
1280.23	21.4225
1283.6	17.9871
1286.98	26.2588
1290.35	11.8682
1293.72	12.3912
1297.1	2.33313
1300.47	0.357605
1303.85	0.782654
