Measurement: Raman, 532 nm, unoriented, Raman Data Processed
Mineral: Strengite
Rruff sample: R070590
Ideal chemistry: Fe^3+^PO_4_2H_2_O
Locality: Foddersack Mountain, near Norman, Montgomery County, Arkansas, USA
Source: James Shigley
Description: Radiating aggregates of bladed pale purple crystals
Raman shift (cm-1)	intensity
137.316	0
140.209	88.0991
143.101	492.992
145.994	478.235
148.887	308.389
151.78	475.135
154.672	510.013
157.565	28.6733
160.458	0.526367
163.35	539.685
166.243	1711.21
169.136	3071
172.028	3449.97
174.921	3907.61
177.814	5130.89
180.707	7419.77
183.599	9768.86
186.492	10961.4
189.385	13912.3
192.277	16315.6
195.17	12963.4
198.063	8184.06
200.955	5280.39
203.848	3441.77
206.741	2561.03
209.633	2446.42
212.526	3209.12
215.419	4040.67
218.312	3073.42
221.204	1722.25
224.097	1391.11
226.99	1045.84
229.882	495.571
232.775	0.63623
235.668	279.577
238.56	223.791
241.453	127.603
244.346	501.213
247.239	732.068
250.131	645.258
253.024	486.916
255.917	529.748
258.809	679.577
261.702	1178.41
264.595	1694.13
267.488	1543.12
270.38	968.649
273.273	672.355
276.166	574.659
279.058	667.57
281.951	1018.26
284.844	1654.89
287.736	2553.79
290.629	3469.77
293.522	3977.41
296.414	4066.63
299.307	3663.64
302.2	2888.16
305.093	1951.57
307.985	1170.68
310.878	780.402
313.771	653.47
316.663	549.139
319.556	612.632
322.449	891.486
325.341	1536.47
328.234	2293.8
331.127	2881.11
334.019	3401.4
336.912	3726.98
339.805	3763.44
342.698	3598.07
345.59	3350.73
348.483	2717.2
351.376	1990.71
354.268	1262.87
357.161	796.867
360.054	393.782
362.947	75.8325
365.839	30.623
368.732	147.764
371.625	126.404
374.517	30.0801
377.41	166.857
380.303	137.221
383.195	4.24707
386.088	4.61035
388.981	63.7368
391.873	147.018
394.766	147.505
397.659	195.728
400.552	273.541
403.444	233.232
406.337	205.03
409.23	372.068
412.122	575.5
415.015	1033.36
417.908	1586.43
420.8	2131.59
423.693	2578.11
426.586	2888.56
429.479	3600.23
432.371	4299.39
435.264	5274.93
438.157	6386.45
441.049	7292.29
443.942	7723.7
446.835	7221.32
449.728	5707.19
452.62	4023.26
455.513	2740.34
458.406	1720.95
461.298	1219.44
464.191	1133.47
467.084	1174.52
469.976	1586.41
472.869	2082.51
475.762	2637.04
478.654	3279.5
481.547	3992.79
484.44	4441.8
487.333	4479.88
490.225	4163.93
493.118	3549.09
496.011	2726.31
498.903	1902.65
501.796	1293.21
504.689	809.841
507.581	420.526
510.474	201.766
513.367	13.1348
516.26	45.4309
519.152	72.9665
522.045	78.5195
524.938	62.1982
527.83	32.98
530.723	0.977295
533.616	133.94
536.508	118.888
539.401	206.867
542.294	265.381
545.187	375.389
548.079	477.844
550.972	670.826
553.865	845.803
556.757	1096.55
559.65	1320.56
562.543	1697.05
565.435	1898.78
568.328	1880.22
571.221	1857.69
574.114	1698.31
577.006	1583.84
579.899	1503.97
582.792	1483.84
585.684	1520.08
588.577	1464.67
591.47	1403.23
594.362	1289.35
597.255	1111
600.148	980.703
603.04	867.519
605.933	780.15
608.826	682.186
611.719	619.198
614.611	556.541
617.504	454.836
620.397	397.735
623.289	355.258
626.182	292.754
629.075	290.573
631.967	238.903
634.86	173.879
637.753	157.509
640.646	128.743
643.538	77.4608
646.431	68.1909
649.324	23.7728
652.216	11.7177
655.109	3.25879
658.002	15.3366
660.894	26.3798
663.787	23.7084
666.68	11.9812
669.572	8.14075
672.465	34.9096
675.358	16.4122
678.251	0.251343
681.143	5.69263
684.036	20.0824
686.929	16.098
689.821	4.78369
692.714	35.3967
695.607	22.0957
698.5	31.7462
701.392	33.0353
704.285	30.4996
707.178	40.6012
710.07	73.3625
712.963	50.007
715.856	87.416
718.748	73.3383
721.641	132.329
724.534	101.034
727.427	123.137
730.319	154.99
733.212	132.809
736.105	188.477
738.997	180.422
741.89	216.679
744.783	217.415
747.675	240.147
750.568	248.428
753.461	260.714
756.354	269.257
759.246	258.411
762.139	257.386
765.032	255.256
767.924	247.304
770.817	231.972
773.71	219.611
776.602	227.774
779.495	182.566
782.388	198.282
785.28	192.339
788.173	171.639
791.066	184.653
793.959	172.255
796.851	159.262
799.744	132.373
802.637	130.783
805.529	105.915
808.422	117.169
811.315	96.9526
814.207	97.4933
817.1	62.6382
819.993	65.3887
822.886	34.7513
825.778	7.09204
828.671	29.3828
831.564	3.40478
834.456	9.85559
837.349	31.0972
840.242	37.9893
843.134	70.5063
846.027	78.9831
848.92	141.515
851.812	160.882
854.705	141.476
857.598	197.012
860.491	214.578
863.383	236.83
866.276	236.625
869.169	287.382
872.061	224.565
874.954	201.07
877.847	168.083
880.74	116.531
883.632	99.8096
886.525	79.6554
889.418	36.1293
892.31	6.93262
895.203	15.1956
898.096	14.0698
900.988	16.8916
903.881	14.5193
906.774	32.1431
909.667	40.3466
912.559	30.1705
915.452	35.4158
918.345	45.4624
921.237	49.8199
924.13	6.58911
927.023	28.9474
929.915	44.3551
932.808	95.9367
935.701	186.461
938.593	278.835
941.486	372.418
944.379	509.515
947.271	772.479
950.164	1060.44
953.057	1438.22
955.95	2026
958.842	2798.4
961.735	4066.69
964.628	6108.35
967.52	9666.23
970.413	14850.3
973.306	22407.1
976.198	32120.1
979.091	41981.5
981.984	45894.1
984.877	40538.5
987.769	29893.1
990.662	20953.9
993.555	16630.5
996.447	14999.6
999.34	14404.7
1002.23	14403.7
1005.13	13690.6
1008.02	12272.2
1010.91	11136.8
1013.8	10639.5
1016.7	10334.2
1019.59	10803.3
1022.48	11482.7
1025.37	10368.5
1028.27	7244.71
1031.16	4769.72
1034.05	3330.05
1036.94	2494.69
1039.84	1844.17
1042.73	1399.19
1045.62	1034.73
1048.52	663.237
1051.41	381.089
1054.3	185.561
1057.19	73.2795
1060.09	16.7515
1062.98	49.0314
1065.87	70.0483
1068.77	87.2631
1071.66	61.8309
1074.55	73.4003
1077.44	40.6187
1080.34	17.2288
1083.23	24.8839
1086.12	112.93
1089.01	132.301
1091.91	179.578
1094.8	253.91
1097.69	360.748
1100.59	450.977
1103.48	594.18
1106.37	794.502
1109.26	946.516
1112.15	1090.16
1115.05	1280.42
1117.94	1352.68
1120.83	1284.03
1123.73	1013.51
1126.62	693.826
1129.51	507.254
1132.4	360.425
1135.3	277.362
1138.19	209.532
1141.08	134.296
1143.97	43.8881
1146.87	56.2712
1149.76	14.9285
1152.65	15.1396
1155.55	19.2905
1158.44	0.447632
1161.33	8.80066
1164.22	12.0264
1167.12	19.7831
1170.01	27.3778
1172.9	10.0831
1175.8	32.8689
1178.69	35.9582
1181.58	16.2979
1184.47	40.745
1187.37	29.6554
1190.26	9.21741
1193.15	19.0796
1196.04	32.1295
1198.94	15.7274
1201.83	23.7869
1204.72	10.7605
1207.61	12.156
1210.51	16.4249
1213.4	14.5037
1216.29	16.8459
1219.18	13.481
1222.08	26.8384
1224.97	25.9938
1227.86	9.03394
1230.76	17.0685
1233.65	7.56104
1236.54	38.0586
1239.43	15.0976
1242.33	42.7394
1245.22	30.6809
1248.11	35.2564
1251.01	40.0259
1253.9	12.0154
1256.79	26.782
1259.68	27.0064
1262.58	16.0472
1265.47	30.7316
1268.36	17.0785
1271.25	21.6199
1274.15	11.4442
1277.04	20.2816
1279.93	0.477722
1282.83	7.67053
