Measurement: Raman, 532 nm, unoriented, Raman Data Processed
Mineral: Strelkinite
Rruff sample: R070046
Ideal chemistry: Na_2_(UO_2_)_2_(VO_4_)_2_6H_2_O
Locality: Basaral occurrence, southwest Balkhash region, Kazakhstan
Source: Michael Scott
Description: Yellow massive
Raman shift (cm-1)	intensity
151.145	0
154.038	26.1016
156.93	31.0161
159.823	77.4385
162.716	107.895
165.608	179.125
168.501	202.846
171.394	238.301
174.286	158.499
177.179	233.761
180.072	183.841
182.965	229.475
185.857	227.124
188.75	122.439
191.643	148.307
194.535	134.546
197.428	108.255
200.321	68.9429
203.214	15.9775
206.106	8.83887
208.999	52.8828
211.892	18.8516
214.784	4.78418
217.677	1.39551
220.57	97.5967
223.462	57.7119
226.355	110.561
229.248	233.217
232.141	243.853
235.033	277.085
237.926	325.324
240.819	402.487
243.711	492.047
246.604	546.747
249.497	547.777
252.389	605.2
255.282	521.698
258.175	435.538
261.067	418.731
263.96	302.129
266.853	168.05
269.746	173.783
272.638	21.8379
275.531	28.0596
278.424	31.9775
281.316	25.7886
284.209	39.8438
287.102	17.1357
289.995	0.774414
292.887	79.021
295.78	224.815
298.673	341.253
301.565	352.293
304.458	539.303
307.351	577.696
310.243	572.967
313.136	523.421
316.029	374.611
318.921	254.79
321.814	30.7266
324.707	51.1162
327.6	4.53857
330.492	38.8677
333.385	196.28
336.278	480.197
339.17	830.591
342.063	1180.66
344.956	1615.94
347.849	1961.86
350.741	2337.22
353.634	2743.78
356.527	3118.95
359.419	3397.86
362.312	3559.7
365.205	3626.91
368.098	3598.59
370.99	3509.96
373.883	3331.34
376.776	3049.2
379.668	2665.55
382.561	2311.45
385.454	1954.83
388.346	1769.61
391.239	1596.12
394.132	1537.4
397.024	1656.4
399.917	1760.8
402.81	1808.32
405.703	1854.51
408.595	1745.61
411.488	1522.02
414.381	1222.08
417.273	844.655
420.166	604.896
423.059	298.338
425.952	140.769
428.844	7.41309
431.737	8.43945
434.63	61.9395
437.522	92.8213
440.415	8.30859
443.308	54.0088
446.2	78.0933
449.093	118.046
451.986	189.273
454.878	237.5
457.771	256.948
460.664	369.535
463.557	385.954
466.449	421.088
469.342	417.625
472.235	412.87
475.127	486.638
478.02	466.281
480.913	470.152
483.805	446.082
486.698	426.87
489.591	458.864
492.484	422.739
495.376	438.096
498.269	429.147
501.162	442.721
504.054	491.059
506.947	672.724
509.84	842.868
512.732	974.34
515.625	1137.95
518.518	1355.17
521.411	1516.93
524.303	1670.93
527.196	1692.58
530.089	1767.81
532.981	1713.3
535.874	1614.07
538.767	1498.46
541.659	1299.17
544.552	1102.56
547.445	947.07
550.338	833.015
553.23	784.122
556.123	694.876
559.016	672.198
561.908	641.212
564.801	686.025
567.694	634.093
570.587	538.028
573.479	523.905
576.372	468.379
579.265	417.926
582.157	378.785
585.05	273.898
587.943	245.344
590.835	173.446
593.728	149.405
596.621	52.7378
599.514	34.5063
602.406	10.1611
605.299	22.6592
608.192	19.8291
611.084	15.3706
613.977	6.79785
616.87	33.1362
619.763	16.54
622.655	38.0498
625.548	35.7827
628.441	77.6309
631.333	25.9736
634.226	79.9644
637.119	79.6606
640.011	78.5478
642.904	97.4131
645.797	93.1626
648.689	66.3184
651.582	76.1196
654.475	89.0151
657.368	49.6855
660.26	52.6426
663.153	4.53613
666.046	11.8394
668.938	30.7105
671.831	20.2842
674.724	28.773
677.616	34.6792
680.509	108.978
683.402	194.045
686.295	325.452
689.187	468.969
692.08	723.965
694.973	1046.04
697.865	1352.92
700.758	1831.67
703.651	2444.33
706.543	3222.95
709.436	4117.33
712.329	5213.08
715.222	6526.17
718.114	8040.46
721.007	9709.22
723.9	11655.1
726.792	13562
729.685	15239.9
732.578	16631
735.471	17412.3
738.363	17379.9
741.256	16803.3
744.149	15568.4
747.041	13683.9
749.934	11885.4
752.827	9969.09
755.72	8240.12
758.612	6892.9
761.505	5533.75
764.398	4433.85
767.29	3543.79
770.183	2703.86
773.076	1971.52
775.968	1462.06
778.861	1086.69
781.754	659.697
784.646	399.406
787.539	239.352
790.432	112.538
793.325	13.0166
796.217	64.457
799.11	113.517
802.003	94.7852
804.895	66.7148
807.788	230.56
810.681	479.935
813.573	729.459
816.466	1086.68
819.359	1421.26
822.252	1632.24
825.144	1730.66
828.037	1695.74
830.93	1586.47
833.822	1431.66
836.715	1273.28
839.608	1009.99
842.5	803.486
845.393	677.449
848.286	496.082
851.179	398.641
854.071	331.285
856.964	250.932
859.857	204.924
862.749	44.8315
865.642	79.71
868.535	80.6856
871.428	1.16406
874.32	9.82373
877.213	17.8686
880.106	4.98535
882.998	2.30029
885.891	32.9106
888.784	23.9673
891.677	26.2236
894.569	30.5991
897.462	63.4575
900.355	29.8438
903.247	3.95801
906.14	19.1841
909.033	101.317
911.925	93.2519
914.818	75.3838
917.711	114.14
920.604	118.741
923.496	239.372
926.389	222.356
929.282	327.886
932.174	390.908
935.067	563.489
937.96	808.117
940.852	943.635
943.745	1241.39
946.638	1471.06
949.53	1582.83
952.423	1621.11
955.316	1544
958.209	1301.62
961.101	1203.36
963.994	991.578
966.887	991.067
969.779	917.453
972.672	919.572
975.565	859.438
978.457	906.522
981.35	761.669
984.243	625.939
987.136	596.679
990.028	533.865
992.921	542.806
995.814	473.735
998.706	488.785
1001.6	364.71
1004.49	334.586
1007.38	305.436
1010.28	215.985
1013.17	198.391
1016.06	110.091
1018.96	147.665
1021.85	55.4155
1024.74	97.9868
1027.63	15.8935
1030.53	51.688
1033.42	34.4819
1036.31	20.5488
1039.2	30.1773
1042.1	41.5923
1044.99	3.43262
1047.88	58.8257
1050.78	41.4316
1053.67	5.25635
1056.56	36.2559
1059.45	23.2837
1062.35	72.7383
1065.24	36.3355
1068.13	34.7573
1071.02	48.3242
1073.92	8.02979
1076.81	85.0137
1079.7	53.5127
1082.6	152.536
1085.49	149.337
1088.38	76.3281
1091.27	56.1294
1094.17	42.6421
1097.06	94.3755
1099.95	83.9795
1102.84	40.0293
1105.74	0.342773
1108.63	12.8159
1111.52	31.9141
1114.41	69.4702
1117.31	10.2095
1120.2	48.5415
1123.09	107.325
1125.98	3.07764
1128.88	49.605
1131.77	56.1616
1134.66	67.5244
1137.56	30.5835
1140.45	22.9302
1143.34	13.2432
1146.23	20.2466
1149.13	27.9043
1152.02	77.9014
1154.91	46.3018
1157.81	3.85693
1160.7	37.5933
1163.59	50.6919
1166.48	26.4463
1169.38	54.9346
1172.27	47.6255
1175.16	42.9853
1178.05	44.5772
1180.95	23.4224
1183.84	18.4834
1186.73	3.55127
1189.62	21.2334
1192.52	91.668
1195.41	18.7339
1198.3	38.6187
1201.19	1.28906
1204.09	53.8467
1206.98	75.2129
1209.87	64.7695
1212.77	16.2602
1215.66	41.2315
1218.55	48.2026
1221.44	56.0366
1224.34	44.5859
1227.23	39.8394
1230.12	14.2949
1233.02	104.35
1235.91	21.1011
1238.8	6.35156
1241.69	80.9546
1244.59	32.0356
1247.48	54.1977
1250.37	29.0523
1253.26	91.5811
1256.16	94.3882
1259.05	90.1894
1261.94	30.584
1264.84	46.7749
1267.73	65.3589
1270.62	57.9429
1273.51	89.4707
1276.41	102.269
1279.3	23.3608
1282.19	37.6318
1285.08	79.8359
1287.98	20.894
1290.87	80.0742
1293.76	56.2398
1296.65	44.272
1299.55	38.6636
1302.44	32.2559
1305.33	62.811
