Measurement: Raman, 532 nm, unoriented, Raman Data Processed
Mineral: Stringhamite
Rruff sample: R060934
Ideal chemistry: CaCuSiO_4_H_2_O
Locality: Santos mine, Tierra Amarilla, Chile
Source: Bob Jenkins
Description: Azure blue crust, there is no diffraction from this material
Raman shift (cm-1)	intensity
137.433	0
140.326	45.573
143.218	20.996
146.111	99.066
149.004	64.457
151.896	126.455
154.789	163.584
157.682	174.691
160.574	170.595
163.467	233.65
166.36	210.259
169.252	246.279
172.145	250.374
175.038	210.518
177.931	257.183
180.823	162.725
183.716	28.4614
186.609	-2.1146
189.501	-4.27466
192.394	27.018
195.287	98.978
198.179	126.487
201.072	260.273
203.965	411.174
206.858	609.813
209.75	807.004
212.643	857.452
215.536	958.395
218.428	1239.9
221.321	1421.55
224.214	976.764
227.107	564.814
229.999	546.483
232.892	723.783
235.785	995.978
238.677	1400.21
241.57	1744.36
244.463	1556.68
247.355	1185.95
250.248	944.841
253.141	790.365
256.033	609.22
258.926	648.887
261.819	735.527
264.712	788.777
267.604	710.292
270.497	751.525
273.39	766.396
276.282	537.875
279.175	227.227
282.068	29.3505
284.96	-15.4476
287.853	-11.1075
290.746	16.3945
293.639	148.563
296.531	270.166
299.424	418.675
302.317	598.332
305.209	739.082
308.102	570.1
310.995	339.918
313.887	185.748
316.78	130.412
319.673	76.1605
322.565	105.934
325.458	198.67
328.351	215.69
331.244	220.076
334.136	269.712
337.029	310.798
339.922	398.011
342.814	445.829
345.707	385.882
348.6	357.914
351.493	355.412
354.385	344.259
357.278	416.657
360.171	451.904
363.063	515.531
365.956	620.757
368.849	675.04
371.741	671.776
374.634	593.727
377.527	478.381
380.419	439.391
383.312	559.214
386.205	758.238
389.098	1029.36
391.99	1361.59
394.883	1629.24
397.776	1649.29
400.668	1203.08
403.561	706.496
406.454	403.63
409.346	182.495
412.239	68.7106
415.132	24.1467
418.024	10.1711
420.917	36.0397
423.81	39.3716
426.703	56.772
429.595	100.128
432.488	106.583
435.381	58.0269
438.273	29.7401
441.166	21.0134
444.059	6.51184
446.952	10.2793
449.844	37.3516
452.737	13.8296
455.63	9.13892
458.522	35.9995
461.415	28.6268
464.308	84.8738
467.2	71.3408
470.093	130.456
472.986	147.017
475.878	207.582
478.771	234.421
481.664	339.978
484.557	365.512
487.449	498.389
490.342	593.52
493.235	765.833
496.127	925.99
499.02	1063.2
501.913	1230.6
504.805	1381.06
507.698	1338.34
510.591	1116.29
513.484	923.194
516.376	821.845
519.269	726.687
522.162	580.061
525.054	440.584
527.947	359.974
530.84	221.075
533.732	204.721
536.625	228.548
539.518	228.123
542.41	229.631
545.303	287.443
548.196	373.88
551.089	495.458
553.981	632.785
556.874	926.381
559.767	1277.51
562.659	1806.07
565.552	2395.34
568.445	2820.55
571.337	2789.81
574.23	2414.3
577.123	1885.6
580.016	1346.97
582.908	912.319
585.801	583.994
588.694	428.386
591.586	251.747
594.479	166.865
597.372	102.488
600.264	67.9999
603.157	34.0177
606.05	1.81891
608.942	10.0108
611.835	19.1917
614.728	35.2595
617.621	8.19305
620.513	4.53461
623.406	10.4277
626.299	6.70416
629.191	9.77301
632.084	15.0113
634.977	16.5471
637.87	13.253
640.762	4.50745
643.655	15.9734
646.548	16.9904
649.44	35.4799
652.333	32.7546
655.226	17.735
658.118	44.6217
661.011	79.1447
663.904	65.1852
666.797	43.9497
669.689	71.7883
672.582	69.5875
675.475	83.8124
678.367	63.1221
681.26	103.856
684.153	51.146
687.045	92.762
689.938	73.3514
692.831	100.102
695.723	83.3325
698.616	66.6495
701.509	60.6294
704.402	72.9612
707.294	62.3071
710.187	46.0465
713.08	52.0853
715.972	77.0853
718.865	90.1374
721.758	71.0669
724.65	76.7807
727.543	56.0937
730.436	22.5203
733.328	13.9197
736.221	2.83301
739.114	16.6453
742.007	14.1766
744.899	20.5482
747.792	6.72644
750.685	9.07196
753.577	14.8166
756.47	28.6005
759.363	15.0134
762.255	1.76263
765.148	25.3446
768.041	12.0407
770.934	9.91583
773.826	3.50147
776.719	18.5002
779.612	42.9674
782.504	90.7178
785.397	138.252
788.29	217.722
791.183	310.939
794.075	445.861
796.968	495.655
799.861	536.596
802.753	562.743
805.646	589.689
808.539	581.963
811.431	599.058
814.324	711.811
817.217	812.292
820.109	957.998
823.002	1055.24
825.895	1057.15
828.788	1005.85
831.68	888.515
834.573	765.743
837.466	623.331
840.358	580.626
843.251	553.407
846.144	610.422
849.036	641.041
851.929	767.378
854.822	969.265
857.715	1104.62
860.607	1098.93
863.5	903.272
866.393	689.191
869.285	566.606
872.178	494.779
875.071	443.955
877.963	413.75
880.856	379.143
883.749	373.777
886.641	303.046
889.534	267.153
892.427	203.246
895.32	130.955
898.212	96.8203
901.105	101.754
903.998	96.413
906.89	101.698
909.783	103.148
912.676	31.3801
915.568	15.3251
918.461	16.6684
921.354	19.2402
924.246	25.033
927.139	22.5815
930.032	8.66547
932.925	16.9442
935.817	25.0385
938.71	111.634
941.603	189.398
944.495	337.308
947.388	575.783
950.281	808.512
953.173	1129.26
956.066	1416.72
958.959	1324.44
961.852	1000.87
964.744	714.931
967.637	544.994
970.53	468.037
973.422	433.126
976.315	468.24
979.208	467.546
982.101	392.13
984.993	347.664
987.886	240.318
990.779	244.33
993.671	162.74
996.564	115.13
999.457	92.7057
1002.35	55.4192
1005.24	4.40039
1008.13	2.93732
1011.03	18.3235
1013.92	15.4363
1016.81	18.5979
1019.71	18.2888
1022.6	10.7059
1025.49	29.1748
1028.38	15.9428
1031.28	22.439
1034.17	1.60211
1037.06	56.1329
1039.95	44.8638
1042.85	45.4822
1045.74	65.4172
1048.63	74.9413
1051.53	119.802
1054.42	112.144
1057.31	121.223
1060.2	165.273
1063.1	159.32
1065.99	173.097
1068.88	213.721
1071.77	179.516
1074.67	133.661
1077.56	130.896
1080.45	106.436
1083.35	111.645
1086.24	89.2953
1089.13	83.7131
1092.02	76.7711
1094.92	7.82025
1097.81	70.8511
1100.7	30.2838
1103.59	0.583588
1106.49	22.6597
1109.38	25.8677
1112.27	23.3767
1115.16	30.2776
1118.06	32.187
1120.95	21.1654
1123.84	20.3329
1126.73	41.5748
1129.63	33.1047
1132.52	24.5251
1135.41	1.81653
1138.31	28.9027
1141.2	31.349
1144.09	2.90768
1146.98	29.913
1149.88	51.2777
1152.77	17.4619
1155.66	0.865967
1158.56	45.5246
1161.45	38.1347
1164.34	46.1471
1167.23	30.2122
1170.13	46.2779
1173.02	50.9885
1175.91	20.2749
1178.8	62.0418
1181.7	41.4238
1184.59	86.0824
1187.48	28.3338
1190.38	55.0468
1193.27	2.09009
1196.16	3.00995
1199.05	38.6249
1201.94	35.4435
1204.84	27.909
1207.73	4.26956
1210.62	42.109
1213.52	9.13678
1216.41	18.8315
1219.3	12.4327
1222.19	48.9811
1225.09	14.1244
1227.98	0.789215
1230.87	36.2447
1233.77	54.8951
1236.66	15.0822
1239.55	26.5209
1242.44	16.8344
1245.34	34.0418
1248.23	56.9411
1251.12	31.5912
1254.01	23.8861
1256.91	22.8307
1259.8	5.47595
1262.69	18.1448
1265.59	43.5953
1268.48	44.3847
1271.37	20.7461
