Measurement: Raman, 532 nm, unoriented, Raman Data Processed
Mineral: Stringhamite
Rruff sample: R110018
Ideal chemistry: CaCuSiO_4_H_2_O
Locality: Christmas mine, Gila County, Arizona, USA
Source: Bob Jenkins
Description: Deep blue platy crystals
Raman shift (cm-1)	intensity
187.682	0
190.575	4.34154
193.468	0.950165
196.36	2.28469
199.253	8.20778
202.146	18.3595
205.038	31.689
207.931	60.9175
210.824	65.9888
213.716	59.6512
216.609	101.403
219.502	161.602
222.395	158.46
225.287	41.102
228.18	12.4804
231.073	10.5137
233.965	11.7838
236.858	21.6416
239.751	49.4912
242.643	53.0633
245.536	36.0466
248.429	31.9926
251.322	27.903
254.214	30.934
257.107	27.9961
260	36.9234
262.892	50.2687
265.785	41.4251
268.678	36.9472
271.57	45.4053
274.463	54.5932
277.356	15.5173
280.249	2.77128
283.141	0.370323
286.034	2.36094
288.927	6.3831
291.819	20.3058
294.712	26.5236
297.605	50.6206
300.498	82.1784
303.39	123.371
306.283	114.304
309.176	45.2463
312.068	12.1554
314.961	3.12327
317.854	2.7535
320.746	1.45074
323.639	6.57273
326.532	9.36995
329.425	3.82443
332.317	1.8349
335.21	2.74814
338.103	2.68137
340.995	8.47585
343.888	6.58405
346.781	5.36867
349.673	0.96347
352.566	4.10915
355.459	2.82657
358.351	12.3775
361.244	15.1161
364.137	19.6854
367.03	36.2437
369.922	38.719
372.815	41.7471
375.708	33.4839
378.6	30.8179
381.493	41.209
384.386	47.5444
387.279	61.4695
390.171	78.4637
393.064	93.4886
395.957	114.855
398.849	78.1329
401.742	47.3676
404.635	26.4863
407.527	17.6127
410.42	13.2725
413.313	10.1081
416.205	0.19208
419.098	3.97108
421.991	5.7712
424.884	8.9447
427.776	8.37131
430.669	9.06245
433.562	7.16271
436.454	8.37189
439.347	1.58462
442.24	2.63287
445.132	2.66783
448.025	1.0158
450.918	2.07869
453.811	1.44758
456.703	3.60009
459.596	0.842495
462.489	1.72079
465.381	0.756886
468.274	5.0994
471.167	1.55681
474.06	2.95691
476.952	0.674646
479.845	2.77478
482.738	5.71088
485.63	6.3163
488.523	12.5003
491.416	11.2431
494.308	14.1753
497.201	22.4568
500.094	32.165
502.986	39.0952
505.879	48.7222
508.772	38.168
511.665	29.9529
514.557	33.1084
517.45	31.8251
520.343	28.6668
523.235	14.84
526.128	15.5498
529.021	7.93631
531.913	9.34645
534.806	0.977152
537.699	0.047195
540.592	5.86308
543.484	6.82898
546.377	11.0657
549.27	16.1625
552.162	28.4825
555.055	46.0232
557.948	70.5879
560.841	102.747
563.733	151.288
566.626	189.24
569.519	216.187
572.411	173.067
575.304	118.933
578.197	85.0119
581.089	50.448
583.982	32.6693
586.875	17.2366
589.768	12.1261
592.66	9.87248
595.553	7.87482
598.446	2.86988
601.338	5.73833
604.231	5.13488
607.124	0.521436
610.016	2.21982
612.909	0.858346
615.802	1.84016
618.694	1.35669
621.587	1.89241
624.48	2.03637
627.373	1.31151
630.265	1.91424
633.158	0.764633
636.051	0.405374
638.943	3.58638
641.836	6.15921
644.729	3.256
647.621	3.94176
650.514	3.50072
653.407	0.432963
656.3	2.58809
659.192	1.53151
662.085	6.04406
664.978	4.935
667.87	5.13929
670.763	0.625529
673.656	2.36231
676.548	2.6163
679.441	5.71841
682.334	4.24203
685.227	7.56578
688.119	5.00706
691.012	2.25606
693.905	5.57222
696.797	6.4111
699.69	0.66952
702.583	0.378266
705.476	4.14395
708.368	8.94979
711.261	3.48942
714.154	3.61549
717.046	3.41955
719.939	3.33994
722.832	1.17262
725.724	0.243531
728.617	2.97267
731.51	5.01616
734.403	7.46824
737.295	1.21472
740.188	2.38759
743.081	5.12889
745.973	7.95754
748.866	6.00582
751.759	1.51986
754.651	3.86556
757.544	7.60541
760.437	1.49874
763.33	5.64701
766.222	4.44649
769.115	2.43373
772.008	0.72871
774.9	3.38116
777.793	1.10302
780.686	1.65042
783.578	1.64696
786.471	3.7301
789.364	2.61316
792.256	1.60865
795.149	9.87564
798.042	5.06476
800.935	9.22106
803.827	11.8689
806.72	10.6257
809.613	16.7046
812.505	20.1122
815.398	26.2056
818.291	45.2799
821.183	65.4739
824.076	80.9967
826.969	83.4921
829.862	59.244
832.754	41.7099
835.647	27.6965
838.54	21.0089
841.432	15.2698
844.325	19.5679
847.218	20.4628
850.111	25.4916
853.003	44.7859
855.896	60.0143
858.789	75.3212
861.681	63.5318
864.574	42.9073
867.467	18.4258
870.359	10.1483
873.252	13.4421
876.145	6.30076
879.038	4.65222
881.93	1.4682
884.823	6.01706
887.716	0.780153
890.608	0.465221
893.501	0.349384
896.394	2.78234
899.286	2.90162
902.179	5.89278
905.072	10.3337
907.965	17.7101
910.857	12.8406
913.75	9.08523
916.643	6.80154
919.535	5.16409
922.428	3.52412
925.321	2.63301
928.213	2.40108
931.106	0.649794
933.999	8.42077
936.891	6.59875
939.784	11.2263
942.677	22.1219
945.57	39.667
948.462	56.7552
951.355	100.797
954.248	153.68
957.14	190.578
960.033	178.288
962.926	111.793
965.818	62.3002
968.711	42.8108
971.604	31.8377
974.497	30.1455
977.389	35.6416
980.282	37.675
983.175	31.9411
986.067	26.4418
988.96	11.4866
991.853	15.045
994.745	5.51354
997.638	2.33053
1000.53	4.70012
1003.42	4.12806
1006.32	5.01062
1009.21	0.995438
1012.1	6.40697
1014.99	3.67935
1017.89	3.74893
1020.78	0.482884
1023.67	1.82802
1026.57	4.46148
1029.46	4.85222
1032.35	0.921928
1035.24	2.79026
1038.14	4.59534
1041.03	0.915504
1043.92	5.05746
1046.81	2.3138
1049.71	3.59899
1052.6	9.76719
1055.49	6.88538
1058.38	11.4083
1061.28	17.1421
1064.17	14.8714
1067.06	16.7903
1069.96	12.7316
1072.85	16.0956
1075.74	9.69906
1078.63	9.20134
1081.53	8.01637
1084.42	0.595529
1087.31	5.49065
1090.2	2.36267
1093.1	0.457759
1095.99	4.42019
1098.88	1.01504
1101.78	5.37691
1104.67	4.81337
1107.56	0.168201
1110.45	0.653939
1113.35	1.10931
1116.24	3.45672
1119.13	6.89041
1122.02	3.59044
1124.92	2.40637
1127.81	0.850595
1130.7	5.17871
1133.6	6.00362
1136.49	2.63488
1139.38	1.07691
1142.27	3.39873
1145.17	0.297033
1148.06	1.11887
1150.95	3.20002
1153.84	4.64208
1156.74	4.7443
1159.63	4.31777
1162.52	5.67211
1165.41	4.68632
1168.31	3.21769
1171.2	2.08827
1174.09	1.27268
1176.99	7.35233
1179.88	2.15354
1182.77	5.09128
1185.66	7.75254
1188.56	2.64717
1191.45	4.356
1194.34	6.0415
1197.23	2.98374
1200.13	7.07604
1203.02	5.97351
1205.91	0.179114
1208.81	7.48755
1211.7	4.93567
1214.59	7.99702
1217.48	2.32487
1220.38	3.85556
1223.27	8.91967
1226.16	4.32909
1229.05	3.96725
1231.95	3.67776
1234.84	3.91362
1237.73	3.37059
1240.62	4.83395
1243.52	3.52304
1246.41	1.39885
1249.3	4.55975
1252.2	4.55717
1255.09	3.66239
1257.98	6.82586
1260.87	4.69321
1263.77	3.30712
1266.66	6.8967
1269.55	2.96999
1272.44	1.21437
1275.34	0.685397
1278.23	0.49075
1281.12	3.8576
1284.02	5.65579
1286.91	4.26925
1289.8	2.27504
1292.69	1.1378
1295.59	2.67093
1298.48	0.193703
1301.37	1.51723
