Measurement: Raman, 532 nm, unoriented, Raman Data Processed
Mineral: Stronalsite
Rruff sample: R060919
Ideal chemistry: Na_2_SrAl_4_Si_4_O_16_
Locality: Mt. Ohsa, Ohsa-osakabe, Niimi, Okayama Prefecture, Japan
Source: Marcus Origlieri
Description: White massive band in a tan colored matrix of jadeite
Raman shift (cm-1)	intensity
135.504	0
138.397	45.7105
141.29	316.908
144.183	577.452
147.075	803.782
149.968	960.856
152.861	686.174
155.753	458.295
158.646	506.878
161.539	760.693
164.431	662.539
167.324	375.53
170.217	192.4
173.109	90.5361
176.002	26.4941
178.895	1.95654
181.788	1.18359
184.68	3.4458
187.573	13.6875
190.466	122.479
193.358	116.799
196.251	83.9497
199.144	1.84619
202.036	6.34277
204.929	158.681
207.822	367.508
210.714	520.36
213.607	652.297
216.5	480.243
219.393	223.119
222.285	203.424
225.178	222.713
228.071	394.014
230.963	622.485
233.856	809.909
236.749	939.091
239.642	940.046
242.534	669.827
245.427	414.414
248.32	226.889
251.212	109.733
254.105	112.759
256.998	98.7783
259.89	64.8027
262.783	145.328
265.676	42.0415
268.568	14.4321
271.461	155.257
274.354	93.8257
277.247	82.0332
280.139	19.7436
283.032	49.4863
285.925	6.39746
288.817	89.5664
291.71	301.67
294.603	384.565
297.495	510.641
300.388	528.363
303.281	406.238
306.174	286.959
309.066	197.285
311.959	204.872
314.852	303.776
317.744	298.154
320.637	343.739
323.53	303.005
326.422	161.562
329.315	82.7617
332.208	68.2519
335.101	20.4917
337.993	7.1626
340.886	8.60156
343.779	23.1235
346.671	14.6733
349.564	18.4409
352.457	98.6728
355.349	203.023
358.242	272.19
361.135	304.816
364.027	283.673
366.92	392.073
369.813	398.149
372.706	546.374
375.598	563.76
378.491	489.707
381.384	546.73
384.276	540.985
387.169	729.155
390.062	787.2
392.954	581.485
395.847	390.451
398.74	367.978
401.633	372.739
404.525	376.148
407.418	253.895
410.311	42.8535
413.203	34.4634
416.096	11.3408
418.989	17.1387
421.881	46.4004
424.774	40.7251
427.667	158.707
430.56	299.017
433.452	540.358
436.345	844.375
439.238	843.718
442.13	628.479
445.023	277.07
447.916	359.132
450.808	436.916
453.701	652.139
456.594	946.605
459.486	1304.54
462.379	1539.34
465.272	1845.56
468.165	2352.49
471.057	3091.81
473.95	4149.86
476.843	5213.82
479.735	5907.23
482.628	5945.66
485.521	5317.4
488.413	4232.79
491.306	3215.64
494.199	2361.79
497.092	1970.65
499.984	2078.73
502.877	2497.97
505.77	3254.92
508.662	4238.24
511.555	5205.42
514.448	5321.84
517.341	3583.89
520.233	1764.62
523.126	990.612
526.019	525.71
528.911	379.853
531.804	241.465
534.697	86.5708
537.589	34.5688
540.482	45.3003
543.375	95.3892
546.268	58.4653
549.16	36.9502
552.053	3.37451
554.946	2.86523
557.838	17.918
560.731	70.5601
563.624	15.314
566.516	14.0874
569.409	24.6294
572.302	45.5068
575.194	2.50635
578.087	27.0464
580.98	57.4072
583.872	137.788
586.765	194.936
589.658	174.942
592.551	193.742
595.443	222.467
598.336	223.301
601.229	255.8
604.121	261.42
607.014	345.115
609.907	343.003
612.799	347.503
615.692	436.602
618.585	476.769
621.477	617.985
624.37	711.546
627.263	671.276
630.156	658.1
633.048	574.992
635.941	538.34
638.834	590.587
641.726	640.491
644.619	445.834
647.512	402.775
650.404	497.942
653.297	494.888
656.19	488.834
659.083	403.741
661.975	287.798
664.868	178.186
667.761	159.446
670.653	108.284
673.546	109.274
676.439	45.3779
679.332	32.0938
682.224	56.7978
685.117	70.4326
688.01	32.5889
690.902	61.0693
693.795	63.4365
696.688	97.1934
699.58	135.796
702.473	84.832
705.366	83.5928
708.259	52.5488
711.151	23.6055
714.044	27.4287
716.937	100.368
719.829	70.3106
722.722	67.54
725.615	178.908
728.507	102.743
731.4	12.0684
734.293	46.8184
737.185	28.4814
740.078	6.89746
742.971	20.8877
745.864	85.4434
748.756	28.2275
751.649	46.8272
754.542	68.2061
757.434	145.616
760.327	104.579
763.22	169.328
766.112	150.692
769.005	243.711
771.898	295.403
774.79	218.983
777.683	135.695
780.576	112.013
783.469	94.4375
786.361	166.322
789.254	197.627
792.147	136.779
795.039	219.757
797.932	262.669
800.825	229.41
803.717	209.547
806.61	229.226
809.503	171.462
812.396	139.905
815.288	153.834
818.181	167.233
821.074	114.574
823.966	191.294
826.859	208.09
829.752	245.942
832.644	117.364
835.537	191.861
838.43	171.509
841.323	147.83
844.215	166.631
847.108	81.4297
850.001	67.9209
852.893	59.2529
855.786	0.760742
858.679	5.17969
861.571	42.3115
864.464	59.5684
867.357	76.8984
870.25	3.79688
873.142	50.3428
876.035	9.79102
878.928	28.8477
881.82	36.0684
884.713	23.3926
887.606	16.8545
890.498	111.683
893.391	187.815
896.284	237.91
899.177	127.699
902.069	28.3115
904.962	68.4424
907.855	50.5459
910.747	140.017
913.64	274.268
916.533	316.478
919.425	438.45
922.318	651.836
925.211	716.154
928.104	572.007
930.996	431.901
933.889	283.488
936.782	260.508
939.674	381.117
942.567	314.624
945.46	295.162
948.352	183.978
951.245	124.426
954.138	123.311
957.03	32.4502
959.923	20.5029
962.816	14.9688
965.709	25.501
968.601	18.0771
971.494	134.273
974.387	334.818
977.279	596.93
980.172	695.374
983.065	731.598
985.957	455.257
988.85	222.886
991.743	141.409
994.635	147.63
997.528	159.517
1000.42	154.005
1003.31	252.395
1006.21	340.019
1009.1	416.988
1011.99	262.302
1014.88	121.76
1017.78	4.49609
1020.67	5.10644
1023.56	4.10352
1026.45	51.2598
1029.35	46.126
1032.24	55.1123
1035.13	19.8281
1038.03	54.0908
1040.92	7.86133
1043.81	39.7422
1046.7	3.50488
1049.6	29.6943
1052.49	31.6846
1055.38	166.218
1058.28	107.733
1061.17	121.455
1064.06	105.235
1066.95	171.443
1069.85	232.636
1072.74	291.499
1075.63	297.97
1078.52	272.754
1081.42	295.483
1084.31	389.926
1087.2	408.029
1090.09	568.535
1092.99	534.701
1095.88	675.484
1098.77	828.493
1101.66	748.641
1104.56	818.599
1107.45	701.752
1110.34	495.679
1113.24	494.483
1116.13	373.148
1119.02	292.62
1121.91	179.053
1124.81	209.63
1127.7	228.921
1130.59	182.553
1133.48	190.681
1136.38	109.324
1139.27	121.12
1142.16	169.227
1145.06	130.786
1147.95	52.0693
1150.84	25.1631
1153.73	105.039
1156.63	160.969
1159.52	74.2168
1162.41	26.1104
1165.31	6.20215
1168.2	25.083
1171.09	26.7549
1173.98	21.8027
1176.88	101.96
1179.77	63.459
1182.66	188.942
1185.55	145.639
1188.45	3.61621
1191.34	65.5371
1194.23	115.483
1197.12	0.177734
1200.02	109.291
1202.91	3.94238
1205.8	19.8721
1208.69	94.3018
1211.59	119.673
1214.48	79.6426
1217.37	73.9404
1220.27	109.314
1223.16	66.4834
1226.05	71.4971
1228.94	101.956
1231.84	69.8486
1234.73	170.713
1237.62	173.542
1240.52	203.345
1243.41	172.445
1246.3	114.32
1249.19	125.725
1252.09	143.933
1254.98	103.699
1257.87	59.959
1260.76	61.2393
1263.66	4.72949
1266.55	0.668945
1269.44	108.071
1272.33	149.795
1275.23	123.028
1278.12	71.7139
1281.01	22.0967
1283.9	3.13867
1286.8	61.7559
