Measurement: Raman, 785 nm, unoriented, Raman Data Processed
Mineral: Stronalsite
Rruff sample: R060919
Ideal chemistry: Na_2_SrAl_4_Si_4_O_16_
Locality: Mt. Ohsa, Ohsa-osakabe, Niimi, Okayama Prefecture, Japan
Source: Marcus Origlieri
Description: White massive band in a tan colored matrix of jadeite
Raman shift (cm-1)	intensity
157.686	0
160.579	75.0674
163.472	212.047
166.364	215.723
169.257	279.842
172.15	233.604
175.042	123.364
177.935	106.207
180.828	24.8855
183.72	16.197
186.613	13.5523
189.506	45.7546
192.399	11.0459
195.291	74.6101
198.184	31.0474
201.077	34.1736
203.969	58.3652
206.862	70.6401
209.755	119.947
212.648	177.213
215.54	181.123
218.433	95.8748
221.326	82.0769
224.218	65.2905
227.111	116.469
230.004	120.776
232.896	178.234
235.789	236.793
238.682	233.237
241.575	194.043
244.467	72.8955
247.36	51.2544
250.253	19.3581
253.145	2.44409
256.038	12.0015
258.931	18.5625
261.823	33.1692
264.716	44.1917
267.609	5.86157
270.502	25.9927
273.394	40.0576
276.287	48.3931
279.18	4.29688
282.072	9.37085
284.965	2.67529
287.858	15.3494
290.75	21.0823
293.643	108.312
296.536	170.214
299.428	205.378
302.321	127.136
305.214	148.42
308.107	98.1204
310.999	66.6741
313.892	91.103
316.785	120.76
319.677	111.816
322.57	84.9878
325.463	97.0854
328.356	36.8315
331.248	88.2896
334.141	73.9592
337.034	62.5303
339.926	4.16186
342.819	8.73901
345.712	17.7918
348.604	4.03809
351.497	63.3611
354.39	37.9397
357.283	93.7788
360.175	54.8101
363.068	109.236
365.961	124.062
368.853	137.718
371.746	135.738
374.639	191.265
377.531	197.04
380.424	123.507
383.317	134.316
386.209	207.578
389.102	226.589
391.995	179.54
394.888	135.519
397.78	167.813
400.673	126.549
403.566	145.761
406.458	90.8008
409.351	42.3789
412.244	15.2959
415.137	13.1709
418.029	26.1733
420.922	7.52881
423.815	34.1953
426.707	17.8135
429.6	52.7783
432.493	127.832
435.385	157.809
438.278	252.392
441.171	230.192
444.063	88.7368
446.956	65.3223
449.849	88.3789
452.742	66.2808
455.634	162.102
458.527	230.006
461.42	296.345
464.312	373.844
467.205	471.046
470.098	684.055
472.99	928.871
475.883	1313.88
478.776	1608.22
481.669	1709.75
484.561	1639.97
487.454	1328.09
490.347	1034.59
493.239	775.057
496.132	590.144
499.025	481.669
501.918	507.256
504.81	648.419
507.703	927.443
510.596	1304.14
513.488	1530.84
516.381	1174.38
519.274	676.182
522.166	346.681
525.059	193.227
527.952	166.285
530.845	127.524
533.737	43.2783
536.63	35.4375
539.523	83.9048
542.415	62.7559
545.308	5.08496
548.201	18.4575
551.093	22.3896
553.986	41.8042
556.879	13.0396
559.771	13.6558
562.664	48.1812
565.557	32.3198
568.45	6.61231
571.342	6.54248
574.235	20.438
577.128	19.0513
580.02	13.956
582.913	58.4678
585.806	51.3618
588.699	108.3
591.591	92.0591
594.484	138.001
597.377	74.4565
600.269	96.8364
603.162	110.772
606.055	104.727
608.947	161.593
611.84	103.632
614.733	117.56
617.626	154.153
620.518	195.555
623.411	218.721
626.304	234.003
629.196	173.343
632.089	209.133
634.982	216.761
637.875	170.386
640.767	194.025
643.66	149.083
646.553	118.053
649.445	114.798
652.338	136.74
655.231	130.837
658.123	80.022
661.016	103.353
663.909	80.1089
666.802	13.251
669.694	50.1831
672.587	3.42285
675.48	29.4912
678.372	7.19189
681.265	30.0181
684.158	4.83789
687.05	17.5078
689.943	17.9355
692.836	39.5933
695.729	49.7656
698.621	35.4741
701.514	7.90576
704.407	22.0283
707.299	31.5322
710.192	28.8975
713.085	52.853
715.977	30.7686
718.87	71.3462
721.763	71.5615
724.655	24.8852
727.548	66.3296
730.441	24.8828
733.334	33.7778
736.226	25.6987
739.119	16.4302
742.012	4.99316
744.904	0.810547
747.797	40.5825
750.69	72.8091
753.582	50.2178
756.475	64.3125
759.368	103.74
762.261	86.6138
765.153	49.772
768.046	56.5698
770.939	89.6851
773.831	48.1787
776.724	69.2578
779.617	100.428
782.51	62.2681
785.402	103.038
788.295	48.2993
791.188	106.164
794.08	35.5674
796.973	23.6572
799.866	2.26562
802.758	76.1382
805.651	21.7681
808.544	16.9766
811.437	41.1514
814.329	59.0093
817.222	127.54
820.115	94.4731
823.007	60.3071
825.9	2.38037
828.793	53.6494
831.685	56.0898
834.578	46.5127
837.471	35.0029
840.364	12.0098
843.256	71.8931
846.149	28.6226
849.042	50.9434
851.934	55.5283
854.827	51.5332
857.72	45.6392
860.612	5.85156
863.505	34.6665
866.398	32.7588
869.29	17.0566
872.183	77.792
875.076	27.6401
877.969	42.1509
880.861	45.5347
883.754	38.8784
886.647	1.81787
889.539	70.6484
892.432	34.0757
895.325	29.9404
898.217	23.0273
901.11	12.9766
904.003	53.0435
906.896	45.4214
909.788	63.6377
912.681	54.1797
915.574	4.14941
918.466	128.766
921.359	95.6397
924.252	98.4512
927.145	145.368
930.037	99.6406
932.93	67.8315
935.823	99.2358
938.715	96.7876
941.608	77.3237
944.501	86.2485
947.394	102.851
950.286	58.5913
953.179	59.1948
956.072	7.73486
958.964	38.6294
961.857	44.1099
964.75	47.0952
967.642	104.829
970.535	40.0088
973.428	87.4277
976.321	88.3232
979.213	181.692
982.106	183.429
984.999	178.106
987.891	68.9561
990.784	50.313
993.677	5.21729
996.569	1.84326
999.462	58.9795
1002.36	70.7559
1005.25	94.7173
1008.14	103.173
1011.03	106.892
1013.93	64.8599
1016.82	37.3013
1019.71	36.3682
1022.6	4.64307
1025.5	2.29639
1028.39	1.37647
1031.28	29.7573
1034.17	11.7329
1037.07	81.0625
1039.96	20.3623
1042.85	0.509766
1045.74	37.5171
1048.64	60.5537
1051.53	14.5684
1054.42	58.3149
1057.32	38.0347
1060.21	92.3213
1063.1	64.7754
1065.99	82.6279
1068.89	62.269
1071.78	52.6724
1074.67	70.9238
1077.57	78.2134
1080.46	118.751
1083.35	101.145
1086.24	47.3599
1089.14	111.903
1092.03	80.5591
1094.92	150.582
1097.81	135.972
1100.71	159.798
1103.6	161.453
1106.49	113.732
1109.38	100.713
1112.28	78.9727
1115.17	103.471
1118.06	117.528
1120.96	76.0352
1123.85	60.8789
1126.74	79.3672
1129.63	11.2524
1132.53	65.7852
1135.42	83.7368
1138.31	49.0459
1141.2	38.4898
1144.1	66.1523
1146.99	33.4023
1149.88	19.1128
1152.78	8.27979
1155.67	12.4517
1158.56	34.5308
1161.45	48.7886
1164.35	95.8413
1167.24	51.6719
1170.13	18.9194
1173.02	3.32129
1175.92	58.0386
1178.81	44.7583
1181.7	30.8027
1184.6	25.0342
1187.49	32.9185
1190.38	21.2207
1193.27	52.4326
1196.17	67.3423
1199.06	40.0215
1201.95	67.5444
1204.84	12.0518
1207.74	8.90527
1210.63	11.2769
1213.52	45.1899
1216.41	69.8545
1219.31	36.6865
1222.2	3.14111
