Measurement: Raman, 780 nm, unoriented, Raman Data Processed
Mineral: Strontianite
Rruff sample: R050564
Ideal chemistry: SrCO_3_
Locality: Winfield Quarry, Lancaster County, Pennsylvania, USA
Source: Dave Bunk Minerals
Description: Colorless prismatic crystals
Measured chemistry: (Sr_0.85_Ca_0.15_)CO_3_
Raman shift (cm-1)	intensity
92.0654	0
95.4403	4.82268
98.8151	9.94704
102.19	42.6688
105.565	7.22273
108.939	2.64594
112.314	18.1813
115.689	47.7082
119.064	81.4757
122.439	171.511
125.814	341.365
129.188	566.376
132.563	716.414
135.938	892.934
139.313	1116.42
142.688	1370.39
146.062	1627.97
149.437	1433.25
152.812	768.866
156.187	451.61
159.562	382.476
162.936	410.385
166.311	461.752
169.686	551.488
173.061	711.194
176.436	924.692
179.811	1135.51
183.185	1100.08
186.56	673.726
189.935	318.022
193.31	151.014
196.685	75.4822
200.06	39.3918
203.434	9.89545
206.809	2.42909
210.184	7.31869
213.559	3.5639
216.934	7.59008
220.308	14.4224
223.683	15.5449
227.058	31.402
230.433	51.1431
233.808	85.0852
237.182	122.53
240.557	135.942
243.932	135.768
247.307	111.44
250.682	65.5763
254.056	42.9403
257.431	33.8071
260.806	28.2454
264.181	21.6123
267.556	12.8044
270.931	5.17414
274.305	0.51273
277.68	1.39868
281.055	1.90108
284.43	0.634022
287.805	0.622944
291.18	0.658703
294.554	1.94514
297.929	0.660789
301.304	2.32998
304.679	4.80848
308.054	3.85934
311.428	4.197
314.803	3.92924
318.178	5.34287
321.553	3.32903
324.928	4.88231
328.302	2.92026
331.677	3.84363
335.052	4.22673
338.427	5.52916
341.802	1.96762
345.176	1.28226
348.551	2.3133
351.926	2.58726
355.301	1.32231
358.676	0.524006
362.051	1.2961
365.425	0.844425
368.8	0.81155
372.175	0.068451
375.55	1.64476
378.925	1.15497
382.3	0.381199
385.674	0.518597
389.049	0.701397
392.424	2.77343
395.799	2.80841
399.174	1.95716
402.548	1.98734
405.923	2.24779
409.298	2.30281
412.673	1.64237
416.048	3.6758
419.422	3.63883
422.797	3.5391
426.172	2.3847
429.547	3.76207
432.922	1.77561
436.296	2.45234
439.671	1.44915
443.046	1.21228
446.421	0.436193
449.796	5.24333
453.171	1.18279
456.545	0.79801
459.92	0.072838
463.295	0.919847
466.67	0.92392
470.045	0.111786
473.42	1.07448
476.794	1.52331
480.169	0.351423
483.544	2.62985
486.919	2.63676
490.293	1.36979
493.668	1.25525
497.043	1.71825
500.418	0.976252
503.793	2.09182
507.168	2.22662
510.542	2.57041
513.917	1.75806
517.292	2.71432
520.667	2.16626
524.042	2.03151
527.417	1.50469
530.791	1.80875
534.166	1.22229
537.541	2.63358
540.916	1.94537
544.291	2.76976
547.665	2.69276
551.04	2.62137
554.415	1.43911
557.79	0.868034
561.165	2.89996
564.539	0.893051
567.914	1.74041
571.289	2.46123
574.664	0.711142
578.039	1.77156
581.413	1.23237
584.788	2.37319
588.163	1.07239
591.538	0.518526
594.913	1.65712
598.288	0.720608
601.662	1.25001
605.037	2.02086
608.412	1.50693
611.787	0.424051
615.162	0.323889
618.537	0.687227
621.911	0.395023
625.286	0.042418
628.661	0.217005
632.036	1.31917
635.41	2.72711
638.785	1.74708
642.16	1.29341
645.535	0.848419
648.91	0.884735
652.285	0.904484
655.659	1.22973
659.034	0.528337
662.409	1.57826
665.784	1.1831
669.159	0.31218
672.534	2.36458
675.908	1.98775
679.283	2.62279
682.658	8.40606
686.033	16.6798
689.408	28.1073
692.782	40.2738
696.157	70.5468
699.532	87.6379
702.907	62.6952
706.282	23.1198
709.656	22.1277
713.031	22.8404
716.406	4.66398
719.781	0.342588
723.156	0.515251
726.53	0.893867
729.905	1.37945
733.28	0.203259
736.655	1.57781
740.03	0.569204
743.405	1.56572
746.779	1.0709
750.154	0.765623
753.529	0.030472
756.904	0.113535
760.279	0.625383
763.654	1.02839
767.028	0.787746
770.403	1.015
773.778	0.21789
777.153	1.0923
780.528	1.7233
783.902	1.70783
787.277	2.15447
790.652	1.05435
794.027	1.35092
797.402	1.3608
800.776	1.59722
804.151	2.04003
807.526	2.5443
810.901	2.72227
814.276	1.75895
817.65	3.57701
821.025	2.1611
824.4	3.24711
827.775	3.47364
831.15	4.09098
834.525	2.26376
837.899	2.46791
841.274	3.73685
844.649	3.44576
848.024	2.27148
851.399	5.75007
854.774	5.2359
858.148	2.674
861.523	2.15338
864.898	2.08759
868.273	2.88976
871.648	1.45038
875.022	1.941
878.397	2.14182
881.772	1.80836
885.147	1.1808
888.522	2.03725
891.896	0.714397
895.271	0.56942
898.646	1.31538
902.021	0.810825
905.396	0.88352
908.77	0.371571
912.145	0.074921
915.52	0.485582
918.895	0.950876
922.27	1.01003
925.645	0.32419
929.019	1.56127
932.394	0.692326
935.769	2.44392
939.144	1.88492
942.519	0.512564
945.894	1.23482
949.268	0.312492
952.643	0.483269
956.018	1.31957
959.393	0.183359
962.768	1.50167
966.142	1.11828
969.517	2.16094
972.892	0.021231
976.267	0.13492
979.642	1.60015
983.016	1.30053
986.391	2.06409
989.766	1.35633
993.141	0.378225
996.516	0.749289
999.89	0.730379
1003.26	2.05504
1006.64	0.199137
1010.01	1.81369
1013.39	0.883049
1016.76	1.15086
1020.14	1.44997
1023.51	0.457047
1026.89	1.9183
1030.26	1.31129
1033.64	0.295645
1037.01	1.81331
1040.39	3.43487
1043.76	2.68011
1047.14	4.12266
1050.51	6.4494
1053.89	7.10895
1057.26	17.0907
1060.64	81.907
1064.01	193.542
1067.39	295.001
1070.76	517.053
1074.14	977.977
1077.51	133.77
1080.89	11.3537
1084.26	3.36799
1087.64	3.48231
1091.01	1.42205
1094.38	1.29066
1097.76	0.539742
1101.13	0.392275
1104.51	0.189703
1107.88	0.786865
1111.26	1.36751
1114.63	1.39664
1118.01	0.28039
1121.38	1.30841
1124.76	0.128855
1128.13	0.652636
1131.51	1.32561
1134.88	0.691446
1138.26	0.751925
1141.63	1.28755
1145.01	0.035027
1148.38	2.50345
1151.76	3.17077
1155.13	4.82412
1158.51	6.25534
1161.88	8.97089
1165.26	9.71124
1168.63	11.4844
1172.01	13.1749
1175.38	14.8518
1178.76	13.8372
1182.13	16.0069
1185.51	14.8395
1188.88	13.3939
1192.26	10.7551
1195.63	8.98821
1199.01	6.45618
1202.38	7.2695
1205.75	6.03124
1209.13	5.74946
1212.5	3.51188
1215.88	3.50887
1219.25	2.75691
1222.63	1.28857
1226	0.313362
1229.38	1.1282
1232.75	0.623306
1236.13	0.213066
1239.5	0.258526
1242.88	3.01497
1246.25	1.46984
1249.63	3.02462
1253	3.14292
1256.38	3.48376
1259.75	3.37426
1263.13	2.69622
1266.5	2.934
1269.88	3.4664
1273.25	3.09795
1276.62	0.956261
1280	0.617744
1283.38	2.73535
