Measurement: Raman, 785 nm, unoriented, Raman Data Processed
Mineral: Strontiojoaquinite
Rruff sample: R070084
Ideal chemistry: (Na,Fe)_2_Ba_2_Sr_2_Ti_2_(SiO_3_)_8_(O,OH)_2_H_2_O
Locality: Clear Creek area, San Benito County, California, USA
Source: James Shigley
Description: Yellow prismatic single crystals
Raman shift (cm-1)	intensity
170.486	0
173.379	0.349365
176.271	53.3511
179.164	96.1824
182.057	108.216
184.949	118.745
187.842	140.841
190.735	173.062
193.627	203.489
196.52	169.028
199.413	207.851
202.306	168.696
205.198	136.044
208.091	65.5835
210.984	19.1145
213.876	18.7185
216.769	8.1543
219.662	49.949
222.555	1.85767
225.447	43.6008
228.34	13.251
231.233	67.1672
234.125	54.7073
237.018	103.716
239.911	258.023
242.804	325.518
245.696	467.977
248.589	538.281
251.482	664.953
254.374	651.434
257.267	667.197
260.16	682.398
263.052	636.365
265.945	578.048
268.838	539.09
271.731	409.97
274.623	420.303
277.516	425.385
280.409	487.953
283.301	477.647
286.194	487.816
289.087	432.359
291.979	423.55
294.872	463.131
297.765	512.176
300.658	585.782
303.55	706.596
306.443	768.889
309.336	720.5
312.228	709.932
315.121	590.307
318.014	420.204
320.906	421.829
323.799	346.471
326.692	399.946
329.584	433.682
332.477	535.951
335.37	613.034
338.262	632.744
341.155	655.694
344.048	692.282
346.941	707.18
349.833	731.021
352.726	720.469
355.619	681.137
358.511	592.674
361.404	499.413
364.297	330.182
367.19	285.742
370.082	148.253
372.975	106.244
375.868	106.475
378.76	50.584
381.653	66.9856
384.546	26.4697
387.438	18.0637
390.331	10.3599
393.224	7.42334
396.116	31.0754
399.009	44.1065
401.902	24.7698
404.795	23.9963
407.687	6.73486
410.58	63.4487
413.473	103.131
416.365	149.895
419.258	229.125
422.151	266.466
425.043	384.799
427.936	547.286
430.829	703.688
433.722	881.041
436.614	985.731
439.507	1037.17
442.4	937.665
445.292	754.578
448.185	552.34
451.078	373.254
453.971	282.962
456.863	213.557
459.756	193.723
462.649	185.898
465.541	136.16
468.434	114.12
471.327	99.9575
474.219	78.8474
477.112	89.4114
480.005	109.951
482.898	133.8
485.79	203.53
488.683	233.221
491.576	333.928
494.468	386.676
497.361	477.682
500.254	587.146
503.147	647.769
506.039	719.307
508.932	711.825
511.825	690.506
514.717	642.57
517.61	526.471
520.503	446.463
523.395	351.62
526.288	293.369
529.181	247.187
532.073	177.571
534.966	94.5742
537.859	94.0229
540.752	48.7788
543.644	1.37353
546.537	9.86206
549.43	1.00757
552.322	8.5498
555.215	10.6338
558.108	27.5801
561	23.302
563.893	8.97021
566.786	45.574
569.678	22.9502
572.571	25.9031
575.464	14.2214
578.357	11.1589
581.249	54.8955
584.142	128.738
587.035	209.185
589.927	305.618
592.82	447.427
595.713	611.689
598.606	694.806
601.498	793.019
604.391	820.837
607.284	882.549
610.176	881.659
613.069	842.861
615.962	878.024
618.854	819.489
621.747	796.037
624.64	791.914
627.533	657.591
630.425	600.203
633.318	448.806
636.211	396.365
639.103	347.831
641.996	283.537
644.889	281.649
647.781	328.451
650.674	360.545
653.567	378.623
656.46	462.755
659.352	455.005
662.245	580.573
665.138	614.702
668.03	810.41
670.923	946.705
673.816	1105.1
676.708	1225.19
679.601	1191.43
682.494	1110.07
685.386	960.699
688.279	833.331
691.172	673.434
694.065	527.36
696.957	445.703
699.85	343.324
702.743	276.391
705.635	280.513
708.528	219.978
711.421	205.754
714.313	209.169
717.206	195.342
720.099	176.16
722.992	163.216
725.884	121.21
728.777	60.2761
731.67	110.43
734.562	78.4531
737.455	102.902
740.348	48.7012
743.24	18.707
746.133	35.2554
749.026	14.6138
751.919	28.1536
754.811	16.1592
757.704	5.96631
760.597	23.9585
763.489	7.27222
766.382	24.4443
769.275	10.1621
772.168	5.98364
775.06	8.80786
777.953	56.4263
780.846	41.6187
783.738	49.7881
786.631	14.2748
789.524	68.796
792.416	49.8508
795.309	105.796
798.202	40.4381
801.095	106.888
803.987	81.4746
806.88	80.1021
809.773	72.9273
812.665	64.244
815.558	74.7894
818.451	29.1472
821.343	64.616
824.236	78.0676
827.129	34.4441
830.021	58.0306
832.914	36.5306
835.807	28.4465
838.7	43.4529
841.592	7.07935
844.485	25.1443
847.378	19.1697
850.27	3.12207
853.163	20.9503
856.056	33.3423
858.948	6.64002
861.841	47.9524
864.734	20.3625
867.627	49.328
870.519	56.5745
873.412	55.5527
876.305	90.2682
879.197	127.636
882.09	179.495
884.983	201.578
887.875	262.509
890.768	319.992
893.661	301.842
896.554	276.662
899.446	225.908
902.339	224.022
905.232	169.44
908.125	177.885
911.017	160.238
913.91	124.486
916.803	112.524
919.695	71.7358
922.588	57.8152
925.481	1.09534
928.373	12.7413
931.266	1.1499
934.159	36.8053
937.052	19.1189
939.944	6.72217
942.837	5.3385
945.73	31.2909
948.622	22.3787
951.515	54.6399
954.408	50.59
957.3	113.933
960.193	135.535
963.086	194.239
965.979	197.599
968.871	270.062
971.764	280.418
974.657	238.416
977.549	192.271
980.442	145.11
983.335	56.1696
986.227	46.2443
989.12	32.3105
992.013	6.71484
994.905	6.62683
997.798	30.6577
1000.69	8.00806
1003.58	12.4641
1006.48	11.3638
1009.37	31.4477
1012.26	46.1951
1015.15	61.3699
1018.05	70.1708
1020.94	118.735
1023.83	149.959
1026.72	152.344
1029.62	167.756
1032.51	193.838
1035.4	252.028
1038.3	234.698
1041.19	275.89
1044.08	268.706
1046.97	261.84
1049.87	345.913
1052.76	346.576
1055.65	378.188
1058.55	486.456
1061.44	419.921
1064.33	341.66
1067.22	253.242
1070.12	117.101
1073.01	89.4956
1075.9	28.0544
1078.79	5.96643
1081.69	10.1682
1084.58	18.6761
1087.47	1.57666
1090.37	19.6869
1093.26	7.64722
1096.15	81.3782
1099.04	51.9408
1101.93	124.864
1104.83	168.378
1107.72	205.835
1110.61	380.018
1113.51	547.901
1116.4	729.182
1119.29	919.58
1122.18	892.379
1125.08	627.971
1127.97	418.07
1130.86	224.822
1133.76	139.457
1136.65	68.5796
1139.54	55.2683
1142.43	68.7222
1145.33	31.3143
1148.22	43.0436
1151.11	39.6931
1154	24.6527
1156.9	37.3757
1159.79	49.089
1162.68	48.105
1165.58	60.5549
1168.47	73.5762
1171.36	44.1309
1174.25	6.33899
1177.15	59.5885
1180.04	110.157
1182.93	91.9712
1185.82	132.284
1188.72	136.748
1191.61	168.756
1194.5	194.181
1197.39	221.193
1200.29	234.483
1203.18	224.128
1206.07	246.785
1208.96	232.483
1211.86	254.006
1214.75	215.204
1217.64	193.047
1220.54	145.055
1223.43	126.347
1226.32	90.1593
1229.21	47.2095
1232.11	11.8825
1235	32.0868
1237.89	7.70471
1240.79	6.62109
1243.68	14.2563
