Measurement: Raman, 532 nm, unoriented, Raman Data Processed
Mineral: Strontioginorite
Rruff sample: R110149
Ideal chemistry: SrCaB_14_O_20_(OH)_6_5H_2_O
Locality: Potash Corporation of Saskatchewan mine, Penobsquis, Kings County, New Brunswick, Canada
Source: Donald M Doell and Brian Roulston
Description: Colorless elongated tetragonal prisms, extracted by dissolving the matrix of sylvite/halite, associated with howlite R110150, volkovskite R110151, ruitenbergite R110152, congolite R110153, and hilgardite
Raman shift (cm-1)	intensity
185.469	0
188.362	21.1129
191.255	25.9153
194.147	14.555
197.04	2.96313
199.933	2.16559
202.825	2.30838
205.718	15.5589
208.611	21.8749
211.504	33.8899
214.396	35.1823
217.289	45.4965
220.182	61.1412
223.074	91.8425
225.967	120.001
228.86	98.0407
231.752	67.8102
234.645	63.7882
237.538	72.1334
240.43	85.751
243.323	109.607
246.216	135.468
249.109	150.597
252.001	167.121
254.894	160.751
257.787	103.424
260.679	51.634
263.572	21.0624
266.465	8.11844
269.358	5.05807
272.25	1.45178
275.143	1.78262
278.036	4.69827
280.928	0.310181
283.821	0.746704
286.714	0.564453
289.606	2.63635
292.499	9.37924
295.392	7.47247
298.284	7.23163
301.177	2.21139
304.07	3.2843
306.963	2.59039
309.855	2.51623
312.748	0.289459
315.641	5.76776
318.533	12.7112
321.426	27.1497
324.319	47.8275
327.212	67.8277
330.104	70.2678
332.997	51.3315
335.89	35.3486
338.782	21.2332
341.675	3.64154
344.568	2.48956
347.46	2.93829
350.353	10.7391
353.246	21.8056
356.139	34.9731
359.031	58.1124
361.924	82.2922
364.817	109.824
367.709	152.139
370.602	198.867
373.495	236.752
376.387	218.456
379.28	151.81
382.173	87.9769
385.065	50.5837
387.958	30.4612
390.851	19.8364
393.744	13.8515
396.636	23.4762
399.529	42.7343
402.422	60.1002
405.314	88.7529
408.207	128.804
411.1	163.649
413.993	145.032
416.885	133.913
419.778	155.81
422.671	196.797
425.563	190.746
428.456	114.953
431.349	78.3553
434.241	90.1687
437.134	102.736
440.027	126.872
442.92	193.365
445.812	269.36
448.705	313.7
451.598	298.009
454.49	190.101
457.383	93.6739
460.276	53.4276
463.168	39.2512
466.061	30.7171
468.954	12.8712
471.846	1.75903
474.739	7.96765
477.632	6.55347
480.525	0.021851
483.417	14.8823
486.31	34.5046
489.203	52.4543
492.095	47.3933
494.988	27.0743
497.881	15.7117
500.774	10.7055
503.666	10.1471
506.559	13.8713
509.452	11.593
512.344	6.75836
515.237	5.47617
518.13	5.21579
521.022	6.06607
523.915	13.5642
526.808	15.9533
529.701	21.9604
532.593	22.7442
535.486	19.1634
538.379	14.0181
541.271	6.01718
544.164	3.2359
547.057	3.98798
549.949	7.65213
552.842	8.52237
555.735	3.01794
558.628	2.14581
561.52	3.03238
564.413	3.60211
567.306	0.843109
570.198	0.898346
573.091	6.26184
575.984	11.4514
578.876	19.0809
581.769	29.6744
584.662	31.3977
587.554	29.5283
590.447	23.2462
593.34	21.5976
596.232	29.3718
599.125	40.8971
602.018	52.8851
604.911	68.4162
607.803	84.6132
610.696	72.7194
613.589	47.8175
616.481	35.5882
619.374	36.5565
622.267	43.9036
625.159	49.0607
628.052	51.4331
630.945	63.4088
633.838	89.702
636.73	96.558
639.623	94.4797
642.516	112.237
645.408	137.07
648.301	154.707
651.194	134.563
654.087	90.5676
656.979	60.6754
659.872	53.0076
662.765	59.0192
665.657	66.885
668.55	57.5906
671.443	43.7181
674.335	34.2777
677.228	26.6267
680.121	17.2465
683.014	12.573
685.906	3.63272
688.799	0.525787
691.692	2.14035
694.584	2.72067
697.477	0.953613
700.37	2.17773
703.263	0.356964
706.155	3.5065
709.048	7.92001
711.941	9.54755
714.833	11.1601
717.726	14.2845
720.619	20.1436
723.511	25.7816
726.404	41.1851
729.297	68.3792
732.189	98.195
735.082	142.839
737.975	203.099
740.868	228.872
743.76	148.902
746.653	64.2934
749.546	19.6652
752.438	5.35263
755.331	1.00201
758.224	2.67398
761.116	2.44284
764.009	16.9013
766.902	43.3592
769.795	87.2178
772.687	153.662
775.58	242.558
778.473	240.878
781.365	142.642
784.258	75.8571
787.151	38.3296
790.043	15.2045
792.936	4.36795
795.829	0.443604
798.722	0.080994
801.614	0.767395
804.507	1.19379
807.4	10.5604
810.292	18.8284
813.185	21.5363
816.078	32.6218
818.971	53.88
821.863	89.5808
824.756	137.619
827.649	193.598
830.541	199.525
833.434	127.045
836.327	71.526
839.219	42.9398
842.112	34.1981
845.005	29.4081
847.898	34.388
850.79	40.2794
853.683	49.948
856.576	59.2906
859.468	69.9138
862.361	75.812
865.254	75.9847
868.146	70.0748
871.039	54.9288
873.932	45.3016
876.824	36.6387
879.717	28.9706
882.61	24.3746
885.503	19.1747
888.395	18.1891
891.288	14.8849
894.181	11.807
897.073	11.6692
899.966	9.75851
902.859	1.31079
905.751	1.50528
908.644	0.562225
911.537	2.01623
914.43	0.271606
917.322	1.72617
920.215	0.446167
923.108	2.01303
926	0.000824
928.893	5.92837
931.786	4.03986
934.678	5.77432
937.571	10.2239
940.464	21.0867
943.357	29.2695
946.249	30.8102
949.142	23.95
952.035	13.5448
954.927	3.78406
957.82	0.09314
960.713	0.318878
963.606	3.79999
966.498	5.69257
969.391	6.28155
972.284	2.19019
975.176	1.48685
978.069	1.98465
980.962	5.5343
983.854	5.5462
986.747	9.39941
989.64	19.7998
992.533	25.8821
995.425	28.1168
998.318	41.6961
1001.21	61.9701
1004.1	95.4715
1007	134.338
1009.89	149.547
1012.78	132.14
1015.67	99.36
1018.57	70.5033
1021.46	53.817
1024.35	39.1486
1027.24	30.5511
1030.14	27.0728
1033.03	24.6818
1035.92	28.5865
1038.82	30.5444
1041.71	30.6918
1044.6	26.7479
1047.49	20.8348
1050.39	18.0792
1053.28	12.7191
1056.17	11.3804
1059.07	3.80707
1061.96	3.43201
1064.85	1.29089
1067.74	0.472107
1070.63	0.767212
1073.53	1.09888
1076.42	0.155029
1079.31	1.82764
1082.21	0.255676
1085.1	1.89917
1087.99	0.483704
1090.88	0.14325
1093.78	1.27649
1096.67	2.09607
1099.56	3.54675
1102.45	1.73682
1105.35	4.44702
1108.24	8.12994
1111.13	10.5463
1114.03	10.6622
1116.92	7.66364
1119.81	8.13007
1122.7	4.99023
1125.6	1.5329
1128.49	0.566162
1131.38	0.888916
1134.28	0.741333
1137.17	2.75342
1140.06	5.95044
1142.95	4.48053
1145.85	9.80579
1148.74	10.8369
1151.63	18.6258
1154.52	20.3953
1157.42	24.9509
1160.31	29.3057
1163.2	29.432
1166.09	29.8826
1168.99	27.9824
1171.88	28.5022
1174.77	29.4606
1177.66	27.6146
1180.56	22.9528
1183.45	18.4663
1186.34	18.5773
1189.24	11.2655
1192.13	10.7877
1195.02	4.69629
1197.91	6.04297
1200.81	3.46326
1203.7	5.39551
1206.59	8.02356
1209.48	2.99127
1212.38	4.46576
1215.27	3.11493
1218.16	0.333862
1221.06	0.362549
1223.95	2.64813
1226.84	1.08814
1229.73	0.197021
1232.63	3.08441
1235.52	0.310364
1238.41	1.20996
1241.31	4.09839
1244.2	4.58582
1247.09	4.46509
1249.98	2.14655
1252.88	4.20575
1255.77	1.96728
1258.66	3.77124
1261.55	3.86963
1264.45	4.06146
1267.34	4.05164
1270.23	3.91211
1273.12	2.18915
1276.02	1.1026
1278.91	2.62775
1281.8	0.081848
1284.69	2.12921
1287.59	2.64771
1290.48	3.33545
1293.37	2.90027
1296.27	3.6875
1299.16	0.818359
1302.05	1.39612
