Measurement: Raman, 780 nm, unoriented, Raman Data Processed
Mineral: Strontianite
Rruff sample: R040037
Ideal chemistry: SrCO_3_
Locality: Alston Moor, Cumbria, England
Source: University of Arizona Mineral Museum
Description: Group of tan colored crystals
Measured chemistry: (Sr_0.91_Ca_0.09_)_Î£=1_CO_3_; CO_2_ estimated by difference
Raman shift (cm-1)	intensity
132.057	0
134.95	12.839
137.843	89.7856
140.735	221.537
143.628	432.008
146.521	747.819
149.413	828.482
152.306	394.469
155.199	140.457
158.091	95.3686
160.984	136.248
163.877	204.923
166.77	307.068
169.662	483.958
172.555	752.965
175.448	1059.88
178.34	1450.92
181.233	1816.01
184.126	1602.95
187.018	871.312
189.911	361.201
192.804	142.756
195.697	60.7834
198.589	29.8099
201.482	5.65862
204.375	10.7414
207.267	16.0589
210.16	14.2154
213.053	8.52478
215.946	7.95685
218.838	16.209
221.731	20.5523
224.624	36.2116
227.516	58.431
230.409	91.3986
233.302	140.864
236.194	214.053
239.087	257.36
241.98	266.911
244.873	303.931
247.765	307.31
250.658	256.609
253.551	194.245
256.443	166.875
259.336	174.16
262.229	167.077
265.121	119.413
268.014	77.8344
270.907	50.0885
273.8	34.4304
276.692	26.5574
279.585	20.43
282.478	16.6269
285.37	13.4887
288.263	10.8794
291.156	9.86506
294.048	7.91098
296.941	6.95094
299.834	5.80402
302.726	5.63534
305.619	5.93691
308.512	3.77048
311.405	4.05368
314.297	3.81702
317.19	2.81614
320.083	0.189156
322.975	1.87251
325.868	1.38744
328.761	1.05547
331.654	1.03832
334.546	2.09565
337.439	1.53614
340.332	0.628685
343.224	1.36211
346.117	0.83503
349.01	0.099098
351.902	1.13281
354.795	0.863632
357.688	0.224243
360.58	0.547714
363.473	0.436508
366.366	0.12236
369.259	0.270584
372.151	0.254112
375.044	1.05051
377.937	0.391571
380.829	0.019745
383.722	1.13199
386.615	0.475647
389.507	0.495651
392.4	0.870438
395.293	0.750565
398.185	1.08607
401.078	0.75074
403.971	1.27701
406.864	0.83168
409.756	1.53618
412.649	1.31015
415.542	2.88631
418.434	2.10688
421.327	2.24538
424.22	2.46958
427.113	1.80804
430.005	4.06191
432.898	3.03793
435.791	3.26971
438.683	2.8677
441.576	2.73896
444.469	2.13953
447.361	1.63037
450.254	1.68455
453.147	1.07109
456.039	1.27261
458.932	1.6425
461.825	0.086975
464.718	1.07754
467.61	1.13237
470.503	1.41572
473.396	1.67333
476.288	0.977745
479.181	1.03966
482.074	1.00175
484.966	1.33267
487.859	0.782211
490.752	1.77051
493.645	0.876015
496.537	1.02968
499.43	0.169182
502.323	1.66389
505.215	1.19503
508.108	1.40649
511.001	0.588844
513.894	1.32587
516.786	0.825623
519.679	1.87559
522.572	1.53192
525.464	0.842171
528.357	1.25826
531.25	1.44823
534.142	1.83316
537.035	0.184509
539.928	0.206055
542.821	1.83789
545.713	0.478836
548.606	0.693398
551.499	0.993221
554.391	1.77416
557.284	0.520065
560.177	1.07006
563.069	0.767841
565.962	0.06501
568.855	0.239582
571.747	0.443817
574.64	0.218273
577.533	1.05266
580.426	1.19665
583.318	0.133438
586.211	1.1733
589.104	0.246094
591.996	0.964073
594.889	0.317085
597.782	1.08973
600.674	0.59103
603.567	0.548615
606.46	0.83902
609.352	0.907005
612.245	0.393246
615.138	1.53686
618.031	0.509705
620.923	0.592979
623.816	1.58314
626.709	0.175098
629.601	0.786678
632.494	0.87706
635.387	0.10479
638.279	1.11959
641.172	0.91906
644.065	0.771999
646.958	0.637905
649.85	0.498302
652.743	0.829781
655.636	0.537575
658.528	0.520065
661.421	1.14376
664.314	0.678383
667.207	0.824162
670.099	1.52507
672.992	2.00168
675.885	3.3915
678.777	11.9162
681.67	29.0739
684.563	51.4354
687.455	70.3926
690.348	103.268
693.241	192.095
696.134	404.531
699.026	534.375
701.919	380.344
704.812	94.8563
707.704	43.8987
710.597	51.527
713.49	25.5941
716.382	2.88776
719.275	1.5399
722.168	0.671375
725.061	0.671474
727.953	1.00596
730.846	1.10096
733.739	0.410492
736.631	1.50531
739.524	0.45274
742.417	0.169266
745.309	0.379879
748.202	0.110283
751.095	0.884323
753.987	0.383446
756.88	0.292404
759.773	0.17292
762.666	0.549088
765.558	0.358864
768.451	0.237782
771.344	0.464985
774.236	0.791523
777.129	0.710674
780.022	0.399776
782.914	0.03167
785.807	0.044868
788.7	1.1451
791.593	0.281269
794.485	0.332268
797.378	0.306721
800.271	0.218002
803.163	1.92553
806.056	1.67346
808.949	1.11653
811.841	1.30059
814.734	0.464714
817.627	0.894749
820.52	0.810074
823.412	1.4975
826.305	0.540325
829.198	1.76365
832.09	1.45031
834.983	1.08829
837.876	0.933804
840.769	1.37828
843.661	1.5229
846.554	1.9626
849.447	1.82899
852.339	3.13371
855.232	4.96788
858.125	1.82638
861.017	2.15108
863.91	1.55258
866.803	1.80081
869.696	1.43763
872.588	1.12911
875.481	1.55245
878.374	2.37629
881.266	1.0605
884.159	1.02539
887.052	1.29439
889.944	0.626476
892.837	1.02573
895.73	0.94474
898.622	1.07295
901.515	0.308514
904.408	0.025089
907.301	0.127216
910.193	0.502682
913.086	0.986027
915.979	0.435497
918.871	1.67968
921.764	1.47411
924.657	1.29829
927.549	0.794186
930.442	0.784054
933.335	0.175686
936.227	0.428162
939.12	0.952541
942.013	0.713352
944.906	0.245159
947.798	0.102074
950.691	0.607475
953.584	0.762436
956.476	0.33823
959.369	0.389503
962.262	0.454395
965.154	0.251663
968.047	0.959919
970.94	0.216652
973.833	0.016338
976.725	0.012402
979.618	1.18831
982.511	0.522385
985.403	0.25816
988.296	0.189011
991.189	0.123425
994.082	0.874371
996.974	0.473881
999.867	0.991985
1002.76	1.05028
1005.65	1.18745
1008.54	0.264206
1011.44	0.237637
1014.33	0.429695
1017.22	1.43557
1020.12	0.088455
1023.01	1.54001
1025.9	0.788937
1028.79	1.05117
1031.69	1.36644
1034.58	2.15471
1037.47	3.60342
1040.37	4.61347
1043.26	6.28223
1046.15	11.7036
1049.04	25.8709
1051.94	20.2652
1054.83	28.0929
1057.72	98.2897
1060.61	376.387
1063.51	422.706
1066.4	739.762
1069.29	1327.23
1072.18	3750.47
1075.08	1968.44
1077.97	112.076
1080.86	33.5678
1083.76	17.9297
1086.65	10.3082
1089.54	7.29839
1092.43	5.252
1095.33	3.59407
1098.22	3.10473
1101.11	2.68752
1104	1.79077
1106.9	0.447861
1109.79	1.79291
1112.68	0.906837
1115.58	0.670002
1118.47	1.02831
1121.36	0.178768
1124.25	0.739246
1127.15	0.184319
1130.04	0.421288
1132.93	0.01033
1135.82	0.125015
1138.72	0.270538
1141.61	0.432014
1144.5	1.07895
1147.39	0.846233
1150.29	1.24498
1153.18	2.3671
1156.07	2.64458
1158.96	3.91086
1161.86	4.9628
1164.75	5.88065
1167.64	5.7909
1170.54	6.63962
1173.43	7.29235
1176.32	8.13663
1179.21	8.30154
1182.11	7.79349
1185	7.56
1187.89	6.09043
1190.79	5.2182
1193.68	4.49548
1196.57	3.80183
1199.46	3.07082
1202.36	2.28347
1205.25	2.29891
1208.14	1.50843
1211.03	0.461376
1213.93	0.554554
1216.82	0.260479
1219.71	1.31237
1222.61	0.499695
1225.5	0.452732
1228.39	0.320641
1231.28	0.850739
1234.18	0.601067
1237.07	0.620319
1239.96	1.16231
1242.85	1.51239
1245.75	2.07178
1248.64	1.11967
1251.53	0.29715
1254.42	1.51249
1257.32	0.627415
1260.21	1.18149
1263.1	0.941166
1265.99	0.057232
1268.89	0
