Measurement: Raman, 532 nm, unoriented, Raman Data Processed
Mineral: Strontianite
Rruff sample: R040037
Ideal chemistry: SrCO_3_
Locality: Alston Moor, Cumbria, England
Source: University of Arizona Mineral Museum
Description: Group of tan colored crystals
Measured chemistry: (Sr_0.91_Ca_0.09_)_Î£=1_CO_3_; CO_2_ estimated by difference
Raman shift (cm-1)	intensity
126.499	0
129.874	55.1602
133.248	184.789
136.623	357.137
139.998	645.88
143.373	1122.14
146.748	1952.62
150.123	2319.05
153.497	1045.56
156.872	376.172
160.247	234.296
163.622	269.384
166.997	436.017
170.371	724.957
173.746	1079.55
177.121	1388.18
180.496	1826.94
183.871	2122.27
187.245	1554.74
190.62	625.833
193.995	219.355
197.37	85.8029
200.745	37.7766
204.119	6.12323
207.494	28.7209
210.869	32.76
214.244	16.014
217.619	15.0211
220.994	8.94165
224.368	10.8308
227.743	39.5723
231.118	85.3448
234.493	157.485
237.868	255.673
241.243	329.082
244.617	442.617
247.992	570.767
251.367	569.727
254.742	453.108
258.117	438.207
261.491	487.581
264.866	377.461
268.241	217.929
271.616	121.937
274.991	81.3928
278.365	62.9428
281.74	41.2289
285.115	27.1668
288.49	23.5059
291.865	21.6078
295.24	13.2683
298.614	13.1949
301.989	4.48105
305.364	9.82678
308.739	2.86307
312.114	2.64206
315.488	6.81564
318.863	4.19428
322.238	3.0228
325.613	4.77753
328.988	1.64307
332.363	2.58264
335.737	4.75244
339.112	2.82776
342.487	3.87408
345.862	3.15387
349.237	1.89893
352.611	1.23901
355.986	2.22778
359.361	2.37976
362.736	3.85785
366.111	8.44537
369.486	0.234192
372.86	1.96875
376.235	0.580017
379.61	0.80957
382.985	3.20673
386.36	0.203552
389.734	3.66504
393.109	1.32941
396.484	1.22498
399.859	2.28717
403.234	3.27832
406.608	4.32562
409.983	3.87329
413.358	2.1767
416.733	5.59772
420.108	2.57886
423.483	8.93164
426.857	8.58618
430.232	4.95075
433.607	6.11847
436.982	8.17682
440.357	4.78876
443.731	6.961
447.106	2.47583
450.481	2.28699
453.856	3.90741
457.231	9.40015
460.606	0.928162
463.98	5.7406
467.355	0.56781
470.73	8.88415
474.105	7.10254
477.48	6.50348
480.854	6.55005
484.229	1.11591
487.604	6.36798
490.979	4.03827
494.354	4.73016
497.728	3.69824
501.103	0.400452
504.478	7.27411
507.853	1.53198
511.228	4.34582
514.603	10.8473
517.977	5.4718
521.352	6.28998
524.727	4.99695
528.102	5.24139
531.477	6.60742
534.851	13.0118
538.226	4.3172
541.601	7.63678
544.976	5.77564
548.351	3.70312
551.726	4.31946
555.1	0.738159
558.475	4.46002
561.85	7.32843
565.225	10.7281
568.6	2.7721
571.975	2.60724
575.349	2.26184
578.724	6.08167
582.099	4.88409
585.474	5.50146
588.848	3.20312
592.223	4.28619
595.598	2.1568
598.973	7.37579
602.348	8.28101
605.723	4.00336
609.097	1.96808
612.472	2.56287
615.847	6.59936
619.222	0.412354
622.597	4.0769
625.971	1.75006
629.346	0.352661
632.721	7.31305
636.096	3.64154
639.471	1.26019
642.846	0.001221
646.22	2.42639
649.595	2.67114
652.97	1.89215
656.345	0.578857
659.72	4.15442
663.095	5.79993
666.469	5.44367
669.844	4.52167
673.219	1.55145
676.594	9.87018
679.969	23.6799
683.343	66.1182
686.718	147.106
690.093	262.831
693.468	542.806
696.843	1170.43
700.217	1502.13
703.592	789.398
706.967	148.353
710.342	82.1847
713.717	48.0907
717.092	13.0457
720.466	10.779
723.841	3.93463
727.216	3.95483
730.591	2.90704
733.966	3.23657
737.341	2.80676
740.715	2.12176
744.09	2.63483
747.465	2.63861
750.84	3.70636
754.215	5.258
757.589	1.65009
760.964	4.2348
764.339	6.84888
767.714	6.17584
771.089	3.07202
774.463	6.07501
777.838	2.74469
781.213	6.52063
784.588	3.46942
787.963	2.63135
791.337	5.90204
794.712	4.52936
798.087	6.72754
801.462	8.82111
804.837	9.41644
808.212	0.246277
811.586	3.88037
814.961	5.91461
818.336	7.67993
821.711	8.03247
825.086	12.3784
828.46	3.16193
831.835	4.21472
835.21	6.75177
838.585	5.37176
841.96	4.22424
845.335	8.30749
848.709	4.09399
852.084	4.19922
855.459	9.4223
858.834	14.7509
862.209	9.30279
865.583	5.66205
868.958	3.69696
872.333	8.32257
875.708	9.55072
879.083	8.79449
882.457	4.43604
885.832	9.73645
889.207	9.50793
892.582	1.5495
895.957	4.13708
899.332	7.29401
902.706	3.04462
906.081	1.38171
909.456	6.42334
912.831	4.14728
916.206	0.141479
919.581	8.39416
922.955	5.05335
926.33	6.04639
929.705	7.34924
933.08	7.42261
936.455	7.05383
939.829	0.062744
943.204	4.25494
946.579	0.313782
949.954	7.64783
953.329	0.637207
956.703	2.89075
960.078	2.46344
963.453	3.80072
966.828	1.81988
970.203	5.87921
973.578	5.6015
976.952	7.29285
980.327	2.51556
983.702	7.03784
987.077	8.88001
990.452	1.23731
993.826	2.37366
997.201	2.2533
1000.58	1.91052
1003.95	4.40869
1007.33	3.51092
1010.7	1.41852
1014.08	10.6971
1017.45	8.76947
1020.83	9.18732
1024.2	11.8237
1027.58	11.5855
1030.95	7.97803
1034.32	7.13373
1037.7	8.99774
1041.07	24.8864
1044.45	30.2717
1047.82	58.7762
1051.2	91.6827
1054.57	43.8073
1057.95	108.644
1061.32	628.64
1064.7	1392.53
1068.07	2799.7
1071.45	7041.98
1074.82	13443.9
1078.2	520.268
1081.57	105.885
1084.95	51.0879
1088.32	24.5267
1091.7	21.4708
1095.07	9.82343
1098.45	13.8104
1101.82	8.45935
1105.19	5.75745
1108.57	1.08148
1111.94	0.517944
1115.32	1.84137
1118.69	2.20557
1122.07	3.33398
1125.44	10.0491
1128.82	1.4967
1132.19	1.66266
1135.57	6.29529
1138.94	3.42047
1142.32	3.84204
1145.69	1.44128
1149.07	9.8739
1152.44	6.54797
1155.82	6.65308
1159.19	8.45056
1162.57	5.85083
1165.94	6.84509
1169.32	8.79163
1172.69	8.19531
1176.07	6.63745
1179.44	5.67236
1182.82	5.51526
1186.19	13.1344
1189.57	1.12842
1192.94	1.37085
1196.32	0.186523
1199.69	5.39856
1203.07	7.85998
1206.44	2.4585
1209.82	2.03418
1213.19	2.06714
1216.56	10.7936
1219.94	7.38769
1223.31	9.83679
1226.69	14.0115
1230.06	9.42188
1233.44	4.53699
1236.81	9.69128
1240.19	10.38
1243.56	7.10962
1246.94	8.12354
1250.31	7.65149
1253.69	8.42212
1257.06	4.73254
1260.44	6.02966
1263.81	14.1366
1267.19	6.15002
1270.56	2.58008
1273.94	11.1748
1277.31	6.72595
1280.69	5.71179
1284.06	6.81067
1287.43	7.73498
1290.81	8.67883
