Measurement: Raman, 532 nm, unoriented, Raman Data Processed
Mineral: Strontiojoaquinite
Rruff sample: R060331
Ideal chemistry: (Na,Fe)_2_Ba_2_Sr_2_Ti_2_(SiO_3_)_8_(O,OH)_2_H_2_O
Locality: Mina Numero Uno, San Benito County, California, USA
Source: Michael Scott
Description: Pale yellow tapering pseudotetragonal prisms
Measured chemistry: (Na_1.00_Fe_0.69_Zn_0.20_Mn_0.11_)_Σ=2_Ba_2.00_(Sr_1.89_Ba_0.08_Ca_0.03_)_Σ=2_Ti_2.00_Si_8.00_O_24_(O_1.00_(OH)_1.00_)_Σ=2_·1.50H_2_O; OH estimated by charge balance
Raman shift (cm-1)	intensity
142.922	0
146.297	0.275024
149.672	8.31988
153.046	16.7738
156.421	32.0713
159.796	43.4865
163.171	61.8502
166.546	88.4794
169.921	115.055
173.295	131.21
176.67	129.101
180.045	147.468
183.42	187.352
186.795	216.616
190.169	211.932
193.544	194.912
196.919	158.325
200.294	114.277
203.669	87.0512
207.043	62.7556
210.418	28.2827
213.793	4.06604
217.168	6.23224
220.543	11.9733
223.918	21.54
227.292	14.3896
230.667	4.22253
234.042	33.949
237.417	82.5508
240.792	133.91
244.167	191.483
247.541	226.323
250.916	236.641
254.291	226.878
257.666	223.249
261.041	213.851
264.415	217.837
267.79	221.252
271.165	221.877
274.54	230.998
277.915	250.146
281.289	271.109
284.664	281.521
288.039	280.342
291.414	279.11
294.789	272.604
298.163	254.444
301.538	226.907
304.913	192.163
308.288	169.77
311.663	149.52
315.038	123.395
318.412	94.5264
321.787	74.1141
325.162	78.9392
328.537	108.064
331.912	149.868
335.286	194.437
338.661	242.545
342.036	281.74
345.411	310.803
348.786	334.445
352.161	339.191
355.535	324.513
358.91	296.117
362.285	263.276
365.66	233.905
369.035	208.136
372.409	182.297
375.784	146.652
379.159	122.951
382.534	103.987
385.909	78.1274
389.284	43.8198
392.658	0.283569
396.033	22.7589
399.408	33.6049
402.783	12.1427
406.158	10.6511
409.532	29.9852
412.907	52.2321
416.282	85.2249
419.657	108.941
423.032	142.131
426.406	181.51
429.781	238.939
433.156	316.179
436.531	394.284
439.906	399.254
443.281	322.251
446.655	235.201
450.03	178.464
453.405	143.792
456.78	120.73
460.155	106.881
463.529	96.8956
466.904	86.2568
470.279	62.0372
473.654	48.1628
477.029	45.3859
480.404	59.4575
483.778	75.0641
487.153	97.6254
490.528	121.362
493.903	146.755
497.278	158.376
500.652	173.351
504.027	195.145
507.402	204.398
510.777	201.123
514.152	187.677
517.527	169.273
520.901	136.751
524.276	105.388
527.651	73.8207
531.026	42.0755
534.401	20.7532
537.775	6.57983
541.15	0.8974
544.525	5.01953
547.9	7.08521
551.275	4.46118
554.649	1.98114
558.024	3.37659
561.399	5.052
564.774	13.3215
568.149	16.3402
571.524	17.645
574.898	3.7428
578.273	16.6691
581.648	49.9442
585.023	95.4
588.398	153.76
591.773	217.498
595.147	293.566
598.522	360.017
601.897	406.428
605.272	440.026
608.647	470.611
612.021	505.44
615.396	536.739
618.771	560.549
622.146	555.477
625.521	518.693
628.895	461.461
632.27	400.84
635.645	340.881
639.02	286.799
642.395	242.404
645.77	218.95
649.144	228.22
652.519	246.561
655.894	288.08
659.269	330.297
662.644	374.296
666.019	420.19
669.393	477.83
672.768	543.444
676.143	585.809
679.518	580.615
682.893	512.89
686.267	416.057
689.642	320.742
693.017	250.441
696.392	187.794
699.767	135.571
703.141	102.683
706.516	81.9297
709.891	82.9613
713.266	89.906
716.641	103.913
720.015	119.476
723.39	129.248
726.765	127.204
730.14	109.913
733.515	78.8319
736.89	49.0496
740.264	29.1852
743.639	9.87183
747.014	3.4306
750.389	9.99255
753.764	16.5394
757.139	14.7161
760.513	13.9697
763.888	6.28375
767.263	2.41229
770.638	1.96643
774.013	6.95276
777.387	14.2258
780.762	21.1953
784.137	27.9358
787.512	29.236
790.887	32.1592
794.261	33.2506
797.636	34.4302
801.011	37.5502
804.386	39.0953
807.761	37.4009
811.136	29.8834
814.51	31.4822
817.885	24.828
821.26	16.8699
824.635	10.3806
828.01	3.60358
831.385	1.92639
834.759	2.50391
838.134	1.64941
841.509	1.96863
844.884	1.07568
848.259	0.438049
851.633	4.02594
855.008	8.58606
858.383	17.2705
861.758	29.0402
865.133	44.8815
868.507	72.5508
871.882	106.031
875.257	153.912
878.632	215.73
882.007	280.728
885.381	342.175
888.756	388.975
892.131	398.632
895.506	374.269
898.881	325.871
902.256	282.78
905.63	248.772
909.005	214.555
912.38	180.398
915.755	144.014
919.13	121.042
922.505	116.175
925.879	110.59
929.254	106.972
932.629	92.8074
936.004	79.5453
939.379	72.1444
942.753	84.0008
946.128	97.6011
949.503	125.956
952.878	160.549
956.253	205.916
959.627	254.04
963.002	293.422
966.377	309.95
969.752	305.299
973.127	280.748
976.501	236.666
979.876	174.45
983.251	112.945
986.626	59.8938
990.001	30.5747
993.376	12.5727
996.75	0.89093
1000.12	4.15265
1003.5	7.16443
1006.88	5.18207
1010.25	4.34607
1013.62	3.19946
1017	13.9177
1020.37	33.4151
1023.75	54.7899
1027.12	73.0161
1030.5	89.0468
1033.87	90.9391
1037.25	105.268
1040.62	120.897
1044	137.789
1047.37	147.547
1050.75	159.195
1054.12	178.294
1057.5	196.385
1060.87	195.089
1064.25	156.487
1067.62	87.129
1071	41.3297
1074.37	13.6624
1077.75	2.61883
1081.12	0.96582
1084.5	1.87689
1087.87	9.64526
1091.24	19.4577
1094.62	31.2475
1097.99	60.1822
1101.37	97.1132
1104.74	154.39
1108.12	240.059
1111.49	348.196
1114.87	460.188
1118.24	540.838
1121.62	534.142
1124.99	384.641
1128.37	199.518
1131.74	95.2465
1135.12	46.3857
1138.49	20.0489
1141.87	9.06958
1145.24	4.03009
1148.62	1.77887
1151.99	0.938721
1155.37	1.20941
1158.74	0.38623
1162.12	1.23334
1165.49	2.29431
1168.87	0.983521
1172.24	5.56366
1175.62	5.7301
1178.99	6.68262
1182.37	6.96124
1185.74	6.68726
1189.12	9.83539
1192.49	11.153
1195.87	9.07318
1199.24	11.258
1202.61	10.8692
1205.99	12.316
1209.36	10.7653
1212.74	12.5679
1216.11	10.6974
1219.49	8.73084
1222.86	9.45142
1226.24	7.56067
1229.61	10.3838
1232.99	6.48773
1236.36	3.54217
1239.74	0.080505
1243.11	3.02716
1246.49	5.3858
1249.86	5.75104
1253.24	5.30585
1256.61	3.0509
1259.99	3.47046
1263.36	2.42871
1266.74	2.06305
1270.11	0.348328
1273.48	3.56378
1276.86	4.72375
1280.23	0.998169
1283.61	4.92352
1286.98	1.29529
1290.36	1.41809
1293.73	1.41248
1297.11	0.956421
1300.48	1.04883
1303.86	1.50513
