Measurement: Raman, 780 nm, unoriented, Raman Data Processed
Mineral: Strontiojoaquinite
Rruff sample: R060331
Ideal chemistry: (Na,Fe)_2_Ba_2_Sr_2_Ti_2_(SiO_3_)_8_(O,OH)_2_H_2_O
Locality: Mina Numero Uno, San Benito County, California, USA
Source: Michael Scott
Description: Pale yellow tapering pseudotetragonal prisms
Measured chemistry: (Na_1.00_Fe_0.69_Zn_0.20_Mn_0.11_)_Σ=2_Ba_2.00_(Sr_1.89_Ba_0.08_Ca_0.03_)_Σ=2_Ti_2.00_Si_8.00_O_24_(O_1.00_(OH)_1.00_)_Σ=2_·1.50H_2_O; OH estimated by charge balance
Raman shift (cm-1)	intensity
143.458	0
146.351	0.072632
149.243	0.537308
152.136	0.058273
155.029	2.25433
157.921	2.40225
160.814	4.93599
163.707	8.85027
166.6	12.6841
169.492	14.2236
172.385	17.5677
175.278	22.5241
178.17	25.9485
181.063	30.3014
183.956	31.636
186.848	31.6782
189.741	28.9567
192.634	23.0141
195.526	19.5922
198.419	13.2238
201.312	5.2149
204.205	2.00339
207.097	1.21112
209.99	0.491486
212.883	0.273956
215.775	1.70761
218.668	4.77469
221.561	10.8403
224.453	17.8777
227.346	28.3596
230.239	35.0204
233.132	43.2751
236.024	52.0447
238.917	59.5321
241.81	65.5311
244.702	67.9599
247.595	66.9898
250.488	62.6059
253.381	54.039
256.273	44.6936
259.166	38.1909
262.059	29.5243
264.951	21.2429
267.844	11.3331
270.737	2.94815
273.629	1.16968
276.522	5.95606
279.415	4.98767
282.308	3.90549
285.2	1.05215
288.093	0.276642
290.986	7.41818
293.878	15.3988
296.771	22.6794
299.664	27.6571
302.556	35.1278
305.449	45.1673
308.342	56.4388
311.235	67.3303
314.127	80.4687
317.02	90.2865
319.913	104.347
322.805	119.42
325.698	137.588
328.591	155.683
331.483	171.839
334.376	182.866
337.269	194.187
340.161	201.541
343.054	203.123
345.947	205.69
348.839	203.434
351.732	194.495
354.625	180.354
357.518	160.158
360.41	137.976
363.303	119.901
366.196	97.9446
369.088	78.2131
371.981	59.748
374.874	45.6594
377.767	35.4402
380.659	27.0984
383.552	24.5338
386.445	25.7928
389.337	27.3337
392.23	29.6316
395.123	33.213
398.015	37.2223
400.908	42.3717
403.801	45.5444
406.693	46.1112
409.586	47.181
412.479	45.5776
415.372	46.4515
418.264	46.9698
421.157	48.8219
424.05	51.6843
426.942	55.6284
429.835	58.4896
432.728	60.6401
435.62	63.7721
438.513	57.4931
441.406	42.0661
444.299	26.4624
447.191	12.2227
450.084	4.14056
452.977	1.71957
455.869	3.47238
458.762	2.79681
461.655	3.12753
464.548	1.91321
467.44	1.7374
470.333	0.078247
473.226	1.72229
476.118	5.70688
479.011	10.8737
481.904	16.2815
484.796	24.1242
487.689	28.8291
490.582	34.3326
493.474	39.8981
496.367	43.9578
499.26	47.299
502.153	50.7994
505.045	52.1512
507.938	52.5211
510.831	47.42
513.723	40.471
516.616	34.7313
519.509	25.0019
522.402	17.9275
525.294	12.7264
528.187	6.94424
531.08	2.4138
533.972	0.145432
536.865	3.21269
539.758	1.9337
542.65	2.04469
545.543	2.65932
548.436	1.77795
551.329	0.514236
554.221	3.07794
557.114	3.29097
560.007	4.32848
562.899	5.58217
565.792	5.7151
568.685	7.58127
571.577	11.4773
574.47	15.3226
577.363	20.3996
580.256	27.1564
583.148	33.3456
586.041	39.8898
588.934	48.5755
591.826	54.2345
594.719	57.0449
597.612	59.4397
600.504	57.2561
603.397	56.4638
606.29	54.8319
609.183	54.2011
612.075	53.1966
614.968	51.9465
617.861	51.0803
620.753	47.5171
623.646	44.4719
626.539	39.0857
629.431	32.2912
632.324	28.2505
635.217	23.1664
638.11	17.9515
641.002	16.2858
643.895	18.1377
646.788	21.3026
649.68	27.1489
652.573	32.5836
655.466	39.6061
658.358	48.4035
661.251	55.6949
664.144	62.0811
667.037	71.472
669.929	78.391
672.822	84.8737
675.715	83.3129
678.607	77.3328
681.5	68.0883
684.393	53.0563
687.285	40.0336
690.178	29.5681
693.071	20.3923
695.963	13.0994
698.856	9.40988
701.749	6.64506
704.642	6.0714
707.534	6.47841
710.427	8.99379
713.32	12.1347
716.212	14.7422
719.105	17.2704
721.998	18.3636
724.89	17.6765
727.783	15.0575
730.676	11.0909
733.569	7.60609
736.461	5.72527
739.354	2.15453
742.247	0.300858
745.139	0.484619
748.032	2.69753
750.925	2.77081
753.817	2.32259
756.71	1.87463
759.603	1.23756
762.496	0.360359
765.388	0.534874
768.281	1.39452
771.174	1.89697
774.066	3.00373
776.959	4.59836
779.852	5.24189
782.745	6.49546
785.637	7.39973
788.53	8.51068
791.423	8.20477
794.315	9.33932
797.208	10.7276
800.101	10.961
802.993	10.9434
805.886	10.5088
808.779	9.64117
811.672	8.37669
814.564	6.46675
817.457	6.41744
820.35	4.87489
823.242	3.32062
826.135	2.49482
829.028	3.03851
831.92	1.68899
834.813	1.50413
837.706	1.13683
840.598	0.337475
843.491	0.661198
846.384	0.593651
849.277	0.29266
852.169	0.448853
855.062	0.40192
857.955	0.62513
860.847	1.9137
863.74	3.74039
866.633	6.34853
869.525	9.55261
872.418	13.8958
875.311	18.4899
878.204	24.2157
881.096	30.0774
883.989	34.5118
886.882	35.6624
889.774	36.4958
892.667	35.0953
895.56	31.2362
898.452	27.7471
901.345	23.7288
904.238	19.9213
907.131	16.996
910.023	13.4266
912.916	9.45787
915.809	6.96094
918.701	5.3646
921.594	3.75904
924.487	2.88769
927.38	1.76806
930.272	0.718311
933.165	0.489246
936.058	0.443577
938.95	0.747776
941.843	0.364086
944.736	2.55524
947.628	4.05015
950.521	5.83562
953.414	8.23671
956.307	9.28419
959.199	11.4396
962.092	13.3505
964.985	14.199
967.877	14.3391
970.77	13.4123
973.663	11.1605
976.555	8.31839
979.448	5.69274
982.341	3.1946
985.234	0.704838
988.126	0.254803
991.019	0.07222
993.912	0.206841
996.804	0.070808
999.697	0.499123
1002.59	0.542866
1005.48	2.39724
1008.38	3.30284
1011.27	5.67467
1014.16	8.68648
1017.05	13.5252
1019.95	18.029
1022.84	21.2751
1025.73	26.8011
1028.62	30.2996
1031.52	34.761
1034.41	36.1661
1037.3	39.4499
1040.19	40.5908
1043.09	43.6006
1045.98	46.7769
1048.87	47.5624
1051.77	50.9543
1054.66	51.5625
1057.55	51.2532
1060.44	42.338
1063.34	32.2282
1066.23	21.1653
1069.12	11.9901
1072.02	7.61186
1074.91	3.26134
1077.8	2.08291
1080.69	1.34352
1083.59	0.869965
1086.48	1.26997
1089.37	1.68668
1092.26	5.06617
1095.16	10.3004
1098.05	18.1023
1100.94	28.739
1103.83	42.5396
1106.73	58.2047
1109.62	75.1588
1112.51	85.3632
1115.4	85.8207
1118.3	76.622
1121.19	60.1122
1124.08	39.3094
1126.98	19.3472
1129.87	9.47643
1132.76	1.98123
1135.65	1.6071
1138.55	0.758209
1141.44	0.485931
