Measurement: Raman, 514 nm, unoriented, Raman Data Processed
Mineral: Strontianite
Rruff sample: R040037
Ideal chemistry: SrCO_3_
Locality: Alston Moor, Cumbria, England
Source: University of Arizona Mineral Museum
Description: Group of tan colored crystals
Measured chemistry: (Sr_0.91_Ca_0.09_)_Î£=1_CO_3_; CO_2_ estimated by difference
Raman shift (cm-1)	intensity
133.696	0
137.857	991.131
142.016	4055.06
146.172	5718.54
150.327	3533.29
154.48	1862.19
158.63	791.243
162.779	97.418
166.926	75.966
171.07	936.254
175.213	3012.62
179.354	4284.82
183.493	3085.97
187.63	1353.1
191.765	451.031
195.898	164.095
200.029	28.396
204.158	19.34
208.285	89.419
212.41	36.886
216.533	46.355
220.654	91.361
224.773	73.891
228.891	9.699
233.006	210.501
237.119	469.426
241.231	564.367
245.34	353.642
249.448	157.662
253.553	131.009
257.657	67.127
261.758	36.042
265.858	80.163
269.956	16.421
274.052	32.819
278.146	32.917
282.237	44.979
286.327	36.467
290.416	13.882
294.502	23.896
298.586	0.664
302.668	97.55
306.749	86.638
310.827	84.106
314.903	69.44
318.978	143.202
323.051	132.451
327.121	187.401
331.19	216.015
335.257	264.051
339.322	245.323
343.385	268.148
347.446	235.981
351.505	348.235
355.563	301.015
359.618	330.033
363.672	310.307
367.723	312.986
371.773	352.253
375.821	296.784
379.866	257.053
383.91	189.29
387.952	195.525
391.992	185.923
396.031	170.285
400.067	172.38
404.101	170.483
408.134	201.294
412.165	200.764
416.193	265.825
420.22	167.154
424.245	130.956
428.268	168.444
432.289	164.257
436.309	177.149
440.326	181.258
444.342	185.804
448.355	180.334
452.367	207.523
456.377	106.503
460.385	186.903
464.391	184.589
468.395	209.706
472.398	255.663
476.398	84.196
480.397	176.743
484.394	139.62
488.389	182.443
492.382	102.086
496.373	125.888
500.362	116.501
504.349	110.987
508.335	158.328
512.319	86.916
516.3	137.943
520.28	190.313
524.259	50.849
528.235	68.695
532.209	200.467
536.182	145.077
540.152	106.99
544.121	89.635
548.088	98.754
552.053	58
556.017	108.359
559.978	110.612
563.938	121.131
567.895	92.822
571.851	68.37
575.805	0.713
579.758	118.317
583.708	74.894
587.657	34.473
591.603	172.106
595.548	82.096
599.491	57.619
603.432	62.283
607.372	127.913
611.309	32.531
615.245	38.771
619.179	112.581
623.111	23.71
627.041	185.862
630.97	78.631
634.896	55.116
638.821	87.409
642.744	117.274
646.665	63.189
650.584	74.168
654.502	124.872
658.418	20.168
662.331	9.326
666.244	107.389
670.154	27.071
674.062	56.5
677.969	63.07
681.874	34.645
685.777	149.116
689.678	50.656
693.577	227.187
697.475	375.783
701.371	492.294
705.265	140.564
709.157	334.691
713.047	190.384
716.936	146.932
720.823	108.33
724.708	57.676
728.591	148.995
732.472	88.59
736.352	39.386
740.23	110.44
744.106	0.894
747.98	44.072
751.853	89.84
755.723	75.055
759.592	109.996
763.459	44.254
767.325	39.367
771.188	136.722
775.05	94.152
778.91	93.443
782.768	39.863
786.625	75.575
790.479	94.663
794.332	19.219
798.183	26.468
802.033	13.611
805.88	96.752
809.726	94.828
813.57	24.927
817.413	37.673
821.253	59.353
825.092	119.761
828.929	119.958
832.764	190
836.598	77.055
840.429	94.014
844.259	130.824
848.088	91.184
851.914	219.302
855.739	154.48
859.562	54.611
863.383	180.715
867.203	28.788
871.02	176.841
874.836	36.966
878.65	78.808
882.463	91.77
886.274	75.739
890.083	243.065
893.89	124.886
897.695	30.444
901.499	54.163
905.301	35.727
909.102	171.146
912.9	111.802
916.697	145.513
920.492	164.587
924.285	111.232
928.077	131.807
931.867	31.489
935.655	28.089
939.442	279.71
943.226	150.128
947.009	127.784
950.791	191.499
954.57	89.091
958.348	110.426
962.124	149.934
965.899	106.045
969.671	48.936
973.442	68.287
977.211	151.589
980.979	164.367
984.745	312.684
988.509	279.728
992.271	174.856
996.032	107.631
999.791	239.731
1003.55	123.062
1007.3	142.602
1011.06	234.188
1014.81	237.462
1018.56	159.028
1022.31	218.554
1026.06	246.602
1029.8	302.812
1033.55	145.259
1037.29	124.838
1041.03	274.777
1044.77	208.002
1048.5	400.079
1052.24	324.808
1055.97	328.064
1059.7	342.979
1063.43	629.93
1067.16	1731.67
1070.89	14245.6
1074.61	32111.3
1078.34	1864.61
1082.06	493.545
1085.78	322.567
1089.5	200.547
1093.21	183.629
1096.93	110.296
1100.64	97.788
1104.35	184.158
1108.06	17.775
1111.77	161.772
1115.48	74.191
1119.18	99.601
1122.89	394.82
1126.59	260.549
1130.29	19.753
1133.99	31.276
1137.68	174.431
1141.38	71.431
1145.07	70.667
1148.76	80.287
1152.45	30.246
1156.14	11.705
1159.83	60.332
1163.51	70.098
1167.19	134.751
1170.88	101.134
1174.56	10.613
1178.23	114.633
1181.91	52.041
1185.59	160.519
1189.26	196.301
1192.93	120.699
1196.6	173.562
1200.27	46.601
1203.94	238.693
1207.6	120.372
1211.27	122.857
1214.93	65.155
1218.59	133.312
1222.25	50.328
1225.9	156.182
1229.56	127.772
1233.21	111.193
1236.86	147.696
1240.51	34.746
1244.16	73.569
1247.81	128.819
1251.45	167.931
1255.1	115.521
1258.74	18.908
1262.38	46.562
1266.02	95.528
1269.66	61.754
1273.29	73.756
1276.93	20.664
1280.56	11.261
1284.19	5.99
1287.82	62.892
1291.45	26.17
1295.07	106.922
1298.7	116.761
1302.32	111.367
1305.94	74.335
1309.56	45.122
1313.18	70.182
1316.8	58.927
1320.41	31.257
1324.02	31.396
1327.63	191.641
1331.24	96.074
1334.85	22.512
1338.46	67.305
1342.06	196.81
1345.67	86.425
1349.27	287.231
1352.87	284.653
1356.47	314.299
1360.07	249.602
1363.66	180.115
1367.25	118.167
1370.85	340.207
1374.44	269.69
1378.03	151.55
1381.61	208.422
1385.2	264.343
1388.78	188.092
1392.37	252.807
1395.95	266.649
1399.53	239.099
1403.1	333.704
1406.68	196.255
1410.26	235.728
1413.83	347.311
1417.4	277.381
1420.97	419.521
1424.54	222.7
1428.1	196.667
1431.67	265.007
1435.23	264.999
1438.8	354.871
1442.36	506.973
1445.91	689.846
1449.47	1317.23
1453.03	644.622
1456.58	414.308
1460.13	393.438
1463.68	290.501
1467.23	307.675
1470.78	353.33
1474.33	273.19
1477.87	152.693
1481.42	211.825
1484.96	184.248
1488.5	290.894
1492.04	254.922
1495.57	276.554
1499.11	372.956
1502.64	10.72
1506.17	248.613
1509.71	212.985
1513.23	141.823
1516.76	7.381
1520.29	151.883
1523.81	37.146
1527.34	0
