Measurement: Raman, 532 nm, unoriented, Raman Data Processed
Mineral: Strontiojoaquinite
Rruff sample: R070084
Ideal chemistry: (Na,Fe)_2_Ba_2_Sr_2_Ti_2_(SiO_3_)_8_(O,OH)_2_H_2_O
Locality: Clear Creek area, San Benito County, California, USA
Source: James Shigley
Description: Yellow prismatic single crystals
Raman shift (cm-1)	intensity
175.251	0
178.143	126.289
181.036	280.11
183.929	318.151
186.821	442.317
189.714	619.564
192.607	711.172
195.5	626.465
198.392	570.754
201.285	640.414
204.178	1023.3
207.07	1061.49
209.963	664.744
212.856	519.591
215.749	529.982
218.641	488.442
221.534	352.444
224.427	97.9434
227.319	56.8535
230.212	167.613
233.105	240.067
235.997	48.1582
238.89	136.201
241.783	338.66
244.675	569.508
247.568	775.794
250.461	1032.76
253.354	1119.77
256.246	1266.87
259.139	1508.47
262.032	1676.03
264.924	1841.88
267.817	1952.72
270.71	2134.02
273.603	2465.94
276.495	2869.23
279.388	3275.4
282.281	3260.24
285.173	3049.87
288.066	2507.86
290.959	1963.44
293.851	1633.91
296.744	1490.57
299.637	1412.87
302.529	1372.17
305.422	1476.27
308.315	1519.75
311.208	1543.96
314.1	1411.12
316.993	1288.06
319.886	1319.29
322.778	1570.32
325.671	1937.36
328.564	2602.4
331.457	3245.2
334.349	3804
337.242	4221.37
340.135	4275.38
343.027	4258.35
345.92	4019.92
348.813	4039.27
351.705	4009.78
354.598	3751.74
357.491	3202
360.384	2639.46
363.276	2070.52
366.169	1643.56
369.062	1402.39
371.954	986.894
374.847	923.35
377.74	983.398
380.632	955.423
383.525	900.831
386.418	681.442
389.31	429.533
392.203	115.549
395.096	52.2119
397.989	33.623
400.881	43.4912
403.774	150.199
406.667	132.132
409.559	65.8838
412.452	18.9346
415.345	64.3125
418.238	275.987
421.13	536.65
424.023	803.447
426.916	1244.31
429.808	1712.17
432.701	2255.64
435.594	2648.95
438.486	2749.27
441.379	2541.2
444.272	2170.16
447.165	1712.43
450.057	1574.22
452.95	1376.63
455.843	1358.48
458.735	1278.07
461.628	1167.35
464.521	1072.17
467.413	905.514
470.306	705.366
473.199	621.935
476.092	539.623
478.984	636.446
481.877	815.314
484.77	982.936
487.662	1191.97
490.555	1239.71
493.448	1221.97
496.341	1229.14
499.233	1308.02
502.126	1426.68
505.019	1445.84
507.911	1438.38
510.804	1363.48
513.697	1113.75
516.589	974.725
519.482	776.312
522.375	572.598
525.268	412.784
528.16	206.311
531.053	215.774
533.946	1.21289
536.838	20.5293
539.731	20.4717
542.624	22.7383
545.516	123.647
548.409	223.551
551.302	339.96
554.194	411.664
557.087	530.308
559.98	396.711
562.873	171.138
565.765	10.5059
568.658	113.318
571.551	119.143
574.443	210.977
577.336	173.382
580.229	22.7402
583.121	114.692
586.014	436.877
588.907	819.655
591.8	1328.92
594.692	1745.54
597.585	2413.07
600.478	2856.14
603.37	3309.78
606.263	3738.72
609.156	4080.87
612.048	4375.19
614.941	4642.55
617.834	4722.64
620.727	4717.86
623.619	4473.11
626.512	4068.02
629.405	3578.69
632.297	2990.45
635.19	2441.65
638.083	2067.35
640.976	1722.02
643.868	1621.78
646.761	1572.6
649.654	1457.83
652.546	1640.95
655.439	1917.82
658.332	2056.11
661.224	2305.26
664.117	2580.04
667.01	2906.41
669.903	3499.3
672.795	3930.19
675.688	4558.66
678.581	4619.9
681.473	4363.52
684.366	3890.78
687.259	3273.62
690.151	2824.26
693.044	2290.86
695.937	1936.33
698.83	1552.88
701.722	1207.28
704.615	1152.54
707.508	953.942
710.4	787.848
713.293	653.159
716.186	733.719
719.078	565.637
721.971	532.789
724.864	329.487
727.757	293.913
730.649	240.209
733.542	204.89
736.435	141.444
739.327	219.225
742.22	138.906
745.113	46.3779
748.005	42.5215
750.898	22.5645
753.791	90.4023
756.684	43.0322
759.576	109.491
762.469	58.8496
765.362	50.3877
768.254	42.8379
771.147	120.276
774.04	134.619
776.933	185.24
779.825	214.245
782.718	170.548
785.611	218.394
788.503	306.634
791.396	255.39
794.289	334.089
797.181	407.027
800.074	401.906
802.967	358.26
805.86	423.782
808.752	293.92
811.645	272.581
814.538	286.885
817.43	256.911
820.323	166.039
823.216	211.715
826.108	102.099
829.001	103.203
831.894	77.5596
834.787	55.0576
837.679	40.0156
840.572	0.487305
843.465	17.5693
846.357	26.4707
849.25	26.3887
852.143	16.5205
855.035	27.1289
857.928	4.53809
860.821	11.9473
863.713	45.8252
866.606	125.688
869.499	277.881
872.392	452.097
875.284	728.78
878.177	1033.89
881.07	1654.4
883.962	2188.18
886.855	2718.87
889.748	3070.18
892.64	3128.91
895.533	2924.68
898.426	2347.5
901.319	1868.92
904.211	1527.37
907.104	1322.31
909.997	1223.18
912.889	1030.08
915.782	808.31
918.675	604.822
921.567	591.9
924.46	548.126
927.353	375.358
930.246	378.403
933.138	432.173
936.031	305.031
938.924	403.866
941.816	429.924
944.709	497.263
947.602	691.01
950.495	933.495
953.387	1257.72
956.28	1730.25
959.173	2367.85
962.065	3190.51
964.958	3941.84
967.851	4552.38
970.744	4784.37
973.636	4783.42
976.529	4112.04
979.422	3147.84
982.314	2047.96
985.207	1271.57
988.1	626.769
990.992	332.163
993.885	127.39
996.778	81.7178
999.67	89.418
1002.56	11.7344
1005.46	97.0742
1008.35	13.8691
1011.24	71.917
1014.13	78.665
1017.03	256.04
1019.92	218.654
1022.81	381.123
1025.7	466.342
1028.6	435.147
1031.49	470.868
1034.38	444.463
1037.28	548.179
1040.17	605.723
1043.06	631.086
1045.95	795.514
1048.85	881.196
1051.74	945.235
1054.63	1291.97
1057.52	1563.87
1060.42	1632.44
1063.31	1335.44
1066.2	830.68
1069.1	422.389
1071.99	159.708
1074.88	34.8496
1077.77	8.92871
1080.67	99.666
1083.56	27.2256
1086.45	22.8428
1089.34	66.9199
1092.24	166.707
1095.13	181.818
1098.02	434.308
1100.91	597.922
1103.81	853.719
1106.7	1383.31
1109.59	1976.14
1112.49	2859.02
1115.38	4106.02
1118.27	5072.59
1121.16	5524.73
1124.06	4788.45
1126.95	3123.77
1129.84	1807.25
1132.73	969.496
1135.63	604.63
1138.52	403.062
1141.41	284.115
1144.31	46.5107
1147.2	39.0166
1150.09	80.6211
1152.98	47.3857
1155.88	60.2559
1158.77	25.6582
1161.66	78.2881
1164.55	119.168
1167.45	14.8428
1170.34	68.9707
1173.23	28.4629
1176.12	22.1836
1179.02	126.669
1181.91	39.1982
1184.8	134.93
1187.7	134.23
1190.59	0.069336
1193.48	110.602
1196.37	113.27
1199.27	127.203
1202.16	93.8574
1205.05	111.389
1207.94	23.5635
1210.84	105.538
1213.73	115.343
1216.62	130.685
1219.52	120.503
1222.41	11.3525
1225.3	113.957
1228.19	56.6016
1231.09	23.2246
1233.98	65.4941
1236.87	81.6357
1239.77	140.458
1242.66	30.6211
1245.55	79.0234
1248.44	43.6592
1251.34	78.3769
1254.23	35.6836
1257.12	102.11
1260.01	35.252
1262.91	37.4697
1265.8	155.75
1268.69	58.5107
1271.58	68.499
1274.48	16.7793
1277.37	12.7217
1280.26	49.4951
1283.15	123.866
1286.05	92.084
1288.94	42.6895
1291.83	78.6055
1294.73	47.5185
1297.62	56.1367
1300.51	49.6807
1303.4	12.6562
1306.3	37.8789
1309.19	4.54199
1312.08	140.29
1314.97	24.8037
