Measurement: Raman, 532 nm, unoriented, Raman Data Processed
Mineral: Strontianite
Rruff sample: R050564
Ideal chemistry: SrCO_3_
Locality: Winfield Quarry, Lancaster County, Pennsylvania, USA
Source: Dave Bunk Minerals
Description: Colorless prismatic crystals
Measured chemistry: (Sr_0.85_Ca_0.15_)CO_3_
Raman shift (cm-1)	intensity
125.346	0
128.72	43.828
132.095	501.472
135.47	1192.29
138.845	1967.03
142.22	2873.72
145.595	4454.57
148.969	5795.11
152.344	3543.12
155.719	1583
159.094	847.153
162.469	624.057
165.843	604.904
169.218	760.856
172.593	1025.84
175.968	1406.35
179.343	1891.33
182.718	2187.2
186.092	1678.54
189.467	848.676
192.842	341.885
196.217	133.806
199.592	62.5884
202.966	0.536621
206.341	43.3834
209.716	53.7877
213.091	40.247
216.466	2.2348
219.84	34.5898
223.215	12.9319
226.59	14.947
229.965	56.6657
233.34	122.999
236.715	218.651
240.089	286.245
243.464	307.314
246.839	311.605
250.214	241.109
253.589	180.151
256.964	159.291
260.338	163.877
263.713	147.111
267.088	101.418
270.463	51.9801
273.838	23.4236
277.212	17.1335
280.587	14.6341
283.962	10.1554
287.337	2.88153
290.712	7.6824
294.087	5.28439
297.461	3.72641
300.836	2.04099
304.211	2.93671
307.586	3.97555
310.961	5.11114
314.336	8.21817
317.71	6.9371
321.085	3.28381
324.46	6.7439
327.835	6.68472
331.21	7.7218
334.584	6.41183
337.959	8.70395
341.334	7.73669
344.709	5.63745
348.084	12.8786
351.459	6.89069
354.833	5.2713
358.208	3.6983
361.583	4.9704
364.958	1.58655
368.333	0.342896
371.707	0.440979
375.082	1.30548
378.457	0.493408
381.832	0.950623
385.207	0.054626
388.582	2.46533
391.956	3.7818
395.331	1.46497
398.706	3.27576
402.081	1.09906
405.456	1.84692
408.83	0.443115
412.205	3.6521
415.58	0.277222
418.955	0.211487
422.33	1.9657
425.705	3.24481
429.079	4.0072
432.454	3.8266
435.829	0.353882
439.204	2.65301
442.579	6.33179
445.954	3.5199
449.328	2.69745
452.703	1.3056
456.078	3.29266
459.453	1.51935
462.828	5.12915
466.202	3.06165
469.577	0.829041
472.952	2.94861
476.327	4.08307
479.702	2.10486
483.077	3.24683
486.451	2.28082
489.826	1.06494
493.201	1.44409
496.576	2.94812
499.951	0.978088
503.325	4.06116
506.7	7.3761
510.075	4.06641
513.45	4.00793
516.825	5.39307
520.2	8.67572
523.574	5.08929
526.949	6.37567
530.324	4.35736
533.699	3.82385
537.074	4.06598
540.448	6.05231
543.823	7.34888
547.198	5.84576
550.573	3.04205
553.948	4.22595
557.323	2.97302
560.697	3.84784
564.072	2.16681
567.447	0.256287
570.822	2.52991
574.197	2.20056
577.572	1.12653
580.946	2.08423
584.321	3.06317
587.696	3.85278
591.071	4.84607
594.446	3.52075
597.821	0.21814
601.195	2.76355
604.57	0.931152
607.945	0.522583
611.32	2.70386
614.695	0.147827
618.069	5.26269
621.444	0.894165
624.819	0.093872
628.194	2.11737
631.569	0.075745
634.943	4.30774
638.318	7.98944
641.693	4.24963
645.068	2.82812
648.443	2.13153
651.818	0.058838
655.192	0.965393
658.567	1.8139
661.942	0.482361
665.317	2.82263
668.692	4.38605
672.067	5.31238
675.441	4.49243
678.816	6.36359
682.191	16.904
685.566	44.3238
688.941	92.8311
692.316	167.826
695.69	315.697
699.065	494.331
702.44	454.368
705.815	152.791
709.19	71.1318
712.564	75.8016
715.939	18.6759
719.314	5.57056
722.689	4.77484
726.064	2.59912
729.438	4.53894
732.813	6.66797
736.188	3.30749
739.563	4.47028
742.938	2.56653
746.313	0.15387
749.687	5.08551
753.062	0.613708
756.437	1.32373
759.812	3.03131
763.187	1.18738
766.562	0.038147
769.936	2.3714
773.311	4.74835
776.686	0.088928
780.061	1.3128
783.436	1.85998
786.811	0.144226
790.185	0.673828
793.56	1.93951
796.935	4.80682
800.31	4.21979
803.685	2.85394
807.059	9.78979
810.434	8.37891
813.809	7.38464
817.184	8.263
820.559	9.00562
823.933	14.5425
827.308	9.42712
830.683	10.9636
834.058	9.0816
837.433	6.60834
840.808	6.53668
844.182	9.87494
847.557	8.75488
850.932	8.54767
854.307	16.7419
857.682	5.17981
861.057	1.41681
864.431	11.9335
867.806	1.42999
871.181	5.77271
874.556	1.86877
877.931	3.1076
881.306	1.75903
884.68	4.02594
888.055	6.15265
891.43	6.862
894.805	5.96118
898.18	5.8631
901.554	2.12268
904.929	2.90655
908.304	4.12006
911.679	7.67267
915.054	3.42432
918.428	4.49713
921.803	0.460266
925.178	2.76648
928.553	5.64819
931.928	2.1886
935.303	5.92718
938.677	3.88458
942.052	1.72345
945.427	0.723633
948.802	2.06726
952.177	0.671936
955.552	0.853699
958.926	3.46002
962.301	3.16211
965.676	4.37
969.051	1.01367
972.426	1.81677
975.801	3.60486
979.175	3.0163
982.55	3.47156
985.925	1.24615
989.3	3.21039
992.675	5.02588
996.049	0.77948
999.424	0.784241
1002.8	4.7207
1006.17	0.453247
1009.55	2.26215
1012.92	2.18762
1016.3	2.52997
1019.67	1.04236
1023.05	0.329529
1026.42	3.46326
1029.8	5.21021
1033.17	3.3349
1036.55	7.52173
1039.92	9.31622
1043.3	13.6487
1046.67	18.6283
1050.05	44.7153
1053.42	31.7611
1056.8	43.1
1060.17	145.849
1063.55	729.044
1066.92	1294.71
1070.3	2775.04
1073.67	6910.89
1077.05	1929.23
1080.42	121.886
1083.8	48.446
1087.17	21.6085
1090.54	13.808
1093.92	4.2085
1097.29	4.86414
1100.67	4.53925
1104.04	6.98865
1107.42	8.44641
1110.79	9.4408
1114.17	12.0806
1117.54	7.27136
1120.92	6.24829
1124.29	1.0614
1127.67	1.24683
1131.04	2.85718
1134.42	2.99475
1137.79	3.4613
1141.17	0.714661
1144.54	3.47687
1147.92	3.61224
1151.29	0.562073
1154.67	2.68555
1158.04	0.224915
1161.42	1.57086
1164.79	3.65198
1168.16	4.43896
1171.54	3.95319
1174.91	5.06982
1178.29	3.09167
1181.66	6.35028
1185.04	7.59222
1188.41	5.82812
1191.79	5.88391
1195.16	2.38208
1198.54	3.19733
1201.91	7.1958
1205.29	4.66473
1208.66	4.20392
1212.04	3.80267
1215.41	5.11298
1218.79	5.96838
1222.16	9.56244
1225.54	5.41858
1228.91	10.124
1232.29	9.59888
1235.66	5.42004
1239.04	1.21832
1242.41	4.34393
1245.79	6.05353
1249.16	7.21765
1252.54	5.79529
1255.91	3.30963
1259.29	6.05335
1262.66	0.854614
1266.04	0.281799
1269.41	7.13226
1272.79	5.03668
1276.16	1.73132
1279.53	2.20532
1282.91	1.45398
1286.28	3.22376
1289.66	10.3061
1293.03	0.104492
1296.41	2.93842
1299.78	1.29822
