Measurement: Raman, 780 nm, unoriented, Raman Data Processed
Mineral: Strontianite
Rruff sample: R050476
Ideal chemistry: SrCO_3_
Locality: Fidalgo Island, Puget Sound, Washington, USA
Source: California Institute of Technology
Description: Aggregate of colorless spheres
Measured chemistry: (Sr_0.86_Ca_0.14_)CO_3_
Raman shift (cm-1)	intensity
130.424	0
133.799	8.07242
137.174	30.5497
140.549	69.2595
143.923	113.219
147.298	156.12
150.673	156.125
154.048	95.3999
157.423	50.1106
160.798	39.7898
164.172	50.4694
167.547	75.5087
170.922	110.341
174.297	146.631
177.672	180.359
181.046	196.857
184.421	185.447
187.796	143.133
191.171	83.045
194.546	38.2112
197.921	15.5876
201.295	5.45078
204.67	0.134064
208.045	3.45187
211.42	4.45102
214.795	2.4035
218.169	0.018112
221.544	2.37512
224.919	6.03885
228.294	11.5463
231.669	18.0197
235.043	27.6879
238.418	37.7904
241.793	44.8186
245.168	45.5635
248.543	46.9149
251.918	46.4044
255.292	40.7783
258.667	34.9775
262.042	32.4869
265.417	28.0304
268.792	21.2773
272.166	13.3661
275.541	7.94288
278.916	5.47197
282.291	4.66807
285.666	3.94182
289.041	3.34314
292.415	2.46808
295.79	2.55948
299.165	1.97248
302.54	2.01887
305.915	1.72199
309.289	1.37802
312.664	1.67325
316.039	1.22578
319.414	1.70005
322.789	0.650454
326.164	0.580544
329.538	0.263721
332.913	0.980244
336.288	0.824921
339.663	0.046562
343.038	1.03477
346.413	0.957413
349.787	0.173988
353.162	0.37965
356.537	0.036201
359.912	1.13582
363.287	0.363411
366.661	0.226177
370.036	0.85553
373.411	0.889254
376.786	0.382681
380.161	0.126081
383.536	0.016808
386.91	0.053793
390.285	0.226379
393.66	0.550699
397.035	0.049465
400.41	0.012783
403.784	0.027447
407.159	0.023878
410.534	0.371271
413.909	0.24213
417.284	1.0181
420.659	0.786528
424.033	0.462749
427.408	0.795948
430.783	1.06918
434.158	0.209517
437.533	0.625671
440.907	1.11295
444.282	1.02427
447.657	0.989861
451.032	0.939743
454.407	0.734938
457.781	0.441973
461.156	0.426199
464.531	1.11745
467.906	0.800051
471.281	0.54668
474.656	0.478777
478.031	0.010303
481.405	0.983339
484.78	0.510031
488.155	1.24481
491.53	1.30952
494.904	0.939045
498.279	0.734308
501.654	0.751322
505.029	1.46121
508.404	0.408381
511.779	0.71277
515.153	0.79114
518.528	0.920271
521.903	0.927372
525.278	0.431639
528.653	0.970787
532.028	0.421867
535.402	0.180176
538.777	0.029613
542.152	1.12237
545.527	0.628508
548.902	0.228706
552.277	0.119888
555.651	0.368731
559.026	0.534081
562.401	0.074657
565.776	0.442005
569.151	0.178024
572.525	0.768539
575.9	0.317186
579.275	0.819605
582.65	0.818226
586.025	0.67313
589.399	0.502531
592.774	0.324314
596.149	1.27428
599.524	1.07705
602.899	0.438112
606.274	0.557526
609.648	0.552113
613.023	0.455656
616.398	0.534594
619.773	0.142443
623.148	0.461519
626.523	0.251341
629.897	0.24176
633.272	0.423597
636.647	0.980738
640.022	0.366949
643.397	0.782713
646.771	0.08674
650.146	0.056812
653.521	0.064888
656.896	0.412483
660.271	0.037773
663.645	0.517654
667.02	0.63833
670.395	0.03343
673.77	0.773729
677.145	1.50648
680.52	3.32685
683.894	7.76609
687.269	13.9402
690.644	22.1919
694.019	40.2657
697.394	71.2637
700.769	72.3669
704.143	37.0928
707.518	13.8511
710.893	9.49279
714.268	6.65037
717.643	1.87085
721.017	0.548592
724.392	0.264566
727.767	0.281427
731.142	0.505943
734.517	0.511116
737.891	0.756367
741.266	0.760162
744.641	0.380455
748.016	0.553377
751.391	0.737789
754.766	0.403839
758.14	0.212225
761.515	0.308247
764.89	0.369173
768.265	0.670626
771.64	0.161325
775.014	0.569666
778.389	0.75008
781.764	1.02743
785.139	0.619261
788.514	0.831541
791.889	1.1782
795.263	0.778898
798.638	0.650434
802.013	0.048615
805.388	0.681467
808.763	0.343338
812.138	0.903002
815.512	0.729654
818.887	1.25168
822.262	0.699419
825.637	0.218925
829.012	0.441093
832.386	0.715763
835.761	0.801767
839.136	0.811495
842.511	0.956934
845.886	0.526487
849.261	0.461927
852.635	1.39835
856.01	1.24024
859.385	1.26868
862.76	0.973125
866.135	0.939884
869.51	0.472826
872.884	0.98715
876.259	1.67758
879.634	0.839079
883.009	0.371359
886.384	1.13322
889.758	0.997263
893.133	0.162674
896.508	0.61331
899.883	0.517897
903.258	0.852198
906.632	0.881174
910.007	1.40652
913.382	0.273663
916.757	0.351772
920.132	0.21134
923.506	1.13411
926.881	0.457952
930.256	0.362591
933.631	0.127605
937.006	0.333513
940.381	0.928596
943.755	0.728159
947.13	0.865454
950.505	0.818329
953.88	0.826197
957.255	0.133802
960.63	0.491938
964.004	0.204363
967.379	0.65904
970.754	0.577988
974.129	1.04196
977.504	1.82427
980.879	0.746502
984.253	1.35608
987.628	1.11028
991.003	0.463249
994.378	0.929201
997.753	0.63122
1001.13	0.848143
1004.5	0.474155
1007.88	0.416744
1011.25	0.262079
1014.63	0.257124
1018	0.167234
1021.38	0.043356
1024.75	0.289742
1028.13	0.433344
1031.5	0.481468
1034.88	0.407322
1038.25	0.033865
1041.62	0.681931
1045	0.689976
1048.38	3.0486
1051.75	4.72349
1055.12	4.27209
1058.5	11.2826
1061.87	43.3856
1065.25	99.969
1068.62	163.672
1072	322.158
1075.37	570.712
1078.75	117.053
1082.12	14.595
1085.5	4.83622
1088.87	1.69123
1092.25	0.843712
1095.62	1.18046
1099	0.985416
1102.37	1.08427
1105.75	0.098072
1109.12	0.206459
1112.5	0.377413
1115.87	0.057203
1119.25	0.87179
1122.62	0.004412
1126	0.570621
1129.37	0.404387
1132.74	0.44824
1136.12	0.058596
1139.49	0.242138
1142.87	0.109741
1146.24	0.210876
1149.62	0.178661
1152.99	0.152214
1156.37	0.128242
1159.74	0.586514
1163.12	0.849424
1166.49	1.1239
1169.87	0.713526
1173.24	0.409302
1176.62	0.53653
1179.99	0.347498
1183.37	0.654205
1186.74	0.513069
1190.12	0.227207
1193.49	1.11848
1196.87	0.638254
1200.24	0.91856
1203.62	0.788675
1206.99	0.611015
1210.37	0.680851
1213.74	1.01778
1217.12	0.018871
1220.49	0.657843
1223.87	0.729084
1227.24	0.869122
1230.62	0.922907
1233.99	0.646019
1237.37	0.404074
1240.74	0.833
1244.11	0.668938
1247.49	0.775616
1250.86	0.309343
1254.24	1.14326
1257.61	0.159433
1260.99	1.03441
1264.36	0.493137
1267.74	0.252079
1271.11	1.06046
1274.49	0.686853
1277.86	0.210613
1281.24	0.381947
1284.61	0.350525
