Measurement: Raman, 532 nm, unoriented, Raman Data Processed
Mineral: Strontianite
Rruff sample: R050476
Ideal chemistry: SrCO_3_
Locality: Fidalgo Island, Puget Sound, Washington, USA
Source: California Institute of Technology
Description: Aggregate of colorless spheres
Measured chemistry: (Sr_0.86_Ca_0.14_)CO_3_
Raman shift (cm-1)	intensity
130.059	0
133.434	41.5059
136.809	272.309
140.184	600.025
143.559	1021.96
146.933	1438.53
150.308	1379.88
153.683	783.66
157.058	368.713
160.433	233.06
163.807	290.731
167.182	436.077
170.557	706.359
173.932	1014.15
177.307	1306.89
180.681	1520.14
184.056	1565.92
187.431	1292.59
190.806	800.06
194.181	387.774
197.556	177.925
200.93	77.1281
204.305	20.3475
207.68	21.2375
211.055	37.3195
214.43	29.1721
217.804	12.0449
221.179	6.42413
224.554	26.7975
227.929	61.1881
231.304	116.001
234.679	193.065
238.053	291.928
241.428	370.758
244.803	425.192
248.178	473.659
251.553	502.82
254.928	468.321
258.302	415.411
261.677	407.24
265.052	372.811
268.427	282.541
271.802	185.915
275.176	114.641
278.551	75.2597
281.926	58.1103
285.301	39.2452
288.676	29.9539
292.05	31.8464
295.425	24.1827
298.8	22.2603
302.175	18.9641
305.55	15.5799
308.925	15.2198
312.299	10.9516
315.674	8.72417
319.049	5.45086
322.424	6.91431
325.799	1.83704
329.173	2.70819
332.548	3.40668
335.923	5.81661
339.298	3.81236
342.673	4.30848
346.048	5.91593
349.422	1.86394
352.797	2.59645
356.172	3.73224
359.547	3.26302
362.922	2.16265
366.296	2.48254
369.671	3.36061
373.046	0.730598
376.421	1.60444
379.796	0.64048
383.171	1.42184
386.545	0.011688
389.92	2.70639
393.295	0.153168
396.67	2.29633
400.045	0.194389
403.419	0.421188
406.794	3.97659
410.169	0.180359
413.544	0.711449
416.919	1.82526
420.293	1.60214
423.668	3.61931
427.043	2.63626
430.418	2.149
433.793	4.45107
437.168	2.36619
440.542	5.02284
443.917	2.66628
447.292	3.29436
450.667	3.81728
454.042	4.08128
457.416	5.34571
460.791	6.50524
464.166	1.60693
467.541	4.45592
470.916	3.44823
474.291	3.8848
477.665	1.52714
481.04	3.74471
484.415	0.401253
487.79	2.34778
491.165	4.5704
494.539	5.15936
497.914	2.50874
501.289	2.49461
504.664	5.82472
508.039	1.37424
511.413	3.20204
514.788	4.30962
518.163	4.28727
521.538	3.20356
524.913	2.54799
528.288	4.45076
531.663	4.01208
535.037	1.17887
538.412	6.90371
541.787	1.92637
545.162	1.7855
548.537	3.21256
551.911	2.90588
555.286	1.5963
558.661	1.94791
562.036	0.837418
565.411	0.862045
568.785	2.54915
572.16	1.6722
575.535	1.9534
578.91	2.32867
582.285	4.3416
585.659	0.747131
589.034	2.73819
592.409	2.63831
595.784	1.95172
599.159	0.192337
602.534	7.03738
605.908	1.48874
609.283	2.88577
612.658	1.06085
616.033	2.15967
619.408	0.410278
622.783	0.216782
626.157	2.41234
629.532	3.45042
632.907	3.64337
636.282	4.42673
639.657	2.6806
643.031	3.42926
646.406	2.37527
649.781	3.13588
653.156	1.2106
656.531	3.24223
659.905	3.63597
663.28	2.01292
666.655	0.270309
670.03	5.64252
673.405	7.34631
676.779	11.3516
680.154	29.9721
683.529	96.1526
686.904	217.969
690.279	382.215
693.654	693.289
697.028	1178.14
700.403	1184.15
703.778	615.942
707.153	196.239
710.528	113.135
713.903	73.67
717.277	21.1964
720.652	8.92744
724.027	6.51463
727.402	3.31496
730.777	2.14175
734.151	1.00153
737.526	1.14087
740.901	3.53307
744.276	0.160919
747.651	2.88736
751.025	2.23863
754.4	0.571106
757.775	1.55987
761.15	1.57448
764.525	1.36237
767.9	1.56168
771.274	1.11041
774.649	2.68497
778.024	2.19408
781.399	3.05467
784.774	3.26352
788.149	1.16902
791.523	2.64726
794.898	3.27608
798.273	3.53941
801.648	2.42442
805.023	3.05244
808.397	2.22147
811.772	2.2037
815.147	5.46042
818.522	0.162857
821.897	1.99315
825.271	2.59326
828.646	2.92747
832.021	3.269
835.396	5.05551
838.771	3.35852
842.146	0.180222
845.52	5.14398
848.895	6.96269
852.27	5.40427
855.645	5.62372
859.02	6.07678
862.394	3.74928
865.769	2.7851
869.144	2.42183
872.519	1.95709
875.894	8.95859
879.269	4.98303
882.643	2.2458
886.018	5.38409
889.393	4.86476
892.768	6.34569
896.143	6.96188
899.518	3.88991
902.892	7.63849
906.267	3.77309
909.642	7.59381
913.017	4.24658
916.391	2.50601
919.766	5.09
923.141	6.27197
926.516	3.56197
929.891	4.16528
933.266	1.77815
936.64	2.34258
940.015	2.44922
943.39	1.84105
946.765	1.29649
950.14	0.032578
953.514	1.56387
956.889	2.49004
960.264	2.90712
963.639	4.03189
967.014	4.71078
970.389	6.16559
973.763	6.43324
977.138	6.69196
980.513	5.83919
983.888	6.5674
987.263	4.95738
990.638	4.64737
994.012	3.53536
997.387	5.14583
1000.76	2.43749
1004.14	3.65736
1007.51	8.67363
1010.89	4.30597
1014.26	0.266586
1017.64	2.98946
1021.01	0.222198
1024.39	3.36742
1027.76	3.00348
1031.13	5.32594
1034.51	1.40364
1037.88	7.40236
1041.26	20.5617
1044.63	26.4161
1048.01	50.2106
1051.38	75.888
1054.76	70.7575
1058.13	164.757
1061.51	582.849
1064.88	1905.62
1068.26	3180.89
1071.63	6800.67
1075.01	11955.9
1078.38	2205.84
1081.76	263.31
1085.13	93.4839
1088.51	50.3106
1091.88	22.6033
1095.26	17.1886
1098.63	11.8468
1102.01	11.7927
1105.38	6.16069
1108.76	3.44466
1112.13	2.73441
1115.51	3.15855
1118.88	0.957855
1122.26	1.35741
1125.63	0.291885
1129.01	0.896652
1132.38	0.51564
1135.76	0.965012
1139.13	2.44428
1142.5	1.30165
1145.88	0.871109
1149.25	1.67946
1152.63	3.95543
1156	2.40878
1159.38	0.822311
1162.75	4.56685
1166.13	2.99513
1169.5	0.727493
1172.88	3.66303
1176.25	2.23119
1179.63	1.746
1183	3.46034
1186.38	1.84433
1189.75	4.51747
1193.13	1.28567
1196.5	3.92757
1199.88	2.32033
1203.25	2.93074
1206.63	2.91827
1210	6.08014
1213.38	4.42467
1216.75	4.01433
1220.12	0.512405
1223.5	1.80954
1226.88	2.87547
1230.25	4.10039
1233.62	2.19252
1237	1.00574
1240.37	4.4803
1243.75	2.96303
1247.12	4.32092
1250.5	5.34088
1253.87	1.6655
1257.25	1.38879
1260.62	0.498749
1264	3.88377
1267.37	1.00816
1270.75	1.33948
1274.12	0.946991
1277.5	2.2141
1280.87	3.0338
1284.25	2.01723
1287.62	3.08424
1291	1.45926
1294.37	2.52588
1297.75	2.07597
1301.12	0.006851
