Measurement: Raman, 532 nm, unoriented, Raman Data Processed
Mineral: Struvite
Rruff sample: R050540
Ideal chemistry: (NH_4_)MgPO_4_6H_2_O
Locality: Hamburg, Germany
Source: University of Arizona Mineral Museum
Description: Yellowish-brown wedge-shaped crystal
Measured chemistry: (NH_4_)(Mg_0.74_Fe^2+^_0.14_Ca_0.09_Mn_0.03_)_Σ=1_(P_1.00_O_4_)·6H_2_O ; NH_4_ not measured but estimated by charge balance.
Raman shift (cm-1)	intensity
145.887	0
149.262	583.873
152.637	1033.34
156.012	674.561
159.387	152.435
162.762	3.76953
166.136	107.197
169.511	345.322
172.886	577.215
176.261	884.666
179.636	1393.26
183.01	1901.15
186.385	2221.45
189.76	1884.39
193.135	1249.41
196.51	609.385
199.884	191.42
203.259	15.541
206.634	72.4824
210.009	19.6035
213.384	26.6973
216.758	20.7168
220.133	15.7617
223.508	1.57422
226.883	24.582
230.258	200.684
233.633	379.373
237.007	619.5
240.382	701.238
243.757	548.889
247.132	248.75
250.507	102.869
253.881	52.125
257.256	7.11133
260.631	8.42383
264.006	32.0312
267.381	166.795
270.756	208.348
274.13	487.102
277.505	858.572
280.88	1187.28
284.255	1419.74
287.63	1662.26
291.005	1857.55
294.379	1827.54
297.754	1711.4
301.129	1556.54
304.504	1406.96
307.878	1206.48
311.253	1140.26
314.628	1070.38
318.003	974.332
321.378	812.982
324.753	773.144
328.127	756.064
331.502	632.037
334.877	531.832
338.252	478.31
341.627	332.838
345.002	232.631
348.376	115.603
351.751	18.2129
355.126	20.9707
358.501	48.3027
361.876	43.1895
365.25	14.1836
368.625	4.83398
372	37.1855
375.375	106.922
378.75	180.506
382.125	181.086
385.499	167.943
388.874	194.623
392.249	192.846
395.624	126.434
398.999	120.439
402.373	28.9688
405.748	114.076
409.123	119.705
412.498	103.273
415.873	65.3535
419.248	25.832
422.622	92.2344
425.997	76.8047
429.372	64.7559
432.747	15.0977
436.122	1.51367
439.496	4.26758
442.871	10.1562
446.246	13.4844
449.621	167.566
452.996	179.867
456.37	205.998
459.745	257.85
463.12	274.565
466.495	221.705
469.87	96.6367
473.245	93.3555
476.619	81.2481
479.994	98.5547
483.369	73.1231
486.744	13.1367
490.119	70.8594
493.493	36.1406
496.868	63.2637
500.243	2.16992
503.618	4.81055
506.993	33.0918
510.368	73.0957
513.742	77.5957
517.117	103.545
520.492	131.641
523.867	186.652
527.242	240.307
530.616	214.717
533.991	284.438
537.366	406.043
540.741	510.469
544.116	679.703
547.49	970.307
550.865	1459.04
554.24	1980.27
557.615	2594.87
560.99	3291.88
564.365	3726.75
567.739	3180.62
571.114	2216.81
574.489	1480.86
577.864	980.723
581.239	615.168
584.613	377.018
587.988	326.113
591.363	209.315
594.738	185.033
598.113	115.428
601.487	52.123
604.862	2.61328
608.237	56.3496
611.612	42.8574
614.987	88.5019
618.362	40.2168
621.736	1.04418
625.111	48.9199
628.486	19.834
631.861	10.0254
635.236	20.9844
638.611	47.2305
641.985	46.2695
645.36	42.8535
648.735	7.78906
652.11	16.375
655.485	113.045
658.859	94.7422
662.234	122.549
665.609	101.994
668.984	80.3027
672.359	47.627
675.734	49.791
679.108	6.99219
682.483	121.199
685.858	79.375
689.233	101.859
692.607	104.088
695.982	35.1016
699.357	110.631
702.732	130.156
706.107	141.893
709.482	129.356
712.856	80.0039
716.231	76.1973
719.606	121.617
722.981	69.8281
726.356	25.5098
729.731	45.8027
733.105	100.447
736.48	72.3945
739.855	39.1211
743.23	76.2559
746.605	107.992
749.979	11.8477
753.354	0.998047
756.729	15.9453
760.104	69.959
763.479	94.7578
766.854	70.2207
770.228	126.227
773.603	166.404
776.978	64.4453
780.353	52.8555
783.727	38.2461
787.102	64.2676
790.477	17.0391
793.852	122.156
797.227	100.242
800.602	40.875
803.976	37.082
807.351	137.662
810.726	102.379
814.101	82.459
817.476	26.6875
820.851	26.9473
824.225	125.564
827.6	86.5273
830.975	9.45703
834.35	48.7988
837.725	22.209
841.099	55.9121
844.474	30.5977
847.849	24.3535
851.224	18.9512
854.599	146.857
857.973	145.56
861.348	72.6309
864.723	151.522
868.098	147.996
871.473	109.236
874.848	113.723
878.222	64.3184
881.597	97.9785
884.972	59.9316
888.347	7.08594
891.722	67.6894
895.096	116.848
898.471	109.272
901.846	178.668
905.221	190.289
908.596	170.391
911.971	234.875
915.345	444.926
918.72	798.527
922.095	1004.27
925.47	1337.43
928.845	1909.91
932.22	2654.35
935.594	3610.99
938.969	4618.93
942.344	5468.65
945.719	5800.84
949.094	5252.15
952.468	4131.36
955.843	2890.2
959.218	1887.06
962.593	1183.55
965.968	626.144
969.342	287.582
972.717	116.727
976.092	113.859
979.467	250.387
982.842	294.523
986.216	373.199
989.591	208.582
992.966	52.2031
996.341	3.46484
999.716	16.8477
1003.09	155.238
1006.47	220.234
1009.84	344.519
1013.22	579.727
1016.59	680.816
1019.97	351.117
1023.34	155.086
1026.71	4.48828
1030.09	39.8164
1033.46	27.8477
1036.84	65.3477
1040.21	0.660156
1043.59	108.266
1046.96	220.234
1050.34	304.93
1053.71	482.059
1057.09	657.098
1060.46	574.269
1063.84	543.195
1067.21	282.617
1070.59	209.332
1073.96	98.832
1077.34	91.9258
1080.71	108.414
1084.09	137.469
1087.46	17.2578
1090.84	29.0234
1094.21	38.543
1097.59	49.4688
1100.96	77.8242
1104.34	91.2656
1107.71	182.039
1111.09	95.7891
1114.46	120.219
1117.83	88.0898
1121.21	109.606
1124.58	73.707
1127.96	161.363
1131.33	146.461
1134.71	141.234
1138.08	112.82
1141.46	36.1484
1144.83	85.2344
1148.21	132.961
1151.58	89.2148
1154.96	156.609
1158.33	120.07
1161.71	82.7969
1165.08	97.1836
1168.46	92.1641
1171.83	90.3398
1175.21	56.0977
1178.58	84.8281
1181.96	143.484
1185.33	38.9609
1188.7	96.4844
1192.08	29.0898
1195.45	84.5977
1198.83	65.3281
1202.2	34.0664
1205.58	1.18359
1208.95	63.3242
1212.33	63.9102
1215.7	103.891
1219.08	101.012
1222.45	168.309
1225.83	128.859
1229.2	9.61328
1232.58	11.7891
1235.95	47.25
1239.33	19.5195
1242.7	104.945
1246.08	152.809
1249.45	101.156
1252.83	39.5977
1256.2	12.3672
1259.58	73
1262.95	85.4961
1266.33	105.164
1269.7	123.777
1273.08	30.9766
1276.45	83.1992
1279.83	75.8867
1283.2	140.871
1286.58	99.5195
1289.95	43.1055
1293.33	35.4453
1296.7	88.5117
1300.07	160.035
1303.45	0
