Measurement: Raman, 780 nm, unoriented, Raman Data Processed
Mineral: Struvite
Rruff sample: R050540
Ideal chemistry: (NH_4_)MgPO_4_6H_2_O
Locality: Hamburg, Germany
Source: University of Arizona Mineral Museum
Description: Yellowish-brown wedge-shaped crystal
Measured chemistry: (NH_4_)(Mg_0.74_Fe^2+^_0.14_Ca_0.09_Mn_0.03_)_Σ=1_(P_1.00_O_4_)·6H_2_O ; NH_4_ not measured but estimated by charge balance.
Raman shift (cm-1)	intensity
92.8591	0
96.2339	144.603
99.6087	93.5786
102.984	9.22632
106.358	7.48877
109.733	2.29026
113.108	16.5669
116.483	48.1526
119.858	52.2139
123.232	53.5647
126.607	51.6995
129.982	80.4602
133.357	112.858
136.732	141.802
140.107	166.483
143.481	197.287
146.856	229.998
150.231	246.342
153.606	243.112
156.981	222.367
160.355	175.603
163.73	120.864
167.105	76.7224
170.48	35.3259
173.855	20.3457
177.23	24.2749
180.604	32.7327
183.979	39.9927
187.354	47.2935
190.729	32.5889
194.104	7.62085
197.478	1.95874
200.853	0.17749
204.228	3.78882
207.603	6.12158
210.978	8.19971
214.352	15.6773
217.727	22.0825
221.102	19.0461
224.477	17.1108
227.852	17.7676
231.226	28.8123
234.601	33.5698
237.976	31.7131
241.351	29.7361
244.726	26.0061
248.101	17.4002
251.475	14.7102
254.85	8.92725
258.225	8.3584
261.6	5.08618
264.975	0.763184
268.349	24.217
271.724	46.4873
275.099	72.9924
278.474	95.7761
281.849	128.27
285.224	163.649
288.598	176.816
291.973	187.498
295.348	182.208
298.723	170.647
302.098	144.796
305.473	131.934
308.847	126.323
312.222	104.405
315.597	94.6191
318.972	79.717
322.347	70.8464
325.721	72.1179
329.096	69.1765
332.471	50.6091
335.846	47.5583
339.221	34.846
342.596	22.6558
345.97	21.4927
349.345	23.6079
352.72	11.8577
356.095	12.4141
359.469	10.8728
362.844	12.9385
366.219	16.9976
369.594	15.9607
372.969	10.2583
376.344	10.4448
379.718	4.03003
383.093	18.4355
386.468	6.9917
389.843	2.37915
393.218	5.67041
396.592	2.9834
399.967	3.12598
403.342	2.30591
406.717	5.89502
410.092	1.91211
413.467	3.03784
416.841	10.1934
420.216	10.5203
423.591	7.99927
426.966	9.44531
430.341	4.50391
433.716	6.47314
437.09	9.94165
440.465	4.66016
443.84	17.3069
447.215	18.2707
450.59	28.6631
453.964	39.3523
457.339	47.9363
460.714	57.0698
464.089	48.3889
467.464	28.5605
470.839	25.4363
474.213	22.365
477.588	15.6248
480.963	7.35498
484.338	9.20825
487.713	2.08862
491.087	4.14502
494.462	0.343506
497.837	2.21191
501.212	0.520508
504.587	2.23828
507.962	1.479
511.336	6.35889
514.711	9.59717
518.086	5.96558
521.461	11.0574
524.836	16.1218
528.21	30.3901
531.585	28.2402
534.96	35.3486
538.335	43.6465
541.71	70.9768
545.085	93.1018
548.459	131.21
551.834	181.527
555.209	234.578
558.584	298.097
561.959	350.893
565.333	329.889
568.708	233.125
572.083	144.089
575.458	85.198
578.833	56.8176
582.207	29.5503
585.582	24.6897
588.957	15.823
592.332	14.8015
595.707	2.47437
599.082	2.4978
602.456	0.762695
605.831	2.57788
609.206	1.80103
612.581	5.46826
615.956	7.63696
619.33	2.46631
622.705	2.6958
626.08	10.5686
629.455	12.0591
632.83	3.73901
636.205	10.6533
639.579	6.6062
642.954	5.46924
646.329	4.75659
649.704	10.009
653.079	8.35938
656.453	8.68823
659.828	9.54004
663.203	7.3269
666.578	0.798584
669.953	9.29248
673.327	3.25635
676.702	3.73901
680.077	6.70654
683.452	0.212158
686.827	1.40161
690.202	2.6875
693.576	1.37476
696.951	6.78686
700.326	2.90991
703.701	3.22315
707.076	3.40332
710.45	9.33813
713.825	4.41821
717.2	3.1831
720.575	11.2502
723.95	11.7014
727.324	7.19824
730.699	11.6819
734.074	8.41089
737.449	14.2707
740.824	8.39111
744.199	15.5234
747.573	6.64819
750.948	4.25244
754.323	5.76514
757.698	10.8047
761.073	-1.19612
764.447	4.90649
767.822	5.77319
771.197	1.25781
774.572	6.13477
777.947	4.12793
781.322	6.9082
784.696	1.85498
788.071	0.565918
791.446	3.59228
794.821	10.0056
798.196	9.5376
801.571	8.0498
804.945	7.39551
808.32	4.20654
811.695	8.87646
815.07	1.28125
818.445	11.4768
821.819	3.25732
825.194	0.818848
828.569	3.75391
831.944	8.771
835.319	11.2075
838.693	2.13379
842.068	12.5686
845.443	6.05005
848.818	2.19336
852.193	2.98975
855.568	8.95581
858.942	11.429
862.317	6.25049
865.692	9.37744
869.067	12.0222
872.442	2.30371
875.817	1.32178
879.191	0.442139
882.566	1.09399
885.941	7.49976
889.316	10.9324
892.691	13.5459
896.065	16.5632
899.44	12.3064
902.815	24.9748
906.19	36.4402
909.565	43.1262
912.939	63.1589
916.314	90.5657
919.689	120.658
923.064	171.602
926.439	225.85
929.813	304.225
933.188	389.118
936.563	479.061
939.938	571.677
943.313	609.24
946.688	581.053
950.062	492.837
953.437	352.467
956.812	240.316
960.187	148.966
963.562	86.4292
966.937	43.6248
970.311	17.8247
973.686	3.4419
977.061	4.92578
980.436	0.817627
983.811	6.63208
987.185	2.4104
990.56	4.41382
993.935	7.34961
997.31	5.18701
1000.68	5.36963
1004.06	16.8604
1007.43	43.8884
1010.81	60.5447
1014.18	74.0244
1017.56	56.1108
1020.93	39.3391
1024.31	11.8296
1027.68	8.35767
1031.06	3.53296
1034.43	17.4932
1037.81	10.3503
1041.18	11.5176
1044.56	17.3452
1047.93	34.147
1051.31	45.9802
1054.68	59.0273
1058.06	70.2146
1061.43	59.5781
1064.81	51.1567
1068.18	33.3999
1071.56	14.5925
1074.93	18.9072
1078.31	8.64819
1081.68	16.7961
1085.06	1.94897
1088.43	5.16528
1091.81	6.65503
1095.18	3.70825
1098.55	2.01196
1101.93	5.8208
1105.3	5.73755
1108.68	9.06958
1112.05	14.0474
1115.43	0.564453
1118.8	0.892822
1122.18	6.7937
1125.55	9.78101
1128.93	12.7957
1132.3	5.89136
1135.68	10.9131
1139.05	7.80664
1142.43	12.1174
1145.8	9.1521
1149.18	5.26392
1152.55	9.78296
1155.93	12.3726
1159.3	10.613
1162.68	7.73804
1166.05	12.0435
1169.42	9.73901
1172.8	16.5156
1176.17	18.6335
1179.55	14.9634
1182.92	5.84033
1186.3	14.1921
1189.67	18.8957
1193.05	13.3435
1196.42	13.772
1199.8	11.1479
1203.17	15.5664
1206.55	15.365
1209.92	18.3838
1213.3	11.855
1216.67	4.29639
1220.05	0.332764
1223.42	3.44067
1226.8	2.85522
1230.17	6.39526
1233.55	9.06421
1236.92	9.26831
1240.3	1.38892
1243.67	1.22778
1247.05	13.5535
1250.42	8.35034
1253.8	3.75024
1257.17	3.30884
1260.55	3.89478
1263.92	10.7385
1267.3	9.81616
1270.67	7.83496
1274.05	3.94824
1277.42	6.90015
1280.79	2.30981
1284.17	11.7437
