Measurement: Raman, 532 nm, unoriented, Raman Data Processed
Mineral: Strunzite
Rruff sample: R050619
Ideal chemistry: Mn^2+^Fe^3+^_2_(PO_4_)_2_(OH)_2_6H_2_O
Locality: Hagendorf, Germany
Source: University of Arizona Mineral Museum
Description: Pale yellow acicular crystals
Measured chemistry: (Mn^2+^_0.52_Fe^2+^_0.43_Mg_0.05_)_Σ=1_Fe^3+^_2.00_(P_1.00_O_4_)_2_(OH)_2_·6H_2_O
Raman shift (cm-1)	intensity
121.007	0
124.381	25.3273
127.756	16.3347
131.131	11.4582
134.506	24.4873
137.881	49.6949
141.255	77.5842
144.63	118.404
148.005	218.849
151.38	291.828
154.755	361.87
158.13	474.96
161.504	687.245
164.879	948.515
168.254	899.291
171.629	618.401
175.004	451.087
178.379	401.542
181.753	383.916
185.128	350.019
188.503	285.08
191.878	212.43
195.253	160.457
198.627	109.938
202.002	62.29
205.377	28.0303
208.752	2.2721
212.127	4.86249
215.501	7.72107
218.876	14.7686
222.251	33.4694
225.626	50.7217
229.001	52.4847
232.376	15.0972
235.75	3.2077
239.125	19.0074
242.5	76.7305
245.875	140.96
249.25	179.803
252.625	169.547
255.999	174.708
259.374	190.186
262.749	187.18
266.124	160.986
269.499	150.885
272.873	126.427
276.248	141.562
279.623	155.284
282.998	170.417
286.373	186.93
289.748	205.872
293.122	214.072
296.497	218.868
299.872	227.326
303.247	220.483
306.622	196.375
309.997	161.499
313.371	149.319
316.746	132.705
320.121	128.005
323.496	111.037
326.871	94.7662
330.245	72.2987
333.62	33.6619
336.995	23.1659
340.37	12.0262
343.745	3.98578
347.12	0.4263
350.494	9.24765
353.869	15.5307
357.244	3.06113
360.619	2.10196
363.994	5.26923
367.368	19.8394
370.743	30.0744
374.118	38.7518
377.493	61.2441
380.868	87.3499
384.243	117.779
387.617	145.884
390.992	179.064
394.367	216.113
397.742	249.381
401.117	277.76
404.491	279.3
407.866	257.175
411.241	208.802
414.616	147.477
417.991	90.9221
421.366	59.6645
424.74	36.6794
428.115	19.3308
431.49	10.5969
434.865	14.2935
438.24	1.44498
441.615	9.63944
444.989	1.02457
448.364	6.40195
451.739	34.2992
455.114	60.2802
458.489	76.5706
461.863	102.991
465.238	116.849
468.613	132.279
471.988	114.517
475.363	95.2694
478.738	69.9971
482.112	34.6354
485.487	28.6386
488.862	29.4918
492.237	18.0786
495.612	11.6812
498.986	25.7531
502.361	13.7393
505.736	24.3311
509.111	11.7773
512.486	21.7299
515.861	15.5773
519.235	6.76627
522.61	6.90875
525.985	22.9361
529.36	32.1994
532.735	40.1541
536.11	45.8627
539.484	52.9685
542.859	65.6356
546.234	75.2287
549.609	90.8316
552.984	114.871
556.358	141.37
559.733	174.866
563.108	197.639
566.483	215.722
569.858	241.976
573.232	252.897
576.607	248.072
579.982	210.793
583.357	178.6
586.732	141.852
590.107	102.961
593.481	60.9369
596.856	42.8592
600.231	14.9684
603.606	4.62814
606.981	2.32263
610.356	6.01828
613.73	3.94684
617.105	0.561523
620.48	17.9193
623.855	22.7632
627.23	26.7256
630.605	40.1256
633.979	53.0121
637.354	59.3966
640.729	60.0957
644.104	52.1807
647.479	45.2181
650.853	33.4474
654.228	25.0235
657.603	5.81378
660.978	9.16812
664.353	10.9828
667.727	3.96355
671.102	0.593155
674.477	1.03184
677.852	4.40196
681.227	9.90657
684.602	6.80118
687.976	3.55864
691.351	7.88588
694.726	12.4856
698.101	9.45547
701.476	12.0618
704.851	25.6285
708.225	14.0675
711.6	12.4619
714.975	14.352
718.35	17.9841
721.725	20.1204
725.1	18.2128
728.474	17.8065
731.849	11.7669
735.224	18.0917
738.599	11.9397
741.974	10.2764
745.348	15.9823
748.723	8.42052
752.098	5.8437
755.473	0.107651
758.848	6.77394
762.222	9.21054
765.597	7.41367
768.972	10.8218
772.347	1.83414
775.722	0.515259
779.097	4.57684
782.471	2.06833
785.846	11.5523
789.221	8.61156
792.596	11.7929
795.971	4.55759
799.346	2.47955
802.72	4.9975
806.095	9.78046
809.47	5.53359
812.845	7.00499
816.22	0.848404
819.595	4.66066
822.969	5.15375
826.344	4.82716
829.719	5.9688
833.094	4.5464
836.469	4.12239
839.843	1.22272
843.218	11.8278
846.593	10.3197
849.968	9.35498
853.343	6.46401
856.717	3.56262
860.092	6.27817
863.467	10.0361
866.842	11.2644
870.217	4.83841
873.592	7.75888
876.966	16.3836
880.341	17.9708
883.716	15.8006
887.091	20.982
890.466	21.1141
893.841	21.9378
897.215	20.2969
900.59	21.4797
903.965	24.8945
907.34	22.9512
910.715	10.7142
914.09	8.86287
917.464	6.77936
920.839	8.65349
924.214	5.07358
927.589	9.59671
930.964	0.997604
934.338	4.58984
937.713	2.72237
941.088	7.02847
944.463	4.19728
947.838	1.81992
951.212	4.42816
954.587	6.95776
957.962	22.3566
961.337	40.0548
964.712	61.0874
968.087	97.2016
971.461	137.392
974.836	166.835
978.211	188.099
981.586	189.282
984.961	191.199
988.336	225.664
991.71	252.582
995.085	277.392
998.46	285.141
1001.84	290.261
1005.21	301.459
1008.58	295.249
1011.96	294.604
1015.33	273.197
1018.71	239.882
1022.08	211.005
1025.46	183.416
1028.83	181.661
1032.21	186.489
1035.58	204.357
1038.96	208.622
1042.33	212.045
1045.71	232.967
1049.08	252.425
1052.46	251.124
1055.83	250.803
1059.21	235.596
1062.58	192.833
1065.96	147.125
1069.33	93.7262
1072.71	58.5187
1076.08	22.1236
1079.46	11.2172
1082.83	3.90692
1086.2	1.87004
1089.58	10.528
1092.95	0.480255
1096.33	6.85938
1099.7	15.9876
1103.08	32.3804
1106.45	48.7701
1109.83	67.8366
1113.2	76.6844
1116.58	78.5446
1119.95	86.7867
1123.33	66.7935
1126.7	55.8872
1130.08	35.4535
1133.45	13.6745
1136.83	10.2696
1140.2	0.911514
1143.58	0.952316
1146.95	0.278198
1150.33	1.7084
1153.7	0.770584
1157.08	0.867371
1160.45	1.55931
1163.83	2.27592
1167.2	4.71849
1170.58	8.06677
1173.95	11.0633
1177.33	7.5713
1180.7	19.0006
1184.08	19.3141
1187.45	22.6062
1190.83	19.6841
1194.2	25.3828
1197.57	22.295
1200.95	22.9223
1204.32	27.6309
1207.7	28.4545
1211.07	26.8476
1214.45	27.8922
1217.82	20.5587
1221.2	13.6675
1224.57	22.6038
1227.95	17.4674
1231.32	14.8187
1234.7	16.0735
1238.07	12.6783
1241.45	16.4043
1244.82	13.6569
1248.2	13.227
1251.57	10.2582
1254.95	18.2495
1258.32	14.7749
1261.7	16.0599
1265.07	11.8215
1268.45	9.53773
1271.82	2.22667
1275.19	11.177
1278.57	8.33845
1281.94	7.43118
1285.32	2.17273
1288.69	4.51434
1292.07	3.43419
1295.44	2.71294
1298.82	2.57558
1302.19	1.2247
