Measurement: Raman, 785 nm, unoriented, Raman Data Processed
Mineral: Struvite
Rruff sample: R050511
Ideal chemistry: (NH_4_)MgPO_4_6H_2_O
Locality: Hamburg, Germany
Source: American Museum of Natural History
Description: Colorless with a brown tint, cleavage fragment
Measured chemistry: (NH_4_)(Mg_0.85_Fe^2+^_0.12_Mn_0.02_Ca_0.01_)_Σ=1_(P_1.00_O_4_)·6H_2_O ; NH_4_ not measured but assumed by charge balance
Raman shift (cm-1)	intensity
166.847	0
169.74	674.887
172.632	1366.54
175.525	1798.88
178.418	2329.9
181.31	2683.83
184.203	2613.93
187.096	1985.22
189.989	1087.06
192.881	396.045
195.774	74.8223
198.667	54.2305
201.559	104.064
204.452	19.8184
207.345	197.68
210.238	415.468
213.13	416.312
216.023	696.509
218.916	1150.63
221.808	1966.93
224.701	2737.93
227.594	3040.46
230.486	2615.95
233.379	1786.34
236.272	1024.19
239.165	481.206
242.057	274.276
244.95	24.2598
247.843	36.8438
250.735	107.407
253.628	6.04785
256.521	224.9
259.413	449.224
262.306	813.747
265.199	961.824
268.091	1368.65
270.984	1662.85
273.877	1945.55
276.77	2038.13
279.662	2203.45
282.555	2439.27
285.448	2654.86
288.34	2838.17
291.233	2874.68
294.126	2813.47
297.019	2320.72
299.911	2100.73
302.804	1884.04
305.697	1659.01
308.589	1509.77
311.482	1148.97
314.375	828.344
317.267	616.774
320.16	400.244
323.053	330.96
325.945	414.65
328.838	339.677
331.731	310.09
334.624	171.544
337.516	8.97461
340.409	68.0156
343.302	20.9785
346.194	40.6504
349.087	45.458
351.98	85.665
354.872	121.32
357.765	90.1719
360.658	132.562
363.55	78.7197
366.443	160.496
369.336	269.06
372.229	441.345
375.121	565.158
378.014	690.527
380.907	651.509
383.799	618.117
386.692	583.854
389.585	574.604
392.478	706.082
395.37	720.165
398.263	718.438
401.156	663.5
404.048	512.661
406.941	320.144
409.834	318.273
412.726	424.525
415.619	556.352
418.512	675.621
421.404	908.484
424.297	1045.83
427.19	1291.81
430.083	1414.76
432.975	1514.24
435.868	1569.4
438.761	1562.21
441.653	1248.63
444.546	1089.27
447.439	903.97
450.332	693.087
453.224	630.145
456.117	542.024
459.01	524.613
461.902	556.128
464.795	432.187
467.688	404.831
470.58	315.492
473.473	212.083
476.366	109.258
479.259	8.13477
482.151	52.044
485.044	24.3428
487.937	43.4121
490.829	91.79
493.722	4.1084
496.615	92.0078
499.507	45.8418
502.4	41.2773
505.293	3.68359
508.185	13.8896
511.078	153.958
513.971	90.7344
516.864	191.393
519.756	138.034
522.649	170.761
525.542	225.098
528.434	262.69
531.327	312.792
534.22	373.612
537.112	522.982
540.005	660.811
542.898	761.802
545.791	895.951
548.683	1078.23
551.576	1534.33
554.469	1990.56
557.361	2740.23
560.254	3575.49
563.147	4479.84
566.039	4952.62
568.932	5049.76
571.825	4235.94
574.718	3111.96
577.61	2103.52
580.503	1370.34
583.396	969.245
586.288	702.525
589.181	401.275
592.074	263.889
594.966	205.897
597.859	88.8154
600.752	46.2559
603.644	32.4727
606.537	20.4365
609.43	30.166
612.323	106.649
615.215	14.167
618.108	41.3975
621.001	26.7627
623.893	13.542
626.786	21.1299
629.679	20.6201
632.572	26.8545
635.464	15.831
638.357	124.808
641.25	28.9004
644.142	26.8545
647.035	94.9492
649.928	44.8799
652.82	83.4356
655.713	101.15
658.606	90.2334
661.499	32.582
664.391	0.473633
667.284	66.4346
670.177	47.001
673.069	65.4883
675.962	189.63
678.855	96.6397
681.747	103.948
684.64	88.9209
687.533	112.61
690.426	20.0293
693.318	16.5293
696.211	112.666
699.104	193.508
701.996	133.812
704.889	101.758
707.782	48.6719
710.674	38.3369
713.567	80.6348
716.46	81.2051
719.352	133.338
722.245	133.227
725.138	118.04
728.031	74.5967
730.923	102.73
733.816	9.47266
736.709	121.856
739.601	95.1963
742.494	196.605
745.387	44.7861
748.279	100.673
751.172	98.1641
754.065	98.7881
756.958	47.1816
759.85	30.998
762.743	69.9785
765.636	79.5498
768.528	99.1172
771.421	117.905
774.314	158.631
777.207	26.0732
780.099	81.9775
782.992	122.075
785.885	157.66
788.777	261.916
791.67	241.35
794.563	174.559
797.455	146.084
800.348	126.159
803.241	153.992
806.134	105.693
809.026	120.522
811.919	197.077
814.812	166.57
817.704	32.6201
820.597	13.4219
823.49	19.6602
826.382	14.9053
829.275	32.0693
832.168	52.0068
835.061	54.6201
837.953	68.6367
840.846	87.1934
843.739	14.1396
846.631	32.3975
849.524	5.67285
852.417	9.37305
855.309	29.5479
858.202	73.8769
861.095	124.615
863.987	178.07
866.88	149.048
869.773	158.087
872.665	201.887
875.558	155.382
878.451	209.489
881.344	177.065
884.236	250.458
887.129	161.475
890.022	241.905
892.914	218.05
895.807	213.723
898.7	282.728
901.592	338.912
904.485	455.318
907.378	617.856
910.271	686.799
913.163	953.531
916.056	1201.56
918.949	1531.16
921.841	1988.92
924.734	2654.61
927.627	3545.98
930.519	4816
933.412	6282.86
936.305	8113.36
939.198	10047.1
942.09	12068.5
944.983	13058.3
947.876	12961.7
950.768	11338.3
953.661	9113.83
956.554	6796.16
959.447	4830.83
962.339	3384.19
965.232	2255.72
968.125	1577.05
971.017	1036.28
973.91	732.275
976.803	461.987
979.695	404.925
982.588	403.985
985.481	471.315
988.374	401.685
991.266	303.374
994.159	198.108
997.052	299.904
999.944	272.538
1002.84	218.846
1005.73	184.399
1008.62	105.445
1011.51	55.3252
1014.41	86.4727
1017.3	29.4141
1020.19	9.82324
1023.09	135.254
1025.98	78.6807
1028.87	3.18457
1031.76	16.7695
1034.66	91.7637
1037.55	186.281
1040.44	384.81
1043.34	492.004
1046.23	472.719
1049.12	522.266
1052.01	360.795
1054.91	359.751
1057.8	358.141
1060.69	342.198
1063.58	320.221
1066.48	309.062
1069.37	290.144
1072.26	202.124
1075.15	109.953
1078.05	190.379
1080.94	120.029
1083.83	82.4561
1086.72	15.4316
1089.62	5.03125
1092.51	17.166
1095.4	54.8301
1098.3	95.9453
1101.19	73.5693
1104.08	35.3281
1106.97	95.6582
1109.87	94.6006
1112.76	104.61
1115.65	94.7588
1118.55	124.645
1121.44	152.299
1124.33	161.83
1127.22	152.078
1130.12	200.706
1133.01	143.127
1135.9	84.3252
1138.79	158.593
1141.69	36.4131
1144.58	116.45
1147.47	109.38
1150.37	29.1465
1153.26	50.7891
1156.15	27.1768
1159.04	22.7568
1161.93	57.3603
1164.83	90.9756
1167.72	105.273
1170.61	16.2988
1173.51	31.6182
1176.4	53.7022
1179.29	62.4268
1182.18	38.7002
1185.08	24.2529
1187.97	113.515
1190.86	48.9512
1193.76	34.001
1196.65	68.7217
1199.54	44.7207
1202.43	11.7295
1205.33	29.8184
1208.22	25.5469
1211.11	39.7129
1214	120.218
1216.9	68.8525
1219.79	106.529
1222.68	115.242
1225.58	92.9727
1228.47	70.7949
1231.36	54.4902
1234.25	53.9746
1237.15	153.821
1240.04	27.4209
1242.93	130.308
1245.82	76.3057
1248.72	61.6318
1251.61	13.4805
1254.5	18.5039
1257.39	65.4014
1260.29	22.9238
1263.18	65.042
1266.07	8.74023
