Measurement: Raman, 780 nm, unoriented, Raman Data Processed
Mineral: Studenitsite
Rruff sample: R070687
Ideal chemistry: NaCa_2_B_9_O_14_(OH)_4_2H_2_O
Locality: Pobrdzhsky Potok & Peskanya deposits,  Balevats,  Jarandol Basin, Serbia and Montenegro
Source: Michael Scott
Description: Colorless crystal in capsule
Raman shift (cm-1)	intensity
192.768	0
195.66	8.15332
198.553	77.4766
201.446	140.644
204.339	243.182
207.231	385.211
210.124	580.969
213.017	836.064
215.909	1023.13
218.802	1134
221.695	1295.26
224.587	1326.37
227.48	1342.26
230.373	1307.45
233.266	1227.73
236.158	1146.7
239.051	1142.99
241.944	1167.97
244.836	1268.17
247.729	1537.5
250.622	1799.18
253.514	2111.21
256.407	2552.54
259.3	2917.39
262.193	3103.96
265.085	3016.32
267.978	2587.62
270.871	1848.33
273.763	1245.66
276.656	836.652
279.549	815.47
282.442	1217.31
285.334	1408.34
288.227	1203.44
291.12	800.619
294.012	454.725
296.905	235.56
299.798	151.117
302.69	79.6304
305.583	28.1387
308.476	21.6699
311.368	13.3887
314.261	20.2695
317.154	88.9087
320.047	94.8755
322.939	229.467
325.832	359.488
328.725	587.3
331.617	647.908
334.51	837.145
337.403	985.297
340.296	1077.42
343.188	1021.09
346.081	678.581
348.974	440.288
351.866	342.981
354.759	181.347
357.652	81.1484
360.544	32.5996
363.437	26.9336
366.33	30.0625
369.223	64.8916
372.115	28.3374
375.008	2.62647
377.901	45.0581
380.793	107.883
383.686	159.592
386.579	125.303
389.471	140.398
392.364	148.967
395.257	389.274
398.149	266.263
401.042	372.568
403.935	440.174
406.828	534.707
409.72	588.223
412.613	839.747
415.506	999.645
418.398	1208.08
421.291	1278.26
424.184	1119.29
427.077	872.096
429.969	657.929
432.862	520.54
435.755	384.897
438.647	291.286
441.54	269.769
444.433	324.252
447.325	456.804
450.218	561.906
453.111	917.757
456.003	1107.19
458.896	1056.46
461.789	648.473
464.682	439.32
467.574	351.056
470.467	232.167
473.36	297.214
476.252	310.157
479.145	364.606
482.038	518.514
484.931	740.816
487.823	1018.28
490.716	1326.28
493.609	1701.15
496.501	1925.38
499.394	2502.47
502.287	2123.88
505.18	1802.11
508.072	1461.06
510.965	1206.58
513.858	791.369
516.75	555.94
519.643	455.418
522.536	273.538
525.428	168.053
528.321	43.4746
531.214	78.3267
534.106	5.34277
536.999	30.6606
539.892	42.2847
542.785	2.20361
545.677	24.1558
548.57	9.896
551.463	39.7441
554.355	60.5801
557.248	34.7026
560.141	30.0049
563.034	76.1543
565.926	58.938
568.819	9.72461
571.712	64.0068
574.604	21.98
577.497	12.5645
580.39	97.5444
583.282	58.8696
586.175	83.6338
589.068	50.8672
591.961	17.2354
594.853	86.2017
597.746	85.6411
600.639	46.3472
603.531	101.66
606.424	82.0996
609.317	44.2315
612.209	13.3047
615.102	31.2974
617.995	14.7524
620.888	28.7417
623.78	50.9648
626.673	0.898438
629.566	1.92481
632.458	31.7627
635.351	9.66846
638.244	4.62646
641.136	47.4438
644.029	57.0303
646.922	15.4551
649.814	36.7012
652.707	41.3911
655.6	22.6855
658.493	29.373
661.385	54.4941
664.278	58.4468
667.171	96.3877
670.063	178.909
672.956	180.695
675.849	167.102
678.742	207.915
681.634	217.84
684.527	132.243
687.42	100.246
690.312	81.0478
693.205	91.5122
696.098	92.1411
698.99	29.4097
701.883	62.6035
704.776	0.780273
707.669	11.6406
710.561	7.23389
713.454	18.8569
716.347	31.6875
719.239	14.3565
722.132	30.2417
725.025	41.5312
727.918	75.7031
730.81	37.4346
733.703	47.2031
736.596	122.999
739.488	236.252
742.381	185.942
745.274	288.825
748.166	233.304
751.059	285.519
753.952	363.002
756.845	475.702
759.737	487.617
762.63	357.512
765.523	247.24
768.415	170.749
771.308	209.617
774.201	164.953
777.093	162.47
779.986	234.241
782.879	200.213
785.771	261.916
788.664	299.033
791.557	361.337
794.45	361.627
797.342	359.191
800.235	335.513
803.128	245.473
806.02	190.187
808.913	182.885
811.806	173.275
814.698	138.142
817.591	87.8242
820.484	31.0889
823.377	42.8794
826.269	28.9878
829.162	29.5884
832.055	36.6284
834.947	2.31641
837.84	35.022
840.733	41.9009
843.625	23.9678
846.518	22.6519
849.411	32.3579
852.304	12.9961
855.196	19.708
858.089	22.4653
860.982	9.7456
863.875	32.1987
866.767	20.8169
869.66	23.4634
872.553	1.29004
875.445	18.5713
878.338	22.0356
881.231	25.7334
884.123	18.9829
887.016	53.6172
889.909	80.2661
892.802	92.1016
895.694	118.459
898.587	212.198
901.48	294.28
904.372	409.419
907.265	554.516
910.158	722.598
913.05	889.105
915.943	1048.55
918.836	1158.02
921.729	1160.23
924.621	1089.15
927.514	921.291
930.407	725.75
933.299	641.687
936.192	472.646
939.085	383.671
941.977	262.397
944.87	289.217
947.763	338.882
950.655	434.984
953.548	548.2
956.441	580.736
959.334	580.51
962.226	499.103
965.119	473.032
968.012	435.291
970.904	466.551
973.797	457.602
976.69	447.947
979.582	383.19
982.475	396.979
985.368	360.17
988.261	356.978
991.153	367.779
994.046	423.923
996.939	499.793
999.831	515.032
1002.72	582.237
1005.62	554.835
1008.51	563.364
1011.4	477.759
1014.29	356.365
1017.19	315.483
1020.08	206.652
1022.97	173.383
1025.87	167.138
1028.76	52.9177
1031.65	32.7871
1034.54	23.6555
1037.44	44.2759
1040.33	7.19092
1043.22	68.8867
1046.12	29.4311
1049.01	46.126
1051.9	66.3699
1054.79	127.95
1057.68	101.211
1060.58	48.7197
1063.47	31.968
1066.36	3.5647
1069.26	11.0242
1072.15	17.6892
1075.04	19.4607
1077.93	27.6384
1080.83	55.3196
1083.72	48.6585
1086.61	40.8218
1089.51	41.2207
1092.4	59.343
1095.29	63.738
1098.18	68.4424
1101.08	90.5889
1103.97	100.534
1106.86	48.8245
1109.75	93.0708
1112.65	80.1951
1115.54	21.0041
1118.43	83.5955
1121.33	56.4387
1124.22	64.5227
1127.11	130.58
1130	195.816
1132.9	88.7798
1135.79	56.8252
1138.68	9.74829
1141.57	4.53125
1144.47	34.9424
1147.36	19.0764
1150.25	33.4329
1153.14	5.20606
1156.04	30.1865
1158.93	0.28833
1161.82	6.43018
1164.71	14.4248
1167.61	43.7588
1170.5	127.51
1173.39	55.3606
1176.29	63.5249
1179.18	41.3027
1182.07	53.3589
1184.96	57.0156
1187.86	55.7224
1190.75	43.1587
1193.64	80.459
1196.54	72.2029
1199.43	170.697
1202.32	96.063
1205.21	82.0464
1208.11	63.1079
1211	53.9126
1213.89	75.9297
1216.78	51.8984
1219.68	40.3357
1222.57	79.0566
1225.46	18.8074
1228.36	34.1992
1231.25	24.239
1234.14	67.1362
1237.03	62.1909
1239.93	39.6265
1242.82	39.1335
1245.71	46.1902
1248.6	81.0164
1251.5	35.3516
1254.39	26.5791
1257.28	63.6951
1260.17	33.813
1263.07	34.3794
1265.96	61.0569
1268.85	56.8835
1271.74	10.4312
1274.64	17.8267
1277.53	10.7954
1280.42	41.5149
1283.32	35.0608
1286.21	12.6499
