Measurement: Raman, 532 nm, unoriented, Raman Data Processed
Mineral: Studenitsite
Rruff sample: R070687
Ideal chemistry: NaCa_2_B_9_O_14_(OH)_4_2H_2_O
Locality: Pobrdzhsky Potok & Peskanya deposits,  Balevats,  Jarandol Basin, Serbia and Montenegro
Source: Michael Scott
Description: Colorless crystal in capsule
Raman shift (cm-1)	intensity
151.381	0
154.274	19.0923
157.166	23.415
160.059	31.48
162.952	25.1299
165.844	13.6206
168.737	47.7895
171.63	79.1001
174.522	46.667
177.415	124.766
180.308	186.674
183.201	204.47
186.093	184.241
188.986	88.9883
191.879	141.299
194.771	148.661
197.664	91.4775
200.557	179.566
203.449	326.885
206.342	335.94
209.235	405.201
212.127	575.25
215.02	609.706
217.913	786.614
220.806	833.217
223.698	892.972
226.591	938.723
229.484	1018.77
232.376	849.612
235.269	886.27
238.162	880.602
241.054	873.531
243.947	997.965
246.84	1267.82
249.732	1504.25
252.625	1763.17
255.518	2038.82
258.411	2388.25
261.303	2690.67
264.196	2810.39
267.089	2593.71
269.981	2258.19
272.874	1619.34
275.767	1099.54
278.659	948.488
281.552	1055.93
284.445	1451.04
287.338	1453.35
290.23	1141.76
293.123	661.297
296.016	366.31
298.908	208.494
301.801	66.3652
304.694	39.4248
307.587	34.9473
310.479	20.1279
313.372	2.28369
316.265	7.16846
319.157	87.7383
322.05	171.743
324.943	276.091
327.835	414.929
330.728	568.08
333.621	508.184
336.514	604.29
339.406	657.549
342.299	609.899
345.192	542.492
348.084	415.261
350.977	274.698
353.87	133.86
356.762	58.2993
359.655	34.3667
362.548	10.9009
365.44	45.1221
368.333	69.2295
371.226	74.3589
374.119	31.6548
377.011	28.96
379.904	36.207
382.797	111.703
385.689	178.288
388.582	159.596
391.475	160.551
394.368	212.483
397.26	285.733
400.153	399.385
403.046	512.449
405.938	639.887
408.831	659.919
411.724	846.051
414.616	1134.16
417.509	1379.12
420.402	1615.7
423.295	1685.47
426.187	1484.43
429.08	1233.78
431.973	910.575
434.865	712.221
437.758	534.377
440.651	471.418
443.543	390.148
446.436	345.068
449.329	440.879
452.221	479.161
455.114	653.008
458.007	747.986
460.9	597.248
463.792	473.791
466.685	347.725
469.578	353.944
472.47	325.735
475.363	393.032
478.256	504.044
481.149	607.695
484.041	914.769
486.934	1171.21
489.827	1512.79
492.719	1828.97
495.612	2112.86
498.505	2450.08
501.397	2462.44
504.29	2355.55
507.183	2022.61
510.075	1618.7
512.968	1220.76
515.861	862.187
518.754	647.6
521.646	338.576
524.539	225.75
527.432	85.9707
530.324	60.7676
533.217	33.417
536.11	6.05273
539.002	63.7212
541.895	82.9214
544.788	15.856
547.681	9.21729
550.573	83.2173
553.466	82.3804
556.359	45.3511
559.251	90.8813
562.144	80.1157
565.037	17.2197
567.929	29.7017
570.822	88.2334
573.715	18.5903
576.607	36.8374
579.5	53.794
582.393	48.8418
585.286	74.5019
588.178	86.3193
591.071	98.6084
593.964	105.435
596.856	118.397
599.749	73.166
602.642	112.848
605.534	108.281
608.427	65.2144
611.32	37.3164
614.213	34.9585
617.105	85.3511
619.998	28.4355
622.891	44.1655
625.783	5.01807
628.676	6.28516
631.569	37.2173
634.462	18.6567
637.354	17.4751
640.247	1.89111
643.14	10.165
646.032	9.61719
648.925	51.9766
651.818	8.81641
654.71	36.1157
657.603	27.1216
660.496	11.6621
663.389	66.1646
666.281	85.4517
669.174	168.146
672.067	143.641
674.959	217.705
677.852	206.77
680.745	234.643
683.637	192.12
686.53	196.895
689.423	128.197
692.316	76.9263
695.208	119.238
698.101	116.135
700.994	89.1919
703.886	24.8447
706.779	12.749
709.672	4.72412
712.564	5.77197
715.457	5.11279
718.35	23.9136
721.242	32.5918
724.135	72.9224
727.028	76.7783
729.921	89.4722
732.813	164.666
735.706	157.426
738.599	233.229
741.491	225.144
744.384	291.039
747.277	203.516
750.169	236.418
753.062	238.967
755.955	262.551
758.848	253.548
761.74	316.862
764.633	154.477
767.526	149.656
770.418	135.417
773.311	139.43
776.204	180.855
779.096	252.247
781.989	185.023
784.882	233.369
787.775	268.234
790.667	314.041
793.56	406.964
796.453	430.095
799.345	350.191
802.238	303.47
805.131	297.344
808.024	329.072
810.916	359.985
813.809	370.54
816.702	246.491
819.594	98.3208
822.487	104.558
825.38	84.4033
828.272	38.3911
831.165	88.8291
834.058	55.2031
836.95	31.4248
839.843	65.6519
842.736	33.2036
845.629	32.5181
848.521	36.6792
851.414	59.8423
854.307	45.4126
857.199	52.7495
860.092	16.7217
862.985	3.64795
865.877	58.2461
868.77	35.8091
871.663	22.0996
874.556	8.74512
877.448	18.4307
880.341	17.4795
883.234	13.835
886.126	38.7505
889.019	54.918
891.912	95.1782
894.804	137.958
897.697	181.046
900.59	242.026
903.482	423.336
906.375	525.864
909.268	763.42
912.161	863.893
915.053	1069.56
917.946	1242.29
920.839	1310.81
923.731	1332.07
926.624	1207.89
929.517	1013.61
932.409	875.326
935.302	615.945
938.195	501.53
941.088	372.38
943.98	306.625
946.873	329.832
949.766	346.01
952.658	419.725
955.551	516.299
958.444	544.557
961.337	503.839
964.229	469.339
967.122	428.141
970.015	392.28
972.907	400.251
975.8	367.923
978.693	328.617
981.585	359.29
984.478	343.064
987.371	351.56
990.264	319.336
993.156	362.384
996.049	363.688
998.942	525.809
1001.83	601.639
1004.73	730.101
1007.62	800.097
1010.51	840.653
1013.4	783.905
1016.3	693.524
1019.19	544.158
1022.08	453.386
1024.98	326.57
1027.87	218.888
1030.76	100.098
1033.65	26.1162
1036.55	12.4663
1039.44	26.2461
1042.33	54.898
1045.22	29.7456
1048.12	13.2607
1051.01	76.6289
1053.9	93.5957
1056.8	152.727
1059.69	141.19
1062.58	49.8008
1065.47	54.8901
1068.37	26.9956
1071.26	2.24268
1074.15	44.248
1077.04	54.5859
1079.94	152.936
1082.83	144.611
1085.72	148.603
1088.62	131.091
1091.51	210.76
1094.4	132.502
1097.29	130.398
1100.19	104.763
1103.08	131.983
1105.97	169.33
1108.86	93.5352
1111.76	88.6099
1114.65	112.22
1117.54	133.095
1120.43	143.55
1123.33	85.6987
1126.22	176.515
1129.11	128.971
1132.01	174.09
1134.9	47.0596
1137.79	52.7046
1140.68	4.90625
1143.58	11.1963
1146.47	40.6519
1149.36	30.3301
1152.26	47.5654
1155.15	93.9204
1158.04	62.8965
1160.93	17.0752
1163.83	20.8926
1166.72	90.4443
1169.61	50.584
1172.5	61.1675
1175.4	76.6035
1178.29	58.2358
1181.18	87.417
1184.07	55.5806
1186.97	84.6626
1189.86	106.001
1192.75	81.7212
1195.64	94.249
1198.54	52.6235
1201.43	34.1728
1204.32	100.301
1207.22	31.8755
1210.11	77.9858
1213	43.7305
1215.89	97.4385
1218.79	20.0727
1221.68	47.6079
1224.57	14.0674
1227.46	39.2217
1230.36	70.208
1233.25	16.7524
1236.14	32.6235
1239.04	13.794
1241.93	50.0498
1244.82	62.3989
1247.71	24.1714
1250.61	48.2842
1253.5	41.7817
1256.39	8.13379
1259.29	16.3096
1262.18	39.1704
1265.07	29.8179
1267.96	12.627
1270.86	51.5684
1273.75	19.7661
1276.64	64.5566
1279.53	12.166
1282.43	23.2983
1285.32	52.0605
1288.21	43.208
1291.1	67.1118
1294	129.435
1296.89	190.315
1299.78	81.6885
1302.67	1.08154
