Measurement: Raman, 532 nm, unoriented, Raman Data Processed
Mineral: Sugilite
Rruff sample: R070623
Ideal chemistry: KNa_2_Fe^3+^_2_(Li_3_Si_12_)O_30_
Locality: Wessels mine, Kuruman, Kalahari Manganese Field, South Africa
Source: Shinichi Kihara
Description: Bright purple fragment
Raman shift (cm-1)	intensity
130.271	0
133.164	1460.62
136.057	660.246
138.949	602.223
141.842	1328.68
144.735	3283.28
147.627	5449.81
150.52	2421.51
153.413	617.586
156.305	108.844
159.198	12.5137
162.091	43.0879
164.984	127.014
167.876	307.527
170.769	321.306
173.662	763.923
176.554	505.051
179.447	698.906
182.34	752.741
185.232	247.848
188.125	92.0576
191.018	22.3252
193.911	17.1445
196.803	96.625
199.696	137.129
202.589	93.7568
205.481	69.4775
208.374	13.583
211.267	15.2324
214.159	171.756
217.052	108.131
219.945	324.789
222.838	325.018
225.73	352.791
228.623	409.551
231.516	220.66
234.408	367.613
237.301	460.522
240.194	585.463
243.086	602.127
245.979	838.279
248.872	911.644
251.764	1052.78
254.657	1360.96
257.55	1499.95
260.443	1627.08
263.335	1365.33
266.228	1397.35
269.121	1521.18
272.013	1943.92
274.906	2278.29
277.799	2343.92
280.692	1779.95
283.584	1486.43
286.477	1000.05
289.37	672.584
292.262	992.758
295.155	554.488
298.048	642.217
300.94	534.277
303.833	388.178
306.726	310.688
309.618	346.147
312.511	603.961
315.404	676.891
318.296	1100.52
321.189	1339.3
324.082	1804.13
326.975	2397.6
329.867	2978.56
332.76	3351.83
335.653	2929.73
338.545	1854.98
341.438	1173.51
344.331	701.064
347.224	528.463
350.116	238.518
353.009	71.5664
355.902	32.0996
358.794	86.3848
361.687	105.947
364.58	32.7539
367.472	61.9453
370.365	0.09375
373.258	109.389
376.151	95.6172
379.043	268.25
381.936	126.475
384.829	234.266
387.721	252.092
390.614	193.356
393.507	251.527
396.399	392.084
399.292	345.014
402.185	233.65
405.077	221.803
407.97	101.385
410.863	16.4844
413.756	18.877
416.648	84.9688
419.541	140.803
422.434	498.731
425.326	986.525
428.219	1901.05
431.112	3073.49
434.004	4526.92
436.897	5774.87
439.79	7572.47
442.683	10222.6
445.575	10309.6
448.468	6627.24
451.361	3794.43
454.253	2153.51
457.146	1331.31
460.039	1074.88
462.931	1149.5
465.824	1305.99
468.717	1277.61
471.61	1423.27
474.502	1485.89
477.395	1188.65
480.288	835.18
483.18	379.371
486.073	161.848
488.966	208.043
491.858	146.945
494.751	5.89648
497.644	59.9785
500.536	136.648
503.429	118.367
506.322	85.8848
509.215	28.8887
512.107	152
515	114.578
517.893	206.795
520.785	28.123
523.678	50.6445
526.571	192.287
529.463	44.7734
532.356	95.6426
535.249	101.713
538.141	25.8184
541.034	85.9551
543.927	41.7246
546.82	187.941
549.712	74.9492
552.605	41.4277
555.498	76.9414
558.39	44.957
561.283	45.1504
564.176	45.4004
567.068	61.5059
569.961	74.8184
572.854	259.473
575.747	232.191
578.639	46.7773
581.532	185.066
584.425	151.832
587.317	191.285
590.21	263.541
593.103	244.324
595.995	163.502
598.888	86.3223
601.781	144.893
604.674	202.156
607.566	189.959
610.459	144.309
613.352	262.019
616.244	281.869
619.137	313.049
622.03	511.068
624.923	570.459
627.815	677.133
630.708	632.125
633.601	417.488
636.493	145.004
639.386	288.34
642.279	187.893
645.171	419.307
648.064	365.992
650.957	364.102
653.849	299.986
656.742	47.3281
659.635	91.7695
662.528	62.9961
665.42	4.23047
668.313	7
671.206	9.43164
674.098	208.178
676.991	114.141
679.884	4.22266
682.776	5.54297
685.669	51.9707
688.562	65.3984
691.455	25.3535
694.347	62.9414
697.24	154.006
700.133	147.973
703.025	194.76
705.918	87.1914
708.811	247.162
711.703	226.281
714.596	31.3164
717.489	20.6113
720.381	26.3125
723.274	7.75391
726.167	167.156
729.06	114.418
731.952	143.438
734.845	337.609
737.738	168.043
740.63	368.828
743.523	289.762
746.416	560.441
749.308	485.277
752.201	309.848
755.094	84.4805
757.987	272.898
760.879	318.062
763.772	493.996
766.665	340.312
769.557	210.34
772.45	333.438
775.343	230.488
778.235	191.305
781.128	198.019
784.021	98.1406
786.913	193.391
789.806	410.797
792.699	301.215
795.592	287.734
798.484	265.391
801.377	48.9219
804.27	26.8672
807.162	10.832
810.055	178.34
812.948	347.625
815.841	944.508
818.733	377.461
821.626	568.859
824.519	308.238
827.411	235.055
830.304	201.762
833.197	233.223
836.089	254.836
838.982	210.219
841.875	240.074
844.768	60.7812
847.66	45.5625
850.553	136.195
853.446	217.527
856.338	178.164
859.231	9.77734
862.124	116.731
865.016	39.918
867.909	103.668
870.802	91.918
873.694	78.2891
876.587	41.4062
879.48	85.8594
882.373	190.613
885.265	143.688
888.158	227.519
891.051	378.051
893.943	128.477
896.836	5.76562
899.729	39.1836
902.621	105.758
905.514	39.0469
908.407	232.551
911.299	53.3086
914.192	70.7969
917.085	93.0039
919.978	21.6484
922.87	27.5781
925.763	25.5898
928.656	8.16016
931.548	214.836
934.441	196.602
937.334	278.184
940.226	171.461
943.119	140.57
946.012	169.559
948.905	89.7148
951.797	203.398
954.69	101.859
957.583	133.375
960.475	192.141
963.368	136.914
966.261	236.812
969.153	282.328
972.046	348.949
974.939	653.863
977.832	530.078
980.724	540.641
983.617	772.277
986.51	1367.81
989.402	1776.88
992.295	2644.46
995.188	3770.09
998.08	5229.46
1000.97	7020.44
1003.87	8396.32
1006.76	8166.67
1009.65	6810.14
1012.54	4954.46
1015.44	3737.15
1018.33	3405.56
1021.22	3229.31
1024.12	2914.02
1027.01	2330.93
1029.9	1765.27
1032.79	1608.92
1035.69	1743.02
1038.58	1469.09
1041.47	899.981
1044.36	652.539
1047.26	479.629
1050.15	207.516
1053.04	99.6445
1055.93	137.309
1058.83	106.719
1061.72	61.8203
1064.61	164.184
1067.51	117.566
1070.4	44.5938
1073.29	91.625
1076.18	86.6719
1079.08	152.856
1081.97	35.4531
1084.86	4.25
1087.75	138.199
1090.65	436.781
1093.54	23.1602
1096.43	209.144
1099.33	311.848
1102.22	86.6016
1105.11	18.6016
1108	5.23438
1110.9	176.992
1113.79	141.195
1116.68	179
1119.57	418.906
1122.47	487.312
1125.36	616.394
1128.25	939.441
1131.14	1391.5
1134.04	1855.96
1136.93	2525.97
1139.82	2288.97
1142.71	1541.1
1145.61	1156.51
1148.5	898.176
1151.39	1064.43
1154.29	460.82
1157.18	369.973
1160.07	196.992
1162.96	399.133
1165.86	388.266
1168.75	284.508
1171.64	87.6055
1174.54	225.394
1177.43	248.769
1180.32	251.773
1183.21	82.3086
1186.11	220.246
1189	105.793
1191.89	22.3086
1194.78	213.543
1197.68	63.2383
1200.57	159.922
1203.46	226.359
1206.36	264.418
1209.25	197.356
1212.14	59.2656
1215.03	131.16
1217.92	187.199
1220.82	108.082
1223.71	171.344
1226.6	139.254
1229.5	302.285
1232.39	235.93
1235.28	358.988
1238.17	382.758
1241.07	178.719
1243.96	218.625
1246.85	121.676
1249.74	192.731
1252.64	83.0352
1255.53	111.965
1258.42	69.5078
1261.32	250.633
1264.21	266.121
1267.1	193.023
1269.99	324.227
1272.89	235.84
1275.78	196.539
1278.67	341.344
1281.57	0
