Measurement: Raman, 780 nm, unoriented, Raman Data Processed
Mineral: Sugilite
Rruff sample: R070623
Ideal chemistry: KNa_2_Fe^3+^_2_(Li_3_Si_12_)O_30_
Locality: Wessels mine, Kuruman, Kalahari Manganese Field, South Africa
Source: Shinichi Kihara
Description: Bright purple fragment
Raman shift (cm-1)	intensity
103.127	0
106.502	66.8047
109.877	479.572
113.252	212.228
116.627	879.467
120.001	1778.02
123.376	2960.01
126.751	4616.1
130.126	7926.6
133.501	10271.9
136.875	5828.77
140.25	3215.67
143.625	2939.64
147	5166.35
150.375	4476.6
153.75	1934.1
157.124	1299.13
160.499	1097.47
163.874	1157.77
167.249	808.16
170.624	702.834
173.999	742.508
177.373	877.715
180.748	1478.76
184.123	923.021
187.498	381.562
190.873	129.027
194.247	2.59375
197.622	13.5645
200.997	9.81445
204.372	15.7441
207.747	17.541
211.121	25.4141
214.496	182.228
217.871	263.231
221.246	155.227
224.621	7.50977
227.996	132.516
231.37	58.5469
234.745	65.5449
238.12	22.0605
241.495	180.357
244.87	454.99
248.244	453.914
251.619	887.154
254.994	893.68
258.369	1311.98
261.744	1207.63
265.119	893.644
268.493	794.262
271.868	1177.1
275.243	1598.74
278.618	1428.34
281.993	1328.3
285.368	752.793
288.742	548.789
292.117	435.096
295.492	1252.23
298.867	838.738
302.241	573.578
305.616	287.537
308.991	190.797
312.366	289.836
315.741	458.457
319.116	678.078
322.49	983.354
325.865	1488.65
329.24	2197.09
332.615	2806.88
335.99	2699.79
339.365	1602.22
342.739	743.564
346.114	446.315
349.489	199.801
352.864	80.9707
356.239	10.6758
359.613	23.9922
362.988	78.8125
366.363	63.0801
369.738	48.1992
373.113	66.8184
376.488	144.93
379.862	110.064
383.237	120.148
386.612	4.16992
389.987	7.33984
393.362	28.8887
396.736	118.131
400.111	160.506
403.486	243.18
406.861	200.107
410.236	339.088
413.611	54.9395
416.985	74.875
420.36	205.652
423.735	359.643
427.11	798.67
430.485	1678.62
433.859	3146.65
437.234	4823.99
440.609	7180.87
443.984	10238.1
447.359	8543.9
450.733	4451.13
454.108	2459.65
457.483	1449.24
460.858	1200.69
464.233	1194.59
467.608	1522.65
470.982	1871.33
474.357	2489.06
477.732	2391.98
481.107	1410.4
484.482	491.914
487.856	400.932
491.231	219.357
494.606	149.74
497.981	39.252
501.356	95.8086
504.731	110.631
508.105	27.3418
511.48	77.9258
514.855	82.0996
518.23	59.418
521.605	70.6406
524.98	184.494
528.354	105.092
531.729	28.5449
535.104	139.473
538.479	76.0586
541.854	169.463
545.228	71.1973
548.603	65.7598
551.978	77.7852
555.353	57.6348
558.728	50.7676
562.102	15.8984
565.477	79.9316
568.852	95.2871
572.227	225.131
575.602	137.352
578.977	213.119
582.351	136.975
585.726	111.691
589.101	71.5137
592.476	253.447
595.851	214.109
599.226	68.9648
602.6	70.3731
605.975	107.691
609.35	126.43
612.725	41.6348
616.1	81.0156
619.474	173.955
622.849	389.43
626.224	449.447
629.599	616.107
632.974	367.447
636.348	287.068
639.723	314.625
643.098	228.412
646.473	312.393
649.848	359.81
653.222	225.338
656.597	112.719
659.972	118.029
663.347	42.2637
666.722	104.514
670.097	163.504
673.471	252.871
676.846	22.5176
680.221	70.2285
683.596	199.062
686.971	73.1641
690.346	149.045
693.72	23.5781
697.095	29.8242
700.47	117.752
703.845	26.8848
707.22	69.4199
710.594	20.1484
713.969	96.9648
717.344	97.1758
720.719	46.4492
724.094	52.1699
727.468	213.008
730.843	46.502
734.218	62.5957
737.593	95.4746
740.968	84.9258
744.343	167.16
747.717	172.356
751.092	209.961
754.467	108.746
757.842	159.231
761.217	48.1641
764.591	144.125
767.966	167.496
771.341	159.191
774.716	59.3945
778.091	57.8945
781.466	130.621
784.84	148.316
788.215	28.1562
791.59	164.59
794.965	5.69141
798.34	124.359
801.715	154.41
805.089	12.0234
808.464	244.301
811.839	202.504
815.214	334.617
818.589	252.223
821.963	253.781
825.338	152.68
828.713	328.289
832.088	170.742
835.463	174.863
838.837	125.945
842.212	150.582
845.587	323.203
848.962	214.738
852.337	184.695
855.712	11.7578
859.086	160.484
862.461	280.305
865.836	122.746
869.211	193.379
872.586	172.918
875.961	135.297
879.335	19.6992
882.71	2.50781
886.085	143.41
889.46	100.074
892.835	121.672
896.209	77.2773
899.584	44.6719
902.959	152.035
906.334	138.781
909.709	193.777
913.083	121.582
916.458	51.0273
919.833	63.5703
923.208	137.578
926.583	94.582
929.958	90.3242
933.332	103.043
936.707	98.8047
940.082	64.8164
943.457	100.492
946.832	202.844
950.207	86.4336
953.581	21.1172
956.956	42.8945
960.331	54.2461
963.706	41.5547
967.081	201.82
970.455	41.4219
973.83	22.4219
977.205	310.574
980.58	23.918
983.955	283.606
987.33	518.148
990.704	807.176
994.079	1493.29
997.454	2699.64
1000.83	4310.33
1004.2	5526.94
1007.58	4928.1
1010.95	3439.91
1014.33	2359.23
1017.7	2123.34
1021.08	2277.32
1024.45	2010.21
1027.83	1567.75
1031.2	1392.78
1034.58	1460.75
1037.95	1185.33
1041.33	1030.33
1044.7	572.965
1048.08	329.16
1051.45	325.086
1054.83	201.082
1058.2	185.992
1061.58	131.293
1064.95	181.637
1068.33	157.664
1071.7	162.254
1075.08	223.977
1078.45	116.039
1081.82	71.2031
1085.2	96.7852
1088.57	21.1211
1091.95	186.898
1095.32	53.7773
1098.7	82.418
1102.07	145.066
1105.45	95.875
1108.82	202.773
1112.2	213.102
1115.57	260.019
1118.95	311.519
1122.32	302.828
1125.7	305.098
1129.07	806.516
1132.45	1255.67
1135.82	1776.16
1139.2	2024.74
1142.57	1607.07
1145.95	1034.34
1149.32	542.481
1152.7	366.172
1156.07	439.035
1159.44	379.031
1162.82	314.644
1166.19	329.602
1169.57	101.008
1172.94	62.0039
1176.32	225.113
1179.69	148.184
1183.07	119.148
1186.44	179.894
1189.82	156.078
1193.19	103.352
1196.57	10.8008
1199.94	167.797
1203.32	197.926
1206.69	198.117
1210.07	118.519
1213.44	199.969
1216.82	161.789
1220.19	262.699
1223.57	87.4766
1226.94	28.1367
1230.32	26.4961
1233.69	212.059
1237.07	222.781
1240.44	29.2383
1243.82	121.414
1247.19	106.699
1250.57	12.1367
1253.94	146.988
1257.32	170.953
1260.69	304.539
1264.06	226.383
1267.44	52.2734
