Measurement: Raman, 532 nm, unoriented, Raman Data Processed
Mineral: Sulphohalite
Rruff sample: R050479
Ideal chemistry: Na_6_(SO_4_)_2_ClF
Locality: Searles Lake, Trona, San Bernardino County, California, USA
Source: California Institute of Technology
Description: A pair of colorless octahedra
Measured chemistry: Na_6.00_(S_1.00_O_4_)_2_F_1.00_Cl_1.00_
Raman shift (cm-1)	intensity
138.737	0
142.112	87.291
145.487	2.66065
148.862	2.40625
152.237	53.6685
155.612	145.273
158.986	115.746
162.361	89.1377
165.736	74.8237
169.111	67.6914
172.486	101.834
175.86	107.679
179.235	163.286
182.61	187.107
185.985	189.222
189.36	221.128
192.734	283.912
196.109	321.983
199.484	319.414
202.859	299.099
206.234	175.825
209.608	58.0772
212.983	36.5674
216.358	48.8906
219.733	44.6084
223.108	57.919
226.483	23.8447
229.857	18.4238
233.232	17.207
236.607	51.1123
239.982	40.1348
243.357	54.3066
246.732	0.538086
250.106	14.21
253.481	22.7852
256.856	9.79199
260.231	72.417
263.606	62.0264
266.98	82.7539
270.355	29.1016
273.73	52.3223
277.105	23.5586
280.48	43.4688
283.854	53.3291
287.229	39.0518
290.604	62.5156
293.979	84.4668
297.354	48.835
300.729	31.207
304.103	37.8164
307.478	30.4941
310.853	62.3994
314.228	51.8779
317.603	7.22559
320.978	2.79004
324.352	44.6113
327.727	14.2354
331.102	64.832
334.477	36.1416
337.852	16.4902
341.226	27.3867
344.601	28.7393
347.976	40.6045
351.351	72.9209
354.726	50.1103
358.1	50.5039
361.475	60.1582
364.85	24.3711
368.225	22.8486
371.6	24.6113
374.974	34.2559
378.349	17.9141
381.724	7.96973
385.099	24.0664
388.474	45.6885
391.849	49.0518
395.223	41.7188
398.598	49.042
401.973	3.71973
405.348	0.989258
408.723	68.3711
412.098	46.4853
415.472	45.0947
418.847	42.5254
422.222	10.835
425.597	4.44238
428.972	10.5869
432.346	11.0381
435.721	25.6113
439.096	21.9785
442.471	11.5664
445.846	11.6172
449.221	68.8389
452.595	138.612
455.97	314.265
459.345	575.063
462.72	850.617
466.095	1437.38
469.469	2184.21
472.844	1821.63
476.219	548.311
479.594	233.502
482.969	91.0957
486.344	96.4277
489.718	71.8594
493.093	71.8467
496.468	56.6611
499.843	30.1484
503.218	27.0869
506.592	49.3105
509.967	47.6748
513.342	11.4219
516.717	4.4082
520.092	6.62598
523.466	17.4258
526.841	72.4014
530.216	35.9873
533.591	50.0078
536.966	83.9092
540.341	78.5225
543.715	85.7148
547.09	49.6348
550.465	57.7881
553.84	61.3066
557.215	23.415
560.59	26.4307
563.964	0.010742
567.339	0.841797
570.714	41.041
574.089	33.8994
577.464	47.5615
580.838	43.6963
584.213	42.3164
587.588	90.6504
590.963	47.7275
594.338	15.6709
597.712	1.61035
601.087	15.2969
604.462	30.6836
607.837	57.5371
611.212	64.207
614.587	119.443
617.961	218.791
621.336	336.297
624.711	538.59
628.086	931.419
631.461	1586.62
634.835	1602.42
638.21	344.695
641.585	83.6875
644.96	31.1855
648.335	9.21973
651.71	2.46777
655.084	28.6836
658.459	22.4463
661.834	16.2188
665.209	61.2353
668.584	8.44531
671.958	3.06641
675.333	22.0684
678.708	37.3721
682.083	85.6894
685.458	36.4531
688.832	56.2715
692.207	43.0137
695.582	17.668
698.957	49.8164
702.332	21.3281
705.707	9.54395
709.081	45.9522
712.456	85.1406
715.831	30.2002
719.206	57.8496
722.581	44.4648
725.955	54.5518
729.33	16.7109
732.705	45.6748
736.08	45.3935
739.455	39.9795
742.83	56.3584
746.204	44.833
749.579	14.2861
752.954	14.8145
756.329	38.207
759.704	0.8125
763.078	43.459
766.453	36.3154
769.828	44.5391
773.203	53.7842
776.578	61.4639
779.952	47.1582
783.327	64.8008
786.702	66.0352
790.077	31.0361
793.452	55.0986
796.827	53.5352
800.201	36.2148
803.576	8.14355
806.951	51.9199
810.326	39.0381
813.701	40.0371
817.076	38.4258
820.45	31.7607
823.825	31.7793
827.2	0.068359
830.575	6.63281
833.95	14.2227
837.324	48.8779
840.699	96.167
844.074	31.4258
847.449	12.5342
850.824	6.58984
854.198	53.9717
857.573	39.0986
860.948	53.1475
864.323	62.0449
867.698	4.68945
871.073	48.3467
874.447	34.582
877.822	11.4609
881.197	41.2959
884.572	11.0781
887.947	46.0371
891.322	36.0029
894.696	1.31348
898.071	34.3086
901.446	48.417
904.821	79.9014
908.196	94.7783
911.57	64.4053
914.945	72.6113
918.32	93.6055
921.695	103.245
925.07	117.51
928.444	95.751
931.819	66.5156
935.194	72.8057
938.569	30.7129
941.944	15.0566
945.318	43.0117
948.693	11.831
952.068	16.4668
955.443	47.041
958.818	19.8125
962.193	60.0469
965.567	80.3438
968.942	59.0986
972.317	32.8242
975.692	106.269
979.067	215.081
982.442	370.922
985.816	653.206
989.191	1250.53
992.566	3036.92
995.941	5120.1
999.316	10446.6
1002.69	18883
1006.07	5376.57
1009.44	1408.5
1012.82	616.965
1016.19	351.174
1019.57	184.648
1022.94	167.91
1026.31	113.719
1029.69	55.581
1033.06	38.1621
1036.44	41.9707
1039.81	33.6133
1043.19	75.6289
1046.56	70.1768
1049.94	85.7109
1053.31	46.9502
1056.69	71.7734
1060.06	175.381
1063.44	97.0156
1066.81	52.3076
1070.19	53.874
1073.56	45.0703
1076.94	68.8887
1080.31	33.834
1083.69	57.2568
1087.06	20.0303
1090.44	24.8037
1093.81	12.8408
1097.18	63.4766
1100.56	133.934
1103.93	119.37
1107.31	96.2734
1110.68	101.811
1114.06	220.65
1117.43	528.566
1120.81	835.234
1124.18	1630.43
1127.56	2150.73
1130.93	669.089
1134.31	324.897
1137.68	147.14
1141.06	106.601
1144.43	99.2666
1147.81	57.1328
1151.18	20.8408
1154.56	68.9033
1157.93	66.6416
1161.31	9.5293
1164.68	13.6465
1168.06	74.9238
1171.43	21.6416
1174.81	19.5654
1178.18	66.8672
1181.56	65.1592
1184.93	26.0371
1188.31	6.40332
1191.68	23.9229
1195.06	18.8057
1198.43	75.6055
1201.81	72.3838
1205.18	42.7129
1208.55	13.5166
1211.93	83.3096
1215.3	84.0186
1218.68	61.6055
1222.05	82.5107
1225.43	47.1328
1228.8	13.0185
1232.18	13.7041
1235.55	20.8242
1238.93	16.1924
1242.3	33.3525
1245.68	70.8057
1249.05	79.0098
1252.43	58.5654
1255.8	38.5449
1259.18	66.042
1262.55	88.5361
1265.93	49.1602
1269.3	24.585
1272.68	31.0361
1276.05	105.723
1279.42	74.7236
1282.8	24.0215
1286.17	63.0029
1289.55	34.6299
1292.92	40.3584
1296.3	61.8809
1299.67	67.3525
1303.05	6.68848
