Measurement: Raman, 532 nm, unoriented, Raman Data Processed
Mineral: Sulphur
Rruff sample: R040135
Ideal chemistry: S
Locality: Sicily, Italy
Source: University of Arizona Mineral Museum
Description: Yellow fragments
Measured chemistry: S_1.00_
Raman shift (cm-1)	intensity
132.306	0
135.68	332.517
139.055	1460.7
142.43	3422.96
145.805	8170.49
149.18	14636.5
152.554	16956.6
155.929	10269.2
159.304	2309.28
162.679	616.019
166.054	142.005
169.429	61.7256
172.803	98.692
176.178	19.4976
179.553	214.572
182.928	551.843
186.303	627.864
189.678	166.767
193.052	147.489
196.427	191.702
199.802	574.415
203.177	1921.67
206.552	3809
209.926	7262.7
213.301	18144.6
216.676	25659
220.051	29068.6
223.426	2380.97
226.8	969.192
230.175	789.663
233.55	841.085
236.925	896.495
240.3	1003.88
243.675	1511.95
247.049	1591.83
250.424	676.346
253.799	78.8885
257.174	10.778
260.549	4.49618
263.923	17.5711
267.298	1.36328
270.673	13.2707
274.048	11.7899
277.423	15.6671
280.798	27.7468
284.173	42.5368
287.547	48.4328
290.922	86.8944
294.297	101.515
297.672	143.089
301.046	142.696
304.421	151.056
307.796	140.772
311.171	132.42
314.546	149.963
317.921	144.793
321.295	103.044
324.67	78.2991
328.045	45.0322
331.42	34.0889
334.795	10.8662
338.17	7.15092
341.544	2.65437
344.919	13.4205
348.294	13.4296
351.669	16.1388
355.044	16.2104
358.418	0.657379
361.793	3.64584
365.168	23.8254
368.543	25.1593
371.918	19.8002
375.293	31.8501
378.667	50.1921
382.042	54.6636
385.417	55.9667
388.792	49.6595
392.167	42.7161
395.541	35.8948
398.916	41.2973
402.291	59.5299
405.666	108.269
409.041	218.266
412.416	333.32
415.79	505.555
419.165	756.864
422.54	1076.47
425.915	1437
429.29	1870.92
432.664	2274.34
436.039	2213.64
439.414	1662.7
442.789	488.845
446.164	152.401
449.538	232.717
452.913	640.207
456.288	1723.87
459.663	4210.16
463.038	8148.47
466.413	13868.6
469.787	20825.6
473.162	26241.1
476.537	8717.9
479.912	2809.17
483.287	1274.64
486.661	674.274
490.036	394.874
493.411	220.076
496.786	145.923
500.161	72.139
503.536	23.8048
506.911	5.81613
510.285	8.99353
513.66	3.52252
517.035	4.86334
520.41	7.81116
523.784	1.65207
527.159	7.94733
530.534	14.0612
533.909	18.6287
537.284	1.9859
540.659	24.102
544.033	28.9114
547.408	30.6049
550.783	43.5479
554.158	30.5294
557.533	13.9312
560.908	10.9895
564.282	15.5273
567.657	7.91086
571.032	2.39882
574.407	8.23123
577.782	19.215
581.156	23.9592
584.531	22.1126
587.906	13.9123
591.281	13.5814
594.656	17.1252
598.031	1.74751
601.405	17.7727
604.78	27.2786
608.155	40.0371
611.53	44.6149
614.905	47.8081
618.279	59.8687
621.654	56.7507
625.029	40.6938
628.404	37.3737
631.779	26.09
635.154	16.7655
638.528	20.1705
641.903	15.7662
645.278	30.5603
648.653	37.3119
652.028	40.2904
655.403	31.866
658.777	27.4944
662.152	28.1894
665.527	18.4257
668.902	23.2048
672.277	20.0906
675.651	28.8457
679.026	28.3542
682.401	24.9924
685.776	18.0669
689.151	21.6346
692.525	12.2228
695.9	17.3934
699.275	10.3661
702.65	33.7022
706.025	27.2969
709.399	20.1073
712.774	23.4067
716.149	13.9139
719.524	8.74374
722.899	13.3899
726.274	9.95337
729.648	8.13704
733.023	9.69244
736.398	3.72377
739.773	1.44142
743.148	10.9384
746.523	5.82101
749.897	9.70142
753.272	5.23883
756.647	7.26752
760.022	1.91939
763.397	1.40714
766.771	4.16565
770.146	0.677139
773.521	13.2156
776.896	0.272659
780.271	3.31702
783.646	3.57712
787.02	3.19058
790.395	1.97008
793.77	8.8382
797.145	5.8741
800.52	22.9555
803.894	44.2721
807.269	79.3726
810.644	112.086
814.019	141.105
817.394	167.384
820.769	154.552
824.143	119.782
827.518	110.003
830.893	90.4458
834.268	101.004
837.643	103.295
841.018	114.606
844.392	125.257
847.767	156.329
851.142	179.307
854.517	212.887
857.891	256.363
861.266	291.967
864.641	304.769
868.016	317.646
871.391	305.733
874.766	271.948
878.14	203.139
881.515	122.688
884.89	80.4379
888.265	47.8021
891.64	33.9099
895.015	37.5805
898.389	32.51
901.764	32.9594
905.139	25.9022
908.514	1.39732
911.889	9.43231
915.264	2.8887
918.638	12.902
922.013	26.9714
925.388	46.6821
928.763	66.4942
932.138	84.064
935.512	63.3889
938.887	48.2769
942.262	33.0175
945.637	19.6327
949.012	2.25
952.386	6.97371
955.761	3.32071
959.136	3.61684
962.511	8.1751
965.886	5.94687
969.261	1.4166
972.635	7.19933
976.01	8.67679
979.385	0.467575
982.76	5.42238
986.135	6.44957
989.51	10.3399
992.884	3.42021
996.259	4.69594
999.634	10.9477
1003.01	2.09926
1006.38	11.1422
1009.76	10.8333
1013.13	13.8019
1016.51	20.7245
1019.88	15.5075
1023.26	6.80173
1026.63	15.5761
1030.01	14.223
1033.38	11.7437
1036.76	2.59242
1040.13	4.97379
1043.51	7.32956
1046.88	10.1311
1050.26	14.2278
1053.63	17.8334
1057.01	9.4886
1060.38	5.56801
1063.76	1.82254
1067.13	7.51077
1070.51	5.44157
1073.88	3.87126
1077.26	7.02222
1080.63	10.4783
1084	0.655518
1087.38	8.81189
1090.75	13.3064
1094.13	10.5022
1097.5	8.78255
1100.88	3.35403
1104.25	1.64165
1107.63	2.66361
1111	0.018524
1114.38	12.9282
1117.75	3.34747
1121.13	3.86609
1124.5	6.35922
1127.88	5.6328
1131.25	11.1636
1134.63	6.1826
1138	5.07962
1141.38	12.0102
1144.75	17.1785
1148.13	2.86646
1151.5	7.08154
1154.88	6.65262
1158.25	0.570068
1161.62	3.71631
1165	6.10336
1168.38	6.56049
1171.75	6.04024
1175.12	6.28455
1178.5	9.98407
1181.87	7.94797
1185.25	5.20206
1188.62	10.4326
1192	12.2311
1195.37	0.182175
1198.75	4.09148
1202.12	9.05264
1205.5	8.3389
1208.87	15.1055
1212.25	2.83664
1215.62	4.18304
1219	0.606491
1222.37	1.23218
1225.75	6.17882
1229.12	9.99728
1232.5	0.094574
1235.87	12.1759
1239.25	17.3894
1242.62	3.40523
1246	0.718719
1249.37	12.888
1252.74	8.52086
1256.12	10.3712
1259.49	5.17177
1262.87	24.7831
1266.24	3.22928
1269.62	7.94786
1272.99	9.1311
1276.37	6.00676
1279.74	15.1618
1283.12	9.13533
1286.49	0.557053
1289.87	11.4558
1293.24	14.6329
1296.62	0.378693
1299.99	4.60448
1303.37	19.4316
1306.74	9.34308
1310.12	0.484482
1313.49	5.94878
