Measurement: Raman, 514 nm, unoriented, Raman Data Processed
Mineral: Sulphur
Rruff sample: R050006
Ideal chemistry: S
Locality: San Felipe, Mexicali, Baja California Norte, Mexico
Source: Eugene Schlepp
Description: Yellow single crystal
Measured chemistry: S_1.00_
Raman shift (cm-1)	intensity
54.266	0
58.464	7.653
62.661	36.711
66.856	121.562
71.048	535.849
75.239	1722.36
79.427	4290.26
83.614	5967.01
87.798	4137.87
91.981	2060.77
96.161	879.421
100.34	545.97
104.516	503.631
108.691	468.954
112.864	432.645
117.034	373.493
121.203	331.336
125.369	322.673
129.534	366.159
133.696	471.014
137.857	814.959
142.016	2206.46
146.172	8398.69
150.327	21094.9
154.48	27952.2
158.63	17225.6
162.779	5704.13
166.926	1777.88
171.07	813.827
175.213	534.954
179.354	649.258
183.493	1080.72
187.63	1400.33
191.765	900.63
195.898	628.525
200.029	557.065
204.158	794.025
208.285	2123.19
212.41	10765.2
216.533	34940.5
220.654	49967.9
224.773	16918.4
228.891	3826.19
233.006	1492.34
237.119	1355.42
241.231	1306.24
245.34	1829.63
249.448	2144.47
253.553	1080.7
257.657	340.243
261.758	160.05
265.858	109.073
269.956	107.282
274.052	87.423
278.146	82.173
282.237	62.81
286.327	71.568
290.416	45.423
294.502	29.34
298.586	45.272
302.668	52.202
306.749	43.133
310.827	16.069
314.903	45.01
318.978	44.955
323.051	24.903
327.121	6.147
331.19	14.226
335.257	32.377
339.322	56.65
343.385	37.092
347.446	48.694
351.505	53.463
355.563	35.403
359.618	0.422
363.672	12.897
367.723	76.023
371.773	82.89
375.821	98.69
379.866	140.474
383.91	149.253
387.952	177.095
391.992	185.987
396.031	190.901
400.067	226.82
404.101	251.732
408.134	329.628
412.165	404.502
416.193	544.769
420.22	811.807
424.245	1196.75
428.268	1682.03
432.289	2171.84
436.309	2874.55
440.326	3032.9
444.342	1579.69
448.355	735.505
452.367	597.965
456.377	1039.37
460.385	2415.8
464.391	6180.02
468.395	16852.2
472.398	34666.3
476.398	26763.4
480.397	9770.41
484.394	3562.75
488.389	1758.35
492.382	1133.87
496.373	836.005
500.362	628.919
504.349	483.941
508.335	429.524
512.319	362.052
516.3	317.779
520.28	283.798
524.259	261.326
528.235	231.48
532.209	207.592
536.182	183.708
540.152	175.828
544.121	190.125
548.088	186.224
552.053	163.138
556.017	111.992
559.978	67.803
563.938	58.59
567.895	28.415
571.851	7.379
575.805	23.57
579.758	14.976
583.708	2.719
587.657	3.432
591.603	1.748
595.548	4.257
599.491	5.848
603.432	15.466
607.372	7.826
611.309	5.834
615.245	10.305
619.179	18.476
623.111	33.801
627.041	26.598
630.97	17.292
634.896	7.95
638.821	6.557
642.744	15.115
646.665	4.626
650.584	3.756
654.502	23.663
658.418	15.285
662.331	10.021
666.244	15.859
670.154	21.805
674.062	14.847
677.969	29.926
681.874	29.994
685.777	32.035
689.678	24.046
693.577	16.031
697.475	2.013
701.371	4.905
705.265	14.791
709.157	21.648
713.047	22.476
716.936	13.276
720.823	26.049
724.708	1.202
728.591	7.331
732.472	7.224
736.352	4.147
740.23	1.288
744.106	8.348
747.98	7.711
751.853	0.25
755.723	5.021
759.592	1.983
763.459	2.338
767.325	1.962
771.188	6.044
775.05	3.341
778.91	0.651
782.768	15.936
786.625	17.206
790.479	22.293
794.332	36.435
798.183	36.303
802.033	70.152
805.88	103.857
809.726	160.058
813.57	245.255
817.413	308.502
821.253	352.596
825.092	349.81
828.929	269.953
832.764	225.083
836.598	229.197
840.429	273.306
844.259	284.611
848.088	304.011
851.914	321.129
855.739	368.04
859.562	421.141
863.383	513.159
867.203	551.16
871.02	534.307
874.836	550.289
878.65	486.479
882.463	373.364
886.274	234.23
890.083	154.773
893.89	111.427
897.695	116.233
901.499	114.897
905.301	126.957
909.102	92.594
912.9	67.998
916.697	55.715
920.492	66.248
924.285	99.056
928.077	126.863
931.867	146.11
935.655	170.06
939.442	137.021
943.226	118.968
947.009	79.926
950.791	46.886
954.57	42.842
958.348	27.808
962.124	12.759
965.899	1.727
969.671	2.842
973.442	1.153
977.211	8.985
980.979	5.916
984.745	12.883
988.509	0.856
992.271	4.197
996.032	7.271
999.791	7.362
1003.55	1.625
1007.3	7.531
1011.06	9.413
1014.81	12.294
1018.56	0.829
1022.31	10.051
1026.06	9.082
1029.8	2.213
1033.55	8.642
1037.29	7.852
1041.03	17.639
1044.77	8.62
1048.5	1.514
1052.24	6.349
1055.97	1.296
1059.7	4.386
1063.43	10.29
1067.16	14.172
1070.89	20.098
1074.61	4.979
1078.34	6.853
1082.06	8.467
1085.78	7.743
1089.5	5.636
1093.21	3.513
1096.93	6.459
1100.64	7.41
1104.35	2.264
1108.06	12.116
1111.77	12.971
1115.48	5.189
1119.18	10.031
1122.89	3.951
1126.59	7.765
1130.29	8.572
1133.99	2.321
1137.68	6.406
1141.38	11.028
1145.07	9.413
1148.76	1.973
1152.45	1.877
1156.14	12.504
1159.83	12.108
1163.51	11.239
1167.19	5.931
1170.88	12.624
1174.56	8.835
1178.23	6.456
1181.91	7.191
1185.59	1.915
1189.26	12.631
1192.93	6.341
1196.6	11.143
1200.27	0.141
1203.94	2.46
1207.6	2.211
1211.27	7.89
1214.93	13.562
1218.59	7.23
1222.25	11.892
1225.9	12.526
1229.56	4.209
1233.21	6.86
1236.86	17.495
1240.51	5.117
1244.16	0.258
1247.81	12.349
1251.45	5.953
1255.1	7.557
1258.74	4.849
1262.38	3.71
1266.02	5.119
1269.66	8.623
1273.29	9.989
1276.93	5.541
1280.56	20.025
1284.19	3.536
1287.82	12.043
1291.45	8.579
1295.07	5.075
1298.7	9.71
1302.32	21.228
1305.94	4.742
1309.56	18.25
1313.18	0.249
1316.8	18.254
1320.41	17.752
1324.02	8.235
1327.63	15.119
1331.24	8.876
1334.85	16.347
1338.46	17.828
1342.06	7.395
1345.67	9.795
1349.27	6.038
1352.87	19.489
1356.47	28.944
1360.07	25.407
1363.66	15.033
1367.25	13.479
1370.85	12.941
1374.44	15.279
1378.03	6.682
1381.61	25.022
1385.2	22.335
1388.78	8.766
1392.37	2.271
1395.95	4.35
1399.53	19.689
1403.1	23.187
1406.68	18.363
1410.26	2.835
1413.83	22.08
1417.4	19.047
1420.97	13.371
1424.54	12.789
1428.1	22.223
1431.67	6.67
1435.23	12.677
1438.8	20.072
1442.36	6.487
1445.91	29.903
1449.47	23.25
1453.03	15.642
1456.58	20.046
1460.13	10.425
1463.68	17.837
1467.23	3.266
1470.78	12.679
1474.33	16.154
1477.87	8.625
1481.42	0.934
1484.96	13.866
1488.5	21.35
1492.04	5.813
1495.57	7.323
1499.11	8.705
1502.64	2.77
1506.17	8.178
1509.71	19.734
1513.23	0.334
1516.76	11.519
1520.29	10.05
1523.81	3.231
