Measurement: Raman, 785 nm, unoriented, Raman Data Processed
Mineral: Sulphur
Rruff sample: R040135
Ideal chemistry: S
Locality: Sicily, Italy
Source: University of Arizona Mineral Museum
Description: Yellow fragments
Measured chemistry: S_1.00_
Raman shift (cm-1)	intensity
133.554	0
136.447	461.005
139.34	2200.03
142.232	4330.28
145.125	7652.51
148.018	14110.3
150.911	24017.4
153.803	27741.4
156.696	13194.2
159.589	3455.53
162.481	928.761
165.374	210.452
168.267	29.8524
171.16	109.401
174.052	95.1066
176.945	40.7738
179.838	114.441
182.73	384.626
185.623	720.705
188.516	432.108
191.408	69.4313
194.301	133.622
197.194	308.83
200.087	1090.15
202.979	3848.86
205.872	8339.02
208.765	12128.3
211.657	18455.7
214.55	33337.2
217.443	63412.6
220.335	61883.7
223.228	10396.9
226.121	2472.81
229.013	1506.33
231.906	1381.34
234.799	1460.13
237.692	1525.23
240.584	1425.92
243.477	1678.64
246.37	2257.96
249.262	2164.31
252.155	743.213
255.048	122.327
257.941	15.5392
260.833	12.2075
263.726	34.5552
266.619	16.6992
269.511	7.83044
272.404	4.7467
275.297	18.6886
278.19	21.4473
281.082	58.0765
283.975	61.9703
286.868	54.5341
289.76	97.9058
292.653	163.893
295.546	157.395
298.438	175.251
301.331	183.981
304.224	192.446
307.116	196.173
310.009	201.45
312.902	191.13
315.795	183.823
318.687	157.403
321.58	162.833
324.473	124.254
327.365	96.5663
330.258	81.343
333.151	27.0077
336.043	33.0227
338.936	1.12317
341.829	7.21069
344.721	6.71484
347.614	37.3241
350.507	5.58179
353.4	12.4435
356.292	18.0807
359.185	2.67248
362.078	21.9939
364.97	9.83691
367.863	23.2914
370.756	19.9879
373.649	40.9244
376.541	49.5688
379.434	68.2992
382.327	86.1084
385.219	54.975
388.112	76.4335
391.005	25.5356
393.897	19.6255
396.79	7.94275
399.683	13.353
402.575	32.5105
405.468	53.8845
408.361	99.6215
411.254	167.938
414.146	285.283
417.039	449.111
419.932	691.606
422.824	966.225
425.717	1242.82
428.61	1573.17
431.502	1811.5
434.395	1901.17
437.288	2045.2
440.181	1719.94
443.073	726.152
445.966	242.672
448.859	241.729
451.751	532.777
454.644	1274.37
457.537	2876.62
460.43	6020.55
463.322	10041.8
466.215	15625.6
469.108	24954.4
472	35647.1
474.893	26754.3
477.786	9836.18
480.678	3843.35
483.571	2008.47
486.464	1124.79
489.356	688.284
492.249	419.735
495.142	285.52
498.035	185.154
500.927	98.5894
503.82	28.3273
506.713	7.69543
509.605	17.2531
512.498	17.6956
515.391	5.25317
518.284	13.5039
521.176	10.0159
524.069	6.48242
526.962	5.30627
529.854	24.0037
532.747	12.7438
535.64	3.81885
538.533	7.37354
541.425	42.0926
544.318	50.0654
547.211	65.0302
550.103	60.5773
552.996	67.6215
555.889	46.0416
558.781	33.2028
561.674	32.3289
564.567	14.8756
567.459	26.0186
570.352	1.75415
573.245	5.74377
576.138	20.7129
579.03	8.89075
581.923	36.1846
584.816	22.8744
587.708	14.4745
590.601	1.53699
593.494	17.4346
596.386	33.5002
599.279	19.498
602.172	29.874
605.064	30.119
607.957	21.5963
610.85	36.4391
613.743	47.6511
616.635	57.4368
619.528	54.552
622.421	63.5032
625.313	69.0632
628.206	57.072
631.099	58.0317
633.991	24.4739
636.884	14.3658
639.777	33.7134
642.67	34.8859
645.562	27.5253
648.455	50.7368
651.348	20.6227
654.24	48.6925
657.133	7.64026
660.026	30.5421
662.918	41.5455
665.811	26.7892
668.704	43.9037
671.597	33.8856
674.489	16.0961
677.382	33.9645
680.275	12.2288
683.167	37.9637
686.06	43.4734
688.953	32.9605
691.846	5.8324
694.738	2.80859
697.631	0.807373
700.524	18.6355
703.416	23.3075
706.309	23.1371
709.202	16.6632
712.094	41.3247
714.987	51.0774
717.88	12.3623
720.773	22.0657
723.665	17.0758
726.558	22.3842
729.451	4.62354
732.343	18.0593
735.236	12.6182
738.129	15.5938
741.021	6.73779
743.914	18.9287
746.807	14.0883
749.699	16.1481
752.592	0.053589
755.485	2.03235
758.378	13.8047
761.27	4.41772
764.163	6.32458
767.056	3.96143
769.948	7.85657
772.841	14.6717
775.734	39.8962
778.626	0.676758
781.519	4.72363
784.412	7.74146
787.305	2.8313
790.197	4.89575
793.09	1.98718
795.983	11.2097
798.875	21.934
801.768	34.6675
804.661	44.828
807.553	79.1453
810.446	99.3892
813.339	132.978
816.232	146.477
819.124	156.53
822.017	164.497
824.91	121.865
827.802	93.7528
830.695	89.8505
833.588	76.948
836.481	81.1898
839.373	104.532
842.266	124.088
845.159	116.317
848.051	132.166
850.944	119.725
853.837	156.987
856.729	170.403
859.622	204.678
862.515	241.914
865.408	229.574
868.3	242.08
871.193	257.042
874.086	234.287
876.978	213.161
879.871	153.025
882.764	94.3088
885.656	44.6172
888.549	16.4276
891.442	28.2667
894.335	2.41077
897.227	31.1731
900.12	14.8983
903.013	22.9918
905.905	23.1043
908.798	0.549316
911.691	8.71924
914.583	7.69299
917.476	21.6084
920.369	16.005
923.261	23.2634
926.154	51.4729
929.047	35.8761
931.94	59.6469
934.832	52.7076
937.725	53.3529
940.618	55.9512
943.51	22.746
946.403	27.4522
949.296	24.4917
952.188	40.0732
955.081	15.8997
957.974	26.9039
960.867	7.19428
963.759	16.1368
966.652	6.5235
969.545	4.59106
972.437	30.2631
975.33	14.4646
978.223	18.1385
981.115	21.2717
984.008	6.57544
986.901	19.0412
989.794	17.1238
992.686	25.102
995.579	12.6639
998.472	31.5908
1001.36	26.6771
1004.26	34.3876
1007.15	26.6197
1010.04	13.1588
1012.93	26.7601
1015.83	32.431
1018.72	18.9692
1021.61	3.41168
1024.51	17.8468
1027.4	22.3953
1030.29	27.1559
1033.18	37.5629
1036.08	16.2012
1038.97	34.6083
1041.86	10.1929
1044.76	1.33026
1047.65	25.1587
1050.54	19.1605
1053.43	34.3397
1056.33	10.1796
1059.22	0.941284
1062.11	7.8999
1065	13.0521
1067.9	7.76984
1070.79	16.8695
1073.68	22.0778
1076.58	19.086
1079.47	24.8625
1082.36	15.7267
1085.25	7.73383
1088.14	18.1387
1091.04	10.4362
1093.93	10.0856
1096.82	9.72729
1099.72	23.3023
1102.61	7.29462
1105.5	16.4139
1108.39	34.9032
1111.29	21.5591
1114.18	6.89148
1117.07	8.43268
1119.96	0.138245
1122.86	10.2814
1125.75	14.4913
1128.64	12.5396
1131.54	8.10877
1134.43	17.3314
1137.32	25.9377
1140.21	10.3292
1143.11	19.3789
1146	11.9737
1148.89	14.1291
1151.79	14.1365
1154.68	0.518188
1157.57	10.7747
1160.46	33.9324
1163.36	9.80963
1166.25	37.263
1169.14	37.4997
1172.03	8.20081
1174.93	23.3554
1177.82	21.111
1180.71	7.24133
1183.6	14.3266
1186.5	27.1614
1189.39	33.1318
1192.28	12.4277
1195.17	23.0232
1198.07	5.81457
1200.96	33.7683
1203.85	8.58289
1206.75	4.93854
1209.64	34.7321
1212.53	40.5944
1215.42	7.84345
1218.32	10.5984
1221.21	17.4557
1224.1	5.51965
1226.99	19.7459
1229.89	15.2358
1232.78	26.5212
1235.67	18.262
1238.57	4.21393
1241.46	13.2125
