Measurement: Raman, 514 nm, unoriented, Raman Data Processed
Mineral: Sulphur
Rruff sample: R040135
Ideal chemistry: S
Locality: Sicily, Italy
Source: University of Arizona Mineral Museum
Description: Yellow fragments
Measured chemistry: S_1.00_
Raman shift (cm-1)	intensity
54.266	0
58.464	2.66
62.661	19.882
66.856	145.314
71.048	653.026
75.239	1839.29
79.427	3630.58
83.614	4893.65
87.798	3222
91.981	1426.73
96.161	601.514
100.34	410.595
104.516	378.345
108.691	313.424
112.864	272.649
117.034	277.887
121.203	185.861
125.369	189.816
129.534	266.124
133.696	393.639
137.857	808.137
142.016	2491.24
146.172	9590.12
150.327	20605
154.48	23493.9
158.63	9379.87
162.779	2444.54
166.926	914.769
171.07	450.49
175.213	389.45
179.354	611.988
183.493	1000.63
187.63	1063.36
191.765	481.894
195.898	411.381
200.029	470.995
204.158	849.713
208.285	2962.26
212.41	18600.8
216.533	39526.3
220.654	44230.1
224.773	6291.99
228.891	1763.85
233.006	1068.83
237.119	912.584
241.231	921.914
245.34	1276.69
249.448	1220.81
253.553	348.225
257.657	67.869
261.758	22.705
265.858	11.694
269.956	15.803
274.052	2.009
278.146	3.31
282.237	7.32
286.327	2.899
290.416	9.447
294.502	15.012
298.586	36.457
302.668	39.879
306.749	33.281
310.827	31.665
314.903	25.032
318.978	16.381
323.051	13.712
327.121	12.989
331.19	20.759
335.257	36.647
339.322	38.684
343.385	38.878
347.446	23.226
351.505	17.71
355.563	10.319
359.618	11.842
363.672	39.699
367.723	92.284
371.773	109.703
375.821	111.072
379.866	166.412
383.91	167.733
387.952	188.09
391.992	205.465
396.031	197.838
400.067	198.196
404.101	230.529
408.134	284.87
412.165	352.551
416.193	446.126
420.22	701.053
424.245	972.912
428.268	1335.46
432.289	1675.55
436.309	2111.47
440.326	1905.43
444.342	768.042
448.355	502.625
452.367	589.268
456.377	1223.41
460.385	2959.15
464.391	7548.68
468.395	20976.1
472.398	34594.5
476.398	17569.9
480.397	5261.4
484.394	2289.67
488.389	1281.51
492.382	818.229
496.373	605.801
500.362	450.972
504.349	348.775
508.335	285.594
512.319	235.002
516.3	202.088
520.28	195.819
524.259	161.374
528.235	135.9
532.209	110.385
536.182	111.87
540.152	109.389
544.121	126.815
548.088	127.191
552.053	120.478
556.017	80.802
559.978	54.002
563.938	41.177
567.895	19.339
571.851	14.62
575.805	11.942
579.758	10.581
583.708	11.108
587.657	8.459
591.603	14.519
595.548	3.243
599.491	2.668
603.432	14.851
607.372	9.594
611.309	4.252
615.245	13.935
619.179	22.661
623.111	25.112
627.041	33.498
630.97	18.841
634.896	13.132
638.821	16.387
642.744	10.608
646.665	14.805
650.584	27.03
654.502	20.304
658.418	23.662
662.331	24.115
666.244	32.657
670.154	25.262
674.062	22.917
677.969	34.591
681.874	16.251
685.777	27.89
689.678	15.507
693.577	12.103
697.475	7.676
701.371	28.23
705.265	18.769
709.157	22.29
713.047	15.791
716.936	19.272
720.823	11.736
724.708	7.12
728.591	2.072
732.472	2.923
736.352	2.327
740.23	0.702
744.106	1.095
747.98	7.078
751.853	4.782
755.723	7.653
759.592	0.373
763.459	7.485
767.325	4.714
771.188	2.169
775.05	6.245
778.91	2.409
782.768	2.571
786.625	11.727
790.479	21.804
794.332	32.718
798.183	49.734
802.033	80.753
805.88	105.893
809.726	164.028
813.57	245.159
817.413	311.284
821.253	327.391
825.092	281.955
828.929	235.056
832.764	201.151
836.598	216.375
840.429	243.458
844.259	241.532
848.088	272.535
851.914	277.726
855.739	324.023
859.562	407.331
863.383	437.354
867.203	458.294
871.02	443.303
874.836	431.31
878.65	393.256
882.463	300.002
886.274	150.557
890.083	93.983
893.89	93.418
897.695	79.97
901.499	83.757
905.301	74.263
909.102	66.647
912.9	46.934
916.697	48.839
920.492	62.524
924.285	82.565
928.077	132.328
931.867	143.81
935.655	136.846
939.442	111.888
943.226	75.998
947.009	49.057
950.791	29.385
954.57	19.433
958.348	13.471
962.124	20.507
965.899	14.714
969.671	7.769
973.442	3.865
977.211	5.947
980.979	1.957
984.745	10.01
988.509	1.203
992.271	6.2
996.032	4.201
999.791	1.315
1003.55	15.316
1007.3	4.67
1011.06	3.449
1014.81	2.411
1018.56	12.423
1022.31	2.519
1026.06	1.472
1029.8	6.451
1033.55	11.404
1037.29	0.414
1041.03	5.458
1044.77	1.423
1048.5	6.497
1052.24	15.475
1055.97	12.464
1059.7	6.443
1063.43	5.549
1067.16	17.51
1070.89	5.562
1074.61	9.589
1078.34	14.949
1082.06	20.316
1085.78	19.342
1089.5	2.576
1093.21	6.014
1096.93	2.04
1100.64	13.878
1104.35	7.781
1108.06	12.762
1111.77	8.68
1115.48	6.763
1119.18	7.765
1122.89	7.772
1126.59	11.271
1130.29	8.145
1133.99	4.066
1137.68	17.843
1141.38	7.73
1145.07	3.604
1148.76	7.776
1152.45	6.579
1156.14	11.759
1159.83	11.68
1163.51	12.433
1167.19	13.153
1170.88	16.872
1174.56	6.827
1178.23	11.089
1181.91	6.155
1185.59	9.785
1189.26	10.432
1192.93	11.263
1196.6	9.04
1200.27	12.704
1203.94	18.32
1207.6	15.522
1211.27	8.541
1214.93	23.165
1218.59	11.816
1222.25	5.484
1225.9	0.04
1229.56	5.096
1233.21	7.607
1236.86	7.072
1240.51	10.565
1244.16	11.799
1247.81	6.334
1251.45	8.849
1255.1	3.661
1258.74	0.242
1262.38	8.548
1266.02	0.122
1269.66	19.653
1273.29	4.079
1276.93	2.543
1280.56	1.127
1284.19	17.562
1287.82	2.119
1291.45	11.456
1295.07	4.845
1298.7	9.238
1302.32	1.872
1305.94	19.239
1309.56	5.69
1313.18	3.043
1316.8	0.687
1320.41	2.27
1324.02	9.135
1327.63	11.484
1331.24	1.883
1334.85	1.205
1338.46	4.613
1342.06	0.997
1345.67	5.415
1349.27	0.174
1352.87	16.155
1356.47	2.594
1360.07	0.889
1363.66	2.428
1367.25	3.043
1370.85	8.117
1374.44	5.667
1378.03	4.529
1381.61	14.321
1385.2	7.223
1388.78	4.255
1392.37	12.85
1395.95	10.137
1399.53	0.608
1403.1	3.894
1406.68	3.723
1410.26	7.754
1413.83	10.933
1417.4	14.184
1420.97	8.319
1424.54	6.223
1428.1	12.017
1431.67	8.225
1435.23	1.75
1438.8	2.347
1442.36	0.154
1445.91	2.212
1449.47	6.976
1453.03	1.971
1456.58	12.071
1460.13	0.187
1463.68	7.295
1467.23	2.677
1470.78	13.715
1474.33	1.785
1477.87	0.318
1481.42	6.297
1484.96	1.554
1488.5	21.918
1492.04	21.739
1495.57	9.406
1499.11	5.341
1502.64	11.021
1506.17	24.013
1509.71	31.515
1513.23	37.594
1516.76	27.847
1520.29	40.631
1523.81	54.693
1527.34	108.979
