Measurement: Raman, 785 nm, unoriented, Raman Data Processed
Mineral: Sulphur
Rruff sample: R050006
Ideal chemistry: S
Locality: San Felipe, Mexicali, Baja California Norte, Mexico
Source: Eugene Schlepp
Description: Yellow single crystal
Measured chemistry: S_1.00_
Raman shift (cm-1)	intensity
104.627	0
107.52	4.20084
110.413	20.7423
113.305	14.1273
116.198	14.0508
119.091	2.4481
121.984	3.963
124.876	6.59998
127.769	5.96822
130.662	69.5996
133.554	219.899
136.447	539.758
139.34	1099.21
142.232	1864.34
145.125	3082.89
148.018	5527.85
150.911	9571.4
153.803	9557.58
156.696	4908.01
159.589	1721.89
162.481	720.028
165.374	428.686
168.267	300.287
171.16	253.18
174.052	274.458
176.945	284.427
179.838	331.972
182.73	411.746
185.623	515.959
188.516	361.837
191.408	195.696
194.301	157.715
197.194	200.524
200.087	458.475
202.979	1290.8
205.872	2351.77
208.765	3435.42
211.657	5398.84
214.55	10474.7
217.443	21809.4
220.335	23014.8
223.228	3502.81
226.121	893.368
229.013	594.613
231.906	584.32
234.799	645.472
237.692	677.985
240.584	638.284
243.477	808.52
246.37	1108.4
249.262	1086.69
252.155	376.385
255.048	76.0872
257.941	6.50438
260.833	3.15573
263.726	18.7796
266.619	5.76473
269.511	4.12869
272.404	11.8541
275.297	2.0377
278.19	2.03289
281.082	14.3806
283.975	2.8335
286.868	10.3541
289.76	20.226
292.653	31.2335
295.546	42.1905
298.438	52.2914
301.331	55.924
304.224	53.4483
307.116	57.6485
310.009	50.4366
312.902	54.3259
315.795	62.932
318.687	64.7946
321.58	55.7028
324.473	46.7949
327.365	35.006
330.258	25.8753
333.151	17.3716
336.043	9.39
338.936	4.69103
341.829	3.68394
344.721	4.26605
347.614	5.58518
350.507	9.0186
353.4	4.34711
356.292	0.54303
359.185	3.42292
362.078	0.187317
364.97	9.353
367.863	15.1636
370.756	10.6522
373.649	5.17066
376.541	12.9415
379.434	21.0806
382.327	23.7524
385.219	25.2689
388.112	28.1334
391.005	23.6564
393.897	18.0627
396.79	16.6979
399.683	10.9669
402.575	16.4599
405.468	41.772
408.361	55.0584
411.254	109.215
414.146	145.515
417.039	240.669
419.932	352.355
422.824	478.543
425.717	642.716
428.61	812.532
431.502	946.683
434.395	1060.66
437.288	1140.21
440.181	948.615
443.073	409.195
445.966	130.732
448.859	83.005
451.751	187.421
454.644	432.89
457.537	1012.96
460.43	2101.49
463.322	3543.18
466.215	5660.2
469.108	9296.83
472	13959.5
474.893	10672.7
477.786	3759.05
480.678	1487.62
483.571	732.861
486.464	426.909
489.356	251.636
492.249	160.142
495.142	106.813
498.035	61.9864
500.927	36.3403
503.82	13.9627
506.713	1.22968
509.605	0.618317
512.498	3.7247
515.391	1.87853
518.284	2.07175
521.176	2.10925
524.069	2.97553
526.962	0.222221
529.854	9.86702
532.747	0.637398
535.64	10.9548
538.533	8.61269
541.425	11.9582
544.318	19.0419
547.211	18.9583
550.103	21.738
552.996	23.385
555.889	14.5888
558.781	7.93861
561.674	3.95932
564.567	5.34061
567.459	9.10913
570.352	5.71296
573.245	7.14765
576.138	6.50761
579.03	0.541759
581.923	8.82359
584.816	8.94949
587.708	10.3341
590.601	8.3088
593.494	9.39325
596.386	4.49229
599.279	5.02842
602.172	13.3199
605.064	13.0289
607.957	10.069
610.85	16.1695
613.743	17.5781
616.635	26.5831
619.528	26.084
622.421	24.4764
625.313	28.293
628.206	18.5908
631.099	10.4241
633.991	11.1769
636.884	11.9265
639.777	3.96179
642.67	12.9709
645.562	16.8821
648.455	13.2227
651.348	13.4652
654.24	11.2545
657.133	7.08279
660.026	12.3091
662.918	14.3438
665.811	12.1372
668.704	6.24295
671.597	10.9301
674.489	12.4571
677.382	17.5531
680.275	13.7147
683.167	14.8103
686.06	10.5007
688.953	11.2492
691.846	5.7617
694.738	7.2258
697.631	13.6812
700.524	8.08928
703.416	9.45399
706.309	13.6787
709.202	8.36923
712.094	5.31939
714.987	18.3077
717.88	6.51543
720.773	12.6248
723.665	5.74963
726.558	7.36449
729.451	2.37912
732.343	1.69741
735.236	1.34296
738.129	3.71813
741.021	1.40874
743.914	4.1494
746.807	0.975098
749.699	3.68933
752.592	1.62655
755.485	1.0546
758.378	6.06506
761.27	1.37852
764.163	6.28167
767.056	5.65512
769.948	5.56847
772.841	0.227152
775.734	0.743967
778.626	1.08221
781.519	2.09613
784.412	1.078
787.305	5.7228
790.197	3.32684
793.09	4.06917
795.983	0.51092
798.875	10.164
801.768	10.3239
804.661	12.704
807.553	25.9534
810.446	30.1834
813.339	40.5093
816.232	44.1821
819.124	51.8768
822.017	52.5247
824.91	36.3077
827.802	23.2456
830.695	32.5351
833.588	25.2234
836.481	32.0124
839.373	37.1233
842.266	43.407
845.159	37.9661
848.051	51.1208
850.944	44.3075
853.837	51.4644
856.729	64.581
859.622	78.6525
862.515	77.7895
865.408	81.9844
868.3	87.4034
871.193	82.6438
874.086	74.6773
876.978	64.8423
879.871	45.9405
882.764	37.1201
885.656	28.2948
888.549	8.64608
891.442	7.70029
894.335	14.5698
897.227	6.96599
900.12	1.66228
903.013	9.20871
905.905	8.83863
908.798	0.550663
911.691	0.68412
914.583	5.04862
917.476	6.97314
920.369	11.8298
923.261	8.23086
926.154	19.3644
929.047	22.3846
931.94	25.4746
934.832	22.9753
937.725	15.7126
940.618	20.1056
943.51	8.01603
946.403	5.31536
949.296	3.10761
952.188	2.01362
955.081	0.18977
957.974	6.30429
960.867	4.10609
963.759	2.15358
966.652	8.52766
969.545	5.09024
972.437	3.03033
975.33	1.39573
978.223	2.89371
981.115	0.863182
984.008	2.93892
986.901	7.70716
989.794	3.27746
992.686	3.89674
995.579	4.92797
998.472	8.3741
1001.36	7.51359
1004.26	12.745
1007.15	5.66702
1010.04	3.09395
1012.93	8.90458
1015.83	10.8261
1018.72	5.17509
1021.61	4.27174
1024.51	0.258101
1027.4	7.39016
1030.29	7.47297
1033.18	9.60989
1036.08	8.45797
1038.97	5.28378
1041.86	8.41803
1044.76	6.03577
1047.65	5.96991
1050.54	0.31062
1053.43	5.80353
1056.33	6.72718
1059.22	6.20653
1062.11	2.60048
1065	3.89482
1067.9	7.45642
1070.79	4.99785
1073.68	3.03673
1076.58	10.8625
1079.47	9.92838
1082.36	7.43692
1085.25	3.22704
1088.14	8.79728
1091.04	7.91355
1093.93	3.94483
1096.82	4.51959
1099.72	0.40295
1102.61	5.24955
1105.5	0.281448
1108.39	4.92116
1111.29	2.27093
1114.18	6.03036
1117.07	4.42996
1119.96	1.54695
1122.86	5.87836
1125.75	3.11548
1128.64	6.44542
1131.54	4.72899
1134.43	2.59341
1137.32	3.31569
1140.21	5.1048
1143.11	3.51139
1146	0.375786
1148.89	7.81502
1151.79	10.2263
1154.68	2.10513
1157.57	6.336
1160.46	3.92222
1163.36	4.89421
1166.25	5.25239
1169.14	5.36089
1172.03	5.98808
1174.93	6.80058
1177.82	7.83791
1180.71	0.903385
1183.6	3.57433
1186.5	4.43737
1189.39	8.42759
1192.28	5.60671
1195.17	9.31052
1198.07	0.105571
1200.96	4.91159
1203.85	2.1023
1206.75	1.86386
1209.64	2.52408
1212.53	4.65301
1215.42	8.78262
1218.32	12.8695
1221.21	8.54883
1224.1	3.65826
1226.99	6.12866
1229.89	2.45105
1232.78	3.98569
1235.67	0
