Measurement: Raman, 780 nm, unoriented, Raman Data Processed
Mineral: Sulphohalite
Rruff sample: R050479
Ideal chemistry: Na_6_(SO_4_)_2_ClF
Locality: Searles Lake, Trona, San Bernardino County, California, USA
Source: California Institute of Technology
Description: A pair of colorless octahedra
Measured chemistry: Na_6.00_(S_1.00_O_4_)_2_F_1.00_Cl_1.00_
Raman shift (cm-1)	intensity
137.174	0
140.066	2.07344
142.959	2.9213
145.852	0.203979
148.744	0.537354
151.637	0.265549
154.53	2.29947
157.423	2.31569
160.315	1.28651
163.208	2.89972
166.101	1.7027
168.994	2.96759
171.886	4.56192
174.779	8.51975
177.672	8.43867
180.564	9.86096
183.457	11.7034
186.35	17.0574
189.242	17.5155
192.135	18.1619
195.028	24.985
197.921	33.6853
200.813	37.1942
203.706	32.6803
206.599	20.6603
209.491	13.8804
212.384	11.4006
215.277	9.40826
218.169	6.11555
221.062	6.23686
223.955	6.17181
226.847	5.80629
229.74	5.89397
232.633	3.51067
235.526	2.89096
238.418	3.82243
241.311	2.60266
244.204	1.32854
247.096	1.92505
249.989	3.03429
252.882	0.662994
255.774	2.08238
258.667	0.027771
261.56	1.03536
264.453	1.67613
267.345	1.21751
270.238	0.666382
273.131	0.369171
276.023	1.71031
278.916	1.56059
281.809	0.833572
284.702	2.79764
287.594	0.20108
290.487	1.48595
293.38	0.783859
296.272	0.477478
299.165	0.482651
302.058	1.64218
304.95	0.200027
307.843	0.303085
310.736	0.544357
313.628	3.05382
316.521	0.460037
319.414	1.15179
322.307	0.398544
325.199	1.12003
328.092	1.8716
330.985	1.35329
333.877	1.10237
336.77	1.1098
339.663	2.45268
342.556	1.88832
345.448	2.08049
348.341	2.41136
351.234	2.25029
354.126	1.43292
357.019	2.38126
359.912	2.15153
362.805	1.35274
365.697	2.17673
368.59	1.42841
371.483	2.47305
374.375	1.00966
377.268	2.40555
380.161	1.91688
383.053	0.926712
385.946	1.54675
388.839	0.252426
391.731	1.08079
394.624	1.1284
397.517	0.75145
400.41	1.22269
403.302	2.36293
406.195	0.750092
409.088	1.7646
411.98	1.10809
414.873	1.08044
417.766	1.81253
420.659	0.863205
423.551	1.25116
426.444	0.269485
429.337	0.638031
432.229	2.75586
435.122	1.15566
438.015	2.24649
440.907	3.00607
443.8	3.85948
446.693	3.45424
449.586	6.15317
452.478	8.29533
455.371	12.6635
458.264	16.3282
461.156	25.7184
464.049	39.7381
466.942	72.7847
469.834	134.547
472.727	141.874
475.62	61.3603
478.513	23.2077
481.405	10.7788
484.298	7.47614
487.191	3.23222
490.083	3.7887
492.976	3.4474
495.869	2.62819
498.762	2.56303
501.654	2.78003
504.547	3.7394
507.44	0.847031
510.332	1.34403
513.225	1.01755
516.118	0.37352
519.01	0.20369
521.903	0.537827
524.796	0.94458
527.688	0.033661
530.581	1.51085
533.474	0.231689
536.367	0.595062
539.259	0.0159
542.152	1.09509
545.045	2.07773
547.937	0.790344
550.83	0.962234
553.723	0.434036
556.615	0.093811
559.508	2.26422
562.401	0.560593
565.294	0.842331
568.186	0.689789
571.079	0.286728
573.972	1.73402
576.864	1.94081
579.757	1.22627
582.65	1.49994
585.543	0.970596
588.435	1.91863
591.328	0.380692
594.221	0.482178
597.113	2.10988
600.006	1.17883
602.899	1.51849
605.791	2.18822
608.684	2.94243
611.577	2.86623
614.47	5.33696
617.362	10.5785
620.255	20.6948
623.148	29.3659
626.04	45.232
628.933	75.2532
631.826	149.02
634.718	201.363
637.611	76.8392
640.504	18.6236
643.397	7.65385
646.289	4.25526
649.182	2.59709
652.075	1.82012
654.967	2.6595
657.86	0.180321
660.753	0.823112
663.645	1.88168
666.538	1.10256
669.431	0.040558
672.324	0.560104
675.216	0.855209
678.109	0.962486
681.002	1.13466
683.894	1.12376
686.787	0.750458
689.68	2.09479
692.572	0.937767
695.465	0.359756
698.358	1.449
701.251	0.742363
704.143	1.96875
707.036	1.5088
709.929	0.745346
712.821	1.23465
715.714	1.04305
718.607	1.95544
721.5	1.19041
724.392	1.30821
727.285	1.07675
730.178	0.768509
733.07	1.49156
735.963	1.33227
738.856	1.85494
741.749	0.102554
744.641	0.082748
747.534	1.67594
750.427	1.70921
753.319	1.57809
756.212	0.736893
759.105	1.57735
761.997	0.791763
764.89	1.21788
767.783	2.26453
770.676	1.33221
773.568	0.830399
776.461	0.976433
779.354	1.27643
782.246	1.74614
785.139	2.57952
788.032	2.59859
790.924	1.1105
793.817	0.633057
796.71	2.70071
799.602	1.64708
802.495	0.383904
805.388	0.557411
808.281	1.40559
811.173	0.703377
814.066	0.934479
816.959	1.4512
819.851	2.10995
822.744	0.994057
825.637	1.66505
828.529	0.90126
831.422	0.95961
834.315	1.43837
837.208	2.21101
840.1	0.341431
842.993	0.099098
845.886	2.36229
848.778	0.676796
851.671	2.16761
854.564	0.511093
857.457	0.188248
860.349	1.88357
863.242	0.697281
866.135	0.70076
869.027	0.842674
871.92	0.785362
874.813	1.4529
877.705	0.234909
880.598	1.11256
883.491	0.045044
886.384	0.104393
889.276	0.488937
892.169	4.67078
895.062	1.34045
897.954	1.32055
900.847	0.505989
903.74	0.714333
906.632	1.01215
909.525	0.545326
912.418	1.92345
915.311	1.31748
918.203	1.32243
921.096	1.84502
923.989	0.867912
926.881	1.27387
929.774	0.867523
932.667	1.7168
935.559	1.53259
938.452	0.803345
941.345	0.459953
944.238	1.07143
947.13	0.217888
950.023	0.052223
952.916	0.764786
955.808	0.977753
958.701	0.567314
961.594	0.029587
964.486	0.578026
967.379	0.390961
970.272	1.79742
973.165	2.26629
976.057	4.54276
978.95	6.42592
981.843	9.13787
984.735	23.1427
987.628	40.6979
990.521	76.9975
993.413	129.055
996.306	213.693
999.199	439.815
1002.09	1061.74
1004.98	887.548
1007.88	214.527
1010.77	74.3028
1013.66	36.0893
1016.55	21.7464
1019.45	12.5699
1022.34	9.8252
1025.23	5.18713
1028.13	4.36474
1031.02	3.33204
1033.91	2.61002
1036.8	1.61887
1039.7	1.09271
1042.59	1.73937
1045.48	2.11943
1048.38	2.92658
1051.27	2.72179
1054.16	5.14204
1057.05	8.60463
1059.95	11.6871
1062.84	12.0748
1065.73	9.55883
1068.62	4.88329
1071.52	3.04205
1074.41	1.99467
1077.3	1.65923
1080.19	0.087181
1083.09	0.50975
1085.98	0.069801
1088.87	0.422333
1091.77	0.107613
1094.66	0.455025
1097.55	0.704819
1100.44	2.12934
1103.34	2.09933
1106.23	3.48019
1109.12	4.41161
1112.01	8.57352
1114.91	13.4939
1117.8	23.3272
1120.69	37.7173
1123.59	76.6644
1126.48	169.26
1129.37	144.321
1132.26	45.4618
1135.16	17.6524
1138.05	9.83765
1140.94	5.70954
1143.83	2.92149
1146.73	2.62522
1149.62	0.414101
1152.51	0.529587
1155.4	1.10733
1158.3	0.751381
1161.19	0.724792
1164.08	1.24947
1166.98	0.778954
1169.87	1.3689
1172.76	2.01354
1175.65	0.113579
1178.55	1.05161
1181.44	1.48175
1184.33	1.4501
1187.22	0.718216
1190.12	0.290176
1193.01	0.447968
1195.9	0.956192
1198.8	1.23592
1201.69	1.42837
1204.58	0.752388
1207.47	0.836014
1210.37	0.906593
1213.26	0.495026
1216.15	0.006828
1219.04	0.677017
1221.94	0.660545
1224.83	0.425842
1227.72	0.115501
1230.62	0.613693
1233.51	0.033844
1236.4	0.102821
1239.29	0.458382
1242.19	0.806892
1245.08	0.237236
1247.97	1.34646
1250.86	2.2641
1253.76	1.02003
1256.65	2.17681
1259.54	2.2623
1262.43	1.33501
1265.33	1.32867
1268.22	2.47611
1271.11	0.369896
1274.01	0.737709
1276.9	0.979828
1279.79	1.33602
1282.68	1.18237
1285.58	1.87498
