Measurement: Raman, 532 nm, unoriented, Raman Data Processed
Mineral: Sulphur
Rruff sample: R050006
Ideal chemistry: S
Locality: San Felipe, Mexicali, Baja California Norte, Mexico
Source: Eugene Schlepp
Description: Yellow single crystal
Measured chemistry: S_1.00_
Raman shift (cm-1)	intensity
116.396	0
119.771	86.2786
123.145	24.6006
126.52	55.3757
129.895	377.315
133.27	1401.22
136.645	3633.63
140.019	7433.71
143.394	14190.9
146.769	28884
150.144	48671.9
153.519	61221.1
156.894	32117.7
160.268	7750.06
163.643	2997.24
167.018	1520.58
170.393	937.326
173.768	829.451
177.143	1096.4
180.517	2459.74
183.892	3805.25
187.267	3178.73
190.642	1073.12
194.017	954.07
197.391	976.207
200.766	2566.18
204.141	7812.39
207.516	14251.9
210.891	28362.4
214.266	68925.5
217.64	117813
221.015	65415.9
224.39	6151.83
227.765	2983.1
231.14	2789.43
234.514	3168.38
237.889	3147.14
241.264	3598.89
244.639	5548.68
248.014	5071.73
251.388	1575.99
254.763	128.099
258.138	104.147
261.513	96.2276
264.888	77.1044
268.263	41.1301
271.637	15.2689
275.012	16.0862
278.387	33.8357
281.762	60.1648
285.137	103.428
288.512	187.536
291.886	264.074
295.261	371.743
298.636	473.438
302.011	500.842
305.386	462.907
308.76	471.806
312.135	491.335
315.51	490.244
318.885	449.859
322.26	374.498
325.635	261.869
329.009	190.402
332.384	112.974
335.759	71.948
339.134	17.0121
342.509	20.8718
345.883	41.53
349.258	28.7459
352.633	39.5379
356.008	46.5064
359.383	26.925
362.757	13.183
366.132	85.5294
369.507	91.6222
372.882	119.998
376.257	127.085
379.632	196.834
383.006	219.573
386.381	217.127
389.756	193.87
393.131	204.659
396.506	201.893
399.88	285.159
403.255	516.743
406.63	963.839
410.005	1532.05
413.38	1934.44
416.755	2739.68
420.129	4087.68
423.504	5806.8
426.879	7974.65
430.254	10487.1
433.629	11678.7
437.003	11530.1
440.378	7712.77
443.753	2081.39
447.128	723.051
450.503	1248.23
453.878	3564.45
457.252	9235.1
460.627	21057
464.002	38334.2
467.377	65559.1
470.752	95986
474.127	94538.6
477.501	25714.6
480.876	9152.99
484.251	4294.94
487.626	2261.22
491.001	1289.39
494.375	812.572
497.75	516.954
501.125	222.243
504.5	18.7185
507.875	33.6265
511.25	53.819
514.624	25.9058
517.999	14.7569
521.374	18.708
524.749	6.25543
528.124	41.4422
531.498	47.9413
534.873	43.469
538.248	17.4808
541.623	77.9198
544.998	118.528
548.372	145.01
551.747	146.781
555.122	96.6714
558.497	50.0086
561.872	31.813
565.247	16.8107
568.621	23.6564
571.996	35.6956
575.371	38.9482
578.746	67.2491
582.121	83.0441
585.495	82.8704
588.87	68.1127
592.245	75.2251
595.62	65.7174
598.995	78.8585
602.37	80.6499
605.744	112.412
609.119	157.617
612.494	200.215
615.869	225.398
619.244	233.685
622.619	218.166
625.993	166.848
629.368	134.286
632.743	80.0633
636.118	83.8314
639.493	76.1202
642.867	78.4523
646.242	110.14
649.617	140.187
652.992	156.013
656.367	166.006
659.741	127.953
663.116	112.861
666.491	103.157
669.866	95.1291
673.241	77.3351
676.616	97.0889
679.99	106.332
683.365	98.4459
686.74	86.4248
690.115	51.8392
693.49	30.6847
696.865	22.9685
700.239	56.9327
703.614	58.9304
706.989	74.6809
710.364	72.7507
713.739	69.9157
717.113	42.5859
720.488	36.5483
723.863	31.6933
727.238	20.638
730.613	7.92125
733.987	18.4861
737.362	19.359
740.737	4.57761
744.112	20.2814
747.487	1.10259
750.862	5.71069
754.236	0.802612
757.611	2.10453
760.986	6.15277
764.361	3.25355
767.736	1.85798
771.111	2.73628
774.485	19.9722
777.86	4.60878
781.235	6.7709
784.61	9.69728
787.985	19.6166
791.359	9.31657
794.734	29.6953
798.109	58.3408
801.484	115.362
804.859	177.853
808.234	289.948
811.608	407.149
814.983	544.548
818.358	589.629
821.733	557.624
825.108	467.587
828.482	347.651
831.857	335.42
835.232	358.433
838.607	395.395
841.982	428.161
845.356	467.573
848.731	518.432
852.106	614.338
855.481	733.54
858.856	884.441
862.231	982.678
865.605	1081.38
868.98	1070.16
872.355	987.685
875.73	841.109
879.105	617.989
882.48	388.662
885.854	197.262
889.229	116.947
892.604	108.234
895.979	110.31
899.354	107.653
902.729	93.8583
906.103	44.4909
909.478	21.2856
912.853	4.83809
916.228	12.7917
919.602	64.3418
922.977	135.543
926.352	225.488
929.727	288.078
933.102	292.308
936.477	241.385
939.851	180.698
943.226	120.999
946.601	62.9994
949.976	31.6522
953.351	9.3969
956.726	4.73486
960.1	13.8471
963.475	1.67968
966.85	0.321793
970.225	5.76195
973.6	0.830322
976.974	10.0556
980.349	6.08381
983.724	14.9124
987.099	26.4155
990.474	12.5807
993.848	24.6083
997.223	23.8114
1000.6	25.3909
1003.97	27.4395
1007.35	19.8838
1010.72	32.7009
1014.1	34.9493
1017.47	33.4227
1020.85	33.7407
1024.22	25.4466
1027.6	33.8858
1030.97	30.6927
1034.35	22.1732
1037.72	17.7596
1041.1	18.0203
1044.47	0.049953
1047.85	17.8752
1051.22	17.3809
1054.6	20.6612
1057.97	20.3422
1061.35	14.127
1064.72	27.3511
1068.09	15.3609
1071.47	8.67952
1074.84	12.541
1078.22	3.87692
1081.59	5.33925
1084.97	18.8534
1088.34	3.63372
1091.72	6.47632
1095.09	10.6285
1098.47	12.4625
1101.84	15.5201
1105.22	8.29281
1108.59	7.90074
1111.97	13.7634
1115.34	7.20308
1118.72	5.93565
1122.09	1.04279
1125.47	5.34814
1128.84	10.4202
1132.22	7.48916
1135.59	4.78881
1138.97	9.14744
1142.34	13.7713
1145.71	2.91677
1149.09	14.599
1152.46	9.60192
1155.84	16.0156
1159.21	13.8047
1162.59	0.742714
1165.96	10.7534
1169.34	4.03799
1172.71	1.57723
1176.09	16.6346
1179.46	5.40671
1182.84	12.7994
1186.21	6.47462
1189.59	5.99242
1192.96	11.4202
1196.34	17.8379
1199.71	11.9549
1203.09	2.47385
1206.46	3.61499
1209.84	7.88722
1213.21	10.7137
1216.59	11.8736
1219.96	19.333
1223.34	10.5893
1226.71	4.87181
1230.09	11.0345
1233.46	6.07613
1236.84	15.9789
1240.21	10.7523
1243.59	5.98717
1246.96	9.8974
1250.34	0.840424
1253.71	4.31867
1257.08	13.6232
1260.46	10.3327
1263.83	12.1207
1267.21	7.92028
1270.58	10.2345
1273.96	9.91563
1277.33	10.6918
1280.71	2.6691
1284.08	17.0115
1287.46	16.2094
1290.83	19.2885
1294.21	16.7146
1297.58	25.541
1300.96	23.5562
1304.33	12.7598
1307.71	0
