Measurement: Raman, 532 nm, unoriented, Raman Data Processed
Mineral: Sulvanite
Rruff sample: R060853
Ideal chemistry: Cu_3_VS_4_
Locality: Burra Burra, South Australia, Australia
Source: Michael Scott
Description: Brassy metallic massive with black tarnished surfaces
Measured chemistry: Cu_3.00_V_1.00_S_4.00_
Raman shift (cm-1)	intensity
134.058	0
136.951	40.5608
139.843	211.197
142.736	283.538
145.629	447.267
148.522	571.495
151.414	299.264
154.307	100.597
157.2	12.381
160.092	18.4706
162.985	40.5223
165.878	5.5802
168.77	26.0223
171.663	40.7871
174.556	44.4618
177.448	51.3301
180.341	23.1169
183.234	20.9945
186.127	62.5719
189.019	103.489
191.912	228.08
194.805	319.63
197.697	466.81
200.59	596.611
203.483	592.785
206.375	385.157
209.268	216.254
212.161	160.491
215.054	82.1394
217.946	60.9895
220.839	38.2227
223.732	31.4109
226.624	15.4497
229.517	5.02747
232.41	12.7629
235.303	17.257
238.195	7.84168
241.088	17.0295
243.981	40.5591
246.873	39.4452
249.766	9.62463
252.659	2.67639
255.551	0.176636
258.444	16.5295
261.337	21.3281
264.229	16.5341
267.122	60.6615
270.015	72.2424
272.908	105.392
275.8	120.812
278.693	201.718
281.586	259.954
284.478	308.964
287.371	301.633
290.264	247.635
293.156	200.802
296.049	177.346
298.942	185.112
301.834	138.343
304.727	68.422
307.62	42.4099
310.513	34.0692
313.405	46.3522
316.298	35.7922
319.191	0.897217
322.083	5.09814
324.976	7.79248
327.869	12.2106
330.762	51.9479
333.654	27.996
336.547	113.231
339.44	112.184
342.332	171.438
345.225	166.311
348.118	148.039
351.01	245.803
353.903	268.861
356.796	353.216
359.688	607.257
362.581	1501.91
365.474	2996.24
368.366	4465.07
371.259	6480.98
374.152	8242.43
377.045	5723.28
379.937	2362.64
382.83	1031.53
385.723	589.723
388.615	365.209
391.508	233.73
394.401	133.243
397.293	116.53
400.186	38.1841
403.079	14.6832
405.972	6.78296
408.864	15.2838
411.757	12.8303
414.65	2.59863
417.542	31.2068
420.435	13.6035
423.328	38.7206
426.221	49.4177
429.113	126.191
432.006	171.201
434.899	305.621
437.791	598.947
440.684	1003.09
443.577	1288.88
446.469	1875.83
449.362	2535.86
452.255	944.343
455.147	315.261
458.04	134.527
460.933	73.1655
463.826	74.6913
466.718	53.1473
469.611	57.5371
472.504	48.3125
475.396	19.2875
478.289	14.4238
481.182	32.4711
484.074	45.3524
486.967	34.6621
489.86	67.9945
492.752	38.6224
495.645	18.4395
498.538	34.4504
501.431	34.7518
504.323	8.07971
507.216	10.1189
510.109	0.630737
513.001	24.0242
515.894	20.8658
518.787	44.6865
521.679	68.1453
524.572	96.6773
527.465	77.1283
530.358	84.0121
533.25	105.036
536.143	81.5869
539.036	80.5714
541.928	106.134
544.821	78.2211
547.714	31.7929
550.606	35.3496
553.499	30.3097
556.392	10.5817
559.284	4.42969
562.177	39.2909
565.07	27.7199
567.963	46.8563
570.855	58.668
573.748	98.1122
576.641	108.781
579.533	58.178
582.426	69.9187
585.319	74.7473
588.212	111.753
591.104	41.7875
593.997	74.3065
596.89	6.79797
599.782	35.2863
602.675	3.41003
605.568	2.55493
608.46	11.0111
611.353	49.1267
614.246	7.38367
617.139	0.076782
620.031	0.757568
622.924	88.36
625.817	59.3573
628.709	26.7615
631.602	54.5809
634.495	69.0604
637.387	87.5558
640.28	91.2736
643.173	81.8159
646.066	106.687
648.958	123.071
651.851	138.88
654.744	106.297
657.636	135.133
660.529	154.232
663.422	149.056
666.314	154.028
669.207	144.402
672.1	129.371
674.992	117.061
677.885	86.4476
680.778	48.1774
683.67	73.5499
686.563	42.6257
689.456	21.923
692.349	7.39514
695.241	3.62524
698.134	16.3558
701.027	21.5917
703.919	49.1423
706.812	39.5956
709.705	41.3404
712.597	69.0123
715.49	92.7269
718.383	115.423
721.276	109.829
724.168	126.95
727.061	136.485
729.954	150.161
732.846	164.153
735.739	174.153
738.632	208.885
741.524	309.634
744.417	373.652
747.31	482.945
750.203	581.952
753.095	576.429
755.988	525
758.881	348.509
761.773	193.987
764.666	116.049
767.559	71.968
770.452	40.4824
773.344	38.6575
776.237	4.46436
779.13	1.12427
782.022	6.56482
784.915	3.64392
787.808	27.3192
790.7	24.4908
793.593	0.096313
796.486	49.1792
799.378	60.5446
802.271	64.0652
805.164	67.8457
808.057	83.9519
810.949	119.968
813.842	202.934
816.735	267.564
819.627	375.247
822.52	381.87
825.413	302.868
828.305	195.533
831.198	142.018
834.091	84.0288
836.984	66.6737
839.876	45.2722
842.769	27.642
845.662	15.5713
848.554	1.35449
851.447	12.7661
854.34	0.371826
857.232	9.51953
860.125	0.89978
863.018	29.7278
865.91	16.0515
868.803	7.77686
871.696	27.858
874.589	70.6431
877.481	49.078
880.374	93.4199
883.267	109.695
886.159	110.943
889.052	125.857
891.945	146.243
894.837	115.103
897.73	90.7267
900.623	60.2762
903.516	46.2761
906.408	79.7802
909.301	53.584
912.194	27.8881
915.086	31.3014
917.979	48.4556
920.872	55.9438
923.764	56.5361
926.657	42.5376
929.55	21.2377
932.442	20.2181
935.335	21.5823
938.228	12.6161
941.121	69.8645
944.013	47.125
946.906	63.4996
949.799	36.1505
952.691	28.6617
955.584	65.9941
958.477	42.5156
961.37	29.7715
964.262	49.9219
967.155	25.3961
970.048	20.151
972.94	29.0855
975.833	20.1118
978.726	3.16321
981.618	38.4624
984.511	4.37671
987.404	15.7971
990.296	4.2207
993.189	5.99512
996.082	12.5984
998.975	34.3209
1001.87	27.2344
1004.76	10.2567
1007.65	22.58
1010.54	21.8851
1013.44	6.72717
1016.33	52.3412
1019.22	57.0393
1022.12	37.8632
1025.01	36.4213
1027.9	24.5337
1030.79	78.2587
1033.69	73.4011
1036.58	60.3986
1039.47	44.6995
1042.37	51.3402
1045.26	68.7947
1048.15	51.2853
1051.04	38.3347
1053.94	53.6379
1056.83	55.8785
1059.72	38.5012
1062.61	8.56409
1065.51	13.2345
1068.4	53.2343
1071.29	32.0283
1074.18	30.7538
1077.08	42.0422
1079.97	20.3315
1082.86	21.6179
1085.76	2.41833
1088.65	26.3274
1091.54	33.6633
1094.43	39.0575
1097.33	50.3577
1100.22	43.4005
1103.11	25.6343
1106	30.8966
1108.9	56.1292
1111.79	51.4169
1114.68	32.2084
1117.58	45.9612
1120.47	23.9672
1123.36	89.0125
1126.25	39.8739
1129.15	98.9883
1132.04	73.4258
1134.93	55.0795
1137.82	15.5384
1140.72	36.7814
1143.61	19.8054
1146.5	5.66675
1149.39	21.6389
1152.29	22.6414
1155.18	22.2664
1158.07	26.4936
1160.97	42.8425
1163.86	32.8284
1166.75	0.234131
1169.64	37.1216
1172.54	30.1946
1175.43	3.13135
1178.32	40.906
1181.21	46.3042
1184.11	70.928
1187	78.9326
1189.89	47.4417
1192.79	78.071
1195.68	64.8491
1198.57	98.4514
1201.46	80.8611
1204.36	59.3242
1207.25	41.4724
1210.14	2.65967
1213.03	45.0066
1215.93	46.0703
1218.82	45.0591
1221.71	7.11719
1224.61	43.7515
1227.5	9.92822
1230.39	20.0159
1233.28	61.4309
1236.18	4.67139
1239.07	14.1826
1241.96	17.3494
1244.85	30.8718
1247.75	48.0374
1250.64	66.0854
1253.53	16.6196
1256.42	64.7353
1259.32	8.01318
1262.21	63.6194
1265.1	52.3318
1267.99	22.7275
1270.89	3.60132
1273.78	7.69971
1276.67	71.0996
1279.57	27.2661
1282.46	4.80664
