Measurement: Raman, 532 nm, unoriented, Raman Data Processed
Mineral: Suolunite
Rruff sample: R060917
Ideal chemistry: Ca_2_Si_2_O_5_(OH)_2_H_2_O
Locality: Lac d'Amiante mine, Black Lake, Thetford Mines, Quebec, Canada
Source: Royal Ontario Museum
Description: Large white to pale lavender fragment
Measured chemistry: Ca_2.00_Si_2.00_O_5_(OH)_2_Â·1.8H_2_O; H_2_O estimated by difference
Raman shift (cm-1)	intensity
111.399	0
114.773	648.669
118.148	1648.73
121.523	2396.03
124.898	1140.45
128.273	636.804
131.648	460.784
135.022	85.0181
138.397	1.87378
141.772	390.049
145.147	1359.41
148.522	3298.55
151.896	6431.62
155.271	10576.6
158.646	9538.1
162.021	4382.94
165.396	2102.4
168.77	1464.5
172.145	1946.92
175.52	3082.18
178.895	5670.29
182.27	9054.4
185.644	4971.97
189.019	1780.54
192.394	1401.81
195.769	665.792
199.144	18.4484
202.519	82.7394
205.893	17.4313
209.268	349.171
212.643	1168.74
216.018	1035.14
219.393	435.699
222.767	669.814
226.142	1215.03
229.517	1998.28
232.892	2706.43
236.267	2678.07
239.642	1485.83
243.016	476.924
246.391	108.587
249.766	2.62741
253.141	8.35272
256.516	-0.661743
259.89	3.87654
263.265	71.3845
266.64	415.978
270.015	1046.28
273.39	2017.64
276.764	2916.93
280.139	3563.38
283.514	3020.62
286.889	2717.01
290.264	2583.64
293.639	2082.8
297.013	1582.3
300.388	1201.23
303.763	1392.19
307.138	2413.39
310.513	4426.28
313.887	8110.38
317.262	11081.4
320.637	8016.9
324.012	7188.88
327.387	9786.72
330.762	15191.4
334.136	22179.2
337.511	25470.2
340.886	20378.4
344.261	13598.9
347.635	9033.61
351.01	5792.31
354.385	3652.57
357.76	2299.73
361.135	1530.53
364.51	1295.53
367.884	1533.35
371.259	2250.86
374.634	2690.91
378.009	1806.73
381.384	799.027
384.759	187.413
388.133	1.91915
391.508	-41.2591
394.883	9.3401
398.258	384.657
401.633	1159.71
405.007	2510.53
408.382	4593.24
411.757	6762.58
415.132	6580.27
418.507	4533.98
421.881	3584.84
425.256	3605.1
428.631	3188.8
432.006	1809.94
435.381	818.24
438.755	305.722
442.13	44.1162
445.505	56.5374
448.88	101.066
452.255	23.9093
455.63	334.691
459.004	965.293
462.379	2191.11
465.754	3435.2
469.129	2278.03
472.504	1858.08
475.878	2313.4
479.253	2651.15
482.628	1437.41
486.003	921.957
489.378	1108.5
492.752	1979.19
496.127	3691.74
499.502	6590.57
502.877	4624.36
506.252	1774.62
509.627	742.486
513.001	419.196
516.376	216.208
519.751	117.705
523.126	70.8475
526.501	66.8041
529.875	66.8226
533.25	23.0668
536.625	17.0987
540	2.82312
543.375	10.3474
546.75	27.0386
550.124	15.3047
553.499	2.49182
556.874	0.51062
560.249	0.276001
563.624	20.4225
566.998	15.8261
570.373	43.0377
573.748	45.9717
577.123	74.6538
580.498	102.217
583.872	148.956
587.247	182.497
590.622	289.872
593.997	381.647
597.372	529.155
600.747	829.269
604.121	1441.63
607.496	2516.72
610.871	4473.29
614.246	7982.19
617.621	13479.2
620.995	17508.8
624.37	11604.4
627.745	5270.32
631.12	2669.35
634.495	1527.61
637.87	1017.46
641.244	667.686
644.619	483.68
647.994	340.462
651.369	244.042
654.744	165.497
658.118	125.57
661.493	83.7502
664.868	93.0828
668.243	89.9571
671.618	65.634
674.992	20.3857
678.367	8.73914
681.742	2.89795
685.117	7.45837
688.492	24.269
691.866	14.9081
695.241	1.68701
698.616	13.9982
701.991	37.9303
705.366	13.7744
708.741	59.7506
712.115	89.3124
715.49	72.6252
718.865	63.8469
722.24	81.0526
725.615	48.9742
728.99	22.2285
732.364	32.3273
735.739	25.4992
739.114	34.943
742.489	74.4734
745.864	9.14734
749.238	30.2666
752.613	41.0721
755.988	10.5298
759.363	2.15588
762.738	10.0289
766.112	5.224
769.487	18.9966
772.862	58.9745
776.237	99.4535
779.612	164.641
782.986	289.44
786.361	482.553
789.736	751.96
793.111	1052.41
796.486	1340.75
799.861	1338.59
803.235	652.228
806.61	285.995
809.985	178.814
813.36	136.517
816.735	215.631
820.109	427.725
823.484	846.08
826.859	1546.52
830.234	2608.64
833.609	4090.43
836.984	4871.54
840.358	3693.44
843.733	2154.44
847.108	1244.52
850.483	718.704
853.858	386.785
857.232	278.483
860.607	157.989
863.982	83.2312
867.357	36.9993
870.732	15.668
874.106	-3.91751
877.481	5.70333
880.856	10.5739
884.231	25.0101
887.606	61.1329
890.981	94.5657
894.355	301.717
897.73	518.691
901.105	887.021
904.48	1408.15
907.855	2294.42
911.229	3543.97
914.604	5704.56
917.979	9385.07
921.354	15521.5
924.729	25189.6
928.104	36023.5
931.478	37661.8
934.853	25625.8
938.228	14672
941.603	8561.8
944.977	5421.62
948.352	3572.75
951.727	2469.04
955.102	1581.44
958.477	1020
961.852	665.053
965.226	559.337
968.601	564.733
971.976	760.979
975.351	1212.03
978.726	2005.16
982.101	3482.88
985.475	5993.26
988.85	9578.72
992.225	12995.2
995.6	12107.9
998.975	7544.06
1002.35	4024.79
1005.72	2048.73
1009.1	1074.46
1012.47	651.723
1015.85	442.82
1019.22	466.657
1022.6	556.234
1025.97	712.998
1029.35	1020.95
1032.72	1567.53
1036.1	2385.24
1039.47	2102.67
1042.85	818.603
1046.22	254.118
1049.6	85.9146
1052.97	26.8072
1056.35	75.707
1059.72	121.607
1063.1	88.4495
1066.47	69.8575
1069.85	39.5421
1073.22	21.6857
1076.6	19.4717
1079.97	13.6084
1083.35	79.9463
1086.72	98.63
1090.09	136.964
1093.47	181.359
1096.84	208.529
1100.22	243.58
1103.59	235.078
1106.97	242.939
1110.34	239.423
1113.72	257.158
1117.09	219.541
1120.47	186.999
1123.84	120.507
1127.22	108.003
1130.59	124.073
1133.97	107.116
1137.34	103.129
1140.72	91.749
1144.09	176.726
1147.47	191.844
1150.84	315.64
1154.22	402.66
1157.59	495.447
1160.97	676.456
1164.34	914.694
1167.71	1254.35
1171.09	1858.58
1174.46	2688.72
1177.84	3860.08
1181.21	5474.67
1184.59	6757.39
1187.96	6602.4
1191.34	4975.57
1194.71	3322.79
1198.09	2259.59
1201.46	1597.27
1204.84	1398.47
1208.21	1286.86
1211.59	949.686
1214.96	632.666
1218.34	419.226
1221.71	266.837
1225.09	175.004
1228.46	49.7822
1231.84	88.3951
1235.21	45.1995
1238.59	46.304
1241.96	37.746
1245.34	23.2487
1248.71	35.2975
1252.09	19.1361
1255.46	2.91187
1258.84	6.28833
1262.21	23.9563
1265.59	25.2749
1268.96	2.62439
1272.33	62.2836
1275.71	40.5718
1279.08	59.025
1282.46	21.1322
1285.83	35.0966
1289.21	12.5658
