Measurement: Raman, 532 nm, unoriented, Raman Data Processed
Mineral: Suredaite
Rruff sample: R070191
Ideal chemistry: PbSnS_3_
Locality: Sector Oploco, Niv. 7/1, Mina Pirquitas, Jujuy, Argentina
Source: Renato and Adriana Pagano
Description: Sprays of black acicular crystals with iridescent blue highlights
Raman shift (cm-1)	intensity
168.502	0
171.395	5.36987
174.287	1.32202
177.18	10.4392
180.073	66.4509
182.966	98.8418
185.858	201.541
188.751	330.319
191.644	362.807
194.536	410.566
197.429	518.087
200.322	597.511
203.214	592.792
206.107	596.407
209	563.831
211.893	485.474
214.785	367.226
217.678	371.946
220.571	291.32
223.463	257.966
226.356	222.95
229.249	195.534
232.142	154.028
235.034	169.953
237.927	192.108
240.82	139.146
243.712	158.377
246.605	149.145
249.498	122.846
252.39	80.5886
255.283	54.0859
258.176	11.387
261.068	3.42358
263.961	0.523926
266.854	18.3804
269.747	38.4812
272.639	5.79907
275.532	84.3103
278.425	165.365
281.317	158.389
284.21	307.289
287.103	452.319
289.995	735.875
292.888	1018.98
295.781	1328.87
298.674	1676.94
301.566	1995.72
304.459	2111.47
307.352	1964.75
310.244	1589.09
313.137	1195.21
316.03	819.376
318.923	593.981
321.815	458.259
324.708	297.231
327.601	231.575
330.493	198.185
333.386	135.655
336.279	136.273
339.171	115.134
342.064	92.3423
344.957	83.2754
347.849	64.8135
350.742	51.5562
353.635	41.4646
356.528	20.3618
359.42	45.9473
362.313	28.7398
365.206	47.6467
368.098	12.7051
370.991	31.5989
373.884	2.69482
376.776	5.8042
379.669	20.2642
382.562	14.4939
385.455	0.794678
388.347	13.3821
391.24	33.2563
394.133	3.01074
397.025	7.62573
399.918	26.8599
402.811	3.01123
405.704	30.5627
408.596	53.346
411.489	19.5254
414.382	57.5256
417.274	52.2273
420.167	90.3669
423.06	63.8723
425.952	63.7219
428.845	96.0454
431.738	97.4228
434.63	75.731
437.523	110.683
440.416	94.5066
443.309	78.3428
446.201	60.6743
449.094	67.4202
451.987	88.0444
454.879	10.093
457.772	105.469
460.665	91.0964
463.558	36.0115
466.45	59.8386
469.343	68.2524
472.236	9.69092
475.128	66.6309
478.021	47.4219
480.914	48.3611
483.807	35.7549
486.699	58.8455
489.592	43.4358
492.485	31.6626
495.377	35.1345
498.27	34.7639
501.163	19.8928
504.055	19.5456
506.948	8.42285
509.841	40.3584
512.734	12.4441
515.626	41.2371
518.519	33.5918
521.412	23.127
524.304	0.447266
527.197	2.45801
530.09	34.6484
532.982	51.8247
535.875	1.54541
538.768	5.53003
541.66	31.5237
544.553	1.59106
547.446	21.634
550.339	22.5994
553.231	13.562
556.124	41.9255
559.017	24.967
561.909	0.965088
564.802	53.0403
567.695	27.5625
570.587	62.6045
573.48	75.8452
576.373	50.1025
579.266	46.9412
582.158	73.9778
585.051	54.9773
587.944	60.3313
590.836	77.0015
593.729	95.0774
596.622	46.404
599.514	48.6284
602.407	66.4228
605.3	8.5498
608.193	82.2449
611.085	31.3801
613.978	53.8044
616.871	39.446
619.763	53.8975
622.656	47.137
625.549	48.6348
628.442	10.9094
631.334	35.1997
634.227	61.2891
637.12	15.5598
640.012	0.315918
642.905	41.7666
645.798	47.438
648.69	7.70532
651.583	47.5142
654.476	45.373
657.369	44.0513
660.261	47.3008
663.154	8.13135
666.047	30.0608
668.939	75.157
671.832	23.074
674.725	38.4453
677.617	16.0422
680.51	44.5049
683.403	78.7329
686.295	13.2685
689.188	21.0039
692.081	26.7388
694.974	37.5335
697.866	33.1431
700.759	32.4387
703.652	47.6895
706.544	4.61548
709.437	7.88672
712.33	25.8023
715.222	45.6506
718.115	26.074
721.008	46.4497
723.901	14.854
726.793	21.2495
729.686	52.0457
732.579	35.9605
735.471	42.2095
738.364	84.8696
741.257	59.3887
744.149	38.2158
747.042	39.5457
749.935	29.0798
752.828	41.54
755.72	50.5874
758.613	33.9663
761.506	16.1946
764.398	48.376
767.291	39.5779
770.184	32.4228
773.077	43.4507
775.969	7.72388
778.862	7.11914
781.755	11.9705
784.647	50.7778
787.54	73.1521
790.433	83.3694
793.325	39.1499
796.218	38.009
799.111	49.124
802.004	0.822266
804.896	4.32642
807.789	3.33667
810.682	1.80005
813.574	5.68628
816.467	13.071
819.36	26.9451
822.252	50.7261
825.145	12.4656
828.038	2.93628
830.931	4.45728
833.823	56.4719
836.716	12.4807
839.609	16.7681
842.501	33.96
845.394	68.8428
848.287	43.7705
851.179	80.5996
854.072	46.7766
856.965	60.7151
859.857	82.2314
862.75	56.167
865.643	74.8691
868.536	81.3879
871.428	51.8325
874.321	26.9072
877.214	34.1714
880.106	24.71
882.999	14.1682
885.892	48.1514
888.784	33.1899
891.677	74.0229
894.57	24.5811
897.463	19.7324
900.355	11.9492
903.248	54.3906
906.141	43.0312
909.033	30.8362
911.926	3.60181
914.819	27.4653
917.712	63.6455
920.604	62.0288
923.497	55.273
926.39	41.082
929.282	34.5034
932.175	42.5581
935.068	61.541
937.96	1.64356
940.853	38.8906
943.746	46.7353
946.639	42.8828
949.531	49.773
952.424	47.2959
955.317	66.8994
958.209	23.6343
961.102	78.7051
963.995	80.5474
966.888	56.8227
969.78	99.4898
972.673	136.39
975.566	85.3511
978.458	112.707
981.351	56.5864
984.244	59.1226
987.136	75.2158
990.029	63.2266
992.922	80.3584
995.814	26.6821
998.707	32.8535
1001.6	44.6372
1004.49	3.36963
1007.38	80.6689
1010.28	38.7861
1013.17	69.2188
1016.06	47.144
1018.96	46.6728
1021.85	63.4609
1024.74	11.6196
1027.63	12.6333
1030.53	21.8018
1033.42	43.3398
1036.31	31.4434
1039.2	66.9893
1042.1	79.2627
1044.99	44.2285
1047.88	49.7852
1050.78	83.271
1053.67	12.2744
1056.56	52.6973
1059.45	77.5762
1062.35	10.2876
1065.24	43.1777
1068.13	62.6836
1071.03	54.0571
1073.92	34.3227
1076.81	32.6699
1079.7	13.4907
1082.6	2.83935
1085.49	25.6943
1088.38	35.8599
1091.27	1.02539
1094.17	49.3721
1097.06	32.3154
1099.95	69.6294
1102.84	37.0752
1105.74	40.9507
1108.63	25.6645
1111.52	34.7856
1114.41	57.4009
1117.31	94.9683
1120.2	7.19727
1123.09	43.1562
1125.99	42.2261
1128.88	13.627
1131.77	58.354
1134.66	59.2759
1137.56	19.0039
1140.45	47.4653
1143.34	65.5991
1146.23	81.0376
1149.13	1.95166
1152.02	31.6323
1154.91	50.668
1157.81	70.644
1160.7	106.246
1163.59	13.2622
1166.48	15.4629
1169.38	51.0088
1172.27	22.812
1175.16	59.8975
1178.06	12.4326
1180.95	48.439
1183.84	35.5151
1186.73	44.938
1189.62	41.0005
1192.52	45.6157
1195.41	18.063
1198.3	42.4077
1201.2	58.1831
1204.09	9.94727
1206.98	32.8047
1209.87	62.6123
1212.77	33.3394
1215.66	75.4092
1218.55	74.6133
1221.44	36.9756
1224.34	14.3618
1227.23	40.9355
1230.12	1.62891
1233.02	79.9692
1235.91	6.55469
1238.8	2.57617
1241.69	79.6958
1244.59	44.1802
1247.48	28.8804
1250.37	42.6201
1253.27	12.856
1256.16	73.0474
1259.05	87.1035
1261.94	70.9946
1264.84	76.8711
1267.73	67.4736
1270.62	16.062
1273.51	59.7266
1276.41	69.9727
1279.3	60.5488
1282.19	17.9854
1285.08	21.5679
1287.98	21.8311
1290.87	0
