Measurement: Raman, 785 nm, unoriented, Raman Data Processed
Mineral: Suredaite
Rruff sample: R070203
Ideal chemistry: PbSnS_3_
Locality: Sector Oploco, Niv. 7/1, Mina Pirquitas, Jujuy, Argentina
Source: Renato and Adriana Pagano
Description: Gray metallic cleavages
Measured chemistry: lighter phase: (Pb_0.98_Fe^2+^_0.02_)Sn_1.00_(S_2.96_As_0.04_)_Σ=3_ ; darker phase: Pb_1.00_(Sn_0.95_Fe^3+^_0.05_)_Σ=1.00_(S_2.88_As_0.12_)_Σ=3.00_
Raman shift (cm-1)	intensity
135.773	0
138.666	9.80493
141.558	27.7775
144.451	26.4618
147.344	1.69501
150.237	12.5763
153.129	18.3884
156.022	29.7767
158.915	16.9479
161.807	20.4981
164.7	45.531
167.593	51.4902
170.485	86.4419
173.378	92.9142
176.271	73.2733
179.163	61.1506
182.056	81.182
184.949	80.4193
187.841	91.8208
190.734	104.82
193.627	125.867
196.52	165.882
199.412	181.884
202.305	205.395
205.198	249.523
208.09	272.308
210.983	312.786
213.876	341.526
216.768	379.769
219.661	379.904
222.554	386.563
225.447	346.023
228.339	389.965
231.232	393.749
234.125	451.559
237.017	497.318
239.91	569.047
242.803	683.115
245.696	704.166
248.588	733.561
251.481	655.384
254.374	568.299
257.266	396.735
260.159	272.633
263.052	151.249
265.945	75.4732
268.837	7.25696
271.73	3.38847
274.623	10.1154
277.515	17.5216
280.408	16.6816
283.301	87.4071
286.193	186.214
289.086	306.143
291.979	455.705
294.872	701.142
297.764	999.204
300.657	1356.95
303.55	1757.63
306.442	2220.65
309.335	2422.06
312.228	2191.9
315.12	1643.76
318.013	1102.68
320.906	692.791
323.798	438.304
326.691	295.515
329.584	183.149
332.476	104.079
335.369	55.7853
338.262	21.8226
341.155	4.43289
344.047	6.77194
346.94	30.952
349.833	29.0243
352.725	54.6637
355.618	66.079
358.511	19.9117
361.404	21.9209
364.296	0.38739
367.189	2.52274
370.082	1.59378
372.974	11.3746
375.867	7.37415
378.76	3.5293
381.652	20.2734
384.545	0.384033
387.438	34.4526
390.33	11.0439
393.223	2.90828
396.116	10.3367
399.009	5.03789
401.901	8.23357
404.794	28.9716
407.687	40.1395
410.579	52.2042
413.472	57.3053
416.365	54.546
419.257	47.4181
422.15	70.3544
425.043	66.4173
427.936	52.5399
430.828	64.7841
433.721	49.4211
436.614	77.8946
439.506	56.7278
442.399	49.6868
445.292	34.8715
448.185	44.2946
451.077	38.5529
453.97	50.0455
456.863	26.4878
459.755	38.4141
462.648	33.3067
465.541	31.3848
468.433	26.5729
471.326	30.0397
474.219	43.7248
477.111	22.6558
480.004	21.9348
482.897	24.3363
485.79	33.4765
488.682	28.6968
491.575	19.6758
494.468	20.9917
497.36	16.8729
500.253	11.9485
503.146	15.6644
506.038	16.4067
508.931	9.15085
511.824	24.1149
514.717	10.7677
517.609	25.6246
520.502	2.76117
523.395	6.62738
526.288	17.8088
529.18	21.3373
532.073	1.93613
534.966	17.2098
537.858	18.4153
540.751	20.7363
543.644	36.2219
546.536	28.4117
549.429	5.16553
552.322	24.2621
555.214	35.8933
558.107	25.1243
561	12.6283
563.893	23.4817
566.785	27.1767
569.678	18.9963
572.571	25.9001
575.463	32.4161
578.356	28.988
581.249	23.5817
584.141	31.4293
587.034	37.1194
589.927	38.7306
592.819	42.0046
595.712	29.331
598.605	41.7125
601.498	49.0566
604.39	48.9335
607.283	41.3757
610.176	39.3906
613.068	40.2527
615.961	23.2886
618.854	33.9624
621.746	11.1158
624.639	13.6831
627.532	3.46361
630.425	3.13994
633.317	13.7606
636.21	4.77936
639.103	3.24878
641.995	11.3906
644.888	10.9499
647.781	11.9577
650.673	2.70966
653.566	1.02669
656.459	30.6926
659.352	4.80426
662.244	14.0115
665.137	5.68544
668.03	6.21533
670.922	10.321
673.815	1.62122
676.708	25.1894
679.601	13.3242
682.493	14.1596
685.386	22.8374
688.279	12.8865
691.171	16.2207
694.064	12.1442
696.957	31.8123
699.849	10.609
702.742	8.20233
705.635	21.7924
708.528	29.0945
711.42	25.5913
714.313	24.2891
717.206	14.641
720.098	21.6107
722.991	17.6836
725.884	4.02977
728.776	6.88721
731.669	0.457947
734.562	6.36882
737.455	17.982
740.347	1.64818
743.24	21.22
746.133	2.63028
749.025	8.99522
751.918	21.9458
754.811	8.85269
757.703	25.0003
760.596	28.5635
763.489	6.67436
766.381	17.4993
769.274	4.98138
772.167	23.9332
775.06	8.49901
777.952	2.87814
780.845	7.29466
783.738	10.4601
786.63	7.77765
789.523	16.9151
792.416	26.2142
795.308	1.33072
798.201	10.9997
801.094	23.9901
803.987	2.40126
806.879	41.1923
809.772	13.3343
812.665	15.689
815.557	16.3974
818.45	21.452
821.343	7.84515
824.236	8.51585
827.128	3.83067
830.021	38.4577
832.914	19.2131
835.806	6.16353
838.699	15.3063
841.592	20.8578
844.484	1.68043
847.377	10.6822
850.27	16.0674
853.163	9.89416
856.055	3.24756
858.948	9.38516
861.841	28.14
864.733	16.034
867.626	21.6769
870.519	3.89002
873.411	14.0811
876.304	16.7758
879.197	0.547714
882.09	21.9944
884.982	2.44521
887.875	24.466
890.768	23.6885
893.66	4.73207
896.553	17.7513
899.446	20.5259
902.338	21.4229
905.231	20.6117
908.124	10.5156
911.016	5.63556
913.909	27.0699
916.802	24.669
919.695	0.871765
922.587	12.8581
925.48	11.7781
928.373	3.57938
931.265	17.0174
934.158	15.4441
937.051	2.35158
939.943	0.928879
942.836	30.2443
945.729	2.15616
948.622	8.85645
951.514	36.2606
954.407	11.7081
957.3	19.77
960.192	11.0898
963.085	17.0517
965.978	5.87598
968.87	16.6447
971.763	7.86494
974.656	20.8164
977.549	9.28334
980.441	18.3457
983.334	22.6887
986.227	8.40584
989.119	33.0546
992.012	21.3228
994.905	21.3575
997.798	10.4257
1000.69	28.2229
1003.58	18.4816
1006.48	20.1764
1009.37	19.0039
1012.26	21.2013
1015.15	19.5738
1018.05	19.9731
1020.94	39.3384
1023.83	5.32373
1026.72	26.0372
1029.62	3.72459
1032.51	17.735
1035.4	40.6512
1038.3	12.61
1041.19	24.8393
1044.08	5.27039
1046.97	26.3459
1049.87	22.2157
1052.76	15.2648
1055.65	13.2403
1058.54	3.10461
1061.44	0.309052
1064.33	32.9446
1067.22	9.12117
1070.12	14.2352
1073.01	10.7794
1075.9	7.38762
1078.79	11.688
1081.69	14.5762
1084.58	18.5144
1087.47	26.2901
1090.36	11.1423
1093.26	15.8033
1096.15	30.3913
1099.04	6.75546
1101.93	14.5904
1104.83	21.5836
1107.72	23.8234
1110.61	20.4292
1113.51	13.6683
1116.4	2.12567
1119.29	15.4713
1122.18	29.3821
1125.08	5.00265
1127.97	1.59613
1130.86	8.37509
1133.75	27.7691
1136.65	32.2297
1139.54	32.126
1142.43	22.4967
1145.33	21.7577
1148.22	12.1344
1151.11	17.6182
1154	19.8856
1156.9	7.06058
1159.79	27.1805
1162.68	18.979
1165.57	6.60912
1168.47	30.8205
1171.36	2.9962
1174.25	10.9837
1177.14	15.0993
1180.04	21.9239
1182.93	24.1322
1185.82	7.75722
1188.72	19.4032
1191.61	13.2245
1194.5	21.8422
1197.39	25.9751
1200.29	23.2917
1203.18	18.6747
1206.07	32.3894
1208.96	39.8589
1211.86	21.9099
1214.75	20.9167
1217.64	31.3646
1220.54	1.44661
1223.43	39.8155
1226.32	20.8274
1229.21	24.0474
1232.11	20.7662
1235	17.5295
1237.89	2.0631
