Measurement: Raman, 532 nm, unoriented, Raman Data Processed
Mineral: Suredaite
Rruff sample: R070203
Ideal chemistry: PbSnS_3_
Locality: Sector Oploco, Niv. 7/1, Mina Pirquitas, Jujuy, Argentina
Source: Renato and Adriana Pagano
Description: Gray metallic cleavages
Measured chemistry: lighter phase: (Pb_0.98_Fe^2+^_0.02_)Sn_1.00_(S_2.96_As_0.04_)_Σ=3_ ; darker phase: Pb_1.00_(Sn_0.95_Fe^3+^_0.05_)_Σ=1.00_(S_2.88_As_0.12_)_Σ=3.00_
Raman shift (cm-1)	intensity
120.772	0
124.147	14.871
127.522	11.6935
130.897	11.304
134.272	1.99252
137.647	17.5737
141.021	8.77979
144.396	10.3873
147.771	2.5205
151.146	23.2768
154.521	15.6513
157.895	31.6873
161.27	35.2932
164.645	47.4127
168.02	69.0819
171.395	79.6642
174.77	79.6391
178.144	70.5887
181.519	79.8268
184.894	74.4197
188.269	93.2374
191.644	99.9456
195.018	137.5
198.393	152.76
201.768	172.014
205.143	206.411
208.518	223.297
211.893	231.046
215.267	229.374
218.642	243.761
222.017	205.852
225.392	166.734
228.767	155.131
232.142	162.514
235.516	134.48
238.891	148.382
242.266	132.714
245.641	150.824
249.016	157.294
252.39	122.701
255.765	86.2231
259.14	39.1069
262.515	28.7985
265.89	6.7251
269.264	4.6225
272.639	6.72922
276.014	0.17804
279.389	0.470795
282.764	25.287
286.139	37.7062
289.513	88.4797
292.888	160.84
296.263	265.023
299.638	417.061
303.013	597.145
306.387	755.586
309.762	795.234
313.137	651.311
316.512	430.157
319.887	255.98
323.262	168.772
326.636	115.435
330.011	63.7356
333.386	38.9682
336.761	24.4197
340.136	16.2435
343.51	19.4844
346.885	24.5604
350.26	19.1013
353.635	26.4938
357.01	19.8145
360.385	10.83
363.759	4.02447
367.134	5.39172
370.509	11.1761
373.884	2.10677
377.259	5.85606
380.634	0.780525
384.008	7.93442
387.383	9.56766
390.758	0.12825
394.133	0.937462
397.507	7.84964
400.882	1.97281
404.257	10.3128
407.632	2.23332
411.007	5.33823
414.382	5.94193
417.756	23.6908
421.131	11.2012
424.506	20.1495
427.881	15.2382
431.256	20.9256
434.63	25.2318
438.005	32.3666
441.38	23.5108
444.755	8.52552
448.13	15.1472
451.505	19.9909
454.879	13.5813
458.254	17.286
461.629	20.24
465.004	7.1043
468.379	20.8909
471.753	10.4992
475.128	7.78036
478.503	7.90866
481.878	5.93388
485.253	6.31948
488.628	5.6866
492.002	10.3775
495.377	1.28561
498.752	7.54959
502.127	11.4605
505.502	9.70979
508.877	7.72855
512.251	10.447
515.626	0.309113
519.001	10.4602
522.376	15.0081
525.751	7.59998
529.125	8.96882
532.5	10.033
535.875	7.34091
539.25	2.65173
542.625	2.86627
546	10.0711
549.374	12.0901
552.749	10.0957
556.124	8.32748
559.499	24.981
562.874	21.9051
566.248	21.6572
569.623	24.3327
572.998	19.8479
576.373	25.4431
579.748	24.979
583.122	33.8597
586.497	19.1936
589.872	35.1301
593.247	26.4131
596.622	30.7031
599.997	31.5288
603.371	24.4172
606.746	21.3263
610.121	32.6856
613.496	15.8272
616.871	18.6436
620.245	20.2754
623.62	10.82
626.995	1.77746
630.37	0.266754
633.745	5.26578
637.12	19.6892
640.494	1.76933
643.869	12.174
647.244	11.7838
650.619	9.27201
653.994	0.245781
657.369	2.66763
660.743	4.89757
664.118	3.25309
667.493	20.1187
670.868	3.2086
674.243	0.973782
677.617	8.60492
680.992	1.43159
684.367	12.5974
687.742	5.37005
691.117	13.8179
694.491	15.4307
697.866	10.7791
701.241	20.9675
704.616	9.01683
707.991	7.45359
711.365	13.3079
714.74	11.8671
718.115	19.345
721.49	10.6094
724.865	12.9663
728.24	22.3975
731.614	8.19529
734.989	13.9505
738.364	14.1574
741.739	12.5229
745.114	12.2932
748.489	7.92936
751.863	4.88533
755.238	14.562
758.613	9.15346
761.988	15.527
765.363	3.09471
768.737	10.5303
772.112	9.17844
775.487	18.7916
778.862	7.91606
782.237	6.79255
785.611	6.65158
788.986	3.85269
792.361	3.93557
795.736	12.0554
799.111	8.66462
802.486	2.57155
805.86	16.1017
809.235	10.1976
812.61	6.61857
815.985	10.8615
819.36	8.7981
822.735	3.62694
826.109	18.0509
829.484	4.85929
832.859	4.49432
836.234	4.12012
839.609	0.691387
842.983	13.3651
846.358	14.9936
849.733	17.9165
853.108	15.3346
856.483	29.6303
859.857	12.0997
863.232	1.21889
866.607	18.1817
869.982	2.12455
873.357	3.88299
876.732	14.4191
880.106	7.62888
883.481	10.0773
886.856	6.30577
890.231	16.0758
893.606	4.33019
896.981	8.91501
900.355	13.9431
903.73	5.97098
907.105	3.40205
910.48	18.1257
913.855	14.9346
917.229	1.07954
920.604	3.17894
923.979	9.4672
927.354	5.2341
930.729	1.75326
934.104	1.88922
937.478	11.115
940.853	4.90364
944.228	16.7462
947.603	10.3303
950.978	10.0633
954.352	4.0922
957.727	8.44706
961.102	23.967
964.477	19.5951
967.852	17.3328
971.226	18.3985
974.601	18.2507
977.976	17.8991
981.351	4.74594
984.726	7.62635
988.101	7.17913
991.475	10.0266
994.85	3.88079
998.225	9.60058
1001.6	9.01534
1004.98	0.995068
1008.35	1.67627
1011.72	10.7568
1015.1	18.586
1018.47	11.5666
1021.85	12.5454
1025.22	1.76939
1028.6	19.4854
1031.97	14.7386
1035.35	8.12871
1038.72	11.3455
1042.1	4.1347
1045.47	0.280449
1048.85	22.9982
1052.22	17.2843
1055.6	10.364
1058.97	17.3745
1062.35	6.29704
1065.72	10.2069
1069.1	5.07514
1072.47	8.92655
1075.85	1.07023
1079.22	7.34354
1082.6	24.128
1085.97	19.7102
1089.35	4.71892
1092.72	17.6913
1096.1	2.88159
1099.47	13.5989
1102.84	7.24772
1106.22	6.4812
1109.59	3.44617
1112.97	2.10534
1116.34	14.9117
1119.72	9.88455
1123.09	1.33201
1126.47	6.41962
1129.84	9.84515
1133.22	14.7927
1136.59	3.93109
1139.97	4.86638
1143.34	6.60059
1146.72	23.5619
1150.09	0.888775
1153.47	7.99679
1156.84	5.35091
1160.22	19.2564
1163.59	15.9322
1166.97	2.82496
1170.34	14.4461
1173.72	0.18774
1177.09	11.0855
1180.46	4.46641
1183.84	2.83709
1187.21	8.86396
1190.59	15.2579
1193.96	9.53791
1197.34	6.64356
1200.71	9.32393
1204.09	8.91414
1207.46	14.7589
1210.84	13.5306
1214.21	4.37415
1217.59	12.6465
1220.96	7.27321
1224.34	6.79303
1227.71	7.20122
1231.09	10.2707
1234.46	5.39148
1237.84	20.3189
1241.21	9.07402
1244.59	4.34067
1247.96	9.2205
1251.34	17.3299
1254.71	7.30667
1258.09	2.89897
1261.46	12.9979
1264.84	1.51476
1268.21	12.8241
1271.59	10.6357
1274.96	10.8372
1278.34	11.0182
1281.71	13.429
1285.08	17.0714
1288.46	0.028812
