Measurement: Raman, 785 nm, unoriented, Raman Data Processed
Mineral: Suredaite
Rruff sample: R070191
Ideal chemistry: PbSnS_3_
Locality: Sector Oploco, Niv. 7/1, Mina Pirquitas, Jujuy, Argentina
Source: Renato and Adriana Pagano
Description: Sprays of black acicular crystals with iridescent blue highlights
Raman shift (cm-1)	intensity
179.163	0
182.056	21.7659
184.949	32.2458
187.841	82.7278
190.734	124.014
193.627	189.871
196.52	208.738
199.412	292.161
202.305	317.065
205.198	324.105
208.09	305.925
210.983	282.182
213.876	266.87
216.768	188.23
219.661	190.492
222.554	171.119
225.447	139.547
228.339	132.035
231.232	142.382
234.125	104.008
237.017	133.741
239.91	125.591
242.803	115.444
245.696	101.877
248.588	91.0524
251.481	64.7704
254.374	29.7666
257.266	1.96436
260.159	2.73254
263.052	11.7678
265.945	19.86
268.837	26.7207
271.73	5.51965
274.623	24.6957
277.515	91.2528
280.408	179.348
283.301	261.585
286.193	431.668
289.086	578.986
291.979	795.795
294.872	1028.92
297.764	1250.63
300.657	1492.03
303.55	1613.15
306.442	1659.97
309.335	1405.78
312.228	1056.15
315.12	773.805
318.013	570.625
320.906	417.5
323.798	301.814
326.691	225.089
329.584	156.22
332.476	138.423
335.369	106.462
338.262	65.7954
341.155	35.1934
344.047	42.7925
346.94	22.8231
349.833	32.2955
352.725	42.202
355.618	25.4847
358.511	42.2871
361.404	6.89453
364.296	10.1427
367.189	2.89636
370.082	4.2196
372.974	17.8398
375.867	7.25452
378.76	8.95972
381.652	41.866
384.545	4.59936
387.438	9.60181
390.33	12.3213
393.223	26.1528
396.116	17.4479
399.009	28.0314
401.901	8.23071
404.794	38.8971
407.687	40.1753
410.579	20.5476
413.472	30.3949
416.365	39.0442
419.257	31.7499
422.15	34.366
425.043	44.637
427.936	14.5896
430.828	48.1859
433.721	39.6931
436.614	24.6016
439.506	23.3522
442.399	48.632
445.292	25.8297
448.185	41.7952
451.077	23.7246
453.97	32.2593
456.863	35.5527
459.755	1.82568
462.648	3.21082
465.541	21.6914
468.433	1.34241
471.326	4.5968
474.219	25.8987
477.111	31.0565
480.004	3.82581
482.897	20.7241
485.79	3.83789
488.682	25.335
491.575	40.5486
494.468	33.9205
497.36	2.12842
500.253	16.8865
503.146	26.6873
506.038	21.21
508.931	18.1871
511.824	3.98682
514.717	2.06335
517.609	19.2771
520.502	28.5121
523.395	21.3328
526.288	30.8424
529.18	18.9233
532.073	3.58716
534.966	25.3916
537.858	34.9027
540.751	22.6809
543.644	18.6333
546.536	14.0164
549.429	27.0055
552.322	8.66589
555.214	19.1282
558.107	12.4303
561	17.1567
563.893	40.7322
566.785	16.5985
569.678	28.9172
572.571	54.5201
575.463	55.5355
578.356	47.7546
581.249	55.1438
584.141	44.7534
587.034	40.7999
589.927	30.6457
592.819	61.22
595.712	21.2859
598.605	39.4185
601.498	31.8552
604.39	53.6783
607.283	30.4579
610.176	24.3004
613.068	36.0159
615.961	25.4498
618.854	8.24744
621.746	2.08789
624.639	15.5446
627.532	27.3596
630.425	27.2125
633.317	2.63415
636.21	4.44421
639.103	14.2283
641.995	17.0998
644.888	1.2052
647.781	4.12415
650.673	19.5367
653.566	29.7991
656.459	3.61938
659.352	26.2211
662.244	26.2767
665.137	35.8406
668.03	9.7019
670.922	17.3511
673.815	8.07812
676.708	9.80432
679.601	11.2315
682.493	29.0021
685.386	20.2731
688.279	31.3362
691.171	8.24182
694.064	24.8315
696.957	1.88477
699.849	32.5929
702.742	23.3379
705.635	11.4452
708.528	22.26
711.42	27.3337
714.313	44.8402
717.206	30.5117
720.098	17.0146
722.991	49.7959
725.884	29.8643
728.776	15.4883
731.669	17.4412
734.562	18.4763
737.455	25.8151
740.347	0.996338
743.24	29.6587
746.133	8.59924
749.025	42.3457
751.918	1.95898
754.811	9.65002
757.703	28.0413
760.596	6.51721
763.489	13.5607
766.381	16.9686
769.274	32.4023
772.167	0.167236
775.06	39.37
777.952	11.4343
780.845	15.235
783.738	7.97192
786.63	13.9375
789.523	39.9335
792.416	18.5863
795.308	31.4149
798.201	29.0359
801.094	20.8232
803.987	45.3394
806.879	16.2693
809.772	16.3982
812.665	12.2041
815.557	38.8398
818.45	11.2661
821.343	20.8374
824.236	14.5631
827.128	8.70435
830.021	19.483
832.914	32.786
835.806	0.969238
838.699	31.5115
841.592	40.6195
844.484	20.4922
847.377	15.3052
850.27	19.7776
853.163	8.58398
856.055	27.3486
858.948	27.6125
861.841	33.8179
864.733	4.55725
867.626	20.0143
870.519	11.6461
873.411	5.17493
876.304	52.0225
879.197	1.03381
882.09	10.7507
884.982	31.9352
887.875	18.1599
890.768	6.34998
893.66	22.8909
896.553	35.106
899.446	14.0931
902.338	25.9346
905.231	28.8363
908.124	49.3389
911.016	15.1653
913.909	12.8597
916.802	32.1023
919.695	0.907471
922.587	15.0466
925.48	15.8774
928.373	15.338
931.265	13.5977
934.158	16.806
937.051	25.5388
939.943	30.4036
942.836	25.2683
945.729	42.4276
948.622	1.50983
951.514	14.1942
954.407	20.2363
957.3	34.7989
960.192	5.81714
963.085	29.5973
965.978	17.8788
968.87	23.8536
971.763	17.0601
974.656	24.238
977.549	28.7943
980.441	25.3103
983.334	34.2669
986.227	28.1688
989.119	7.31482
992.012	20.4276
994.905	20.9383
997.798	16.2052
1000.69	12.465
1003.58	12.4872
1006.48	19.4453
1009.37	12.7606
1012.26	17.7443
1015.15	33.6034
1018.05	1.63116
1020.94	30.3503
1023.83	4.52301
1026.72	2.33643
1029.62	0.736023
1032.51	4.29645
1035.4	20.6554
1038.3	19.9304
1041.19	1.49298
1044.08	22.2835
1046.97	27.2006
1049.87	27.3936
1052.76	27.6947
1055.65	15.4424
1058.54	19.8054
1061.44	10.9549
1064.33	17.9424
1067.22	7.37915
1070.12	15.698
1073.01	7.41583
1075.9	14.1889
1078.79	23.4864
1081.69	19.9688
1084.58	0.339478
1087.47	11.428
1090.36	16.8523
1093.26	19.0438
1096.15	6.92584
1099.04	6.83246
1101.93	20.8655
1104.83	22.4089
1107.72	27.1518
1110.61	4.36792
1113.51	24.0057
1116.4	2.04681
1119.29	27.2181
1122.18	20.4222
1125.08	19.0171
1127.97	30.0052
1130.86	24.1429
1133.75	35.2689
1136.65	13.3267
1139.54	20.1049
1142.43	5.44446
1145.33	36.1435
1148.22	22.3669
1151.11	15.8166
1154	14.4026
1156.9	12.9808
1159.79	8.31519
1162.68	39.1054
1165.57	42.3348
1168.47	28.8893
1171.36	29.6528
1174.25	15.5292
1177.14	41.6557
1180.04	15.8403
1182.93	26.8546
1185.82	23.7244
1188.72	10.3836
1191.61	21.8567
1194.5	12.713
1197.39	21.9354
1200.29	8.03174
1203.18	24.6659
1206.07	27.8193
1208.96	6.8642
1211.86	28.6646
1214.75	26.0496
1217.64	18.4631
1220.54	37.5399
1223.43	18.8179
1226.32	10.6722
1229.21	23.3166
1232.11	17.837
1235	6.1015
1237.89	2.82611
