Measurement: Raman, 532 nm, unoriented, Raman Data Processed
Mineral: Surite
Rruff sample: R060794
Ideal chemistry: (Pb,Ca)_3_Al_2_(Si,Al)_4_O_10_(CO_3_)_2_(OH)_3_0.3H_2_O
Locality: Mammoth mine, Tiger, Arizona, USA
Source: Bob Jenkins
Description: Aggregates of colorless platy crystals
Raman shift (cm-1)	intensity
167.806	0
170.699	7.12695
173.592	65.3281
176.484	408.152
179.377	706.707
182.27	836.807
185.162	1114.26
188.055	1274.62
190.948	1417.72
193.84	1392.69
196.733	1422.32
199.626	1538.42
202.519	1474.42
205.411	1336.89
208.304	1107.79
211.197	806.902
214.089	487.172
216.982	367.822
219.875	279.059
222.767	184.893
225.66	25.3672
228.553	9.24609
231.446	6.82227
234.338	28.4453
237.231	3.37891
240.124	47.2305
243.016	147.197
245.909	206.957
248.802	399.072
251.694	502.746
254.587	641.602
257.48	763.502
260.373	1111.94
263.265	1251.07
266.158	1148.11
269.051	741.365
271.943	500.525
274.836	423.25
277.729	356.85
280.621	406.051
283.514	335.988
286.407	327.334
289.3	426.357
292.192	273.402
295.085	189.764
297.978	1.75977
300.87	78.9356
303.763	149.9
306.656	244.492
309.548	325.744
312.441	25.7012
315.334	31.7363
318.226	61.7344
321.119	54.8848
324.012	89.793
326.904	30.6152
329.797	139.9
332.69	130.08
335.583	81.1641
338.475	110.961
341.368	98.0898
344.261	76.9805
347.153	12.0078
350.046	254.402
352.939	264.728
355.832	320.031
358.724	136.301
361.617	140.309
364.51	177.539
367.402	99.8066
370.295	179.873
373.188	262.926
376.08	388.494
378.973	265.418
381.866	262.133
384.759	305.957
387.651	440.504
390.544	526.816
393.437	364.123
396.329	376.199
399.222	374.574
402.115	326.346
405.007	291.935
407.9	472.951
410.793	593.4
413.685	522.469
416.578	699.379
419.471	638.271
422.364	543.887
425.256	608.154
428.149	473.215
431.042	528.086
433.934	423.527
436.827	480.297
439.72	339.971
442.612	396.072
445.505	357.281
448.398	156.982
451.291	143.455
454.183	276.609
457.076	139.217
459.969	97.4102
462.861	74.9668
465.754	141.703
468.647	113.15
471.539	136.807
474.432	81.6367
477.325	78.6328
480.217	5.91797
483.11	105.598
486.003	228.83
488.896	169.912
491.788	0.375
494.681	8.28711
497.574	42.7539
500.466	62.0879
503.359	6.79883
506.252	157.961
509.144	11.6113
512.037	49.582
514.93	102.992
517.823	210.519
520.715	280.014
523.608	240.312
526.501	293.678
529.393	236.16
532.286	298.975
535.179	74.1738
538.072	57.0059
540.964	89.5195
543.857	216.406
546.75	266.514
549.642	278.867
552.535	152.768
555.428	69.2852
558.32	146.818
561.213	49.4062
564.106	137.807
566.998	162.344
569.891	171.711
572.784	50.4141
575.677	101.682
578.569	70.7949
581.462	15.4707
584.355	35.5293
587.247	178.828
590.14	129.924
593.033	41.6992
595.925	33.9648
598.818	58.2168
601.711	31.2949
604.604	62.6055
607.496	214.236
610.389	341.559
613.282	209.846
616.174	169.272
619.067	185.023
621.96	287.574
624.852	293.098
627.745	266.766
630.638	152.522
633.53	11.7148
636.423	69.8144
639.316	46.3223
642.209	9.91797
645.101	22.1504
647.994	38.4492
650.887	276.594
653.779	251.273
656.672	143.789
659.565	169.848
662.457	233.078
665.35	141.527
668.243	147.027
671.135	382.422
674.028	288.445
676.921	398.535
679.814	568.934
682.706	820.309
685.599	1222.02
688.492	1413.31
691.384	1504.16
694.277	1640.12
697.17	1690.29
700.062	1723.57
702.955	1678.74
705.848	1544.63
708.741	1312.54
711.633	840.356
714.526	686.34
717.419	519.285
720.311	515.934
723.204	467.465
726.097	364.375
728.99	372.894
731.882	328.285
734.775	282.609
737.668	180.824
740.56	88.293
743.453	126.902
746.346	294.852
749.238	361.086
752.131	76.9766
755.024	189.051
757.916	23.8398
760.809	23.5312
763.702	34.8242
766.595	106.051
769.487	241.246
772.38	291.035
775.273	166.523
778.165	96.8242
781.058	83.6055
783.951	224.57
786.843	206.262
789.736	257.684
792.629	365.062
795.521	385.273
798.414	285.348
801.307	219.691
804.2	162.504
807.092	80.3984
809.985	164.57
812.878	211.656
815.77	55.5664
818.663	73.1641
821.556	52.2578
824.448	47.7227
827.341	7.23828
830.234	187.051
833.127	119.953
836.019	102.152
838.912	76.375
841.805	11.9219
844.697	175.742
847.59	188.449
850.483	118.773
853.375	18.5273
856.268	8.19141
859.161	170.543
862.053	235.383
864.946	148.508
867.839	179.988
870.732	51.9531
873.624	57.8906
876.517	132.91
879.41	141.742
882.302	115.035
885.195	168.637
888.088	183.269
890.981	359.207
893.873	377.481
896.766	455.168
899.659	93.2578
902.551	330.926
905.444	215.019
908.337	345.566
911.229	67.6758
914.122	183.848
917.015	149.793
919.908	113.766
922.8	214.394
925.693	329.082
928.586	321.438
931.478	218.414
934.371	154.75
937.264	177.637
940.156	83.0742
943.049	48.7188
945.942	102.312
948.835	23.2578
951.727	57.9023
954.62	13.4648
957.513	63.4844
960.405	26.293
963.298	164.227
966.191	178.973
969.083	232
971.976	203.793
974.869	263.356
977.761	366.621
980.654	271.738
983.547	289.852
986.439	88.4688
989.332	156.648
992.225	121.656
995.118	68.6953
998.01	78.3555
1000.9	140.168
1003.8	79.3438
1006.69	29.8594
1009.58	57.1875
1012.47	34.8125
1015.37	20.9023
1018.26	22.3945
1021.15	0.652344
1024.05	131.602
1026.94	247.824
1029.83	138.641
1032.72	131.57
1035.62	213.672
1038.51	137.941
1041.4	189.406
1044.29	99.8008
1047.19	64.4844
1050.08	468.5
1052.97	858.356
1055.86	1255.32
1058.76	1199.41
1061.65	1625.5
1064.54	1117.88
1067.43	1306.27
1070.33	2398.56
1073.22	3806.98
1076.11	5312.41
1079.01	6977.06
1081.9	8800.87
1084.79	7027.4
1087.68	4345.5
1090.58	1683.25
1093.47	578.504
1096.36	396.195
1099.26	394.328
1102.15	345.949
1105.04	258.113
1107.93	350.254
1110.83	249.492
1113.72	184.414
1116.61	125.59
1119.5	53.0859
1122.4	128.375
1125.29	72.0156
1128.18	122.625
1131.07	320.695
1133.97	187.75
1136.86	248.379
1139.75	203.227
1142.64	104.25
1145.54	85.4531
1148.43	21.5469
1151.32	151.547
1154.22	279.016
1157.11	233.988
1160	207.457
1162.89	140.539
1165.79	62.9492
1168.68	25.6211
1171.57	114.211
1174.46	153.309
1177.36	205.148
1180.25	295.609
1183.14	314.496
1186.04	408.582
1188.93	306.441
1191.82	132.047
1194.71	165.848
1197.61	255.668
1200.5	214.035
1203.39	53.9297
1206.29	290.356
1209.18	260.914
1212.07	240.246
1214.96	226.523
1217.86	37.0039
1220.75	187.426
1223.64	340
1226.53	280.973
1229.43	268.629
1232.32	334.906
1235.21	555.238
1238.1	338.273
1241	335.719
1243.89	498.481
1246.78	492.168
1249.67	389.137
1252.57	447.328
1255.46	294.871
1258.35	334.856
1261.25	228.664
1264.14	129.945
1267.03	79.3711
1269.92	362.051
1272.82	637
1275.71	465.391
1278.6	140.883
1281.49	13.5508
