Measurement: Raman, 785 nm, unoriented, Raman Data Processed
Mineral: Surite
Rruff sample: R060794
Ideal chemistry: (Pb,Ca)_3_Al_2_(Si,Al)_4_O_10_(CO_3_)_2_(OH)_3_0.3H_2_O
Locality: Mammoth mine, Tiger, Arizona, USA
Source: Bob Jenkins
Description: Aggregates of colorless platy crystals
Raman shift (cm-1)	intensity
160.097	0
162.99	99.7573
165.882	372.86
168.775	590.72
171.668	748.787
174.561	694.193
177.453	766.586
180.346	878.823
183.239	959.36
186.131	1175.43
189.024	1262.09
191.917	1357.76
194.81	1574.89
197.702	1747.89
200.595	1754.72
203.488	1698.01
206.38	1363.41
209.273	1021.62
212.166	726.777
215.058	486.288
217.951	300.138
220.844	129.219
223.737	97.5034
226.629	52.0147
229.522	67.5403
232.415	71.8252
235.307	38.3298
238.2	3.22315
241.093	30.3311
243.985	89.7402
246.878	162.873
249.771	317.558
252.663	537.128
255.556	839.375
258.449	1158.23
261.342	1418.82
264.234	1407.03
267.127	1112.61
270.02	747.566
272.912	612.866
275.805	493.112
278.698	431.174
281.591	491.446
284.483	496.209
287.376	470.884
290.269	406.022
293.161	367.897
296.054	299.363
298.947	247.478
301.839	163.724
304.732	119.701
307.625	130.259
310.517	43.188
313.41	31.7319
316.303	34.2451
319.196	11.3433
322.088	3.83813
324.981	16.8677
327.874	34.0757
330.766	42.3257
333.659	48.7634
336.552	23.0178
339.445	12.9446
342.337	16.8501
345.23	8.93188
348.123	12.2127
351.015	71.8835
353.908	55.4148
356.801	81.1243
359.693	73.5647
362.586	100.332
365.479	98.0327
368.372	173.079
371.264	182.302
374.157	211.821
377.05	256.978
379.942	294.921
382.835	262.073
385.728	260.506
388.62	277.928
391.513	286.856
394.406	335.899
397.298	365.14
400.191	383.009
403.084	393.662
405.977	445.735
408.869	447.577
411.762	493.358
414.655	547.41
417.547	535.356
420.44	526.257
423.333	545.287
426.226	496.565
429.118	542.143
432.011	544.249
434.904	466.883
437.796	333.466
440.689	291.198
443.582	242.976
446.474	217.137
449.367	190.82
452.26	132.876
455.152	131.619
458.045	122.861
460.938	120.939
463.831	96.3477
466.723	50.294
469.616	38.2589
472.509	20.3665
475.401	24.8914
478.294	4.2721
481.187	5.33704
484.079	17.0076
486.972	3.83826
489.865	45.4948
492.758	15.9496
495.65	9.47961
498.543	20.5569
501.436	62.9755
504.329	24.504
507.221	4.1543
510.114	30.6196
513.006	44.9098
515.899	17.5925
518.792	42.7918
521.685	11.9341
524.577	52.0686
527.47	56.1572
530.363	48.2296
533.255	6.13611
536.148	7.36462
539.041	70.5576
541.933	73.177
544.826	58.5328
547.719	62.3059
550.612	73.3398
553.504	64.8068
556.397	86.8822
559.29	77.5757
562.182	72.6992
565.075	51.5015
567.968	0.927368
570.861	0.195557
573.753	7.81128
576.646	19.4182
579.539	20.5134
582.431	51.6721
585.324	16.564
588.217	69.8268
591.11	67.6239
594.002	37.6099
596.895	21.0201
599.788	33.741
602.68	17.9921
605.573	53.8655
608.466	44.4956
611.358	75.6569
614.251	45.7032
617.144	32.8175
620.037	77.4142
622.929	71.1437
625.822	59.8931
628.715	47.4486
631.607	53.4051
634.5	27.8855
637.393	32.4985
640.285	0.899658
643.178	2.66431
646.071	24.025
648.963	6.21265
651.856	9.91565
654.749	1.18018
657.642	13.8933
660.534	57.5926
663.427	94.7965
666.32	112.019
669.212	115.447
672.105	222.356
674.998	298.497
677.89	388.711
680.783	583.966
683.676	749.17
686.569	1009.83
689.461	1297.8
692.354	1388.8
695.247	1532.84
698.139	1646.29
701.032	1791.93
703.925	1765.3
706.817	1468.5
709.71	1133.98
712.603	817.745
715.496	560.894
718.388	397.018
721.281	333.101
724.174	282.565
727.066	252.507
729.959	200.8
732.852	131.843
735.745	65.9049
738.637	69.6333
741.53	64.1132
744.423	42.3058
747.315	6.49414
750.208	29.5919
753.101	0.802856
755.993	35.5127
758.886	21.6741
761.779	43.6462
764.672	23.8508
767.564	3.84351
770.457	15.9685
773.35	34.9263
776.242	71.7223
779.135	52.1399
782.028	114.363
784.92	116.07
787.813	149.554
790.706	182.315
793.598	158.781
796.491	148.943
799.384	53.2028
802.277	20.2
805.169	23.4271
808.062	49.4646
810.955	7.8833
813.847	26.9111
816.74	14.1868
819.633	47.0592
822.525	29.2765
825.418	17.9309
828.311	37.803
831.204	64.1621
834.096	61.8086
836.989	79.805
839.882	107.671
842.774	51.4828
845.667	73.8937
848.56	47.0093
851.452	72.6456
854.345	50.9691
857.238	52.4493
860.131	117.698
863.023	84.4205
865.916	71.0169
868.809	65.4083
871.701	53.5404
874.594	40.7192
877.487	43.7662
880.38	5.67908
883.272	3.34656
886.165	11.0559
889.058	0.233521
891.95	20.6814
894.843	0.966431
897.736	37.1165
900.628	50.2188
903.521	127.379
906.414	115.495
909.307	144.959
912.199	112.407
915.092	103.384
917.985	123.671
920.877	63.0839
923.77	2.19312
926.663	10.8552
929.556	1.90698
932.448	41.8811
935.341	17.7067
938.234	35.9929
941.126	36.6217
944.019	48.1304
946.912	58.6173
949.804	39.1182
952.697	68.8342
955.59	100.423
958.482	111.754
961.375	124.706
964.268	184.276
967.161	242.885
970.053	264.967
972.946	322.059
975.839	315.952
978.731	272.833
981.624	164.719
984.517	240.841
987.409	188.505
990.302	95.5817
993.195	7.91357
996.088	1.55066
998.98	14.5686
1001.87	13.9087
1004.77	14.4718
1007.66	19.3964
1010.55	34.1533
1013.44	9.30749
1016.34	14.2672
1019.23	60.3505
1022.12	1.17346
1025.02	19.0223
1027.91	33.9694
1030.8	31.6681
1033.69	4.78918
1036.59	26.1345
1039.48	39.1938
1042.37	83.9963
1045.26	60.4302
1048.16	124.98
1051.05	308.339
1053.94	599.814
1056.83	777.955
1059.73	1018.73
1062.62	1107.91
1065.51	770.824
1068.4	1077.03
1071.3	1821.72
1074.19	2858.3
1077.08	4200.86
1079.98	6259.62
1082.87	7092.56
1085.76	5009.37
1088.65	2739.39
1091.55	863.857
1094.44	261.517
1097.33	131.419
1100.22	133.493
1103.12	73.9668
1106.01	59.6847
1108.9	62.3763
1111.8	32.7987
1114.69	28.5214
1117.58	24.9874
1120.47	15.9095
1123.37	41.8614
1126.26	26.3722
1129.15	40.3016
1132.05	28.851
1134.94	27.4237
1137.83	54.7264
1140.72	15.412
1143.62	40.9346
1146.51	29.9911
1149.4	2.7456
1152.29	4.10803
1155.19	4.0304
1158.08	8.22266
1160.97	2.18372
1163.86	43.9309
1166.76	28.2224
1169.65	8.17224
1172.54	40.084
1175.43	25.4952
1178.33	48.8451
1181.22	32.6672
1184.11	38.866
1187.01	98.6759
1189.9	38.8115
1192.79	30.1017
1195.68	72.0668
1198.58	59.468
1201.47	62.5515
1204.36	43.2435
1207.26	27.577
1210.15	41.2789
1213.04	43.2806
1215.93	34.3591
1218.83	70.4388
1221.72	7.17395
1224.61	20.5695
1227.5	41.0574
1230.4	49.2208
1233.29	66.0436
1236.18	15.866
1239.07	22.6668
1241.97	38.8314
1244.86	72.8785
1247.75	67.3132
1250.64	105.706
1253.54	39.9834
1256.43	39.0104
1259.32	25.125
1262.22	37.9427
1265.11	22.1885
1268	33.0798
1270.89	0
