Measurement: Raman, 780 nm, unoriented, Raman Data Processed
Mineral: Sursassite
Rruff sample: R060336
Ideal chemistry: Mn^2+^_2_Al_3_(SiO_4_)(Si_2_O_7_)(OH)_3_
Locality: Strategic Manganese mine, near Woodstock, New Brunswick, Canada
Source: Michael Scott
Description: Reddish-brown fibrous or platy crystals in parallel or radiating groups
Raman shift (cm-1)	intensity
103.104	0
106.479	2.55089
109.854	1.7747
113.228	0.243881
116.603	2.5087
119.978	4.66528
123.353	6.76236
126.728	7.34461
130.102	7.29953
133.477	7.96921
136.852	8.74744
140.227	10.8499
143.602	12.1395
146.977	12.6668
150.351	12.4423
153.726	7.13429
157.101	5.78007
160.476	1.89805
163.851	0.054581
167.226	0.152557
170.6	1.71522
173.975	1.05814
177.35	3.57807
180.725	5.87493
184.1	7.14365
187.474	5.68167
190.849	7.28286
194.224	9.1195
197.599	9.0177
200.974	10.6687
204.349	12.1913
207.723	14.1385
211.098	15.2637
214.473	13.5626
217.848	14.3523
221.223	12.6901
224.597	9.49316
227.972	9.70077
231.347	6.87708
234.722	8.63908
238.097	6.24529
241.471	6.46115
244.846	6.78692
248.221	3.82186
251.596	1.24082
254.971	1.69276
258.346	2.51579
261.72	0.767822
265.095	4.02964
268.47	5.38838
271.845	4.50293
275.22	6.5112
278.594	7.76549
281.969	10.5349
285.344	10.9281
288.719	7.80246
292.094	5.33567
295.469	2.1735
298.843	0.646435
302.218	0.349571
305.593	0.038692
308.968	0.672581
312.343	1.05119
315.717	1.75569
319.092	1.34605
322.467	1.05653
325.842	1.82536
329.217	4.87421
332.592	7.75396
335.966	13.7635
339.341	17.0164
342.716	22.8322
346.091	24.6035
349.466	25.4985
352.841	27.9395
356.215	24.2248
359.59	23.3056
362.965	17.8071
366.34	16.0221
369.715	14.4941
373.089	10.8368
376.464	8.99949
379.839	9.89382
383.214	6.67354
386.589	7.75972
389.964	6.17211
393.338	3.52053
396.713	3.91727
400.088	3.31776
403.463	0.510536
406.838	1.56428
410.212	1.39987
413.587	0.495029
416.962	0.825485
420.337	0.773819
423.712	0.674126
427.087	1.90176
430.461	2.27827
433.836	2.53454
437.211	3.97895
440.586	3.14954
443.961	4.4343
447.335	1.64822
450.71	3.79872
454.085	1.9917
457.46	1.96057
460.835	2.09016
464.209	0.457077
467.584	0.117794
470.959	0.084042
474.334	0.878166
477.709	1.1243
481.084	1.14121
484.458	2.86321
487.833	1.76649
491.208	3.61715
494.583	0.308685
497.958	0.334438
501.332	0.045986
504.707	0.238922
508.082	0.209278
511.457	0.207912
514.832	1.35745
518.207	1.78063
521.581	4.63071
524.956	8.16603
528.331	10.2625
531.706	15.9647
535.081	19.731
538.455	25.0739
541.83	29.7538
545.205	38.9569
548.58	47.2078
551.955	54.7648
555.33	49.1245
558.704	37.6499
562.079	23.7172
565.454	14.6562
568.829	7.52834
572.204	4.1551
575.578	1.74174
578.953	0.196594
582.328	0.365387
585.703	0.101494
589.078	0.90921
592.452	1.7904
595.827	2.99689
599.202	4.1809
602.577	7.01796
605.952	9.6285
609.327	11.0989
612.701	14.6834
616.076	15.8564
619.451	16.1998
622.826	13.4119
626.201	10.3068
629.576	6.81355
632.95	5.50587
636.325	4.94439
639.7	3.73122
643.075	0.582176
646.45	0.49057
649.824	0.598179
653.199	0.005524
656.574	0.556385
659.949	1.87559
663.324	1.88197
666.698	1.88466
670.073	1.78465
673.448	3.29576
676.823	2.98703
680.198	3.86025
683.573	7.21566
686.947	11.146
690.322	17.131
693.697	22.9112
697.072	28.8218
700.447	30.1986
703.822	30.8866
707.196	28.1192
710.571	24.595
713.946	18.8036
717.321	14.3899
720.696	8.9302
724.07	3.7197
727.445	1.1719
730.82	1.09283
734.195	0.068674
737.57	0.597971
740.944	0.477121
744.319	0.93716
747.694	0.704727
751.069	0.074686
754.444	0.547564
757.818	0.091621
761.193	1.62002
764.568	2.38318
767.943	2.4454
771.318	3.2152
774.693	3.31583
778.067	4.52081
781.442	4.01978
784.817	4.61527
788.192	6.56076
791.567	4.48986
794.942	4.52386
798.316	4.51984
801.691	4.68732
805.066	3.9107
808.441	4.40079
811.816	3.89728
815.19	3.96586
818.565	4.03556
821.94	3.70152
825.315	3.13475
828.69	0.71439
832.064	0.878353
835.439	0.511852
838.814	0.151237
842.189	0.404625
845.564	0.970619
848.939	1.53863
852.313	2.44904
855.688	3.48274
859.063	3.72559
862.438	3.02894
865.813	3.04385
869.188	2.32813
872.562	2.53894
875.937	2.16712
879.312	2.13009
882.687	3.0936
886.062	2.73925
889.436	1.07964
892.811	0.536644
896.186	1.10153
899.561	3.34551
902.936	5.8197
906.311	8.39651
909.685	15.8476
913.06	22.6065
916.435	30.6952
919.81	37.114
923.185	41.9836
926.559	37.8045
929.934	34.1657
933.309	28.1506
936.684	21.234
940.059	15.9019
943.433	12.9645
946.808	8.46304
950.183	8.14341
953.558	5.24225
956.933	4.88626
960.308	3.05646
963.682	3.59656
967.057	2.09416
970.432	0.275904
973.807	0.038279
977.182	0.03124
980.557	0.860231
983.931	0.166779
987.306	1.16242
990.681	1.19034
994.056	0.16007
997.431	1.48272
1000.8	1.17266
1004.18	0.341169
1007.55	0.256811
1010.93	0.421394
1014.3	0.934641
1017.68	2.1173
1021.05	1.50661
1024.43	2.76567
1027.8	2.96997
1031.18	3.17143
1034.55	1.78334
1037.93	2.44284
1041.3	1.49727
1044.68	0.274147
1048.05	2.022
1051.43	0.343615
1054.8	0.814463
1058.18	0.799606
1061.55	1.89844
1064.93	2.47831
1068.3	2.11494
1071.68	5.05326
1075.05	8.86249
1078.43	12.9375
1081.8	19.5623
1085.18	32.5508
1088.55	18.8633
1091.92	7.12641
1095.3	4.82974
1098.67	2.02587
1102.05	2.43429
1105.42	1.3487
1108.8	1.19091
1112.17	1.13979
1115.55	0.134817
1118.92	0.931395
1122.3	1.11119
1125.67	0.702269
1129.05	0.316751
1132.42	0.480789
1135.8	0.590208
1139.17	0.922456
1142.55	1.24352
1145.92	1.30082
1149.3	0.552419
1152.67	0.475548
1156.05	1.17464
1159.42	0.110222
1162.8	1.26696
1166.17	1.30789
1169.55	1.50018
1172.92	2.1163
1176.3	0.947886
1179.67	1.12561
1183.05	0.91664
1186.42	0.611517
1189.8	0.134664
1193.17	1.33642
1196.55	2.21228
1199.92	0.856317
1203.29	1.00383
1206.67	2.47347
1210.04	1.0786
1213.42	0.964108
1216.79	0.153283
1220.17	2.05468
1223.54	0.397344
1226.92	1.19221
1230.29	0.982401
1233.67	0.147758
1237.04	1.54676
1240.42	0.252413
1243.79	1.13739
1247.17	1.0146
1250.54	2.88005
1253.92	1.55209
1257.29	2.14937
1260.67	2.14732
1264.04	0.038646
1267.42	0.320748
1270.79	1.83287
1274.17	1.53049
1277.54	0.968586
1280.91	0.372005
1284.29	1.36795
