Measurement: Raman, 780 nm, unoriented, Raman Data Processed
Mineral: Susannite
Rruff sample: R070704
Ideal chemistry: Pb_4_(SO_4_)(CO_3_)_2_(OH)_2_
Locality: Boarezzo mine (Pradisci prospect; Rio Carpane prospect), Boarezzo, Varese Province, Lombardy, Italy
Source: Michael Scott
Description: Array of colorless tabular hexagonal plates
Raman shift (cm-1)	intensity
163.841	0
166.733	498.166
169.626	1092.77
172.519	1496.32
175.411	1651.37
178.304	1475.64
181.197	1275.21
184.09	1040.75
186.982	909.882
189.875	694
192.768	587.533
195.66	512.546
198.553	409.991
201.446	260.066
204.339	144.489
207.231	85.2939
210.124	16.936
213.017	39.7002
215.909	24.75
218.802	80.7349
221.695	145.878
224.588	107.259
227.48	8.96631
230.373	21.7373
233.266	179.928
236.158	227.353
239.051	293.052
241.944	353.428
244.836	504.68
247.729	546.331
250.622	603.778
253.514	662.214
256.407	654.692
259.3	696.159
262.193	691.921
265.085	674.994
267.978	621.68
270.871	526.771
273.763	499.535
276.656	406.791
279.549	336.153
282.442	263.313
285.334	262.218
288.227	300.077
291.12	239.664
294.012	274.801
296.905	330.518
299.798	341.57
302.69	406.832
305.583	417.112
308.476	427.615
311.368	430.352
314.261	433.904
317.154	482.313
320.047	459.732
322.939	522.216
325.832	381.296
328.725	448.147
331.617	419.877
334.51	391.139
337.403	300.165
340.296	340.518
343.188	221.698
346.081	148.44
348.974	163.453
351.866	106.332
354.759	66.479
357.652	15.8943
360.544	3.1792
363.437	1.09424
366.33	3.99146
369.223	42.3838
372.115	74.1726
375.008	10.2129
377.901	54.7959
380.793	117.863
383.686	200.998
386.579	328.584
389.471	479.452
392.364	675.58
395.257	844.137
398.149	1138.01
401.042	1482.68
403.935	1915.81
406.828	2420.67
409.72	2955.54
412.613	3615.14
415.506	4301.8
418.399	4840.52
421.291	5113.36
424.184	5042.34
427.077	4980.56
429.969	4686.75
432.862	4281
435.755	3752.75
438.647	3324.66
441.54	2920.72
444.433	2620.54
447.325	2347.01
450.218	2195.99
453.111	2013.24
456.004	1849.55
458.896	1712.54
461.789	1482.35
464.682	1269.17
467.574	1043.54
470.467	872.266
473.36	634.596
476.252	462.262
479.145	318.169
482.038	162.885
484.931	116.572
487.823	21.947
490.716	24.4636
493.609	9.02271
496.501	5.34277
499.394	12.1655
502.287	59.8824
505.18	6.2738
508.072	20.2711
510.965	2.0271
513.858	21.0959
516.75	26.0864
519.643	4.03577
522.536	14.8436
525.428	32.2805
528.321	51.468
531.214	42.4315
534.106	61.6443
536.999	81.6052
539.892	110.708
542.785	97.8953
545.677	124.94
548.57	106.525
551.463	118.144
554.355	112.545
557.248	164.019
560.141	120.464
563.034	92.3447
565.926	67.0393
568.819	95.1904
571.712	64.7324
574.604	89.1952
577.497	106.261
580.39	157.18
583.282	222.244
586.175	258.229
589.068	357.167
591.961	484.11
594.853	606.242
597.746	651.019
600.639	651.233
603.531	584.751
606.424	513.923
609.317	454.549
612.21	381.454
615.102	424.667
617.995	429.655
620.888	464.089
623.78	449.473
626.673	414.232
629.566	328.941
632.458	292.883
635.351	231.683
638.244	141.744
641.136	105.777
644.029	104.15
646.922	105.697
649.815	107.768
652.707	59.7438
655.6	104.459
658.493	58.7415
661.385	81.9487
664.278	75.6491
667.171	65.5912
670.063	61.9091
672.956	59.9231
675.849	108.058
678.742	158.249
681.634	97.4685
684.527	52.9676
687.42	9.21521
690.312	37.3375
693.205	10.3014
696.098	1.69043
698.99	0.781372
701.883	27.8121
704.776	48.2479
707.669	19.1904
710.561	7.57593
713.454	6.28284
716.347	11.2368
719.239	2.43225
722.132	11.0185
725.025	13.6006
727.918	3.35461
730.81	5.04748
733.703	19.3704
736.596	43.6536
739.488	11.7771
742.381	1.48364
745.274	12.9313
748.166	4.38306
751.059	4.26648
753.952	20.7479
756.845	33.5609
759.737	23.8331
762.63	19.9956
765.523	16.9241
768.415	1.17786
771.308	14.0105
774.201	17.0382
777.093	10.1239
779.986	17.4706
782.879	45.2423
785.771	74.615
788.664	56.0078
791.557	114.392
794.45	88.4973
797.342	105.004
800.235	125.458
803.128	132.789
806.02	134.765
808.913	180.096
811.806	194.905
814.698	229.455
817.591	231.361
820.484	298.2
823.377	259.47
826.269	320.271
829.162	344.773
832.055	320.305
834.947	294.801
837.84	235.994
840.733	281.046
843.625	297.032
846.518	435.758
849.411	325.689
852.304	491.43
855.196	533.253
858.089	494.574
860.982	528.037
863.875	522.372
866.767	484.02
869.66	461.88
872.553	428.34
875.445	396.082
878.338	404.949
881.231	339.617
884.123	321.271
887.016	302.348
889.909	262.639
892.802	213.217
895.694	162.624
898.587	119.571
901.48	84.5607
904.372	55.4879
907.265	72.937
910.158	47.2244
913.05	9.29224
915.943	14.0492
918.836	23.6797
921.729	44.1799
924.621	0.450439
927.514	20.1851
930.407	0.728882
933.299	30.0994
936.192	136.854
939.085	210.775
941.977	416.318
944.87	675.585
947.763	1092.53
950.655	1680.47
953.548	2547.1
956.441	3707.11
959.334	5155.48
962.226	6608.35
965.119	7427.03
968.012	7048.67
970.904	5481.73
973.797	3735.15
976.69	2318.96
979.582	1382.21
982.475	821.288
985.368	527.948
988.261	370.954
991.153	329.871
994.046	302.969
996.939	308.77
999.831	336.654
1002.72	400.164
1005.62	484.103
1008.51	547.497
1011.4	567.621
1014.29	630.712
1017.19	616.298
1020.08	537.814
1022.97	438.718
1025.87	325.929
1028.76	274.018
1031.65	178.821
1034.54	53.6987
1037.44	29.4141
1040.33	86.4171
1043.22	274.918
1046.12	1089.08
1049.01	3076.5
1051.9	6386.59
1054.79	9206.72
1057.68	4117.02
1060.58	840.008
1063.47	303.498
1066.36	195.492
1069.26	99.7978
1072.15	63.9992
1075.04	61.5638
1077.93	10.3055
1080.83	8.67578
1083.72	22.8558
1086.61	9.79358
1089.51	15.7927
1092.4	16.8269
1095.29	3.84082
1098.18	2.41516
1101.08	16.4977
1103.97	14.1096
1106.86	4.07153
1109.75	7.52173
1112.65	3.63782
1115.54	3.74377
1118.43	18.0281
1121.33	4.26257
1124.22	43.6055
1127.11	28.5997
1130	30.8113
1132.9	38.0032
1135.79	35.9912
1138.68	60.6829
1141.57	46.9515
1144.47	69.7249
1147.36	49.7662
1150.25	66.1593
1153.14	66.8995
1156.04	54.256
1158.93	76.2212
1161.82	59.755
1164.71	67.7648
1167.61	76.319
1170.5	50.2489
1173.39	74.6379
1176.29	32.5333
1179.18	17.5619
1182.07	60.4972
1184.96	39.9158
1187.86	39.7002
1190.75	27.802
1193.64	40.0374
1196.54	24.0896
1199.43	28.3494
1202.32	29.8962
1205.21	48.1637
1208.11	23.2023
1211	52.5166
1213.89	3.49963
1216.78	28.1467
1219.68	10.4338
1222.57	34.3412
1225.46	28.5549
1228.36	48.6796
1231.25	29.8297
1234.14	28.4049
1237.03	43.4275
1239.93	37.5956
1242.82	63.4285
1245.71	48.6869
1248.6	50.6506
1251.5	54.9633
1254.39	44.3685
1257.28	14.2685
1260.17	45.0723
1263.07	18.0846
1265.96	25.4268
1268.85	15.9441
1271.74	5.53784
1274.64	20.9279
1277.53	12.8342
1280.42	32.6044
1283.32	6.86231
1286.21	20.9227
1289.1	0
