Measurement: Raman, 532 nm, unoriented, Raman Data Processed
Mineral: Susannite
Rruff sample: R070704
Ideal chemistry: Pb_4_(SO_4_)(CO_3_)_2_(OH)_2_
Locality: Boarezzo mine (Pradisci prospect; Rio Carpane prospect), Boarezzo, Varese Province, Lombardy, Italy
Source: Michael Scott
Description: Array of colorless tabular hexagonal plates
Raman shift (cm-1)	intensity
161.987	0
164.88	756.639
167.773	1981.59
170.665	2780.86
173.558	3002.7
176.451	2965.16
179.344	2809.71
182.236	2258.32
185.129	1841.38
188.022	1517.96
190.914	1254.94
193.807	682.117
196.7	298.119
199.592	104.264
202.485	4.95703
205.378	49.6318
208.27	17.8936
211.163	15.3389
214.056	165.709
216.949	62.4971
219.841	64.3438
222.734	250.765
225.627	466.948
228.519	565.872
231.412	752.798
234.305	870.135
237.197	1057.48
240.09	1181.9
242.983	1281.24
245.876	1444.37
248.768	1395.94
251.661	1447.94
254.554	1443.5
257.446	1258.34
260.339	1242.22
263.232	1097.06
266.125	889.677
269.017	616.889
271.91	501.076
274.803	266.226
277.695	88.6221
280.588	39.1709
283.481	9.11816
286.373	68.9209
289.266	114.8
292.159	11.9766
295.051	12.0322
297.944	39.2422
300.837	154.147
303.73	295.888
306.622	363.553
309.515	585.996
312.408	628.217
315.3	626.036
318.193	768.733
321.086	786.376
323.978	829.654
326.871	819.417
329.764	757.678
332.657	783.619
335.549	666.513
338.442	598.624
341.335	404.522
344.227	338.062
347.12	287.383
350.013	154.95
352.906	54.3135
355.798	24.8994
358.691	10.3789
361.584	25.2812
364.476	27.2168
367.369	26.4668
370.262	47.7832
373.154	113.918
376.047	294.117
378.94	555.948
381.832	832.485
384.725	1149.69
387.618	1540.56
390.511	2055.81
393.403	2674.63
396.296	3495.13
399.189	4316.86
402.081	5536.18
404.974	6791.01
407.867	8301.95
410.76	9718.75
413.652	11345.5
416.545	12645.9
419.438	13647.7
422.33	13699.2
425.223	13458.6
428.116	12636.3
431.008	11563.1
433.901	10223.9
436.794	8939.73
439.687	7701.07
442.579	6770.07
445.472	6042.25
448.365	5497.45
451.257	4930.02
454.15	4450.47
457.043	4060.77
459.935	3488.16
462.828	2943
465.721	2447.64
468.613	1938.95
471.506	1594.42
474.399	1209.22
477.291	831.221
480.184	474.082
483.077	311.198
485.97	151.994
488.862	73.772
491.755	54.1582
494.648	74.4336
497.54	53.9082
500.433	26.8481
503.326	101.304
506.219	70.147
509.111	39.7378
512.004	35.7461
514.897	63.1997
517.789	19.7847
520.682	72.9941
523.575	143.688
526.467	117.926
529.36	182.479
532.253	218.135
535.145	238.13
538.038	270.512
540.931	321
543.824	343.157
546.716	385.985
549.609	338.959
552.502	332.436
555.394	334.318
558.287	300.751
561.18	241.725
564.072	229.141
566.965	210.172
569.858	204.977
572.751	239.919
575.643	241.275
578.536	334.308
581.429	429.971
584.321	472.097
587.214	663.401
590.107	878.064
593	1044.62
595.892	1167.68
598.785	1138.71
601.678	1253.1
604.57	1193.55
607.463	1054.87
610.356	948.676
613.248	924.972
616.141	917.425
619.034	879.437
621.927	823.679
624.819	732.398
627.712	720.831
630.605	655.442
633.497	437.793
636.39	343.199
639.283	344.373
642.175	207.839
645.068	260.41
647.961	177.056
650.854	90.6709
653.746	109.505
656.639	118.6
659.532	108.606
662.424	81.521
665.317	106.606
668.21	98.8379
671.102	57.0825
673.995	75.3838
676.888	145.377
679.78	207.47
682.673	91.6055
685.566	7.46387
688.459	1.87647
691.351	46.9727
694.244	94.5635
697.137	68.7319
700.029	106.311
702.922	75.0732
705.815	129.647
708.707	96.5381
711.6	17.5142
714.493	17.0264
717.386	27.1255
720.278	29.3882
723.171	56.7412
726.064	2.24853
728.956	43.4468
731.849	76.8731
734.742	24.0156
737.635	7.08691
740.527	31.4121
743.42	28.5625
746.313	12.4214
749.205	67.7734
752.098	21.4634
754.991	14.8359
757.883	23.6631
760.776	29.7505
763.669	25.2612
766.562	30.5493
769.454	42.6221
772.347	7.78369
775.24	68.335
778.132	96.9639
781.025	119.395
783.918	171.469
786.81	181.01
789.703	168.6
792.596	222.109
795.489	272.446
798.381	310.394
801.274	273.532
804.167	303.324
807.059	365.018
809.952	413.709
812.845	510.817
815.737	522.206
818.63	550.684
821.523	617.072
824.415	671.519
827.308	685.657
830.201	732.548
833.093	727.127
835.986	714.107
838.879	644.787
841.772	668.418
844.664	814.641
847.557	915.79
850.45	1063.92
853.342	1257.34
856.235	1321.47
859.128	1244.68
862.02	1274.41
864.913	1096.29
867.806	1003.43
870.699	894.431
873.591	902.707
876.484	822.72
879.377	783.745
882.269	642.888
885.162	578.393
888.055	511.091
890.947	467.964
893.84	365.757
896.733	264.306
899.626	230.134
902.518	177.949
905.411	142.181
908.304	113.411
911.196	19.2129
914.089	31.5957
916.982	56.2075
919.875	31.8589
922.767	96.936
925.66	13.2573
928.553	13.7563
931.445	72.7217
934.338	263.278
937.231	520.488
940.123	934.599
943.016	1520.78
945.909	2415.2
948.802	3705.45
951.694	5737.44
954.587	8229.96
957.48	11342.6
960.372	14481
963.265	16908.5
966.158	17705.4
969.05	16222.4
971.943	12545.7
974.836	8378.37
977.729	4977.85
980.621	2756.59
983.514	1567.34
986.407	974.568
989.299	671.333
992.192	500.964
995.085	363.587
997.977	352.504
1000.87	405.199
1003.76	611.596
1006.65	718.807
1009.55	797.161
1012.44	935.467
1015.33	891.812
1018.23	811.477
1021.12	670.264
1024.01	550.495
1026.9	357.554
1029.8	180.186
1032.69	221.073
1035.58	164.05
1038.47	567.934
1041.37	2040.96
1044.26	6583.64
1047.15	14363
1050.05	21390.2
1052.94	29107.6
1055.83	34948.2
1058.72	13279.4
1061.62	2252.45
1064.51	862.791
1067.4	481.433
1070.3	289.122
1073.19	87.6113
1076.08	73.3818
1078.97	105.541
1081.87	44.1826
1084.76	52.1953
1087.65	64.4463
1090.54	49.2637
1093.44	55.2998
1096.33	34.7285
1099.22	5.02637
1102.12	17.7021
1105.01	8.51465
1107.9	27.7793
1110.79	13.6094
1113.68	119.42
1116.58	68.1543
1119.47	147.778
1122.36	101.077
1125.26	86.5205
1128.15	168.559
1131.04	136.237
1133.93	150.255
1136.83	179.805
1139.72	147.528
1142.61	103.82
1145.51	88.0889
1148.4	87.6992
1151.29	116.562
1154.18	96.4727
1157.08	129.064
1159.97	99.1377
1162.86	133.25
1165.75	115.336
1168.65	94.2602
1171.54	105.844
1174.43	10.9033
1177.33	63.1567
1180.22	11.4048
1183.11	1.21289
1186	14.9839
1188.9	54.6509
1191.79	40.4849
1194.68	46.0727
1197.57	12.9873
1200.47	7.42481
1203.36	25.9409
1206.25	32.5835
1209.14	123.465
1212.04	43.894
1214.93	100.555
1217.82	47.3779
1220.71	78.3472
1223.61	101.973
1226.5	120.847
1229.39	93.8408
1232.29	92.395
1235.18	62.458
1238.07	129.306
1240.96	88.6538
1243.86	130.024
1246.75	125.047
1249.64	78.1636
1252.54	134.421
1255.43	79.5972
1258.32	51.0171
1261.21	144.004
1264.11	114.94
1267	27.7769
1269.89	94.8188
1272.78	49.5727
1275.68	69.3345
1278.57	75.5835
1281.46	122.768
1284.36	102.976
1287.25	13.3359
1290.14	15.1479
1293.03	80.3486
1295.92	64.2148
1298.82	5.52051
1301.71	64.1592
