Measurement: Raman, 532 nm, unoriented, Raman Data Processed
Mineral: Sussexite
Rruff sample: R130121
Ideal chemistry: Mn^2+^BO_2_(OH)
Locality: Mine Hill, Franklin, Sussex County, New Jersey, USA
Source: Rock Currier
Description: Pink massive
Raman shift (cm-1)	intensity
179.035	0
181.928	1.71452
184.821	8.24686
187.713	14.7017
190.606	22.6327
193.499	19.9569
196.392	22.3765
199.284	25.5032
202.177	23.3492
205.07	19.7705
207.962	23.8408
210.855	22.3642
213.748	18.1766
216.64	12.7784
219.533	11.4466
222.426	10.7444
225.319	6.10918
228.211	6.19942
231.104	5.29903
233.997	0.665146
236.889	0.031631
239.782	0.414825
242.675	0.376282
245.567	0.088791
248.46	0.760498
251.353	1.13681
254.245	3.70493
257.138	3.52725
260.031	10.5354
262.924	13.7723
265.816	17.2668
268.709	19.1428
271.602	19.2281
274.494	21.6963
277.387	24.528
280.28	25.643
283.173	27.7551
286.065	32.8102
288.958	31.2339
291.851	29.8536
294.743	25.4476
297.636	19.3435
300.529	13.5141
303.421	7.88177
306.314	6.66515
309.207	3.82418
312.099	2.98257
314.992	0.083015
317.885	1.58274
320.778	1.29702
323.67	0.240883
326.563	0.101692
329.456	0.545677
332.348	0.247734
335.241	0.09803
338.134	3.35969
341.027	4.25203
343.919	7.23161
346.812	8.49105
349.705	9.54069
352.597	11.0739
355.49	14.6266
358.383	12.902
361.276	10.0205
364.168	10.9425
367.061	9.43298
369.954	6.22103
372.846	6.44764
375.739	5.26746
378.632	4.34003
381.524	4.00096
384.417	2.87929
387.31	3.17181
390.202	1.01254
393.095	0.153313
395.988	0.327614
398.881	1.28075
401.773	0.860138
404.666	1.76097
407.559	1.01513
410.451	2.96463
413.344	1.64902
416.237	1.91384
419.13	1.73742
422.022	1.1428
424.915	0.447845
427.808	1.55879
430.7	0.031822
433.593	0.623085
436.486	0.41478
439.378	1.55601
442.271	1.18335
445.164	1.35802
448.057	4.6292
450.949	3.82368
453.842	4.4874
456.735	4.91386
459.627	4.09091
462.52	5.29711
465.413	8.38728
468.305	10.8816
471.198	14.9808
474.091	18.3456
476.983	22.5823
479.876	27.6379
482.769	31.9919
485.662	31.9254
488.554	24.9592
491.447	21.9106
494.34	18.1346
497.232	17.6388
500.125	18.0072
503.018	18.72
505.911	19.8071
508.803	17.984
511.696	16.1749
514.589	11.7895
517.481	9.62628
520.374	4.12793
523.267	3.33614
526.159	2.83855
529.052	1.56326
531.945	2.01566
534.837	0.579887
537.73	0.350441
540.623	0.077499
543.516	0.277275
546.408	0.740814
549.301	0.746223
552.194	0.195763
555.086	1.37943
557.979	0.300575
560.872	0.564064
563.764	0.013672
566.657	0.958565
569.55	0.887894
572.443	1.74229
575.335	0.715782
578.228	1.87465
581.121	3.1806
584.013	5.31072
586.906	6.72349
589.799	9.34769
592.692	12.4259
595.584	18.2354
598.477	23.4638
601.37	31.1766
604.262	40.6049
607.155	45.5019
610.048	47.7539
612.94	56.505
615.833	66.6371
618.726	77.5655
621.619	80.2134
624.511	69.8807
627.404	59.5215
630.297	48.9901
633.189	42.2733
636.082	39.981
638.975	36.9402
641.867	34.9953
644.76	30.6481
647.653	28.3875
650.545	23.856
653.438	22.6972
656.331	17.6674
659.224	16.0367
662.116	12.7658
665.009	12.0636
667.902	12.2146
670.794	10.1986
673.687	7.85472
676.58	5.99695
679.472	4.79851
682.365	3.28216
685.258	6.20069
688.151	5.7125
691.043	8.4826
693.936	15.4429
696.829	24.1502
699.721	25.2594
702.614	16.5287
705.507	9.73215
708.399	3.67111
711.292	1.07555
714.185	0.85051
717.078	0.336197
719.97	0.75396
722.863	0.662621
725.756	0.680931
728.648	0.375473
731.541	0.459061
734.434	1.41148
737.327	0.196327
740.219	0.632629
743.112	0.29805
746.005	1.42823
748.897	0.674034
751.79	1.13854
754.683	1.00144
757.575	0.164452
760.468	1.29693
763.361	2.4798
766.254	2.13638
769.146	2.91903
772.039	4.71529
774.932	4.30442
777.824	2.95887
780.717	3.51232
783.61	3.84359
786.502	5.81415
789.395	6.5058
792.288	8.04858
795.181	11.0309
798.073	14.8344
800.966	22.9926
803.859	35.3608
806.751	57.7429
809.644	92.5256
812.537	142.969
815.429	209.435
818.322	302.437
821.215	395.462
824.107	415.686
827	311.668
829.893	175.169
832.786	89.4552
835.678	51.4756
838.571	32.2341
841.464	22.1605
844.356	16.6819
847.249	12.7025
850.142	9.52851
853.034	8.17825
855.927	8.15665
858.82	6.62868
861.713	7.85254
864.605	7.18811
867.498	4.78453
870.391	5.04028
873.283	4.37907
876.176	4.93855
879.069	2.69725
881.962	3.35344
884.854	0.507393
887.747	2.89158
890.64	0.927345
893.532	0.900848
896.425	1.32239
899.318	1.39409
902.21	0.941589
905.103	0.148018
907.996	0.81813
910.889	0.239502
913.781	0.737495
916.674	0.084618
919.567	0.271927
922.459	0.713806
925.352	0.028458
928.245	0.835045
931.137	0.158714
934.03	0.110947
936.923	0.502068
939.816	1.49905
942.708	0.420418
945.601	1.02255
948.494	1.51809
951.386	1.73472
954.279	3.77159
957.172	4.71478
960.064	4.91915
962.957	6.5908
965.85	7.34603
968.742	8.73718
971.635	7.25156
974.528	7.60715
977.421	8.87109
980.313	7.43422
983.206	6.58509
986.099	6.38351
988.991	4.78925
991.884	6.42657
994.777	5.05082
997.669	3.16875
1000.56	3.55964
1003.46	2.74056
1006.35	3.72077
1009.24	2.42992
1012.13	3.0182
1015.03	1.82665
1017.92	0.928589
1020.81	1.46816
1023.7	1.89946
1026.6	0.417374
1029.49	1.11451
1032.38	1.89117
1035.28	0.619766
1038.17	0.831375
1041.06	1.10373
1043.95	1.62666
1046.85	2.38316
1049.74	4.19973
1052.63	4.49444
1055.52	5.00609
1058.42	5.51919
1061.31	6.25764
1064.2	8.11425
1067.09	6.86739
1069.99	5.09814
1072.88	3.10318
1075.77	3.30803
1078.66	2.56712
1081.56	3.70583
1084.45	2.27175
1087.34	1.97749
1090.24	1.45549
1093.13	0.432213
1096.02	0.836266
1098.91	0.639099
1101.81	0.790726
1104.7	0.843071
1107.59	0.152924
1110.48	0.015022
1113.38	0.489334
1116.27	0.44075
1119.16	0.121162
1122.06	2.38557
1124.95	0.093002
1127.84	0.160225
1130.73	0.376518
1133.63	0.678284
1136.52	0.384941
1139.41	2.14948
1142.3	1.27219
1145.2	1.28425
1148.09	1.86436
1150.98	3.01625
1153.88	1.81029
1156.77	3.13256
1159.66	4.77885
1162.55	6.49096
1165.45	8.27386
1168.34	10.4777
1171.23	16.2006
1174.12	19.6208
1177.02	25.3119
1179.91	30.7875
1182.8	35.4235
1185.69	35.829
1188.59	36.0813
1191.48	32.459
1194.37	27.4844
1197.27	22.7423
1200.16	19.6775
1203.05	15.6379
1205.94	10.87
1208.84	9.2787
1211.73	8.05994
1214.62	5.983
1217.52	2.94032
1220.41	2.25362
1223.3	2.19273
1226.19	1.11423
1229.09	0.111328
1231.98	0.542908
1234.87	1.04192
1237.76	0.28891
1240.66	0.307198
1243.55	2.63702
1246.44	4.27837
1249.33	8.12939
1252.23	11.6709
1255.12	16.8711
1258.01	23.9547
1260.9	29.0524
1263.8	27.117
1266.69	24.7517
1269.58	18.0587
1272.48	17.082
1275.37	14.6426
1278.26	15.0199
1281.15	13.8041
1284.05	11.9421
1286.94	7.09637
1289.83	5.52666
1292.72	3.60335
1295.62	2.2125
1298.51	0.36676
1301.4	0.026749
