Measurement: Raman, 780 nm, unoriented, Raman Data Processed
Mineral: Sussexite
Rruff sample: R130121
Ideal chemistry: Mn^2+^BO_2_(OH)
Locality: Mine Hill, Franklin, Sussex County, New Jersey, USA
Source: Rock Currier
Description: Pink massive
Raman shift (cm-1)	intensity
160.142	0
163.035	0.935966
165.928	1.85017
168.82	2.19795
171.713	3.47955
174.606	6.00191
177.498	9.40114
180.391	12.6207
183.284	17.7231
186.177	21.0992
189.069	23.4047
191.962	24.3436
194.855	24.9935
197.747	27.0999
200.64	28.7551
203.533	27.2601
206.425	22.596
209.318	18.9855
212.211	16.3172
215.103	13.309
217.996	12.6985
220.889	12.3459
223.782	10.485
226.674	8.77276
229.567	8.40252
232.46	7.59442
235.352	6.25077
238.245	4.24776
241.138	2.14367
244.03	2.46642
246.923	3.79277
249.816	0.681213
252.709	1.72816
255.601	0.608597
258.494	2.08759
261.387	3.85715
264.279	4.95528
267.172	7.05138
270.065	9.08937
272.957	10.5818
275.85	11.2636
278.743	12.4633
281.635	14.3894
284.528	15.2605
287.421	16.2445
290.314	14.712
293.206	12.4906
296.099	10.1437
298.992	7.62709
301.884	4.36047
304.777	2.64948
307.67	1.11143
310.562	0.321598
313.455	0.055195
316.348	0.550518
319.241	0.486103
322.133	0.402439
325.026	1.0457
327.919	0.033047
330.811	0.509022
333.704	0.65583
336.597	0.622658
339.49	1.99198
342.382	3.67304
345.275	3.77122
348.168	6.32943
351.06	5.97961
353.953	6.0778
356.846	6.55713
359.738	6.78686
362.631	5.75393
365.524	6.78514
368.416	6.5904
371.309	4.94647
374.202	5.19832
377.095	3.98222
379.987	3.39346
382.88	2.71546
385.773	2.18946
388.665	1.21993
391.558	0.977322
394.451	0.503216
397.344	2.01957
400.236	0.937656
403.129	0.812752
406.022	1.37348
408.914	1.50087
411.807	1.17831
414.7	2.17426
417.592	0.521843
420.485	0.371632
423.378	0.138218
426.27	1.07169
429.163	1.05945
432.056	0.384693
434.949	1.11383
437.841	1.40265
440.734	1.06728
443.627	1.78481
446.519	1.46658
449.412	1.77877
452.305	2.34641
455.197	1.84244
458.09	2.11184
460.983	2.55306
463.875	3.7368
466.768	4.40775
469.661	4.90474
472.554	5.85017
475.446	7.56545
478.339	10.4553
481.232	12.5124
484.124	13.257
487.017	11.9683
489.91	11.5998
492.803	9.67601
495.695	10.3675
498.588	10.6147
501.481	10.9912
504.373	12.1922
507.266	12.5718
510.159	12.7049
513.051	9.79294
515.944	6.70911
518.837	2.44297
521.73	2.67765
524.622	0.958649
527.515	0.259655
530.408	0.618507
533.3	0.136143
536.193	0.143475
539.086	0.085491
541.978	0.32798
544.871	0.688938
547.764	0.602726
550.656	0.164783
553.549	1.06459
556.442	0.569534
559.335	0.634193
562.227	0.584969
565.12	1.10246
568.013	1.7423
570.905	2.4352
573.798	2.32941
576.691	1.99823
579.583	2.41149
582.476	3.5091
585.369	4.44751
588.261	6.40187
591.154	8.15401
594.047	9.46308
596.94	12.0275
599.832	15.1423
602.725	19.2136
605.618	22.6276
608.51	24.6115
611.403	27.7727
614.296	31.297
617.188	36.7896
620.081	38.0547
622.974	36.352
625.867	31.9196
628.759	27.544
631.652	24.3738
634.545	22.46
637.437	22.4466
640.33	19.3924
643.223	18.3481
646.115	16.1801
649.008	13.9427
651.901	12.5904
654.794	10.7382
657.686	9.24004
660.579	7.69167
663.472	7.5716
666.364	6.66962
669.257	5.89931
672.15	6.20364
675.043	4.17067
677.935	1.57438
680.828	1.4472
683.721	1.52557
686.613	1.99548
689.506	3.37722
692.399	4.84105
695.291	8.19678
698.184	10.93
701.077	8.4892
703.97	3.4705
706.862	1.92797
709.755	1.60979
712.648	0.430882
715.54	0.720306
718.433	0.292179
721.326	0.319702
724.218	0.1003
727.111	0.542824
730.004	0.420807
732.896	0.373192
735.789	0.387299
738.682	0.269096
741.574	0.007027
744.467	0.774239
747.36	0.131699
750.253	0.300011
753.145	0.139664
756.038	0.992264
758.931	0.644245
761.823	1.38955
764.716	0.968098
767.609	1.24213
770.501	1.60744
773.394	0.95969
776.287	1.84737
779.18	1.90806
782.072	2.59011
784.965	3.05081
787.858	3.42546
790.75	4.24454
793.643	4.49219
796.536	8.50363
799.428	11.6146
802.321	17.1955
805.214	27.3701
808.107	44.7317
810.999	68.8646
813.892	95.6111
816.785	131.207
819.677	172.149
822.57	193.649
825.463	161.276
828.356	98.2843
831.248	51.1149
834.141	28.7378
837.034	16.8987
839.926	11.9256
842.819	9.79989
845.712	7.67573
848.604	6.66525
851.497	4.98491
854.39	4.66469
857.283	3.92942
860.175	3.18932
863.068	4.28889
865.961	2.95927
868.853	3.45213
871.746	2.5672
874.639	2.12754
877.531	1.45768
880.424	3.12341
883.317	1.81502
886.209	1.91985
889.102	1.87711
891.995	1.79414
894.888	0.641083
897.78	0.783791
900.673	1.12978
903.566	0.050056
906.458	0.525288
909.351	0.25845
912.244	0.175232
915.136	0.088596
918.029	0.012329
920.922	0.789291
923.814	1.03091
926.707	0.724077
929.6	0.319157
932.493	0.690704
935.385	0.6656
938.278	0.305498
941.171	0.59502
944.063	0.366045
946.956	0.72743
949.849	0.991449
952.741	1.42472
955.634	2.59796
958.527	3.05069
961.42	3.61981
964.312	3.58251
967.205	3.37563
970.098	4.29061
972.99	4.26473
975.883	3.00539
978.776	3.90142
981.668	3.2414
984.561	1.91481
987.454	1.30032
990.347	1.44203
993.239	1.02119
996.132	1.77216
999.025	2.02793
1001.92	1.60107
1004.81	1.41531
1007.7	1.7356
1010.6	0.792837
1013.49	0.83699
1016.38	0.555307
1019.27	1.03442
1022.17	1.73239
1025.06	0.334379
1027.95	0.085354
1030.84	0.493372
1033.74	1.07493
1036.63	0.459337
1039.52	0.343506
1042.41	0.524767
1045.31	0.523266
1048.2	1.85595
1051.09	0.951653
1053.99	2.65826
1056.88	2.20108
1059.77	2.52451
1062.66	3.01321
1065.56	2.94677
1068.45	2.12742
1071.34	1.39732
1074.23	0.902651
1077.13	0.454798
1080.02	1.43853
1082.91	0.42189
1085.81	1.68819
1088.7	1.29385
1091.59	0.964413
1094.48	0.210703
1097.38	0.373913
1100.27	0.640152
1103.16	0.246346
1106.05	0.313557
1108.95	0.237122
1111.84	0.410559
1114.73	0.450926
1117.62	0.08256
1120.52	0.549824
1123.41	0.291874
1126.3	0.82519
1129.2	1.0128
1132.09	0.880302
1134.98	0.020309
1137.87	1.11779
1140.77	0.687325
1143.66	0.818121
1146.55	1.03116
1149.44	0.803183
1152.34	1.89626
1155.23	1.37596
1158.12	2.68567
1161.02	3.1712
1163.91	4.83439
1166.8	5.34889
1169.69	6.68039
1172.59	8.67712
1175.48	11.4138
1178.37	12.8252
1181.27	14.5556
1184.16	15.6217
1187.05	15.6511
1189.94	15.6376
1192.84	13.2007
1195.73	11.7727
1198.62	9.24457
1201.51	6.5723
1204.41	6.42343
1207.3	4.75668
1210.19	4.09701
1213.08	2.81988
1215.98	1.53617
1218.87	0.813105
1221.76	0.818222
1224.65	0.146629
1227.55	0.250769
1230.44	0.09947
1233.33	0.209396
1236.23	0.469492
1239.12	0.541897
1242.01	1.65294
1244.9	3.21916
1247.8	3.94979
1250.69	6.27276
1253.58	8.82754
1256.47	11.5311
1259.37	11.44
1262.26	11.8889
1265.15	9.24962
1268.05	6.63487
1270.94	4.36719
1273.83	2.45604
1276.72	1.98869
1279.62	0.343056
1282.51	0.032253
