Measurement: Raman, 532 nm, unoriented, Raman Data Processed
Mineral: Suzukiite
Rruff sample: R150039
Ideal chemistry: BaV^4+^Si_2_O_7_
Locality: Gun Claim, Yukon Territory, Canada
Source: Gunnar Farber
Description: Isolated aggregates of bright-green granular or flake crystals, associated with pale grey walstromite (R150079), pellyite (R150078), diopside, benitoite, bavsiite (R150042) and celsian
Raman shift (cm-1)	intensity
90.2653	0
93.6401	77.5847
97.0149	290.549
100.39	387.59
103.765	35.8144
107.139	2.08435
110.514	3.80829
113.889	14.2547
117.264	23.8032
120.639	28.754
124.013	100.972
127.388	1.39627
130.763	6.34332
134.138	2.1272
137.513	6.93967
140.888	10.7587
144.262	14.8587
147.637	40.5136
151.012	57.0864
154.387	148.753
157.762	178.922
161.137	229.422
164.511	317.268
167.886	597.816
171.261	1190.49
174.636	418.736
178.011	264.531
181.385	245.786
184.76	288.97
188.135	432.77
191.51	795.329
194.885	1393.47
198.26	978.108
201.634	593.622
205.009	866.052
208.384	910.818
211.759	237.246
215.133	52.0361
218.508	6.05109
221.883	6.53577
225.258	3.02838
228.633	7.6225
232.008	23.4198
235.382	54.5027
238.757	91.4492
242.132	128.957
245.507	144.059
248.882	125.846
252.256	104.038
255.631	94.7319
259.006	111.338
262.381	157.837
265.756	224.284
269.131	191.232
272.505	88.3326
275.88	61.395
279.255	67.055
282.63	91.0591
286.005	157.052
289.38	251.415
292.754	224.886
296.129	95.0619
299.504	35.6916
302.879	15.054
306.254	3.80511
309.628	3.22333
313.003	0.531799
316.378	5.01868
319.753	2.76819
323.128	2.00824
326.502	4.47009
329.877	2.77924
333.252	8.65613
336.627	30.6674
340.002	65.5889
343.377	106.719
346.751	156.136
350.126	220.163
353.501	306.642
356.876	313.716
360.251	204.927
363.625	128.109
367	122.583
370.375	174.154
373.75	266.452
377.125	381.338
380.5	558.44
383.874	840.076
387.249	1050.98
390.624	673.168
393.999	246.478
397.374	89.2319
400.748	34.0604
404.123	15.3213
407.498	15.9702
410.873	33.004
414.248	52.8047
417.623	83.1232
420.997	119.922
424.372	85.2462
427.747	13.6946
431.122	9.15295
434.497	30.554
437.872	68.5616
441.246	132.385
444.621	161.823
447.996	90.2351
451.371	15.236
454.745	7.12738
458.12	6.63806
461.495	5.48218
464.87	35.0776
468.245	69.1668
471.62	114.592
474.994	177.174
478.369	252.929
481.744	261.624
485.119	155.436
488.494	65.8596
491.868	32.2185
495.243	21.5049
498.618	19.9478
501.993	18.4401
505.368	17.6707
508.743	15.3591
512.117	9.39069
515.492	1.90583
518.867	2.12103
522.242	1.16345
525.617	17.1347
528.991	35.3355
532.366	70.5559
535.741	114.948
539.116	125.004
542.491	58.1943
545.866	19.2687
549.24	7.04456
552.615	1.49139
555.99	2.32159
559.365	1.17737
562.74	5.47955
566.115	5.68713
569.489	10.2262
572.864	17.9581
576.239	35.7596
579.614	51.2897
582.989	69.113
586.363	82.6378
589.738	101.511
593.113	101.721
596.488	79.0956
599.863	56.0868
603.237	40.1415
606.612	35.2649
609.987	25.4354
613.362	15.1449
616.737	6.53717
620.112	1.14624
623.486	2.14282
626.861	1.48187
630.236	3.591
633.611	9.61993
636.986	22.9594
640.361	47.481
643.735	83.5416
647.11	135.633
650.485	179.873
653.86	122.627
657.235	45.3726
660.609	23.359
663.984	18.0418
667.359	17.0149
670.734	6.36377
674.109	4.65222
677.484	2.95984
680.858	2.55518
684.233	9.99182
687.608	18.6647
690.983	33.0228
694.357	28.6924
697.732	13.8198
701.107	2.04944
704.482	1.99846
707.857	0.338989
711.232	2.40234
714.606	1.36035
717.981	0.858887
721.356	0.417969
724.731	2.74939
728.106	4.82739
731.481	2.90991
734.855	4.02148
738.23	2.74109
741.605	4.93884
744.98	2.95093
748.355	7.92273
751.729	9.14026
755.104	7.76526
758.479	4.23511
761.854	9.81482
765.229	7.85449
768.604	11.1846
771.978	12.8181
775.353	17.6511
778.728	20.6504
782.103	32.5789
785.478	46.9174
788.852	49.4168
792.227	38.6184
795.602	25.5514
798.977	18.0569
802.352	18.3147
805.726	16.5586
809.101	20.2106
812.476	19.7318
815.851	22.4414
819.226	24.8377
822.601	28.4629
825.975	23.9982
829.35	22.6348
832.725	18.8818
836.1	18.1195
839.475	15.8031
842.85	16.6711
846.224	15.689
849.599	11.2467
852.974	7.84778
856.349	6.375
859.724	3.65088
863.098	1.92688
866.473	3.17639
869.848	8.37329
873.223	7.73059
876.598	11.4877
879.972	10.2345
883.347	4.11743
886.722	3.37219
890.097	25.0018
893.472	47.3909
896.847	59.2843
900.221	61.1382
903.596	85.037
906.971	139.451
910.346	243.086
913.721	389.661
917.096	404.983
920.47	394.027
923.845	422.338
927.22	409.211
930.595	394.91
933.97	439.685
937.344	506.896
940.719	476.686
944.094	400.234
947.469	448.238
950.844	716.454
954.218	1133.28
957.593	1780.03
960.968	2871.31
964.343	2839.16
967.718	1471.97
971.092	962.811
974.467	860.455
977.842	818.103
981.217	656.629
984.592	455.38
987.967	328.031
991.341	175.006
994.716	76.8746
998.091	50.9462
1001.47	57.4849
1004.84	104.759
1008.22	202.355
1011.59	330.258
1014.97	576.395
1018.34	719.906
1021.72	283.199
1025.09	151.468
1028.46	99.8456
1031.84	18.929
1035.21	7.2926
1038.59	1.57947
1041.96	2.79748
1045.34	9.89563
1048.71	22.4774
1052.09	14.1242
1055.46	7.95093
1058.84	9.27979
1062.21	16.0006
1065.59	6.13013
1068.96	21.6189
1072.34	20.9132
1075.71	20.9083
1079.09	25.2419
1082.46	37.3391
1085.84	80.2195
1089.21	49.8909
1092.59	34.1995
1095.96	29.4346
1099.34	29.2406
1102.71	24.8895
1106.09	15.5465
1109.46	13.3137
1112.84	6.59656
1116.21	2.43164
1119.58	6.86621
1122.96	4.3208
1126.33	3.67712
1129.71	1.08018
1133.08	1.09106
1136.46	3.92578
1139.83	8.63074
1143.21	8.1311
1146.58	6.09143
1149.96	3.87598
1153.33	8.88586
1156.71	11.3967
1160.08	6.1759
1163.46	7.85144
1166.83	5.09619
1170.21	7.20215
1173.58	10.9338
1176.96	9.64123
1180.33	9.02612
1183.71	6.06543
1187.08	10.3895
1190.46	9.95544
1193.83	10.0914
1197.2	9.03565
1200.58	7.60474
1203.95	5.25122
1207.33	8.95886
1210.7	8.95032
1214.08	6.69775
1217.45	7.76025
1220.83	4.13147
1224.2	7.04333
1227.58	2.75879
1230.95	1.61511
1234.33	3.97961
1237.7	3.09448
1241.08	5.40442
1244.45	4.30652
1247.83	7.95398
1251.2	9.93555
1254.58	6.23596
1257.95	5.87988
1261.33	5.97192
1264.7	0.324585
1268.08	0.192383
1271.45	0.863159
1274.83	5.1145
1278.2	7.98926
1281.58	1.31397
1284.95	9.37732
1288.33	5.8446
1291.7	3.69727
1295.08	4.03198
1298.45	5.05933
1301.83	0
