Measurement: Raman, 780 nm, unoriented, Raman Data Processed
Mineral: Suzukiite
Rruff sample: R150039
Ideal chemistry: BaV^4+^Si_2_O_7_
Locality: Gun Claim, Yukon Territory, Canada
Source: Gunnar Farber
Description: Isolated aggregates of bright-green granular or flake crystals, associated with pale grey walstromite (R150079), pellyite (R150078), diopside, benitoite, bavsiite (R150042) and celsian
Raman shift (cm-1)	intensity
105.541	0
108.916	22.9739
112.291	0.272461
115.666	12.4338
119.041	14.8809
122.415	24.5848
125.79	45.2446
129.165	18.5348
132.54	12.8589
135.915	1.99963
139.29	2.5636
142.664	0.727112
146.039	1.90417
149.414	3.93732
152.789	14.3975
156.163	16.7503
159.538	30.3787
162.913	66.4157
166.288	126.496
169.663	312.688
173.038	407.368
176.412	104.457
179.787	90.8049
183.162	106.858
186.537	165.085
189.912	275.787
193.286	497.053
196.661	740.211
200.036	332.841
203.411	200.914
206.786	293.808
210.161	231.616
213.535	63.6429
216.91	15.305
220.285	1.51538
223.66	0.723816
227.035	0.377838
230.409	3.78125
233.784	17.6565
237.159	24.7417
240.534	39.2511
243.909	47.6292
247.284	46.8899
250.658	37.4227
254.033	26.4695
257.408	25.7981
260.783	30.672
264.158	51.2862
267.532	62.1801
270.907	44.5157
274.282	17.3771
277.657	7.80975
281.032	5.3851
284.406	7.57825
287.781	15.2167
291.156	19.5958
294.531	15.051
297.906	6.42096
301.281	2.6629
304.655	1.12006
308.03	1.35107
311.405	1.00336
314.78	0.247742
318.155	2.31799
321.529	0.417297
324.904	1.7005
328.279	0.740356
331.654	0.022339
335.029	2.98004
338.404	7.68787
341.778	10.6899
345.153	19.3187
348.528	30.9905
351.903	46.3516
355.278	66.6458
358.652	64.2841
362.027	42.1013
365.402	30.8235
368.777	37.93
372.152	57.4308
375.526	84.5084
378.901	135.347
382.276	220.381
385.651	355.065
389.026	435.455
392.401	248.846
395.775	104.284
399.15	51.27
402.525	27.8745
405.9	23.3561
409.275	16.1793
412.649	13.6099
416.024	18.7935
419.399	31.1661
422.774	45.7928
426.149	20.8515
429.524	1.35748
432.898	2.43426
436.273	5.25494
439.648	10.994
443.023	22.3494
446.398	19.933
449.772	10.8815
453.147	2.53717
456.522	6.31555
459.897	12.0753
463.272	11.9383
466.647	17.5843
470.021	28.5258
473.396	47.8217
476.771	72.2816
480.146	102.039
483.521	93.3911
486.895	55.3301
490.27	27.5923
493.645	18.5563
497.02	11.1455
500.395	5.92255
503.769	6.69226
507.144	1.04022
510.519	1.74145
513.894	3.86749
517.269	0.888794
520.644	1.42755
524.018	6.50555
527.393	10.86
530.768	13.9692
534.143	21.3419
537.518	33.8162
540.892	32.8484
544.267	15.5116
547.642	8.83899
551.017	6.38953
554.392	3.78235
557.766	1.26129
561.141	5.86713
564.516	2.3656
567.891	6.16321
571.266	3.17053
574.64	1.63525
578.015	5.04712
581.39	4.4187
584.765	8.25494
588.14	5.46118
591.515	7.57446
594.889	12.9492
598.264	7.01294
601.639	6.83289
605.014	8.5719
608.389	5.04456
611.764	1.66943
615.138	5.3407
618.513	1.75647
621.888	11.4009
625.263	3.15649
628.638	6.15002
632.012	4.37952
635.387	4.80994
638.762	4.85168
642.137	6.51013
645.512	5.94763
648.886	12.2803
652.261	12.1174
655.636	7.65796
659.011	8.1936
662.386	5.20898
665.76	0.014038
669.135	2.55774
672.51	0.465088
675.885	1.4353
679.26	7.74585
682.635	3.92517
686.009	3.72986
689.384	5.57959
692.759	11.4425
696.134	4.76904
699.509	4.87427
702.884	2.77246
706.258	8.34668
709.633	5.1488
713.008	5.29968
716.383	6.3125
719.758	7.19214
723.132	9.99243
726.507	3.14002
729.882	7.47217
733.257	6.19641
736.632	7.47998
740.006	4.33142
743.381	7.58362
746.756	5.56555
750.131	1.86231
753.506	5.32251
756.88	2.98584
760.255	2.5293
763.63	2.80603
767.005	7.70032
770.38	1.41357
773.755	1.91321
777.129	2.05713
780.504	1.03943
783.879	3.25635
787.254	6.86987
790.629	7.59692
794.003	3.96606
797.378	10.7026
800.753	6.35803
804.128	6.6499
807.503	14.4503
810.878	10.2157
814.252	13.9734
817.627	12.9416
821.002	6.67139
824.377	14.5994
827.752	14.8369
831.126	14.0273
834.501	11.8213
837.876	11.1091
841.251	14.5789
844.626	13.0015
848	18.6255
851.375	15.3599
854.75	13.3425
858.125	11.6384
861.5	10.8162
864.875	9.11157
868.249	5.29175
871.624	2.92017
874.999	5.03003
878.374	1.65259
881.749	0.383789
885.123	4.05298
888.498	3.62476
891.873	1.95606
895.248	1.67114
898.623	14.4983
901.997	7.25879
905.372	5.55713
908.747	13.8962
912.122	43.0015
915.497	45.8154
918.872	44.9714
922.246	39.7468
925.621	27.8303
928.996	34.3701
932.371	33.6062
935.746	46.1824
939.12	63.7825
942.495	55.1626
945.87	39.5859
949.245	55.9321
952.62	98.6775
955.995	163.658
959.369	310.032
962.744	518.226
966.119	378.79
969.494	176.305
972.869	113.248
976.243	88.8
979.618	69.7559
982.993	48.9355
986.368	19.2141
989.743	16.8298
993.117	0.411621
996.492	5.7876
999.867	2.35522
1003.24	3.67896
1006.62	23.1631
1009.99	40.0144
1013.37	64.5403
1016.74	146.225
1020.12	123.27
1023.49	31.2568
1026.87	6.05298
1030.24	2.89648
1033.62	3.21411
1036.99	21.9609
1040.37	12.9273
1043.74	16.8076
1047.12	12.5493
1050.49	17.478
1053.86	22.7188
1057.24	13.6562
1060.61	35.3999
1063.99	31.7778
1067.36	28.7461
1070.74	28.1167
1074.11	23.2803
1077.49	14.9424
1080.86	23.2988
1084.24	32.647
1087.61	33.9722
1090.99	14.6934
1094.36	12.9663
1097.74	8.06006
1101.11	19.2002
1104.49	17.4336
1107.86	11.7227
1111.24	18.5361
1114.61	7.3335
1117.99	1.10156
1121.36	4.06348
1124.73	3.60791
1128.11	5.87549
1131.48	8.44385
1134.86	16.6558
1138.23	25.9834
1141.61	20.5234
1144.98	23.0093
1148.36	34.293
1151.73	33.2886
1155.11	62.0894
1158.48	74.4419
1161.86	88.335
1165.23	115.412
1168.61	131.792
1171.98	151.668
1175.36	144.421
1178.73	137.761
1182.11	112.977
1185.48	96.6856
1188.86	76.9287
1192.23	59.8813
1195.61	61.4761
1198.98	47.4355
1202.36	65.0581
1205.73	50.4717
1209.11	46.1001
1212.48	35.0176
1215.86	29.0049
1219.23	0.047363
1222.61	0.546387
1225.98	12.0454
1229.35	13.9346
1232.73	18.1782
1236.1	27.6265
1239.48	1.47656
1242.85	8.64404
1246.23	19.3911
1249.6	15.2432
1252.98	6.76758
1256.35	33.4922
1259.73	42.9531
1263.1	41.6572
1266.48	36.5078
1269.85	10.2305
1273.23	8.74609
1276.6	25.2822
1279.98	4.31738
1283.35	12.6279
