Measurement: Raman, 532 nm, unoriented, Raman Data Processed
Mineral: Svabite
Rruff sample: R050180
Ideal chemistry: Ca_5_(As^5+^O_4_)_3_F
Locality: Ultevis, Sweden
Source: Marcus Origlieri
Description: White prismatic hexagonal crystals associated with reddish brown andradite, R060326
Measured chemistry: Ca_5.00_(As_1.00_O_4_)_3_(F_0.67_Cl_0.33_)_Î£=1_
Raman shift (cm-1)	intensity
149.224	0
152.117	124.904
155.01	31.6367
157.902	51.8262
160.795	159.248
163.688	255.203
166.58	238.828
169.473	565.938
172.366	490.443
175.258	633.324
178.151	542.773
181.044	452.277
183.936	600.082
186.829	617.164
189.722	1008.68
192.615	801.773
195.507	482.732
198.4	560.316
201.293	483.603
204.185	294.484
207.078	4.52148
209.971	80.1269
212.863	78.7188
215.756	48.6699
218.649	80.1445
221.542	234.758
224.434	380.004
227.327	400.717
230.22	680.516
233.112	938.285
236.005	1219.38
238.898	1193.17
241.79	1462.36
244.683	1172.71
247.576	1047.15
250.469	907.539
253.361	1183.35
256.254	1118.07
259.147	1206.5
262.039	1217.64
264.932	1437.25
267.825	1441.17
270.717	1318.68
273.61	1315.46
276.503	1357.94
279.396	1375.29
282.288	1511.15
285.181	1337.86
288.074	1396.03
290.966	1201.39
293.859	1061.71
296.752	500.16
299.644	461.242
302.537	226.504
305.43	41.1484
308.322	148.144
311.215	355.258
314.108	14.332
317.001	157.398
319.893	98.0273
322.786	93.3945
325.679	360.879
328.571	1180.48
331.464	1848.36
334.357	3477.6
337.25	5491.01
340.142	7783.61
343.035	10667.8
345.928	14031
348.82	17197.3
351.713	18938.1
354.606	18675.8
357.498	16131.8
360.391	13024.5
363.284	10906.2
366.176	9004.47
369.069	7219.28
371.962	5833.17
374.854	4632.48
377.747	3647.74
380.64	2535.37
383.533	1942.98
386.425	1487.46
389.318	1246.31
392.211	1350.12
395.103	1501.11
397.996	1842.72
400.889	2356.2
403.781	3474.8
406.674	4534.54
409.567	4287.61
412.46	2909.37
415.352	1926.21
418.245	1354.41
421.138	1658.84
424.03	2167.43
426.923	3061.03
429.816	4555.28
432.709	5715.89
435.601	7388.76
438.494	8624.28
441.387	8820.97
444.279	7971.61
447.172	6783.81
450.065	5890.57
452.957	5058.03
455.85	4085.88
458.743	3691.02
461.635	3375.48
464.528	2801.25
467.421	1824.98
470.313	1267.21
473.206	460.246
476.099	326.566
478.992	213.223
481.884	373.434
484.777	131.633
487.67	383.246
490.562	440.449
493.455	206.617
496.348	111.426
499.24	70.5898
502.133	226.203
505.026	27.2227
507.919	383.918
510.811	141.551
513.704	15.9609
516.597	397.016
519.489	48.8047
522.382	181.602
525.275	255.453
528.168	466.516
531.06	148.652
533.953	453.773
536.846	498.707
539.738	418.527
542.631	386.402
545.524	436.699
548.416	382.812
551.309	761.297
554.202	637.914
557.095	705.297
559.987	983.938
562.88	945.652
565.773	1190.6
568.665	1268
571.558	1238.49
574.451	908.242
577.343	879.109
580.236	481.828
583.129	416.781
586.021	438.055
588.914	560.57
591.807	602.758
594.699	457.789
597.592	488.445
600.485	431.93
603.378	570.766
606.27	872.594
609.163	670.414
612.056	634.844
614.948	658.484
617.841	593.516
620.734	394.227
623.626	285.5
626.519	267.859
629.412	528.883
632.305	352.039
635.197	10.8281
638.09	132.367
640.983	240.047
643.875	404.148
646.768	459.695
649.661	471.109
652.553	279.562
655.446	256.375
658.339	299.281
661.232	112.734
664.124	74.8047
667.017	149.32
669.91	179.453
672.802	320.062
675.695	612.977
678.588	431.68
681.481	549.867
684.373	187.5
687.266	337.742
690.159	306.461
693.051	643.797
695.944	524.719
698.837	547.945
701.729	536.242
704.622	755.43
707.515	523.148
710.407	559.68
713.3	679.273
716.193	442.93
719.086	88.4844
721.978	169.945
724.871	290.281
727.764	385.93
730.656	353.672
733.549	414.031
736.442	874.211
739.334	802.023
742.227	1306.56
745.12	472.484
748.013	502.422
750.905	178.195
753.798	76.4453
756.691	220.883
759.583	132.305
762.476	252.555
765.369	142.656
768.261	94.625
771.154	150.57
774.047	82.3906
776.939	329.883
779.832	217.414
782.725	123.469
785.618	34.7734
788.51	431.562
791.403	547.109
794.296	1016.57
797.188	1564.18
800.081	2191.9
802.974	3438.27
805.866	6819.37
808.759	12438.6
811.652	21312.8
814.545	32480.6
817.437	45513.6
820.33	56094.7
823.223	59434.8
826.115	54305.4
829.008	47892.1
831.901	44899.9
834.793	45203.7
837.686	47340.9
840.579	51133.5
843.471	57234.9
846.364	65085.4
849.257	72654.8
852.15	78304.4
855.042	79921.5
857.935	75148.8
860.828	62492.1
863.72	46659.4
866.613	33197.4
869.506	23337.2
872.399	17153.5
875.291	12456.1
878.184	9189.06
881.077	7346.19
883.969	6174.12
886.862	5849.12
889.755	5609.68
892.647	4617.48
895.54	3315.73
898.433	2319.69
901.325	1749.56
904.218	1074.06
907.111	778.047
910.004	282.578
912.896	9.76562
915.789	217.211
918.682	291.891
921.574	61.7891
924.467	384.312
927.36	362.828
930.252	131.156
933.145	756.188
936.038	1255.36
938.931	1720.55
941.823	2903.44
944.716	4391.64
947.609	6407.88
950.501	7840.22
953.394	7669.92
956.287	7202.17
959.179	4726.47
962.072	2944.86
964.965	1232.64
967.857	836.406
970.75	533.062
973.643	717.375
976.536	884.922
979.428	553.203
982.321	649.906
985.214	680.656
988.106	881.344
990.999	1146.81
993.892	1064.5
996.784	607.469
999.677	13.0781
1002.57	135.797
1005.46	81.3594
1008.36	344.359
1011.25	674.484
1014.14	629.375
1017.03	751.406
1019.93	653.469
1022.82	861.109
1025.71	839.312
1028.6	219.469
1031.5	63.4219
1034.39	48.9375
1037.28	675.281
1040.17	440.219
1043.07	236.328
1045.96	581.359
1048.85	513.969
1051.75	677.703
1054.64	643.078
1057.53	50.5156
1060.42	647.609
1063.32	24.1719
1066.21	825.594
1069.1	343.594
1071.99	250.641
1074.89	613.422
1077.78	549.938
1080.67	287.359
1083.57	68.0781
1086.46	994.609
1089.35	834.109
1092.24	1064.62
1095.14	423.266
1098.03	371.141
1100.92	590.75
1103.81	254.328
1106.71	57.2969
1109.6	238.781
1112.49	103.969
1115.38	61.9219
1118.28	41.875
1121.17	548.062
1124.06	482.609
1126.96	193.109
1129.85	122.531
1132.74	47.3125
1135.63	250.016
1138.53	507.312
1141.42	609.5
1144.31	452.875
1147.2	243
1150.1	764.484
1152.99	943.781
1155.88	484.719
1158.78	329.469
1161.67	359.281
1164.56	1081.17
1167.45	1107.83
1170.35	950.891
1173.24	518.828
1176.13	696.141
1179.02	1074.33
1181.92	1163.3
1184.81	1093.53
1187.7	888.625
1190.6	140.75
1193.49	413.016
1196.38	44.2969
1199.27	114.906
1202.17	540.188
1205.06	1214.8
1207.95	1183.58
1210.84	473.25
1213.74	33.1562
1216.63	868.906
1219.52	641.406
1222.41	620.531
1225.31	294.109
1228.2	411.953
1231.09	743.641
1233.99	783.297
1236.88	888.188
1239.77	793.422
1242.66	646.516
1245.56	532.875
1248.45	514.438
1251.34	591.547
1254.23	471.391
1257.13	572.531
1260.02	159.891
1262.91	165.391
1265.81	394.766
1268.7	576.375
1271.59	587.047
1274.48	530.641
1277.38	561.516
1280.27	158.109
1283.16	505.047
1286.05	325.438
