Measurement: Raman, 780 nm, unoriented, Raman Data Processed
Mineral: Svabite
Rruff sample: R050180
Ideal chemistry: Ca_5_(As^5+^O_4_)_3_F
Locality: Ultevis, Sweden
Source: Marcus Origlieri
Description: White prismatic hexagonal crystals associated with reddish brown andradite, R060326
Measured chemistry: Ca_5.00_(As_1.00_O_4_)_3_(F_0.67_Cl_0.33_)_Î£=1_
Raman shift (cm-1)	intensity
146.94	0
149.833	31.7832
152.726	3.57861
155.619	105.411
158.511	186.614
161.404	283.098
164.297	470.454
167.189	629.064
170.082	699.525
172.975	643.269
175.867	679.672
178.76	586.366
181.653	571.319
184.546	699.444
187.438	789.131
190.331	664.468
193.224	641.74
196.116	661.535
199.009	649.196
201.902	708.106
204.794	505.017
207.687	536.354
210.58	403.513
213.472	241.565
216.365	47.2827
219.258	52.7344
222.151	91.0703
225.043	17.7686
227.936	91.1108
230.829	466.946
233.721	729.725
236.614	856.998
239.507	897.201
242.399	982.992
245.292	954.413
248.185	953.026
251.078	854.672
253.97	877.595
256.863	775.466
259.756	835.971
262.648	765.885
265.541	828.14
268.434	752.73
271.327	811.178
274.219	571.995
277.112	591.975
280.005	593.815
282.897	402.856
285.79	431.472
288.683	396.568
291.575	404.719
294.468	335.202
297.361	198.837
300.253	50.3076
303.146	165.936
306.039	260.306
308.932	266.588
311.824	144.685
314.717	15.2617
317.61	192.008
320.502	355.737
323.395	871.567
326.288	1330.36
329.18	1908.48
332.073	2496.81
334.966	3651.21
337.859	5209.86
340.751	7169.23
343.644	9566.99
346.537	12292.1
349.429	14884
352.322	16401.6
355.215	16112.9
358.108	14045.7
361	11635
363.893	9621.25
366.786	7920.61
369.678	6651.85
372.571	5288.99
375.464	4282
378.356	3239.27
381.249	2482.38
384.142	1600.22
387.034	1101.27
389.927	673.775
392.82	743.514
395.713	868.937
398.605	1424.03
401.498	2160.8
404.391	3054.31
407.283	3975.12
410.176	3912.91
413.069	2937.58
415.962	1655.04
418.854	846.187
421.747	650.727
424.64	815.024
427.532	1326.65
430.425	1854.94
433.318	2854.32
436.21	3691.52
439.103	4470.89
441.996	4758.69
444.889	4199.27
447.781	3567.57
450.674	2907.97
453.567	2363.78
456.459	1990.7
459.352	1863.15
462.245	1648.62
465.137	1252.9
468.03	837.924
470.923	739.55
473.816	533.449
476.708	404.373
479.601	272.419
482.494	412.274
485.386	367.654
488.279	385.058
491.172	281.791
494.065	95.4072
496.957	0.078613
499.85	80.9565
502.743	151.714
505.635	182.789
508.528	141.268
511.421	114.805
514.313	54.4106
517.206	51.7158
520.099	24.7505
522.991	10.919
525.884	57.8154
528.777	77.8433
531.67	183.057
534.562	243.519
537.455	315.018
540.348	253.668
543.24	382.843
546.133	370.206
549.026	493
551.918	594.071
554.811	520.776
557.704	639.644
560.597	837.968
563.489	910.481
566.382	1082.95
569.275	1246.84
572.167	1138.24
575.06	956.327
577.953	825.644
580.846	634.373
583.738	583.254
586.631	505.308
589.524	425.761
592.416	337.915
595.309	304.232
598.202	352.868
601.094	250.338
603.987	329.968
606.88	363.484
609.773	399.288
612.665	301.886
615.558	326.654
618.451	286.446
621.343	197.882
624.236	264.358
627.129	162.35
630.021	114.925
632.914	28.96
635.807	176.094
638.699	203.505
641.592	157.32
644.485	169.038
647.378	141.966
650.27	165.072
653.163	125.831
656.056	190.684
658.948	100.415
661.841	118.837
664.734	131.854
667.626	156.079
670.519	117.543
673.412	158.339
676.305	84.0608
679.197	113.623
682.09	150.572
684.983	146.361
687.875	48.1157
690.768	39.1719
693.661	55.4155
696.553	62.1816
699.446	30.1419
702.339	21.6284
705.232	14.4902
708.124	74.6834
711.017	49.2649
713.91	44.1023
716.802	9.41992
719.695	42.1797
722.588	63.7874
725.481	25.6323
728.373	50.7368
731.266	14.2412
734.159	120.332
737.051	75.9966
739.944	48.1272
742.837	61.1553
745.729	55.4656
748.622	22.4712
751.515	57.1721
754.408	54.2217
757.3	13.7642
760.193	13.5928
763.086	25.5427
765.978	18.7625
768.871	17.3252
771.764	12.0732
774.656	81.4651
777.549	83.9009
780.442	96.1428
783.335	50.3689
786.227	79.3962
789.12	58.8447
792.013	202.74
794.905	291.257
797.798	591.735
800.691	927.374
803.583	1652.71
806.476	3026.35
809.369	5331.63
812.261	9371.34
815.154	15317.8
818.047	22756
820.94	28972.4
823.832	31224.5
826.725	29027.6
829.618	24946.7
832.51	22611.3
835.403	22098.2
838.296	22585
841.188	24049.4
844.081	26934.6
846.974	30802.5
849.867	34768.4
852.759	37755.4
855.652	39239.8
858.545	37709.6
861.437	31803.5
864.33	24019.3
867.223	17208.6
870.115	11969.6
873.008	8496.81
875.901	6257.61
878.794	4532.29
881.686	3427
884.579	2882.78
887.472	2419.51
890.364	2155.79
893.257	1933.9
896.15	1618.48
899.043	1181.27
901.935	787.251
904.828	512.244
907.721	295.851
910.613	139.836
913.506	22.4648
916.399	58.093
919.291	121.784
922.184	135.769
925.077	64.0986
927.97	63.7165
930.862	9.95117
933.755	128.138
936.648	255.365
939.54	531.496
942.433	1020.74
945.326	1921.63
948.218	2889.39
951.111	3490.94
954.004	3715.88
956.896	3364.64
959.789	2667.01
962.682	1614.03
965.575	850.821
968.467	404.466
971.36	221.802
974.253	244.593
977.145	97.0817
980.038	9.32227
982.931	11.2104
985.823	21.5873
988.716	21.288
991.609	150.554
994.502	181.27
997.394	131.101
1000.29	131.528
1003.18	8.25293
1006.07	12.1287
1008.97	26.1742
1011.86	4.72095
1014.75	140.811
1017.64	259.322
1020.54	172.072
1023.43	259.428
1026.32	238.233
1029.21	167.319
1032.11	81.5918
1035	74.3713
1037.89	20.3416
1040.79	28.5759
1043.68	31.4128
1046.57	26.4182
1049.46	5.90723
1052.36	3.60156
1055.25	27.8269
1058.14	47.9741
1061.03	29.7068
1063.93	105.635
1066.82	133.472
1069.71	102.592
1072.6	155.624
1075.5	230.508
1078.39	281.215
1081.28	324.326
1084.17	306.498
1087.07	336.365
1089.96	255.698
1092.85	268.45
1095.75	359.108
1098.64	313.974
1101.53	466.615
1104.42	477.139
1107.32	540.47
1110.21	623.595
1113.1	648.547
1115.99	711.39
1118.89	715.223
1121.78	787.664
1124.67	825.482
1127.57	909.517
1130.46	925.7
1133.35	1019.55
1136.24	1010.04
1139.14	1072.87
1142.03	1124.56
1144.92	1219.62
1147.82	1233.99
1150.71	1357.09
1153.6	1514.36
1156.49	1641.75
1159.39	1717.43
1162.28	1637.14
1165.17	1661.45
1168.06	1647.3
1170.96	1643.61
1173.85	1514.63
1176.74	1330.35
1179.63	1333.59
1182.53	1213.83
1185.42	1140.85
1188.31	967.094
1191.2	839.008
1194.1	638.808
1196.99	409.479
1199.88	319.07
1202.78	24.4297
1205.67	99.5498
1208.56	185.409
1211.45	237.44
1214.35	27.6641
1217.24	98.3125
1220.13	364.56
1223.03	603.516
1225.92	856.587
1228.81	1165.09
1231.7	1409.07
1234.6	1877.38
1237.49	2187.04
1240.38	1960.01
1243.27	2065.78
1246.17	2236.04
1249.06	2333.45
1251.95	2122.16
1254.85	1965.45
1257.74	1606.9
1260.63	1235.62
1263.52	448.551
1266.42	64.9785
