Measurement: Raman, 785 nm, unoriented, Raman Data Processed
Mineral: Svanbergite
Rruff sample: R060501
Ideal chemistry: SrAl_3_(SO_4_)(PO_4_)(OH)_6_
Locality: Dover mine, near Hawthorne, Mineral County, Nevada, USA
Source: Michael Scott
Description: Brownish-orange coarsely granular
Measured chemistry: (Sr_0.63_Ca_0.33_Ba_0.04_)_Î£=1_Al_3.00_[(P_0.50_S_0.50_)O_4_]_2_(OH)_6_
Raman shift (cm-1)	intensity
90.19	0
93.565	27.102
96.939	27.451
100.314	21.551
103.689	15.965
107.064	14.214
110.439	38.432
113.813	24.266
117.188	31.032
120.563	6.235
123.938	2.611
127.313	27.451
130.688	36.469
134.062	61.811
137.437	70.289
140.812	55.171
144.187	32.175
147.562	85.008
150.936	97.068
154.311	76.877
157.686	44.559
161.061	36.39
164.436	41.758
167.811	63.262
171.185	103.788
174.56	164.711
177.935	212.955
181.31	93.584
184.685	31.576
188.059	41.448
191.434	22.577
194.809	10.77
198.184	9.253
201.559	21.121
204.934	3.227
208.308	29.945
211.683	67.561
215.058	114.252
218.433	143.055
221.808	247.695
225.182	362.315
228.557	555.894
231.932	838.946
235.307	1174.86
238.682	1465.44
242.057	1445.91
245.432	1090.85
248.806	766.839
252.181	590.78
255.556	484.186
258.931	348.284
262.306	310.031
265.68	261.4
269.055	272.146
272.43	262.617
275.805	235.838
279.18	176.196
282.555	116.428
285.929	52.783
289.304	27.952
292.679	24.032
296.054	6.044
299.429	22.243
302.803	14.186
306.178	11.338
309.553	8.495
312.928	2.713
316.303	7.353
319.677	13.062
323.052	5.405
326.427	8.213
329.802	16.435
333.177	33.697
336.552	25.824
339.926	4.458
343.301	5.33
346.676	28.028
350.051	16.571
353.426	33.469
356.801	39.83
360.175	63.383
363.55	97.23
366.925	107.591
370.3	57.211
373.675	79.731
377.049	90.765
380.424	102.706
383.799	119.367
387.174	197.557
390.549	362.145
393.923	577.465
397.298	829.239
400.673	845.061
404.048	501.861
407.423	252.896
410.798	96.661
414.172	84.609
417.547	44.181
420.922	40.772
424.297	6.968
427.672	14.756
431.047	17.283
434.421	1.768
437.796	10.669
441.171	1.32
444.546	41.178
447.921	38.406
451.295	40.485
454.67	62.264
458.045	96.915
461.42	188.14
464.795	294.959
468.169	413.822
471.544	559.352
474.919	630.594
478.294	741.378
481.669	780.294
485.044	598.048
488.418	401.662
491.793	210.624
495.168	138.807
498.543	82.472
501.918	41.891
505.293	41.716
508.667	42.861
512.042	54.599
515.417	89.41
518.792	162.129
522.167	343.593
525.541	599.716
528.916	748.763
532.291	299.585
535.666	73.691
539.041	41.622
542.416	17.339
545.79	3.486
549.165	2.729
552.54	29.443
555.915	14
559.29	2.198
562.664	18.32
566.039	12.572
569.414	40.109
572.789	79.419
576.164	122.417
579.539	158.164
582.913	208.918
586.288	247.57
589.663	303.828
593.038	328.021
596.413	299.155
599.787	310.115
603.162	327.931
606.537	405.552
609.912	556.185
613.287	738.373
616.662	890.984
620.036	901.737
623.411	781.403
626.786	660.707
630.161	604.552
633.536	531.177
636.911	472.652
640.285	454.664
643.66	498.675
647.035	624.266
650.41	812.605
653.785	810.72
657.159	572.04
660.534	352.383
663.909	261.729
667.284	181.449
670.659	86.408
674.034	59.572
677.408	9.001
680.783	9.127
684.158	0.449
687.533	0.781
690.908	2.464
694.282	2.99
697.657	17.209
701.032	1.417
704.407	10.398
707.782	5.891
711.157	8.106
714.531	9.964
717.906	4.366
721.281	4.48
724.656	6.343
728.031	31.622
731.406	32.376
734.78	34.607
738.155	26.492
741.53	42.372
744.905	31.126
748.279	21.431
751.654	8.35
755.029	50.851
758.404	13.63
761.779	18.038
765.154	29.582
768.528	36.021
771.903	25.317
775.278	6.916
778.653	10.9
782.028	12.026
785.403	24.524
788.777	18.236
792.152	9.806
795.527	24.466
798.902	4.845
802.277	19.785
805.651	24.72
809.026	36.892
812.401	18.953
815.776	6.407
819.151	24.92
822.526	20.023
825.9	31.406
829.275	42.463
832.65	25.77
836.025	36.903
839.4	8.077
842.774	22.947
846.149	32.508
849.524	16.72
852.899	27.001
856.274	13.895
859.649	32.779
863.023	34.939
866.398	46.853
869.773	28.763
873.148	26.107
876.523	30.812
879.898	35.751
883.272	25.671
886.647	39.882
890.022	35.924
893.397	42.782
896.772	26.327
900.146	39.5
903.521	23.83
906.896	27.454
910.271	39.666
913.646	40.212
917.021	0.507
920.395	14.672
923.77	4.748
927.145	4.641
930.52	16.036
933.895	20.164
937.269	32.76
940.644	29.793
944.019	26.04
947.394	14.029
950.769	21.431
954.144	54.308
957.518	105.611
960.893	147.136
964.268	193.536
967.643	238.089
971.018	300.604
974.393	352.898
977.767	449.687
981.142	568.421
984.517	579.218
987.892	516.675
991.266	470.651
994.641	498.984
998.016	556.229
1001.39	628.491
1004.77	627.79
1008.14	612.552
1011.51	656.738
1014.89	1049.96
1018.26	2236.79
1021.64	3885.99
1025.02	4219.68
1028.39	2750.8
1031.76	1476.65
1035.14	764.838
1038.51	454.801
1041.89	289.765
1045.26	170.677
1048.64	122.623
1052.01	34.811
1055.39	27.885
1058.76	15.694
1062.14	19.979
1065.51	0.743
1068.89	18.718
1072.26	14.353
1075.64	74.928
1079.01	81.297
1082.39	109.689
1085.76	130.192
1089.14	128.925
1092.51	133.813
1095.89	137.667
1099.26	103.13
1102.64	105.431
1106.01	88.056
1109.38	88.885
1112.76	72.964
1116.13	43.65
1119.51	56.996
1122.88	14.491
1126.26	3.933
1129.63	32.384
1133.01	21.068
1136.38	31.126
1139.76	7.899
1143.13	6.009
1146.51	25.038
1149.88	43.837
1153.26	13.534
1156.63	36.987
1160.01	40.036
1163.38	18.568
1166.76	42.386
1170.13	61.787
1173.51	18.793
1176.88	28.859
1180.26	26.397
1183.63	28.517
1187.01	45.205
1190.38	38.318
1193.76	20.97
1197.13	27.968
1200.51	30.112
1203.88	35.161
1207.26	13.97
1210.63	4.816
1214.01	32.543
1217.38	36.672
1220.75	32.805
1224.13	50.642
1227.5	28.268
1230.88	31.922
1234.25	45.304
1237.63	43.499
1241	16.153
1244.38	29.71
1247.75	25.913
1251.13	28.234
1254.5	28.528
1257.88	44.439
1261.25	15.453
1264.63	10.41
1268	4.097
1271.38	0.28
