Measurement: Raman, 780 nm, unoriented, Raman Data Processed
Mineral: Svanbergite
Rruff sample: R060501
Ideal chemistry: SrAl_3_(SO_4_)(PO_4_)(OH)_6_
Locality: Dover mine, near Hawthorne, Mineral County, Nevada, USA
Source: Michael Scott
Description: Brownish-orange coarsely granular
Measured chemistry: (Sr_0.63_Ca_0.33_Ba_0.04_)_Î£=1_Al_3.00_[(P_0.50_S_0.50_)O_4_]_2_(OH)_6_
Raman shift (cm-1)	intensity
91.5599	0
94.9347	58.7101
98.3096	18.0557
101.684	4.02814
105.059	0.809204
108.434	22.3717
111.809	1.88599
115.184	9.82153
118.558	24.6196
121.933	43.4813
125.308	61.1917
128.683	76.1868
132.058	53.5085
135.433	18.3789
138.807	9.86841
142.182	9.02045
145.557	6.15167
148.932	8.72656
152.307	3.92481
155.681	7.88843
159.056	33.1398
162.431	58.5088
165.806	84.2667
169.181	146.012
172.555	260.862
175.93	496.471
179.305	702.352
182.68	390.248
186.055	184.851
189.43	117.647
192.804	87.8032
196.179	76.2729
199.554	66.4262
202.929	65.0701
206.304	64.9655
209.678	64.2701
213.053	74.8062
216.428	89.6581
219.803	114.147
223.178	155.97
226.553	209.034
229.927	284.528
233.302	385.324
236.677	506.065
240.052	611.091
243.427	613.953
246.801	498.115
250.176	381.447
253.551	295.783
256.926	224.704
260.301	172.244
263.675	149.735
267.05	118.307
270.425	95.4144
273.8	84.1879
277.175	77.9254
280.55	67.4581
283.924	42.4161
287.299	11.8291
290.674	3.3663
294.049	1.34384
297.424	4.61615
300.798	2.63504
304.173	3.57883
307.548	3.89264
310.923	1.04105
314.298	0.454865
317.673	1.68445
321.047	2.28845
324.422	4.99387
327.797	5.94055
331.172	12.8406
334.547	18.3308
337.921	28.94
341.296	39.2234
344.671	38.3092
348.046	42.1373
351.421	47.5104
354.796	60.38
358.17	71.4897
361.545	84.5821
364.92	111.626
368.295	124.656
371.67	94.752
375.044	70.7674
378.419	60.1811
381.794	64.1583
385.169	79.6245
388.544	101.572
391.918	151.353
395.293	232.741
398.668	332.438
402.043	337.655
405.418	205.178
408.793	99.1666
412.167	47.9211
415.542	25.0319
418.917	10.9894
422.292	6.19232
425.667	2.80579
429.041	0.95462
432.416	0.696442
435.791	2.60095
439.166	2.79019
442.541	2.36093
445.915	9.88534
449.29	24.0221
452.665	35.7273
456.04	55.2036
459.415	96.2921
462.789	164.553
466.164	233.942
469.539	218.848
472.914	205.396
476.289	227.137
479.664	269.812
483.038	293.619
486.413	253.747
489.788	170.256
493.163	100.543
496.538	64.1002
499.913	39.0745
503.287	23.8615
506.662	18.9699
510.037	22.6996
513.412	36.2322
516.787	50.796
520.161	76.7358
523.536	128.932
526.911	234.648
530.286	283.844
533.661	124.9
537.035	36.1635
540.41	12.3797
543.785	1.48505
547.16	0.793823
550.535	2.19922
553.909	3.15555
557.284	1.69544
560.659	0.960144
564.034	5.37695
567.409	8.66055
570.784	14.8415
574.158	25.3851
577.533	37.775
580.908	55.3822
584.283	76.8358
587.658	102.25
591.033	119.933
594.407	123.29
597.782	115.713
601.157	102.673
604.532	103.902
607.907	114.558
611.281	134.713
614.656	171.433
618.031	213.845
621.406	227.435
624.781	221.897
628.155	223.92
631.53	228.132
634.905	216.248
638.28	181.872
641.655	146.208
645.029	126.482
648.404	123.782
651.779	133.968
655.154	132.846
658.529	98.9701
661.904	63.8502
665.278	41.2788
668.653	30.5116
672.028	15.4723
675.403	7.16367
678.778	1.1943
682.153	1.01872
685.527	1.94453
688.902	1.13344
692.277	0.127304
695.652	2.81813
699.027	4.67857
702.401	5.98044
705.776	6.83731
709.151	6.03922
712.526	6.32602
715.901	4.49916
719.275	3.62924
722.65	2.7037
726.025	3.69885
729.4	4.03549
732.775	1.37285
736.149	2.36157
739.524	2.64697
742.899	1.69772
746.274	2.28944
749.649	1.43404
753.024	0.524414
756.398	0.454618
759.773	0.152542
763.148	0.514603
766.523	1.16733
769.898	0.478729
773.273	0.054733
776.647	1.25401
780.022	0.300674
783.397	1.00259
786.772	1.61333
790.146	1.49667
793.521	1.16257
796.896	4.00502
800.271	2.34579
803.646	3.58102
807.021	4.64584
810.395	5.68257
813.77	4.80089
817.145	4.87302
820.52	6.65524
823.895	6.28221
827.269	6.47865
830.644	7.68132
834.019	7.79878
837.394	9.82272
840.769	9.22188
844.144	9.98175
847.518	8.58754
850.893	8.77846
854.268	7.68538
857.643	6.11815
861.018	7.07587
864.393	5.66759
867.767	5.12193
871.142	5.66907
874.517	7.95911
877.892	6.79805
881.266	8.92912
884.641	11.7433
888.016	9.73132
891.391	10.7931
894.766	10.0716
898.141	10.0761
901.515	10.2827
904.89	8.79054
908.265	7.77144
911.64	5.24863
915.015	4.17835
918.389	2.90724
921.764	0.67012
925.139	0.863815
928.514	0.823486
931.889	2.82114
935.264	2.08504
938.638	0.073578
942.013	0.606272
945.388	1.47926
948.763	5.55432
952.138	14.9069
955.512	24.7929
958.887	38.9491
962.262	52.9297
965.637	64.8042
969.012	79.448
972.386	93.5287
975.761	117.791
979.136	145.108
982.511	174.59
985.886	178.538
989.261	163.838
992.635	150.489
996.01	152.833
999.385	165.877
1002.76	181.272
1006.13	185.731
1009.51	184.305
1012.88	209.961
1016.26	311.202
1019.63	565.645
1023.01	989.743
1026.38	1242.83
1029.76	947.651
1033.13	513.013
1036.51	253.514
1039.88	123.781
1043.26	65.5845
1046.63	34.3415
1050.01	18.6751
1053.38	7.49809
1056.76	1.40852
1060.13	3.31499
1063.51	1.67647
1066.88	1.90968
1070.26	5.20436
1073.63	11.5605
1077.01	21.1179
1080.38	34.626
1083.76	45.5273
1087.13	55.5336
1090.51	63.1052
1093.88	66.2108
1097.26	65.6806
1100.63	57.9895
1104	50.9697
1107.38	42.5392
1110.75	34.9764
1114.13	27.7286
1117.5	20.2679
1120.88	13.5418
1124.25	7.74884
1127.63	4.70578
1131	2.73503
1134.38	0.311386
1137.75	0.327621
1141.13	0.169632
1144.5	0.108414
1147.88	1.00938
1151.25	2.94405
1154.63	4.13762
1158	8.89441
1161.38	14.3647
1164.75	16.7764
1168.13	19.1509
1171.5	23.0269
1174.88	23.9271
1178.25	23.6762
1181.62	19.8825
1185	16.2643
1188.38	10.7291
1191.75	7.15535
1195.12	4.76407
1198.5	3.16574
1201.87	2.60776
1205.25	0.091934
1208.62	0.017227
1212	0.686188
1215.37	1.35089
1218.75	0.572052
1222.12	0.451797
1225.5	1.45059
1228.87	0.033127
1232.25	0.544189
1235.62	2.76567
1239	2.46794
1242.37	1.85078
1245.75	1.94093
1249.12	2.33542
1252.5	2.59732
1255.87	2.62649
1259.25	1.53197
1262.62	2.35947
1265.99	2.24176
1269.37	2.99747
1272.74	1.84953
1276.12	0.937958
1279.49	1.43382
1282.87	0.655975
