Measurement: Raman, 532 nm, unoriented, Raman Data Processed
Mineral: Svanbergite
Rruff sample: R050549
Ideal chemistry: SrAl_3_(SO_4_)(PO_4_)(OH)_6_
Locality: Horrsjoberg, Varmland, Sweden
Source: University of Arizona Mineral Museum
Description: Orange-brown crystals embedded in a matrix of pyrophyllite, quartz and kyanite
Measured chemistry: (Sr_0.85_Ca_0.15_)_Σ=1_Al_3.00_[(P_0.56_S_0.44_)_Σ=1_O_4_]_2_((OH)_5.88_(H_2_O)_0.12_)_Σ=6_ ; (OH) and H_2_O estimated by charge balance
Raman shift (cm-1)	intensity
154.083	0
156.976	7.27564
159.869	81.8829
162.762	177.696
165.654	300.148
168.547	502.469
171.44	852.515
174.332	1420.43
177.225	1821.35
180.118	1186.62
183.01	551.208
185.903	282.812
188.796	164.972
191.688	84.7237
194.581	33.6437
197.474	1.51825
200.367	16.0714
203.259	8.50629
206.152	15.5973
209.045	57.3517
211.937	108.211
214.83	176.582
217.723	270.123
220.615	391.284
223.508	556.787
226.401	745.406
229.293	973.896
232.186	1244.19
235.079	1520.81
237.972	1701.45
240.864	1661.71
243.757	1413.26
246.65	1132.41
249.542	905.438
252.435	730.855
255.328	582.168
258.221	464.786
261.113	374.381
264.006	321.263
266.899	286.408
269.791	267.263
272.684	245.899
275.577	245.583
278.469	240.103
281.362	178.276
284.255	73.7519
287.147	33.8831
290.04	11.0924
292.933	2.00122
295.826	9.31592
298.718	11.4786
301.611	3.6582
304.504	2.83655
307.396	1.32501
310.289	8.88245
313.182	13.5603
316.075	24.3509
318.967	28.6215
321.86	28.1229
324.753	38.9962
327.645	46.615
330.538	65.4321
333.431	93.7857
336.323	117.5
339.216	137.162
342.109	139.398
345.002	146.497
347.894	156.995
350.787	178.482
353.68	206.721
356.572	253.983
359.465	313.887
362.358	385.736
365.25	416.173
368.143	389.87
371.036	325.493
373.928	301.221
376.821	313.325
379.714	358.957
382.607	438.027
385.499	539.449
388.392	663.595
391.285	813.858
394.177	930.293
397.07	923.568
399.963	742.214
402.856	504.21
405.748	328.078
408.641	202.628
411.534	127.011
414.426	86.7618
417.319	53.8779
420.212	31.5576
423.104	18.1545
425.997	6.86194
428.89	6.96948
431.783	8.08606
434.675	12.4728
437.568	9.95416
440.461	1.43817
443.353	8.87115
446.246	24.0742
449.139	41.7048
452.031	64.5356
454.924	95.5774
457.817	138.462
460.709	193.293
463.602	281.529
466.495	379.944
469.388	486.631
472.28	607.551
475.173	728.933
478.066	846.465
480.958	902.806
483.851	846.821
486.744	669.298
489.637	461.824
492.529	319.151
495.422	220.062
498.315	148.381
501.207	109.96
504.1	105.187
506.993	131.481
509.885	192.912
512.778	271.007
515.671	378.635
518.563	559.327
521.456	777.872
524.349	917.405
527.242	621.899
530.134	232.431
533.027	84.0638
535.92	23.8725
538.812	4.81934
541.705	12.9399
544.598	13.566
547.49	14.8734
550.383	6.72748
553.276	2.64337
556.169	12.589
559.061	25.7954
561.954	34.7086
564.847	49.5217
567.739	69.871
570.632	97.1876
573.525	119.654
576.418	153.354
579.31	196.161
582.203	240.812
585.096	292.313
587.988	344.322
590.881	371.594
593.774	385.65
596.666	388.981
599.559	396.697
602.452	411.31
605.344	464.255
608.237	536.734
611.13	643.428
614.023	766.415
616.915	842.608
619.808	838.306
622.701	801.558
625.593	778.701
628.486	772.719
631.379	737.897
634.271	665.879
637.164	560.124
640.057	469.685
642.949	400.962
645.842	376.221
648.735	384.146
651.628	389.158
654.52	363.642
657.413	280.427
660.306	200.099
663.198	143.762
666.091	102.403
668.984	74.374
671.876	27.3991
674.769	4.63428
677.662	6.12451
680.555	8.50159
683.447	4.92218
686.34	5.68195
689.233	3.61102
692.125	1.37811
695.018	7.77197
697.911	10.7033
700.803	17.8792
703.696	16.7506
706.589	15.0546
709.482	18.6198
712.374	9.63513
715.267	17.2155
718.16	15.1003
721.052	16.5211
723.945	12.8095
726.838	9.86597
729.731	10.5075
732.623	7.3421
735.516	12.326
738.409	0.399231
741.301	2.52838
744.194	2.42389
747.087	1.20056
749.979	3.03449
752.872	2.47223
755.765	1.40533
758.658	0.779602
761.55	3.71826
764.443	3.70007
767.336	6.60864
770.228	7.83716
773.121	14.6085
776.014	8.7674
778.906	11.2497
781.799	11.6457
784.692	13.0515
787.585	8.75928
790.477	13.0142
793.37	12.8413
796.263	8.50726
799.155	6.57983
802.048	9.36444
804.941	6.85425
807.833	14.5516
810.726	14.6752
813.619	16.0148
816.511	8.74811
819.404	8.21954
822.297	19.7593
825.19	16.7594
828.082	18.5346
830.975	15.16
833.868	8.2655
836.76	9.81964
839.653	13.5063
842.546	15.0898
845.438	8.32233
848.331	12.8462
851.224	5.61212
854.117	4.74731
857.009	4.99396
859.902	1.21448
862.795	4.37115
865.687	0.352844
868.58	6.74756
871.473	15.2304
874.365	25.2137
877.258	38.979
880.151	46.1218
883.044	52.2301
885.936	66.7681
888.829	88.9908
891.722	97.7231
894.614	110.092
897.507	111.532
900.4	113.545
903.293	103.728
906.185	92.9084
909.078	70.4213
911.971	53.3727
914.863	31.8574
917.756	27.348
920.649	13.9688
923.541	1.07629
926.434	9.3056
929.327	11.1208
932.22	9.17755
935.112	6.0766
938.005	1.74756
940.898	5.88013
943.79	27.3622
946.683	48.6681
949.576	73.6345
952.468	113.713
955.361	145.153
958.254	190.614
961.146	227.005
964.039	269.324
966.932	317.503
969.825	388.826
972.717	496.834
975.61	621.824
978.503	738.829
981.395	782.743
984.288	787.295
987.181	779.875
990.073	791.342
992.966	836.868
995.859	893.917
998.751	948.32
1001.64	981.802
1004.54	987.702
1007.43	1059.11
1010.32	1320.22
1013.22	1866.08
1016.11	2884.37
1019	4335.05
1021.89	5331.01
1024.79	4619.1
1027.68	2938.9
1030.57	1611.81
1033.46	892.794
1036.36	539.909
1039.25	346.562
1042.14	239.64
1045.04	170.843
1047.93	110.547
1050.82	66.3079
1053.71	27.6798
1056.61	5.23706
1059.5	12.8084
1062.39	20.2153
1065.28	12.3184
1068.18	0.606445
1071.07	30.6514
1073.96	62.7703
1076.85	108.894
1079.75	157.828
1082.64	208.362
1085.53	255.458
1088.42	296.598
1091.32	325.74
1094.21	325.389
1097.1	325.294
1100	312.869
1102.89	286.178
1105.78	251.734
1108.67	212.059
1111.57	177.661
1114.46	144.689
1117.35	111.582
1120.24	82.8494
1123.14	66.9626
1126.03	43.5826
1128.92	38.1511
1131.82	29.3055
1134.71	25.2449
1137.6	14.7091
1140.49	10.9066
1143.39	1.30212
1146.28	4.60071
1149.17	5.15198
1152.07	2.60962
1154.96	1.36157
1157.85	10.749
1160.74	18.1285
1163.63	31.9413
1166.53	40.3527
1169.42	51.2032
1172.31	60.9684
1175.21	52.6511
1178.1	50.606
1180.99	38.6352
1183.88	26.9602
1186.78	16.1883
1189.67	5.3645
1192.56	6.94031
1195.45	3.33423
1198.35	5.76807
1201.24	3.28796
1204.13	0.776978
1207.03	2.0907
1209.92	0.84436
1212.81	1.2149
1215.7	3.98822
1218.6	0.328369
1221.49	8.62665
1224.38	3.74139
1227.28	5.62707
1230.17	0.716736
1233.06	7.42621
1235.95	3.68005
1238.85	4.75098
1241.74	7.62402
1244.63	3.82568
1247.52	9.32739
1250.42	5.37164
1253.31	1.10052
1256.2	3.49353
1259.09	3.77051
1261.99	5.76868
1264.88	9.63568
1267.77	11.0539
1270.66	13.1247
1273.56	9.18329
1276.45	11.654
1279.34	11.6267
1282.24	8.80475
1285.13	13.6751
1288.02	7.29486
1290.91	5.12048
1293.81	3.96442
1296.7	6.68329
1299.59	4.56091
1302.48	0.566406
