Measurement: Raman, 780 nm, unoriented, Raman Data Processed
Mineral: Svanbergite
Rruff sample: R050549
Ideal chemistry: SrAl_3_(SO_4_)(PO_4_)(OH)_6_
Locality: Horrsjoberg, Varmland, Sweden
Source: University of Arizona Mineral Museum
Description: Orange-brown crystals embedded in a matrix of pyrophyllite, quartz and kyanite
Measured chemistry: (Sr_0.85_Ca_0.15_)_Σ=1_Al_3.00_[(P_0.56_S_0.44_)_Σ=1_O_4_]_2_((OH)_5.88_(H_2_O)_0.12_)_Σ=6_ ; (OH) and H_2_O estimated by charge balance
Raman shift (cm-1)	intensity
150.713	0
153.606	5.2962
156.499	30.0726
159.391	57.7682
162.284	82.9868
165.177	126.895
168.069	199.754
170.962	310.357
173.855	483.529
176.747	600.832
179.64	380.245
182.533	175.293
185.425	90.1755
188.318	46.3003
191.211	23.8674
194.104	2.72568
196.996	3.34732
199.889	6.47623
202.782	4.06586
205.674	3.98566
208.567	19.9326
211.46	40.5083
214.352	62.911
217.245	95.643
220.138	140.75
223.03	189.694
225.923	248.739
228.816	310.101
231.709	381.826
234.601	461.827
237.494	508.207
240.387	487.019
243.279	404.695
246.172	324.256
249.065	259.605
251.958	208.18
254.85	166.493
257.743	135.731
260.636	113.943
263.528	101.918
266.421	94.5652
269.314	95.8868
272.207	95.935
275.099	95.6579
277.992	94.055
280.885	68.8337
283.777	35.2071
286.67	18.9382
289.563	14.576
292.455	13.2025
295.348	4.82346
298.241	0.901016
301.134	1.69536
304.026	1.93269
306.919	1.64708
309.812	0.462036
312.704	0.430222
315.597	0.289063
318.49	2.94978
321.382	4.80215
324.275	8.64436
327.168	10.0479
330.06	15.4876
332.953	21.8968
335.846	31.4911
338.739	37.2017
341.631	38.9864
344.524	39.216
347.417	43.7187
350.309	51.2559
353.202	55.4155
356.095	71.5498
358.987	89.8795
361.88	102.72
364.773	114.511
367.666	113.505
370.558	102.186
373.451	105.846
376.344	118.272
379.236	145.119
382.129	172.169
385.022	204.88
387.914	244.084
390.807	287.6
393.7	321.625
396.592	318.196
399.485	253.105
402.378	172.339
405.271	108.851
408.163	73.0421
411.056	48.2049
413.949	31.4994
416.841	19.0395
419.734	9.51053
422.627	5.85919
425.519	2.68396
428.412	1.34177
431.305	3.54479
434.198	2.2636
437.09	2.62109
439.983	1.90978
442.876	4.76723
445.768	12.5628
448.661	21.1206
451.554	31.04
454.447	43.611
457.339	63.6801
460.232	92.3662
463.125	128.45
466.017	165.603
468.91	208.168
471.803	245.601
474.695	291.01
477.588	322.275
480.481	340.693
483.373	305.616
486.266	242.956
489.159	169.232
492.052	115.183
494.944	76.6867
497.837	52.8056
500.73	40.1289
503.622	37.1283
506.515	47.3864
509.408	64.9103
512.301	78.8801
515.193	100.996
518.086	144.116
520.979	208.007
523.871	250.41
526.764	166.082
529.657	64.194
532.549	22.155
535.442	4.05692
538.335	0.980377
541.227	4.86476
544.12	3.63284
547.013	2.37512
549.906	2.58524
552.798	1.28908
555.691	6.26953
558.584	9.05502
561.476	17.3124
564.369	22.5711
567.262	29.5898
570.154	41.1619
573.047	47.3718
575.94	59.459
578.833	77.3059
581.725	94.4059
584.618	113.057
587.511	128.916
590.403	141.267
593.296	148.493
596.189	148.899
599.082	153.221
601.974	163.064
604.867	180.764
607.76	204.172
610.652	241.243
613.545	283.102
616.438	313.866
619.33	307.32
622.223	291.727
625.116	282.701
628.009	280.382
630.901	267.606
633.794	240.559
636.687	206.261
639.579	169.402
642.472	150.357
645.365	138.54
648.257	141.544
651.15	151.952
654.043	133.733
656.936	100.734
659.828	73.7036
662.721	54.6754
665.614	38.6017
668.506	25.3684
671.399	8.93619
674.292	1.10333
677.184	0.78064
680.077	1.90286
682.97	3.36179
685.862	0.623856
688.755	0.293106
691.648	1.81596
694.541	4.73929
697.433	4.1897
700.326	3.58116
703.219	5.37492
706.111	6.48885
709.004	4.91231
711.897	5.56639
714.789	4.12407
717.682	5.6429
720.575	4.40487
723.468	1.55597
726.36	2.56515
729.253	3.0317
732.146	2.92712
735.038	3.17593
737.931	0.837791
740.824	2.34229
743.716	0.875755
746.609	1.03524
749.502	0.24575
752.395	1.40212
755.287	0.818085
758.18	1.72741
761.073	1.89876
763.965	2.03519
766.858	0.497574
769.751	2.79028
772.644	2.15797
775.536	0.322556
778.429	1.71938
781.322	1.63634
784.214	0.000755
787.107	2.66409
790	1.51599
792.892	0.141144
795.785	1.46151
798.678	2.67358
801.571	0.964355
804.463	1.93761
807.356	2.06173
810.249	3.66779
813.141	3.55843
816.034	4.14241
818.927	4.6987
821.819	7.59905
824.712	5.05272
827.605	6.26675
830.497	7.14865
833.39	7.36544
836.283	7.79626
839.176	3.59686
842.068	6.53191
844.961	6.31937
847.854	2.38049
850.746	5.45418
853.639	4.41345
856.532	0.008759
859.424	2.25459
862.317	2.10476
865.21	1.8951
868.103	4.8875
870.995	6.84782
873.888	10.2835
876.781	10.4735
879.673	13.681
882.566	16.8584
885.459	20.4304
888.351	26.9502
891.244	29.5802
894.137	30.3401
897.03	30.5739
899.922	30.3831
902.815	26.9347
905.708	22.9308
908.6	17.8716
911.493	15.3807
914.386	10.2951
917.278	3.33243
920.171	0.948486
923.064	0.344391
925.957	3.6924
928.849	3.26905
931.742	4.17976
934.635	1.40057
937.527	1.0434
940.42	5.18273
943.313	7.1508
946.205	14.5162
949.098	22.7656
951.991	34.2261
954.884	45.5768
957.776	57.2223
960.669	66.5699
963.562	79.7935
966.454	95.3503
969.347	118.562
972.24	147.326
975.132	182.752
978.025	209.787
980.918	227.183
983.811	229.561
986.703	224.704
989.596	228.022
992.489	241.454
995.381	258.769
998.274	272.577
1001.17	284.217
1004.06	300.384
1006.95	346.086
1009.85	437.139
1012.74	585.945
1015.63	845.239
1018.52	1227.44
1021.42	1508.58
1024.31	1328.68
1027.2	851.39
1030.09	474.849
1032.99	269.132
1035.88	167.112
1038.77	109.54
1041.66	80.8203
1044.56	55.966
1047.45	35.5484
1050.34	23.6472
1053.23	8.29514
1056.13	0.717407
1059.02	6.01682
1061.91	6.5302
1064.81	4.91492
1067.7	1.10915
1070.59	6.05283
1073.48	17.0266
1076.38	26.4788
1079.27	38.378
1082.16	51.4841
1085.06	64.266
1087.95	71.0327
1090.84	77.3306
1093.73	81.0716
1096.63	75.6029
1099.52	73.4945
1102.41	68.725
1105.3	55.0925
1108.2	46.1712
1111.09	38.2763
1113.98	28.027
1116.88	21.6435
1119.77	15.4485
1122.66	9.71495
1125.55	3.30095
1128.45	4.15462
1131.34	5.18706
1134.23	6.19589
1137.12	6.25709
1140.02	6.89265
1142.91	7.05924
1145.8	9.07439
1148.69	12.4627
1151.59	13.6296
1154.48	14.8565
1157.37	21.4146
1160.27	23.0459
1163.16	22.6571
1166.05	20.6342
1168.94	17.5154
1171.84	15.7301
1174.73	14.4338
1177.62	9.13145
1180.51	6.53084
1183.41	2.59816
1186.3	1.30609
1189.19	1.57707
1192.09	2.07752
1194.98	0.156097
1197.87	0.054733
1200.76	3.62349
1203.66	0.224121
1206.55	0.757462
1209.44	1.69034
1212.33	0.269485
1215.23	0.151443
1218.12	2.157
1221.01	3.1855
1223.9	6.25569
1226.8	15.1313
1229.69	16.4924
1232.58	20.4909
1235.47	19.7116
1238.37	16.9147
1241.26	14.0079
1244.15	12.9675
1247.05	12.8661
1249.94	14.8498
1252.83	18.88
1255.72	21.2698
1258.62	23.6399
1261.51	29.017
1264.4	24.7067
1267.3	20.2158
1270.19	17.537
1273.08	10.3316
1275.97	7.18747
1278.87	4.51776
1281.76	0.39006
1284.65	0.918457
