Measurement: Raman, 532 nm, unoriented, Raman Data Processed
Mineral: Svanbergite
Rruff sample: R060501
Ideal chemistry: SrAl_3_(SO_4_)(PO_4_)(OH)_6_
Locality: Dover mine, near Hawthorne, Mineral County, Nevada, USA
Source: Michael Scott
Description: Brownish-orange coarsely granular
Measured chemistry: (Sr_0.63_Ca_0.33_Ba_0.04_)_Î£=1_Al_3.00_[(P_0.50_S_0.50_)O_4_]_2_(OH)_6_
Raman shift (cm-1)	intensity
90.2653	0
93.6401	193.751
97.0149	128.187
100.39	25.605
103.765	13.6792
107.139	54.605
110.514	157.845
113.889	213.739
117.264	287.338
120.639	259.027
124.013	295.721
127.388	289.728
130.763	267.548
134.138	175.545
137.513	100.498
140.888	126.669
144.262	68.8525
147.637	23.2036
151.012	18.5942
154.387	17.585
157.762	28.5659
161.137	147.382
164.511	318.412
167.886	519.851
171.261	929.635
174.636	1748.21
178.011	2780.7
181.385	1900.12
184.76	734.997
188.135	359.862
191.51	198.173
194.885	94.2856
198.26	57.375
201.634	25.293
205.009	20.4238
208.384	53.2085
211.759	98.9126
215.133	212.838
218.508	317.47
221.883	508.409
225.258	767.551
228.633	1104.88
232.008	1507.07
235.382	2012.83
238.757	2517.36
242.132	2710.62
245.507	2271.77
248.882	1741.67
252.256	1348.09
255.631	1026.18
259.006	776.581
262.381	615.305
265.756	517.47
269.131	435.039
272.505	423.291
275.88	394.329
279.255	372.783
282.63	270.645
286.005	109.075
289.38	39.625
292.754	19.623
296.129	18.5767
299.504	27.8848
302.879	27.9639
306.254	18.5977
309.628	14.5127
313.003	33.6265
316.378	17.0923
319.753	3.54346
323.128	15.5151
326.502	42.9097
329.877	83.4346
333.252	103.682
336.627	160.366
340.002	202.815
343.377	223.767
346.751	230.363
350.126	242.992
353.501	268.809
356.876	331.067
360.251	397.566
363.625	538.436
367	634.649
370.375	513.195
373.75	391.507
377.125	371.159
380.5	413.412
383.874	520.196
387.249	717.803
390.624	987.237
393.999	1409.17
397.374	1945.85
400.748	2089.34
404.123	1433.23
407.498	713.905
410.873	341.292
414.248	180.167
417.623	136.442
420.997	97.0542
424.372	48.1035
427.747	14.4521
431.122	16.0713
434.497	22.4971
437.872	8.78516
441.246	23.1582
444.621	25.2266
447.996	66.665
451.371	117.774
454.745	221.659
458.12	390.188
461.495	659.13
464.87	992.323
468.245	1129.44
471.62	1203.77
474.994	1403.42
478.369	1658.08
481.744	1801.42
485.119	1625.46
488.494	1166.76
491.868	717.038
495.243	411.859
498.618	243.33
501.993	150.347
505.368	116.777
508.743	124.867
512.117	202.046
515.492	310.205
518.867	468.772
522.242	766.323
525.617	1255.31
528.991	1574.88
532.366	849.197
535.741	240.782
539.116	57.0244
542.491	4.30859
545.866	2.83789
549.24	8.26953
552.615	6.74512
555.99	28.4316
559.365	2.7793
562.74	33.3682
566.115	68.3564
569.489	89.2471
572.864	162.38
576.239	259.747
579.614	387.118
582.989	522.05
586.363	711.174
589.738	803.639
593.113	831.476
596.488	754.035
599.863	657.026
603.237	643.27
606.612	698.422
609.987	853.842
613.362	1032.06
616.737	1258.55
620.112	1396.72
623.486	1426.96
626.861	1478.76
630.236	1512.12
633.611	1434.23
636.986	1226.32
640.361	986.289
643.735	823.136
647.11	765.183
650.485	767.37
653.86	759.501
657.235	568.116
660.609	371.474
663.984	250.057
667.359	175.81
670.734	103.391
674.109	43.0478
677.484	8.52148
680.858	7.27539
684.233	15.6201
687.608	19.6162
690.983	11.7529
694.357	4.24707
697.732	20.7969
701.107	23.4736
704.482	33.3565
707.857	49.8623
711.232	53.3018
714.606	49.3779
717.981	56.4551
721.356	74.4346
724.731	92.0186
728.106	107.776
731.481	75.374
734.855	99.6621
738.23	109.843
741.605	89.7607
744.98	90.291
748.355	105.674
751.729	117.594
755.104	80.7647
758.479	70.665
761.854	58.9922
765.229	49.501
768.604	43.9141
771.978	46.1602
775.353	34.1338
778.728	34.5967
782.103	21.6914
785.478	51.0225
788.852	35.1367
792.227	24.7832
795.602	12.7568
798.977	5.44043
802.352	4.33106
805.726	25.8604
809.101	33.3906
812.476	21.3877
815.851	22.2979
819.226	43.7744
822.601	41.1465
825.975	12.8086
829.35	4.88184
832.725	2.81055
836.1	2.6875
839.475	33.4316
842.85	48.6553
846.224	49.3857
849.599	3.36719
852.974	7.89062
856.349	10.3428
859.724	24.5381
863.098	12.7129
866.473	1.89062
869.848	1.74121
873.223	20.415
876.598	32.5547
879.972	35.1074
883.347	52.0547
886.722	63.7275
890.097	94.1738
893.472	107.553
896.847	116.417
900.221	112.298
903.596	97.9424
906.971	98.2441
910.346	56.583
913.721	34.0107
917.096	27.5625
920.47	11.6953
923.845	27.0762
927.22	26.3145
930.595	8.82617
933.97	14.8643
937.344	36.5039
940.719	12.4268
944.094	18.0664
947.469	62.9346
950.844	141.244
954.218	174.833
957.593	258.926
960.968	346.971
964.343	492.055
967.718	639.758
971.092	756.648
974.467	923.907
977.842	1131.97
981.217	1328.15
984.592	1420.08
987.967	1340.03
991.341	1213.01
994.716	1181.03
998.091	1278.25
1001.47	1399.62
1004.84	1431.05
1008.22	1405.91
1011.59	1623.44
1014.97	2400.36
1018.34	4243.25
1021.72	7286.66
1025.09	9588.51
1028.46	8095.09
1031.84	4697.43
1035.21	2372.38
1038.59	1211.7
1041.96	673.865
1045.34	379.797
1048.71	185.182
1052.09	98.7266
1055.46	19.1045
1058.84	35.7695
1062.21	41.0459
1065.59	13.4287
1068.96	42.8828
1072.34	98.7676
1075.71	182.666
1079.09	294.455
1082.46	398.549
1085.84	517.864
1089.21	571.106
1092.59	598.693
1095.96	594.187
1099.34	549.964
1102.71	482.045
1106.09	409.295
1109.46	344.196
1112.84	292.392
1116.21	215.183
1119.58	160.255
1122.96	101.8
1126.33	47.7012
1129.71	0.477539
1133.08	1.26562
1136.46	0.024414
1139.83	7.00293
1143.21	5.49707
1146.58	9.21875
1149.96	4.47168
1153.33	45.542
1156.71	68.0049
1160.08	102.94
1163.46	118.489
1166.83	154.439
1170.21	190.996
1173.58	201.706
1176.96	222.418
1180.33	198.785
1183.71	149.019
1187.08	141.221
1190.46	89.4981
1193.83	55.6768
1197.2	36.5107
1200.58	2.72949
1203.95	0.939453
1207.33	0.016602
1210.7	20.418
1214.08	1.2168
1217.45	9.47852
1220.83	23.5273
1224.2	21.9443
1227.58	8.05762
1230.95	13.9004
1234.33	26.0215
1237.7	13.6084
1241.08	32.9355
1244.45	45.6221
1247.83	28.1836
1251.2	65.082
1254.58	37.456
1257.95	54.7109
1261.33	46.0322
1264.7	16.3955
1268.08	21.1211
1271.45	1.28613
1274.83	16.957
1278.2	23.3174
1281.58	28.9795
1284.95	19.0928
1288.33	38.9092
1291.7	31.0459
1295.08	35.6318
1298.45	3.34961
1301.83	0
