Measurement: Raman, 532 nm, unoriented, Raman Data Processed
Mineral: Swedenborgite
Rruff sample: R060486
Ideal chemistry: NaBe_4_Sb^5+^O_7_
Locality: Langban, Filipstad, Varmland, Sweden
Source: Michael Scott
Description: Colorless glassy fragment in center of the photo
Measured chemistry: (Na_0.94_Ca_0.03_[box]_0.03_)_Î£=1_Be_4.00_Sb^5+^_1.00_O_7_; trace amounts of As; Be estimated by difference
Raman shift (cm-1)	intensity
90.2653	0
93.6401	22.1643
97.0149	17.5116
100.39	12.5003
103.765	2.35199
107.139	0.295715
110.514	19.2211
113.889	14.3116
117.264	82.4129
120.639	31.0577
124.013	19.2535
127.388	21.4274
130.763	28.4477
134.138	35.4245
137.513	41.0518
140.888	64.0424
144.262	90.3765
147.637	164.01
151.012	187.591
154.387	249.762
157.762	181.745
161.137	83.8753
164.511	45.2222
167.886	27.2821
171.261	22.5861
174.636	25.2392
178.011	24.5617
181.385	21.5873
184.76	25.4197
188.135	17.1651
191.51	8.07788
194.885	6.80698
198.26	9.6376
201.634	9.90628
205.009	17.1175
208.384	22.9096
211.759	61.5856
215.133	108.966
218.508	16.8318
221.883	6.3226
225.258	0.327637
228.633	3.22845
232.008	1.07288
235.382	0.027191
238.757	1.05194
242.132	0.355408
245.507	0.700012
248.882	2.14511
252.256	1.13654
255.631	5.70139
259.006	11.9447
262.381	17.9808
265.756	22.2787
269.131	29.8013
272.505	44.5205
275.88	58.0504
279.255	82.9977
282.63	105.484
286.005	107.459
289.38	81.5758
292.754	65.8954
296.129	69.0958
299.504	80.0222
302.879	144.274
306.254	202.426
309.628	283.591
313.003	476.912
316.378	1038.44
319.753	1969.34
323.128	598.817
326.502	166.573
329.877	80.0773
333.252	62.6204
336.627	74.0002
340.002	57.1303
343.377	63.5544
346.751	130.264
350.126	214.625
353.501	37.1766
356.876	14.5503
360.251	7.30426
363.625	3.29938
367	0.440002
370.375	2.53723
373.75	1.06525
377.125	3.8559
380.5	5.22266
383.874	16.0801
387.249	24.8909
390.624	37.5164
393.999	81.8873
397.374	192.587
400.748	232.353
404.123	49.615
407.498	25.5632
410.873	30.9728
414.248	62.8062
417.623	96.1393
420.997	138.288
424.372	282.396
427.747	726.842
431.122	520.292
434.497	106.395
437.872	34.7698
441.246	11.8491
444.621	3.74127
447.996	0.786194
451.371	4.24042
454.745	1.42297
458.12	0.056335
461.495	2.33496
464.87	8.92651
468.245	11.801
471.62	6.67371
474.994	4.29218
478.369	4.71258
481.744	4.89679
485.119	6.08734
488.494	7.07806
491.868	9.80139
495.243	10.7096
498.618	5.4256
501.993	9.63251
505.368	6.57361
508.743	7.56525
512.117	4.94373
515.492	4.35193
518.867	2.85651
522.242	2.79974
525.617	4.70953
528.991	2.12433
532.366	4.86041
535.741	2.05121
539.116	1.70599
542.491	2.13068
545.866	1.05292
549.24	0.189636
552.615	3.48517
555.99	2.30011
559.365	14.4062
562.74	46.6152
566.115	80.032
569.489	163.993
572.864	322.224
576.239	558.297
579.614	312.783
582.989	160.59
586.363	183.785
589.738	277.498
593.113	498.73
596.488	792.865
599.863	547.838
603.237	218.289
606.612	114.156
609.987	74.0493
613.362	56.1971
616.737	48.5177
620.112	60.0282
623.486	85.7753
626.861	172.349
630.236	418.7
633.611	653.654
636.986	1309.96
640.361	2843.18
643.735	6452.89
647.11	846.662
650.485	162.918
653.86	52.8412
657.235	15.3384
660.609	1.41333
663.984	4.59717
667.359	22.1908
670.734	25.7102
674.109	2.23047
677.484	20.9453
680.858	25.4663
684.233	15.5068
687.608	1.83032
690.983	44.6538
694.357	112.166
697.732	229.503
701.107	445.638
704.482	837.459
707.857	1088.16
711.232	673.104
714.606	360.86
717.981	199.24
721.356	105.516
724.731	76.5563
728.106	84.8547
731.481	162.373
734.855	325.544
738.23	464.73
741.605	292.228
744.98	104.968
748.355	64.174
751.729	154.241
755.104	370.3
758.479	737.394
761.854	1380.36
765.229	2527.64
768.604	3538.59
771.978	2276.52
775.353	1027.04
778.728	645.8
782.103	849.519
785.478	1576.63
788.852	2807.11
792.227	5046.61
795.602	8553.08
798.977	8650.57
802.352	4150.98
805.726	1901.51
809.101	998.385
812.476	537.915
815.851	296.275
819.226	172.743
822.601	101.351
825.975	68.5946
829.35	34.2484
832.725	18.433
836.1	5.01233
839.475	0.22522
842.85	2.32935
846.224	4.46802
849.599	10.2948
852.974	8.10449
856.349	2.10107
859.724	6.14233
863.098	2.65564
866.473	2.19934
869.848	2.77551
873.223	8.24854
876.598	14.6194
879.972	13.3436
883.347	15.9634
886.722	25.243
890.097	42.5346
893.472	66.7457
896.847	109.323
900.221	192.87
903.596	323.226
906.971	503.845
910.346	455.044
913.721	259.454
917.096	152.636
920.47	103.59
923.845	77.2601
927.22	61.9346
930.595	46.3284
933.97	41.9746
937.344	29.4431
940.719	26.6337
944.094	24.9165
947.469	16.3033
950.844	11.7904
954.218	15.5215
957.593	0.716309
960.968	0.552734
964.343	12.7795
967.718	20.116
971.092	11.938
974.467	12.4795
977.842	8.96118
981.217	11.542
984.592	16.6638
987.967	21.9851
991.341	36.0723
994.716	25.1841
998.091	23.929
1001.47	23.8662
1004.84	13.7271
1008.22	11.1812
1011.59	13.4316
1014.97	17.227
1018.34	2.72778
1021.72	6.21265
1025.09	6.08276
1028.46	4.41479
1031.84	0.069336
1035.21	4.84082
1038.59	6.6355
1041.96	7.11865
1045.34	13.6411
1048.71	3.73462
1052.09	4.2959
1055.46	0.748779
1058.84	5.66211
1062.21	0.434814
1065.59	0.672119
1068.96	0.876465
1072.34	5.02124
1075.71	12.7483
1079.09	39.1963
1082.46	87.8467
1085.84	192.961
1089.21	343.095
1092.59	158.686
1095.96	47.8726
1099.34	45.8633
1102.71	36.9614
1106.09	15.2344
1109.46	15.1348
1112.84	12.7573
1116.21	6.63672
1119.58	8.62915
1122.96	8.58496
1126.33	2.28638
1129.71	6.14844
1133.08	1.07397
1136.46	1.62085
1139.83	10.6099
1143.21	7.84717
1146.58	7.65625
1149.96	9.52319
1153.33	17.0998
1156.71	13.8757
1160.08	12.3042
1163.46	0.149902
1166.83	2.61768
1170.21	7.52197
1173.58	13.5293
1176.96	11.1482
1180.33	19.7356
1183.71	18.9331
1187.08	18.1409
1190.46	13.4856
1193.83	14.5071
1197.2	16.7942
1200.58	3.28784
1203.95	12.2036
1207.33	7.89697
1210.7	18.9778
1214.08	14.6396
1217.45	4.09497
1220.83	9.36841
1224.2	8.02368
1227.58	2.83423
1230.95	3.59937
1234.33	2.93384
1237.7	5.63721
1241.08	12.9993
1244.45	15.928
1247.83	5.44531
1251.2	15.0557
1254.58	11.5825
1257.95	13.4558
1261.33	12.6655
1264.7	7.02856
1268.08	5.073
1271.45	15.5666
1274.83	12.9919
1278.2	0.666504
1281.58	12.8044
1284.95	11.4273
1288.33	12.5828
1291.7	14.1909
1295.08	15.001
1298.45	8.88135
1301.83	0
