Measurement: Raman, 785 nm, unoriented, Raman Data Processed
Mineral: Sylvanite
Rruff sample: R060134
Ideal chemistry: AgAuTe_4_
Locality: Cripple Creek, Teller County, Colorado, USA
Source: University of Arizona Mineral Museum
Description: Silver thick prismatic crystals with gold tarnish associated with quartz
Measured chemistry: (Au_1.89_Ag_0.11_)_Î£=2_Te_4.00_
Raman shift (cm-1)	intensity
122.812	0
125.704	2752.34
128.597	12287.5
131.49	19612.6
134.382	14432
137.275	7378.15
140.168	5187.55
143.06	5797.1
145.953	6883.23
148.846	9155.12
151.738	9266.95
154.631	9847.78
157.524	9100.59
160.417	7315.69
163.309	5961.86
166.202	3881.44
169.095	2580.2
171.987	2248.59
174.88	1519.79
177.773	1001.68
180.665	540.764
183.558	176.131
186.451	21.423
189.344	78.553
192.236	64.482
195.129	247.095
198.022	623.72
200.914	724.207
203.807	671.284
206.7	447.284
209.592	76.571
212.485	276.722
215.378	329.551
218.271	364.654
221.163	288.175
224.056	152.043
226.949	11.158
229.841	266.467
232.734	626.162
235.627	1014.5
238.52	1395.55
241.412	1751.19
244.305	1874.86
247.198	1792.98
250.09	1556.25
252.983	1381.27
255.876	1297.75
258.768	1405.5
261.661	1198.01
264.554	1142.08
267.447	1079.43
270.339	1018.15
273.232	879.312
276.125	717.767
279.017	633.268
281.91	515.066
284.803	279.144
287.695	139.706
290.588	54.087
293.481	91.364
296.373	224.242
299.266	422.688
302.159	748.988
305.052	1168.43
307.944	1509.42
310.837	1758.83
313.73	1937.64
316.622	1882.52
319.515	1690.63
322.408	1363.03
325.3	1000.71
328.193	899.6
331.086	823.209
333.978	652.516
336.871	602.218
339.764	402.228
342.657	358.354
345.549	322.359
348.442	273.534
351.335	190.056
354.227	126.501
357.12	101.398
360.013	3.777
362.905	20.682
365.798	29.903
368.691	66.386
371.584	63.287
374.476	166.428
377.369	199.128
380.262	167.436
383.154	155.743
386.047	134.317
388.94	71.782
391.832	85.381
394.725	150.896
397.618	90.949
400.511	63.164
403.403	67.84
406.296	63.266
409.189	77.833
412.081	78.622
414.974	77.68
417.867	104.034
420.759	98.399
423.652	55.385
426.545	40.339
429.438	0.347
432.33	1.062
435.223	16.688
438.116	5.637
441.008	4.054
443.901	55.657
446.794	80.785
449.686	90.432
452.579	27.665
455.472	52.021
458.365	19.168
461.257	78.117
464.15	72.276
467.043	43.186
469.935	44.607
472.828	29.694
475.721	1.232
478.613	23.813
481.506	24.905
484.399	21.168
487.292	97.573
490.184	83.969
493.077	66.998
495.97	3.626
498.862	7.551
501.755	12.191
504.648	47.417
507.54	20.398
510.433	28.238
513.326	21.748
516.219	36.304
519.111	32.381
522.004	56.98
524.897	78.455
527.789	60.583
530.682	74.969
533.575	62.276
536.468	62.875
539.36	65.834
542.253	74.061
545.146	83.115
548.038	84.58
550.931	71.687
553.824	64.71
556.716	41.604
559.609	67.144
562.502	60.296
565.394	30.293
568.287	51.331
571.18	20.861
574.073	31.255
576.965	7.386
579.858	36.403
582.751	42.037
585.643	44.85
588.536	60.343
591.429	52.25
594.321	37.388
597.214	20.284
600.107	71.487
603	81.221
605.892	54.094
608.785	21.305
611.678	69.669
614.57	93.815
617.463	0.076
620.356	83.67
623.248	62.998
626.141	9.431
629.034	16.46
631.927	41.859
634.819	49.867
637.712	92.884
640.605	61.058
643.497	23.724
646.39	74.877
649.283	50.784
652.175	42.771
655.068	54.629
657.961	65.419
660.854	105.435
663.746	60.763
666.639	4.136
669.532	52.807
672.424	79.512
675.317	91.193
678.21	68.956
681.102	112.978
683.995	51.586
686.888	35.321
689.781	131.025
692.673	135.995
695.566	61.591
698.459	126.038
701.351	39.346
704.244	61.163
707.137	63.783
710.029	58.981
712.922	93.782
715.815	98.366
718.708	63.354
721.6	17.119
724.493	112.075
727.386	139.484
730.278	66.155
733.171	94.042
736.064	91.649
738.956	101.877
741.849	111.733
744.742	31.782
747.635	102.56
750.527	104.763
753.42	82.856
756.313	100.864
759.205	70.907
762.098	91.576
764.991	58.332
767.883	84.894
770.776	75.241
773.669	70.884
776.562	33.828
779.454	6.469
782.347	32.42
785.24	20.414
788.132	40.963
791.025	55.878
793.918	90.981
796.81	85.562
799.703	119.922
802.596	10.88
805.489	13.538
808.381	47.113
811.274	11.465
814.167	103.958
817.059	43.867
819.952	43.479
822.845	37.836
825.737	30.57
828.63	55.89
831.523	58.604
834.416	3.777
837.308	68.478
840.201	15.895
843.094	12.623
845.986	51.216
848.879	3.658
851.772	34.961
854.664	73.829
857.557	93.168
860.45	98.875
863.343	99.34
866.235	47.952
869.128	33.193
872.021	28.404
874.913	42.335
877.806	83.353
880.699	71.173
883.591	74.52
886.484	53.972
889.377	34.413
892.269	37.282
895.162	18.852
898.055	25.735
900.948	8.392
903.84	17.272
906.733	41.162
909.626	139.399
912.518	55.592
915.411	49.642
918.304	54.663
921.196	65.145
924.089	35.002
926.982	66.573
929.875	66.293
932.767	42.454
935.66	87.755
938.553	98.705
941.445	64.766
944.338	11.633
947.231	59.709
950.123	52.813
953.016	48.078
955.909	46.506
958.802	17.059
961.694	151.648
964.587	39.222
967.48	41.751
970.372	60.624
973.265	8.689
976.158	36.29
979.05	57.916
981.943	52.83
984.836	70.87
987.729	42.923
990.621	29.824
993.514	2.6
996.407	18.408
999.299	60.005
1002.19	21.61
1005.09	52.528
1007.98	70.056
1010.87	0.742
1013.76	3.147
1016.65	34.666
1019.55	70.924
1022.44	61.362
1025.33	1.856
1028.23	27.594
1031.12	109.94
1034.01	16.565
1036.9	69.874
1039.8	122.128
1042.69	90.993
1045.58	119.333
1048.47	64.659
1051.37	88.485
1054.26	39.251
1057.15	83.349
1060.05	57.645
1062.94	22.656
1065.83	36.813
1068.72	68.357
1071.62	54.777
1074.51	4.883
1077.4	38.583
1080.3	66.31
1083.19	5.973
1086.08	61.72
1088.97	65.701
1091.87	34.534
1094.76	40.736
1097.65	43.918
1100.54	69.796
1103.44	87.997
1106.33	72.186
1109.22	53.229
1112.12	39.023
1115.01	12.646
1117.9	63.373
1120.79	15.44
1123.68	3.873
1126.58	15.266
1129.47	119.377
1132.36	40.867
1135.26	74.564
1138.15	54.165
1141.04	23.846
1143.93	44.682
1146.83	80.024
1149.72	20.488
1152.61	29.397
1155.51	37.766
1158.4	31.917
1161.29	106.542
1164.18	6.623
1167.08	84.908
1169.97	24.403
1172.86	59.302
1175.75	72.942
1178.65	65.582
1181.54	111.406
1184.43	3.856
1187.33	32.848
1190.22	21.234
1193.11	54.765
1196	110.333
1198.9	61.108
1201.79	42.577
1204.68	31.663
1207.57	47.134
1210.47	55.877
1213.36	31.794
1216.25	88.484
1219.14	76.74
1222.04	33.419
1224.93	102.573
1227.82	82.795
1230.71	51.125
1233.61	50.513
1236.5	78.003
1239.39	6.091
1242.29	88.415
1245.18	137.862
1248.07	69.449
1250.96	60.281
1253.86	17.688
1256.75	75.111
1259.64	79.419
1262.54	44.893
1265.43	35.084
