Measurement: Raman, 532 nm, unoriented, Raman Data Processed
Mineral: Symplesite
Rruff sample: R130513
Ideal chemistry: Fe^2+^_3_(As^5+^O_4_)_2_8H_2_O
Locality: Mapimi, Durango, Mexico
Source: Rock Currier
Description: Dark green thick blades, 2-fold twin around [1 -1 0]
Raman shift (cm-1)	intensity
199.766	0
202.659	0.350204
205.552	3.60179
208.445	7.83387
211.337	10.5939
214.23	13.4475
217.123	17.1335
220.015	19.8767
222.908	24.2711
225.801	26.2731
228.693	29.0931
231.586	29.8551
234.479	31.0031
237.371	31.1179
240.264	31.2509
243.157	29.5451
246.05	29.1585
248.942	27.4679
251.835	27.1456
254.728	27.4049
257.62	30.6998
260.513	32.7665
263.406	33.8787
266.298	34.9258
269.191	33.2387
272.084	29.0133
274.977	27.4538
277.869	24.5131
280.762	21.9004
283.655	19.6015
286.547	17.9302
289.44	14.1487
292.333	13.52
295.226	9.75787
298.118	9.06746
301.011	7.20387
303.904	5.15494
306.796	2.74613
309.689	0.091202
312.582	0.963394
315.474	1.21502
318.367	0.821838
321.26	0.871002
324.152	1.0414
327.045	0.496574
329.938	2.2726
332.831	1.41921
335.723	2.40158
338.616	3.8246
341.509	5.31821
344.401	6.0104
347.294	7.7214
350.187	9.02843
353.079	10.1668
355.972	11.7509
358.865	15.3255
361.758	17.3521
364.65	20.2659
367.543	21.6376
370.436	23.6766
373.328	25.7077
376.221	25.1341
379.114	24.9112
382.007	23.8544
384.899	21.6467
387.792	19.865
390.685	15.5443
393.577	11.8083
396.47	7.76417
399.363	5.93715
402.255	2.35815
405.148	0.411102
408.041	0.777054
410.933	1.9444
413.826	1.55893
416.719	0.193733
419.612	0.090271
422.504	0.967087
425.397	3.8519
428.29	5.41945
431.182	7.04903
434.075	9.92562
436.968	11.8543
439.861	13.0935
442.753	16.7327
445.646	17.5495
448.539	18.3154
451.431	21.1629
454.324	21.9292
457.217	26.2632
460.109	29.8494
463.002	35.2905
465.895	42.6361
468.788	49.9616
471.68	59.1071
474.573	63.261
477.466	60.619
480.358	49.0025
483.251	36.243
486.144	27.1397
489.036	21.8195
491.929	18.9499
494.822	16.0998
497.714	16.2586
500.607	16.1125
503.5	18.8675
506.393	18.5527
509.285	20.9836
512.178	22.4481
515.071	22.1386
517.963	22.1344
520.856	19.8977
523.749	18.2156
526.641	16.182
529.534	14.3589
532.427	12.4428
535.32	11.5057
538.212	11.3056
541.105	11.5158
543.998	9.37032
546.89	8.58902
549.783	9.29215
552.676	9.12753
555.568	8.45465
558.461	7.15688
561.354	5.18697
564.247	4.38499
567.139	2.98838
570.032	2.21867
572.925	0.825436
575.817	1.15909
578.71	0.040329
581.603	0.493561
584.495	0.543098
587.388	0.265583
590.281	1.21944
593.174	0.417053
596.066	0.349373
598.959	0.655125
601.852	0.540634
604.744	0.621365
607.637	1.04408
610.53	1.54895
613.423	1.47844
616.315	2.30232
619.208	2.56914
622.101	2.81308
624.993	3.60827
627.886	3.53303
630.779	4.69511
633.671	4.70493
636.564	5.21859
639.457	5.96321
642.35	5.33721
645.242	6.01955
648.135	5.56398
651.028	6.57757
653.92	6.27129
656.813	6.27904
659.706	5.93516
662.598	6.20329
665.491	6.62557
668.384	5.98583
671.277	5.98629
674.169	5.46513
677.062	5.65003
679.955	4.63961
682.847	5.19223
685.74	4.20452
688.633	3.50302
691.525	2.82361
694.418	2.63261
697.311	2.4268
700.203	1.43985
703.096	0.51622
705.989	0.784668
708.882	0.437653
711.774	0.879581
714.667	0.169712
717.56	0.751564
720.452	0.892025
723.345	0.860786
726.238	0.955791
729.13	0.639004
732.023	0.906227
734.916	0.161182
737.809	0.150806
740.701	1.95889
743.594	2.6142
746.487	4.23982
749.379	6.55328
752.272	8.29631
755.165	10.205
758.058	12.6407
760.95	14.4129
763.843	16.4567
766.736	17.8551
769.628	19.4696
772.521	21.3526
775.414	24.0026
778.306	26.4929
781.199	28.0342
784.092	31.0082
786.985	33.5842
789.877	34.7429
792.77	34.8487
795.663	34.55
798.555	32.2451
801.448	31.7094
804.341	29.1277
807.233	27.3103
810.126	24.8968
813.019	22.1073
815.912	20.6263
818.804	18.7862
821.697	19.4651
824.59	20.4067
827.482	23.4584
830.375	25.6899
833.268	31.3277
836.16	36.0787
839.053	40.2209
841.946	42.2113
844.838	44.1639
847.731	42.8957
850.624	41.1134
853.517	38.016
856.409	35.8671
859.302	32.4533
862.195	29.8239
865.087	26.6597
867.98	24.6937
870.873	23.1673
873.765	21.4154
876.658	19.7525
879.551	18.9841
882.444	16.3909
885.336	13.4618
888.229	10.5717
891.122	7.19318
894.014	4.59231
896.907	3.5996
899.8	1.43816
902.692	0.589081
905.585	0.426949
908.478	0.72385
911.371	0.573318
914.263	0.918087
917.156	0.764702
920.049	1.26028
922.941	1.30194
925.834	0.499908
928.727	0.588993
931.62	1.06377
934.512	0.11512
937.405	0.315746
940.298	0.796936
943.19	0.308113
946.083	1.14366
948.976	1.99703
951.868	2.04239
954.761	2.43408
957.654	1.99378
960.547	3.43577
963.439	3.22399
966.332	3.69144
969.225	4.39314
972.117	4.90393
975.01	4.4276
977.903	5.21331
980.795	4.4951
983.688	4.99517
986.581	4.72025
989.473	4.756
992.366	4.30949
995.259	5.28799
998.152	4.51235
1001.04	3.81675
1003.94	3.81136
1006.83	3.68705
1009.72	3.56177
1012.62	2.7199
1015.51	3.35896
1018.4	3.07227
1021.29	1.75724
1024.19	1.92268
1027.08	2.08479
1029.97	1.80581
1032.86	2.26733
1035.76	1.88651
1038.65	1.77593
1041.54	2.3058
1044.43	2.01345
1047.33	1.51699
1050.22	1.47043
1053.11	1.6376
1056.01	1.03649
1058.9	0.976593
1061.79	0.512306
1064.68	0.73687
1067.58	1.16123
1070.47	0.542011
1073.36	1.3568
1076.26	0.738365
1079.15	0.07172
1082.04	0.660545
1084.93	0.464947
1087.83	0.280243
1090.72	0.687325
1093.61	0.747631
1096.5	0.042229
1099.4	0.889835
1102.29	0.589973
1105.18	0.224266
1108.07	0.377586
1110.97	0.583496
1113.86	0.533665
1116.75	1.01514
1119.64	0.839138
1122.54	1.02813
1125.43	0.546314
1128.32	1.11521
1131.22	0.080616
1134.11	0.439362
1137	0.759228
1139.89	0.285755
1142.79	0.560822
1145.68	0.029018
1148.57	0.627232
1151.46	0.156303
1154.36	1.05184
1157.25	0.41045
1160.14	0.277885
1163.04	0.533905
1165.93	0.272556
1168.82	0.329416
1171.71	0.871384
1174.61	0.370159
1177.5	0.664524
1180.39	0.753899
1183.28	0.894436
1186.18	0.613165
1189.07	0.987648
1191.96	0.759722
1194.86	0.93981
1197.75	0.688169
1200.64	0.588923
1203.53	1.24189
1206.43	1.28054
1209.32	0.984312
1212.21	1.54522
1215.1	1.18229
1218	0.936306
1220.89	0.721962
1223.78	0.538506
1226.67	0.852695
1229.57	0.210897
1232.46	0.570538
1235.35	0.684177
1238.25	0.848209
1241.14	0.729271
1244.03	0.497303
1246.92	1.30209
1249.82	0.138515
1252.71	0.326954
1255.6	0.946552
1258.49	0.839703
1261.39	0.967003
1264.28	0.858963
1267.17	0.237156
1270.07	0.126717
1272.96	1.70913
1275.85	0.938091
1278.74	0.968143
1281.64	0.588398
1284.53	0.791344
1287.42	0.648426
1290.31	0.871105
1293.21	0.642094
1296.1	0.788433
1298.99	0.600208
1301.88	0
