Measurement: Raman, 532 nm, unoriented, Raman Data Processed
Mineral: Synchysite-(Ce)
Rruff sample: R060210
Ideal chemistry: CaCe(CO_3_)_2_F
Locality: Mont Saint-Hilaire, Rouville County, Quebec, Canada
Source: Royal Ontario Museum
Description: Yellowish-brown thin pseudohexagonal tablets
Measured chemistry: Ca_1.00_(Ce_0.55_(La,Pr)_0.28_Nd_0.15_Y_0.02_)(CO_3_)_2_F_1.00_
Raman shift (cm-1)	intensity
181.482	0
184.374	7.65234
187.267	31.1162
190.16	80.6953
193.052	176.58
195.945	247.276
198.838	233.662
201.731	142.531
204.623	143.397
207.516	15.1621
210.409	9.36328
213.301	84.4775
216.194	88.9775
219.087	238.899
221.979	204.156
224.872	536.172
227.765	819.684
230.657	1174.28
233.55	1498.19
236.443	1757.05
239.336	2212.01
242.228	2384.59
245.121	2382.53
248.014	2359.34
250.906	2365.83
253.799	2200.86
256.692	1984.53
259.584	1859.71
262.477	1743.97
265.37	1633.16
268.263	1607.46
271.155	1473.48
274.048	1339.83
276.941	1134.31
279.833	979.039
282.726	881.066
285.619	765.184
288.512	687.426
291.404	764.158
294.297	748.19
297.19	669.042
300.082	700.493
302.975	628.062
305.868	610.061
308.76	581.855
311.653	432.269
314.546	277.92
317.438	183.024
320.331	145.136
323.224	93.9209
326.117	56.6992
329.009	113.592
331.902	70.8272
334.795	165.733
337.687	282.039
340.58	397.108
343.473	631.33
346.365	765.706
349.258	965.393
352.151	1038.5
355.044	1107.72
357.936	985.436
360.829	762.262
363.722	581.597
366.614	350.085
369.507	270.096
372.4	117.224
375.293	86.6387
378.185	41.4004
381.078	56.876
383.971	9.92578
386.863	8.05762
389.756	22.8662
392.649	71.8272
395.541	39.2002
398.434	69.3242
401.327	38.3076
404.219	17.1748
407.112	55.9668
410.005	0.083008
412.898	76.4941
415.79	48.3447
418.683	56.2266
421.576	86.9463
424.469	115.102
427.361	198.66
430.254	126.049
433.147	94.4893
436.039	110.516
438.932	107.36
441.825	133.697
444.717	150.26
447.61	127.346
450.503	118.014
453.396	81.6367
456.288	73.6611
459.181	63.5772
462.074	50.5469
464.966	101.818
467.859	95.0674
470.752	28.6426
473.644	77.3789
476.537	76.5361
479.43	99.5684
482.322	148.328
485.215	102.356
488.108	197.569
491.001	153.159
493.893	136.549
496.786	112.889
499.679	51.3535
502.571	110.231
505.464	139.295
508.357	51.9951
511.25	75.0156
514.142	28.9004
517.035	11.7666
519.928	27.5918
522.82	35.6377
525.713	14.6074
528.606	34.8516
531.498	11.1426
534.391	108.556
537.284	231.065
540.177	257.719
543.069	200.893
545.962	405.786
548.855	428.165
551.747	670.98
554.64	672.918
557.533	856.949
560.425	871.319
563.318	1021.96
566.211	1129.54
569.104	1250.71
571.996	1316.43
574.889	1464.76
577.782	1549.63
580.674	1736
583.567	1915.12
586.46	2094.1
589.352	2165.45
592.245	2390.48
595.138	2388.17
598.031	2415.23
600.923	2228.16
603.816	2175.24
606.709	2117.38
609.601	1870.14
612.494	1708.41
615.387	1505.25
618.279	1282.73
621.172	955.01
624.065	823.789
626.958	577.369
629.85	438.24
632.743	393.99
635.636	272.293
638.528	209.734
641.421	188.035
644.314	82.6992
647.207	99.2695
650.099	49.7637
652.992	56.543
655.885	69.3945
658.777	2.43555
661.67	175.912
664.563	139.566
667.455	138.482
670.348	92.957
673.241	130.859
676.134	154.182
679.026	36.5117
681.919	76.1289
684.812	147.166
687.704	30.5371
690.597	59.0527
693.49	51.5996
696.382	40.6562
699.275	1.20508
702.168	36.7266
705.061	23.3438
707.953	6.59375
710.846	1.63672
713.739	33.5742
716.631	97.2676
719.524	176.381
722.417	282.258
725.309	280.74
728.202	363.324
731.095	440.625
733.987	739.947
736.88	805.463
739.773	758.154
742.666	812.541
745.558	765.148
748.451	734.918
751.344	685.51
754.236	536.582
757.129	514.408
760.022	362.69
762.915	271.592
765.807	165.545
768.7	191.834
771.593	7.30078
774.485	129.615
777.378	16.1973
780.271	52.1973
783.163	162.342
786.056	64.4902
788.949	17.8574
791.842	87.1074
794.734	83.3496
797.627	209.685
800.52	14.918
803.412	207.352
806.305	33.5176
809.198	63.543
812.091	51.6074
814.983	95.6465
817.876	113.637
820.769	109.119
823.661	41.9531
826.554	37.3711
829.447	70.2695
832.339	65.9473
835.232	56.7207
838.125	106.734
841.018	114.221
843.91	112.535
846.803	139.102
849.696	132.287
852.588	133.596
855.481	265.537
858.374	178.113
861.266	235.141
864.159	455.682
867.052	372.572
869.944	256.014
872.837	268.91
875.73	148.508
878.623	117.254
881.515	6.98242
884.408	51.9336
887.301	40.8379
890.193	21.2344
893.086	103.883
895.979	2.51172
898.871	2.25781
901.764	44.043
904.657	57.7148
907.55	119.707
910.442	63.6562
913.335	56.5918
916.228	132.531
919.12	221.736
922.013	88.6094
924.906	148.932
927.798	117.129
930.691	170.85
933.584	312.715
936.477	230.527
939.369	377.81
942.262	403.328
945.155	541.053
948.047	475.736
950.94	501.33
953.833	580.252
956.726	545.971
959.618	537.951
962.511	545.988
965.404	654.736
968.296	564.35
971.189	595.887
974.082	594.453
976.974	644.465
979.867	539.422
982.76	599.744
985.653	579.129
988.545	677.666
991.438	471.906
994.331	507.203
997.223	432.619
1000.12	395.684
1003.01	346.043
1005.9	330.6
1008.79	271.617
1011.69	338.1
1014.58	290.135
1017.47	134.428
1020.37	140.037
1023.26	113.391
1026.15	123.932
1029.04	64.2031
1031.94	59.0312
1034.83	76.3477
1037.72	37.0996
1040.61	30.334
1043.51	126.412
1046.4	26.9238
1049.29	506.096
1052.18	516.543
1055.08	876.037
1057.97	1180.39
1060.86	1744.98
1063.76	2470.86
1066.65	3287.24
1069.54	4794.89
1072.43	6849.22
1075.33	8783.95
1078.22	10333.4
1081.11	10043.5
1084	7968.92
1086.9	6723.66
1089.79	6797.78
1092.68	7297.62
1095.58	7222.83
1098.47	6006.92
1101.36	3440.69
1104.25	1908.69
1107.15	1034.18
1110.04	566.975
1112.93	452.703
1115.82	175.41
1118.72	127.527
1121.61	17.043
1124.5	103.762
1127.39	21.4062
1130.29	80.5488
1133.18	18.4023
1136.07	105.039
1138.97	104.273
1141.86	81.0449
1144.75	57.2441
1147.64	140.596
1150.54	56.8145
1153.43	84.9648
1156.32	93.4023
1159.21	68.2305
1162.11	46.6113
1165	56.4258
1167.89	93.4629
1170.79	76.8945
1173.68	109.709
1176.57	200.719
1179.46	102.432
1182.36	107.816
1185.25	36.377
1188.14	79.1777
1191.03	139.519
1193.93	32.8477
1196.82	67.7246
1199.71	307.603
1202.61	127.307
1205.5	2.32227
1208.39	134.703
1211.28	229.387
1214.18	53.207
1217.07	38.4375
1219.96	166.264
1222.85	42.5664
1225.75	61.6016
1228.64	3.7207
1231.53	22.1934
1234.42	106.568
1237.32	15.9941
1240.21	101.508
1243.1	79.7617
1246	9.3457
1248.89	103.894
1251.78	142.244
1254.67	187.877
1257.57	203.424
1260.46	58.9375
1263.35	235.154
1266.24	21.666
1269.14	94.3809
1272.03	212.336
1274.92	29.8262
1277.82	77.7227
1280.71	129.598
1283.6	172.225
1286.49	176.713
1289.39	188.699
1292.28	70.1348
1295.17	154.914
1298.06	127.082
1300.96	86.5156
1303.85	14.9219
1306.74	157.232
1309.63	142.541
1312.53	159.977
