Measurement: Raman, 532 nm, unoriented, Raman Data Processed
Mineral: Synchysite-(Y)
Rruff sample: R060984
Ideal chemistry: CaY(CO_3_)_2_F
Locality: Scrub Oaks mine, near Dover, Morris County, New Jersey, USA
Source: Michael Scott
Description: Brownish-red earthy blebs associated with quartz and magnetite
Raman shift (cm-1)	intensity
143.7	0
146.593	54.5692
149.486	85.6519
152.379	63.0359
155.271	38.5312
158.164	32.1671
161.057	29.7255
163.949	68.3687
166.842	78.7627
169.735	73.07
172.627	62.0989
175.52	56.0919
178.413	11.521
181.305	10.2659
184.198	7.30701
187.091	14.1984
189.983	13.9142
192.876	5.59168
195.769	12.3856
198.662	12.2367
201.554	40.2701
204.447	73.2288
207.34	138.484
210.232	233.273
213.125	516.509
216.018	800.09
218.911	1179.48
221.803	1564.19
224.696	1567.98
227.589	898.41
230.481	498.758
233.374	366.165
236.267	416.697
239.159	487.169
242.052	517.259
244.945	517.263
247.838	343.988
250.73	230.416
253.623	177.999
256.516	212.12
259.408	182.251
262.301	231.194
265.194	280.839
268.086	290.746
270.979	375.865
273.872	550.022
276.764	744.131
279.657	1066.11
282.55	1415.67
285.442	1790.57
288.335	2017.93
291.228	2016.02
294.121	1710.82
297.013	1403.07
299.906	1079.02
302.799	810.154
305.691	570.457
308.584	399.984
311.477	268.114
314.37	168.3
317.262	104.176
320.155	37.7407
323.048	31.3543
325.94	36.5255
328.833	40.533
331.726	12.1504
334.618	9.49365
337.511	3.93359
340.404	31.8638
343.296	3.84375
346.189	34.5508
349.082	27.0969
351.975	77.2795
354.867	159.179
357.76	179.858
360.653	292.705
363.545	359.329
366.438	515.1
369.331	577.336
372.224	647.553
375.116	659.725
378.009	590.42
380.902	534.667
383.794	468.783
386.687	473.76
389.58	545.819
392.472	637.326
395.365	826.078
398.258	969.358
401.151	1236.22
404.043	1298.2
406.936	1298.97
409.829	1101.25
412.721	859.546
415.614	645.675
418.507	559.835
421.399	488.856
424.292	467.522
427.185	444.733
430.077	289.314
432.97	195.857
435.863	56.7502
438.755	35.1724
441.648	24.7869
444.541	49.3259
447.434	45.323
450.326	68.7346
453.219	140.701
456.112	248.146
459.004	322.667
461.897	346.471
464.79	423.684
467.683	512.098
470.575	609.952
473.468	680.224
476.361	741.77
479.253	776.411
482.146	735.933
485.039	695.982
487.931	643.473
490.824	557.262
493.717	603.336
496.61	556.658
499.502	585.379
502.395	583.905
505.288	623.851
508.18	662.98
511.073	701.28
513.966	721.365
516.858	759.233
519.751	751.25
522.644	683.764
525.536	601.349
528.429	433.652
531.322	304.478
534.215	196.642
537.107	84.8091
540	40.7383
542.893	24.0759
545.785	35.8667
548.678	45.2954
551.571	64.1052
554.463	12.4441
557.356	15.9507
560.249	6.92481
563.141	85.5781
566.034	163.688
568.927	248.871
571.82	291.988
574.712	359.217
577.605	446.301
580.498	462.808
583.39	514.486
586.283	606.649
589.176	692.278
592.068	830.256
594.961	958.268
597.854	1116.21
600.747	1146.58
603.639	1260.56
606.532	1220.77
609.425	1167.96
612.317	1040.81
615.21	892.376
618.103	742.149
620.995	673.272
623.888	615.383
626.781	505.662
629.673	518.295
632.566	488.497
635.459	522.553
638.352	571.011
641.244	594.127
644.137	737.737
647.03	806.264
649.922	888.748
652.815	922.271
655.708	955.219
658.601	895.31
661.493	859.61
664.386	797.055
667.279	713.534
670.171	652.192
673.064	545.704
675.957	427.603
678.849	331.584
681.742	320.589
684.635	270.916
687.528	224.3
690.42	220.318
693.313	137.705
696.206	120.772
699.098	70.7898
701.991	65.427
704.884	26.2466
707.776	0.558594
710.669	0.572754
713.562	13.636
716.455	4.30518
719.347	41.7058
722.24	5.03223
725.133	0.166504
728.025	7.63281
730.918	26.6929
733.811	55.4636
736.703	36.5418
739.596	14.01
742.489	18.2156
745.381	21.616
748.274	37.0608
751.167	41.5737
754.059	21.3508
756.952	28.2937
759.845	24.8789
762.738	50.9761
765.63	77.6248
768.523	63.7053
771.416	95.8301
774.308	90.3196
777.201	80.7097
780.094	95.6301
782.986	127.571
785.879	104.977
788.772	122.223
791.665	136.783
794.557	97.6599
797.45	139.027
800.343	92.9443
803.235	111.511
806.128	99.3718
809.021	148.611
811.913	134.544
814.806	118.419
817.699	101.335
820.592	94.6758
823.484	119.735
826.377	117.502
829.27	98.0139
832.162	74.3171
835.055	84.7601
837.948	84.991
840.841	93.1476
843.733	79.3324
846.626	67.1273
849.519	36.1486
852.411	16.6362
855.304	40.4993
858.197	26.8849
861.089	29.1586
863.982	8.57629
866.875	27.2991
869.767	26.9697
872.66	26.4529
875.553	29.1456
878.446	2.25623
881.338	55.1826
884.231	65.1283
887.124	32.8862
890.016	44.9862
892.909	49.9759
895.802	73.015
898.694	19.1282
901.587	28.0203
904.48	4.16894
907.372	38.4957
910.265	39.9333
913.158	19.6574
916.051	18.6084
918.943	21.0281
921.836	20.9597
924.729	10.0211
927.621	46.8273
930.514	49.1388
933.407	61.8976
936.299	3.30957
939.192	21.9597
942.085	14.7315
944.977	35.0039
947.87	15.5562
950.763	45.9102
953.656	34.04
956.548	41.0915
959.441	97.8445
962.334	54.4297
965.226	22.7996
968.119	9.39355
971.012	17.0249
973.904	9.97144
976.797	21.5354
979.69	61.7468
982.583	66.1709
985.475	90.5305
988.368	123.147
991.261	192.046
994.153	217.853
997.046	128.017
999.939	99.3003
1002.83	52.0427
1005.72	27.3401
1008.62	13.0576
1011.51	1.2063
1014.4	12.4773
1017.29	39.8032
1020.19	81.5264
1023.08	43.0034
1025.97	25.5312
1028.87	93.2297
1031.76	98.5137
1034.65	57.3293
1037.54	95.5833
1040.44	152.249
1043.33	169.43
1046.22	216.34
1049.12	243.449
1052.01	305.294
1054.9	279.841
1057.79	244.197
1060.68	228.172
1063.58	230.659
1066.47	275.126
1069.36	349.55
1072.26	391.549
1075.15	491.854
1078.04	577.409
1080.93	589.884
1083.83	579.073
1086.72	519.466
1089.61	446.094
1092.51	487.588
1095.4	504.62
1098.29	460.19
1101.18	333.317
1104.08	178.328
1106.97	130.815
1109.86	112.397
1112.75	82.644
1115.65	89.3032
1118.54	102.758
1121.43	40.168
1124.33	13.9651
1127.22	63.7549
1130.11	21.2881
1133	11.2666
1135.9	6.77271
1138.79	18.6738
1141.68	35.1184
1144.57	23.7876
1147.47	22.9275
1150.36	33.7256
1153.25	42.624
1156.14	32.175
1159.04	29.9067
1161.93	41.2324
1164.82	6.86621
1167.71	72.4912
1170.61	44.917
1173.5	62.9048
1176.39	67.4705
1179.29	80.7476
1182.18	46.1189
1185.07	42.4504
1187.96	44.3147
1190.86	45.5107
1193.75	43.8491
1196.64	35.8728
1199.54	50.5459
1202.43	52.5374
1205.32	1.25952
1208.21	51.0413
1211.11	29.7495
1214	63.8582
1216.89	23.166
1219.78	42.489
1222.68	46.794
1225.57	56.0188
1228.46	25.5732
1231.36	31.1304
1234.25	43.8904
1237.14	0.92749
1240.03	2.36987
