Measurement: Raman, 532 nm, unoriented, Raman Data Processed
Mineral: Synchysite-(Ce)
Rruff sample: R060971
Ideal chemistry: CaCe(CO_3_)_2_F
Locality: Val Nalps, Tavetsch, Graubunden, Switzerland
Source: Michael Scott
Description: Yellowish-orange prismatic crystals associated with albite, quartz, hematite and muscovite
Measured chemistry: Ca_1.02_(Ce_0.40_La_0.19_Nd_0.18_Sm_0.07_Y_0.06_Pr_0.05_Gd_0.03_Th_0.02_)_Î£=1.00_(CO_3_)_1.98_F_1.04_
Raman shift (cm-1)	intensity
120.076	0
123.451	634.105
126.825	1209.35
130.2	1146.58
133.575	1325.71
136.95	2123.08
140.325	2578.29
143.7	2467.53
147.074	2481.64
150.449	2204.1
153.824	1992.28
157.199	1691.69
160.574	1684.99
163.948	1448.89
167.323	1209.47
170.698	837.02
174.073	303.546
177.448	89.9702
180.822	10.9219
184.197	23.8037
187.572	64.8638
190.947	258.901
194.322	422.404
197.696	261.154
201.071	223.623
204.446	265.069
207.821	21.352
211.196	178.143
214.571	207.382
217.945	129.655
221.32	25.0737
224.695	231.055
228.07	604.35
231.445	1330.92
234.82	2421.34
238.194	3751.4
241.569	5080.01
244.944	6266.01
248.319	6725.1
251.694	7155.78
255.068	7514.52
258.443	7976.06
261.818	8957.86
265.193	10438.5
268.568	12186.2
271.942	12898.6
275.317	12273.8
278.692	10585.7
282.067	9123.77
285.442	7774.56
288.817	6379.15
292.191	5254.02
295.566	4679.07
298.941	4536.93
302.316	4620.49
305.691	4574.24
309.065	3947.62
312.44	3045.58
315.815	2263.58
319.19	1545.41
322.565	1154.63
325.94	822.501
329.314	466.062
332.689	124.884
336.064	88.1851
339.439	141.029
342.814	27.165
346.188	231.537
349.563	504.106
352.938	716.903
356.313	850.382
359.688	768.088
363.062	554.75
366.437	329.047
369.812	232.254
373.187	301.984
376.562	614.159
379.937	881.206
383.311	1217.59
386.686	1518.32
390.061	1581.23
393.436	1434.93
396.811	1149.56
400.185	836.092
403.56	558.063
406.935	367.029
410.31	241.387
413.685	101.573
417.06	33.875
420.434	42.6787
423.809	4.70532
427.184	20.6511
430.559	2.63086
433.934	11.4924
437.308	1.26318
440.683	7.27002
444.058	20.4929
447.433	74.7398
450.808	84.4065
454.183	112.229
457.557	114.563
460.932	101.929
464.307	133.085
467.682	351.815
471.057	254.82
474.431	355.972
477.806	469.55
481.181	388.081
484.556	250.82
487.931	213.629
491.305	201.708
494.68	166.093
498.055	222.922
501.43	319.639
504.805	433.132
508.18	426.556
511.554	227.912
514.929	77.7761
518.304	54.8645
521.679	26.2295
525.054	4.57715
528.428	12.0085
531.803	19.4973
535.178	18.6116
538.553	14.7324
541.928	75.0737
545.303	129.359
548.677	138.391
552.052	153.674
555.427	210.164
558.802	278.683
562.177	376.929
565.551	459.649
568.926	625.679
572.301	711.006
575.676	861.952
579.051	1026.74
582.426	1264.09
585.8	1444.62
589.175	1605.13
592.55	1716.14
595.925	1730.67
599.3	1654.62
602.674	1614.57
606.049	1548.05
609.424	1359.22
612.799	1124.85
616.174	868.097
619.548	635.043
622.923	506.285
626.298	359.002
629.673	291.813
633.048	174.164
636.423	106.304
639.797	102.938
643.172	54.0476
646.547	49.2009
649.922	18.9507
653.297	6.84546
656.671	3.51782
660.046	111.274
663.421	232.194
666.796	221.19
670.171	154.403
673.545	111.715
676.92	80.8037
680.295	173.418
683.67	219.5
687.045	100.172
690.42	27.7407
693.794	3.08765
697.169	12.7053
700.544	11.418
703.919	14.8084
707.294	20.6257
710.668	14.8994
714.043	32.846
717.418	163.809
720.793	246.193
724.168	436.3
727.543	818.777
730.917	1407.62
734.292	2353.99
737.667	3673.98
741.042	4439.44
744.417	2912.58
747.791	2005.07
751.166	2049.52
754.541	2653.41
757.916	2359.86
761.291	1028.57
764.665	548.57
768.04	334.425
771.415	241.375
774.79	143.541
778.165	103.645
781.54	62.1514
784.914	33.3272
788.289	39.8713
791.664	40.8191
795.039	74.6948
798.414	0.751709
801.788	25.3735
805.163	11.3884
808.538	20.0049
811.913	6.17993
815.288	24.6733
818.663	10.6948
822.037	19.23
825.412	38.1973
828.787	28.5703
832.162	11.4058
835.537	35.2134
838.911	85.9858
842.286	114.272
845.661	141.06
849.036	180.603
852.411	235.938
855.785	240.954
859.16	390.455
862.535	505.519
865.91	667.422
869.285	855.56
872.66	808.187
876.034	734.5
879.409	767.656
882.784	780.378
886.159	742.888
889.534	768.815
892.908	651.611
896.283	542.511
899.658	412.476
903.033	203.373
906.408	108.126
909.783	49.0518
913.157	0.762207
916.532	37.7978
919.907	54.3242
923.282	28.1099
926.657	133.271
930.031	285.221
933.406	501.008
936.781	659.258
940.156	972.282
943.531	1255.46
946.905	1631.55
950.28	2046.56
953.655	2511
957.03	2990.4
960.405	3526.04
963.78	4025.32
967.154	4464.36
970.529	4846.26
973.904	5015.27
977.279	4963.48
980.654	4825.02
984.029	4594.5
987.403	4296.65
990.778	3953.77
994.153	3580.22
997.528	3184.08
1000.9	2911.55
1004.28	2560.52
1007.65	2205.69
1011.03	1788.13
1014.4	1433.93
1017.78	1084.36
1021.15	807.248
1024.53	606.184
1027.9	352.918
1031.28	154.14
1034.65	59.1108
1038.03	12.2407
1041.4	68.6553
1044.78	111.983
1048.15	53.3774
1051.53	68.022
1054.9	285.309
1058.27	541.894
1061.65	1008.52
1065.02	1660.43
1068.4	3531.89
1071.77	7444.54
1075.15	13606
1078.52	25862.5
1081.9	34770.2
1085.27	16156.9
1088.65	8297.19
1092.02	9516.35
1095.4	13678.6
1098.77	21309.7
1102.15	10921
1105.52	2341.46
1108.9	802.511
1112.27	325.623
1115.65	194.01
1119.02	70.5952
1122.4	30.8726
1125.77	6.89893
1129.15	35.3921
1132.52	17.8735
1135.89	34.6865
1139.27	13.647
1142.64	31.7163
1146.02	44.1445
1149.39	24.8833
1152.77	72.189
1156.14	60.0239
1159.52	101.602
1162.89	127.595
1166.27	118.282
1169.64	102.381
1173.02	150.894
1176.39	165.936
1179.77	166.191
1183.14	169.909
1186.52	200.13
1189.89	141.954
1193.27	139.106
1196.64	121.957
1200.02	130.463
1203.39	135.602
1206.77	136.798
1210.14	238.215
1213.52	206.183
1216.89	196.715
1220.27	197.529
1223.64	199.151
1227.02	218.362
1230.39	262.163
1233.77	223.959
1237.14	244.641
1240.51	243.252
1243.89	214.668
1247.26	236.725
1250.64	159.289
1254.01	207.877
1257.39	144.009
1260.76	83.542
1264.14	75.0347
1267.51	35.8662
1270.89	5.03149
1274.26	6.18433
1277.64	24.9692
1281.01	30.6904
1284.39	21.8389
1287.76	12.1086
