Measurement: Raman, 532 nm, unoriented, Raman Data Processed
Mineral: Syngenite
Rruff sample: R061002
Ideal chemistry: K_2_Ca(SO_4_)_2_H_2_O
Locality: Kalush, Ukraine
Source: Michael Scott
Description: Colorless transparent tabular crystal
Measured chemistry: K_2.00_Ca_1.00_(S_1.00_O_4_)_2_·H_2_O ; light inclusions are (K_1.99_Na_0.01_)_Σ=2_S_1.00_O_4_ (arcanite) ; H not measured but estimated by difference
Raman shift (cm-1)	intensity
123.933	0
127.308	65.6269
130.682	3.21118
134.057	175.47
137.432	730.186
140.807	760.616
144.182	522.695
147.556	399.135
150.931	534.728
154.306	901.187
157.681	1130.27
161.056	978.333
164.43	1055.98
167.805	1270.07
171.18	1560.03
174.555	1688.45
177.93	1819.66
181.305	1683.37
184.679	1321.16
188.054	1109.31
191.429	1050.5
194.804	1093.49
198.179	1179.95
201.554	1059.83
204.928	637.869
208.303	304.445
211.678	122.61
215.053	6.1676
218.428	9.27087
221.802	1.02978
225.177	81.4376
228.552	198.745
231.927	374.06
235.302	564.667
238.676	676.622
242.051	545.225
245.426	321.835
248.801	176.405
252.176	77.303
255.55	15.6144
258.925	17.7965
262.3	5.53101
265.675	37.7404
269.05	76.034
272.425	55.9094
275.799	89.1255
279.174	39.3781
282.549	14.2188
285.924	1.61981
289.299	6.16022
292.673	4.48657
296.048	0.342346
299.423	9.9671
302.798	27.2924
306.173	16.6542
309.548	19.5826
312.922	39.0835
316.297	32.1953
319.672	33.2477
323.047	60.6717
326.422	50.3737
329.796	53.3087
333.171	61.7857
336.546	77.2845
339.921	71.0479
343.296	88.0937
346.671	62.7473
350.045	66.6763
353.42	58.9911
356.795	78.5195
360.17	29.072
363.545	55.591
366.919	48.1303
370.294	3.75275
373.669	49.2072
377.044	33.2263
380.419	1.16687
383.793	20.3378
387.168	9.82245
390.543	9.15167
393.918	14.6058
397.293	11.8224
400.668	11.5885
404.042	43.7874
407.417	1.06738
410.792	2.29102
414.167	25.9081
417.542	102.093
420.916	202.789
424.291	437.795
427.666	1115.29
431.041	2127.78
434.416	4124.44
437.791	9958.14
441.165	29372.1
444.54	9018.98
447.915	2135.7
451.29	1062.12
454.665	808.493
458.039	957.807
461.414	1535.89
464.789	2616.28
468.164	4759.1
471.539	7384.13
474.913	6100.12
478.288	3810.16
481.663	3262.32
485.038	3959.68
488.413	5837.86
491.788	8248.69
495.162	7251.31
498.537	4053.4
501.912	2114.38
505.287	1230.53
508.662	744.117
512.036	513.895
515.411	359.198
518.786	269.852
522.161	206.773
525.536	136.865
528.91	104.353
532.285	77.837
535.66	48.2572
539.035	27.9634
542.41	13.5519
545.785	2.64783
549.159	15.2258
552.534	39.8739
555.909	27.295
559.284	9.3988
562.659	0.962891
566.034	0.666748
569.408	4.39417
572.783	17.8132
576.158	53.6307
579.533	96.4737
582.908	150.515
586.282	266.695
589.657	423.734
593.032	648.326
596.407	708.279
599.782	801.341
603.156	973.2
606.531	947.298
609.906	877.378
613.281	1022.16
616.656	1840.1
620.03	4275.27
623.405	4348.14
626.78	3438.82
630.155	5465.53
633.53	10784.6
636.905	5177.52
640.279	5795.18
643.654	7957.92
647.029	1709.57
650.404	690.056
653.779	612.456
657.154	951.506
660.528	2576.17
663.903	1235.56
667.278	198.174
670.653	66.7826
674.028	6.43567
677.402	0.372314
680.777	3.92383
684.152	10.3024
687.527	12.1867
690.902	8.7677
694.276	2.2771
697.651	24.6385
701.026	2.8147
704.401	21.2185
707.776	16.1906
711.15	2.82922
714.525	29.6943
717.9	48.3782
721.275	76.2982
724.65	141.744
728.025	200.887
731.399	244.722
734.774	282.837
738.149	307.897
741.524	295.44
744.899	219.608
748.274	197.098
751.648	128.161
755.023	184.209
758.398	96.9307
761.773	96.7944
765.148	28.3807
768.522	41.2697
771.897	13.8057
775.272	3.27386
778.647	3.98181
782.022	5.73529
785.396	7.9538
788.771	12.5124
792.146	12.7216
795.521	13.7309
798.896	16.0895
802.27	21.6344
805.645	33.0238
809.02	33.019
812.395	31.2967
815.77	42.2784
819.145	31.6754
822.519	51.0829
825.894	31.5148
829.269	69.804
832.644	43.2062
836.019	14.3956
839.394	22.454
842.768	39.3222
846.143	47.7647
849.518	28.499
852.893	48.5121
856.268	65.1417
859.642	82.1401
863.017	54.7988
866.392	82.0031
869.767	62.563
873.142	103.545
876.516	93.7845
879.891	80.335
883.266	98.8731
886.641	76.402
890.016	70.9604
893.391	35.8372
896.765	19.2119
900.14	14.7979
903.515	10.1141
906.89	14.1941
910.265	34.9679
913.639	24.2965
917.014	0.80127
920.389	34.3094
923.764	13.8644
927.139	23.9586
930.514	64.5471
933.888	72.6738
937.263	101.693
940.638	189.96
944.013	257.074
947.388	284.285
950.762	345.904
954.137	419.415
957.512	542.501
960.887	790.834
964.262	1415.12
967.636	2272.43
971.011	4523.37
974.386	10424.4
977.761	25298.7
981.136	79772.7
984.511	39887.3
987.885	8549.48
991.26	5718.13
994.635	7790.67
998.01	14547
1001.38	31618.8
1004.76	82178.9
1008.13	55614.4
1011.51	11627.6
1014.88	4350.89
1018.26	2159.87
1021.63	1207.34
1025.01	755.325
1028.38	459.395
1031.76	282.995
1035.13	177.592
1038.51	99.5856
1041.88	32.3705
1045.26	7.98828
1048.63	17.6674
1052.01	17.9282
1055.38	28.5201
1058.76	41.8243
1062.13	7.37695
1065.51	55.2484
1068.88	232.96
1072.26	600.778
1075.63	1207.22
1079.01	2043.9
1082.38	2999.07
1085.76	2323.33
1089.13	1047.82
1092.51	364.968
1095.88	115.57
1099.25	0.641235
1102.63	9.20032
1106	28.486
1109.38	176.265
1112.75	431.59
1116.13	1190.51
1119.5	1733.16
1122.88	723.362
1126.25	643.082
1129.63	1241.19
1133	2741.56
1136.38	6239.3
1139.75	9891.92
1143.13	8988.6
1146.5	2821.98
1149.88	1200.27
1153.25	1003.98
1156.63	1364.86
1160	2439.51
1163.38	4233.17
1166.75	4604.05
1170.12	2805.37
1173.5	1499.95
1176.88	810.653
1180.25	416.492
1183.62	256.399
1187	90.229
1190.37	46.6292
1193.75	10.4978
1197.12	3.00537
1200.5	11.1704
1203.87	25.6898
1207.25	13.652
1210.62	40.858
1214	38.801
1217.37	27.5707
1220.75	12.4993
1224.12	16.3564
1227.5	4.85938
1230.87	24.9373
1234.25	4.54248
1237.62	13.1024
1241	7.08301
1244.37	20.9584
1247.75	36.626
1251.12	3.43286
1254.5	9.67883
1257.87	8.87524
1261.24	130.937
1264.62	20.0853
1267.99	39.2936
1271.37	17.7489
1274.74	15.8171
1278.12	47.9117
1281.49	70.0369
1284.87	113.511
1288.24	152.423
1291.62	195.528
1294.99	287.443
1298.37	590.023
