Measurement: Raman, 785 nm, unoriented, Raman Data Processed
Mineral: Syngenite
Rruff sample: R061002
Ideal chemistry: K_2_Ca(SO_4_)_2_H_2_O
Locality: Kalush, Ukraine
Source: Michael Scott
Description: Colorless transparent tabular crystal
Measured chemistry: K_2.00_Ca_1.00_(S_1.00_O_4_)_2_·H_2_O ; light inclusions are (K_1.99_Na_0.01_)_Σ=2_S_1.00_O_4_ (arcanite) ; H not measured but estimated by difference
Raman shift (cm-1)	intensity
147.562	0
150.455	55.7766
153.348	176.543
156.24	176.528
159.133	188.05
162.026	223.708
164.918	440.679
167.811	730.179
170.704	923.052
173.597	1035.6
176.489	1091.03
179.382	1149.6
182.275	1046.25
185.167	836.793
188.06	599.262
190.953	470.243
193.845	423.868
196.738	381.787
199.631	392.242
202.524	344.952
205.416	223.34
208.309	119.47
211.202	23.9342
214.094	16.9352
216.987	62.5164
219.88	19.9651
222.773	12.2722
225.665	36.5015
228.558	41.5346
231.451	115.748
234.343	212.254
237.236	269.157
240.129	312.559
243.021	247.564
245.914	175.062
248.807	108.992
251.7	81.3977
254.592	45.0748
257.485	42.0162
260.378	40.5504
263.27	60.7092
266.163	31.3178
269.056	29.1421
271.948	43.6422
274.841	49.8251
277.734	14.8074
280.627	2.3512
283.519	29.051
286.412	19.22
289.305	2.08533
292.197	24.5098
295.09	17.5533
297.983	4.38306
300.875	52.7734
303.768	40.2645
306.661	43.3409
309.553	50.2811
312.446	37.2892
315.339	54.3525
318.231	48.7626
321.124	41.5582
324.017	48.3652
326.91	80.8862
329.802	82.4386
332.695	47.3466
335.588	62.5553
338.48	49.2994
341.373	57.1929
344.266	73.9824
347.159	56.4401
350.051	51.8578
352.944	34.0632
355.837	36.5597
358.729	63.9424
361.622	46.0311
364.515	2.75293
367.407	9.44824
370.3	24.4061
373.193	28.7649
376.086	44.7156
378.978	34.5077
381.871	11.8694
384.764	0.640747
387.656	6.25049
390.549	2.28601
393.442	1.99255
396.334	9.9187
399.227	7.92481
402.12	4.98144
405.012	19.675
407.905	22.9849
410.798	6.63501
413.691	4.45007
416.583	36.2047
419.476	91.4456
422.369	174.697
425.261	243.327
428.154	409.017
431.047	704.938
433.94	1841.42
436.832	4043.13
439.725	8741.24
442.618	9272.58
445.51	2185.72
448.403	769.425
451.296	408.255
454.188	279.751
457.081	273.814
459.974	347.084
462.866	509.758
465.759	838.437
468.652	1369.85
471.545	1772.8
474.437	1556.29
477.33	1090.3
480.223	998.633
483.115	1299.31
486.008	1908.69
488.901	2880.28
491.793	3721.1
494.686	3366.77
497.579	2165.08
500.472	1249.9
503.364	712.245
506.257	460.293
509.15	327.991
512.042	265.279
514.935	175.538
517.828	130.012
520.721	142.853
523.613	91.1495
526.506	73.3726
529.399	49.6166
532.291	6.13098
535.184	20.3602
538.077	31.6185
540.969	24.34
543.862	3.94727
546.755	33.2977
549.647	1.01062
552.54	11.3724
555.433	1.64966
558.326	2.9635
561.218	14.5452
564.111	6.35669
567.004	27.9248
569.896	20.4615
572.789	11.1942
575.682	32.8516
578.574	26.7775
581.467	69.9119
584.36	80.1337
587.253	144.803
590.145	238.836
593.038	334.087
595.931	475.496
598.823	633.28
601.716	846.361
604.609	836.854
607.501	601.308
610.394	459.728
613.287	431.463
616.179	712.662
619.072	1306.87
621.965	1716.29
624.858	1311.81
627.75	1585.98
630.643	2732.94
633.536	4098.35
636.428	2619.67
639.321	2938.07
642.214	4860.92
645.106	2227.21
647.999	673.361
650.892	457.686
653.784	682.714
656.677	1302.32
659.57	2692.16
662.463	2852.98
665.355	529.314
668.248	134.391
671.141	54.7119
674.033	40.5182
676.926	37.1844
679.819	30.1272
682.712	13.0853
685.604	12.5381
688.497	0.126526
691.39	22.0917
694.282	8.60443
697.175	19.5456
700.068	20.4412
702.96	2.59692
705.853	12.8011
708.746	8.25226
711.639	27.6564
714.531	0.27655
717.424	35.1566
720.317	57.3395
723.209	57.4782
726.102	75.7519
728.995	82.9668
731.887	80.9103
734.78	112.341
737.673	131.016
740.566	119.301
743.458	127.919
746.351	115.276
749.244	108.848
752.136	109.621
755.029	103.989
757.922	87.1773
760.814	51.5684
763.707	30.8011
766.6	13.39
769.492	8.88898
772.385	30.958
775.278	28.1304
778.171	29.2162
781.063	14.4307
783.956	24.9681
786.849	3.42926
789.741	26.2351
792.634	15.259
795.527	9.46753
798.419	35.5588
801.312	0.180542
804.205	17.7533
807.098	47.3815
809.99	40.0901
812.883	29.5316
815.776	36.6868
818.668	59.8933
821.561	47.8984
824.454	28.805
827.346	29.2245
830.239	17.4814
833.132	13.1999
836.024	22.7178
838.917	37.6608
841.81	46.7335
844.703	3.43695
847.595	28.9753
850.488	23.6826
853.381	61.1168
856.273	14.3204
859.166	49.9905
862.059	52.409
864.952	23.2054
867.844	26.0287
870.737	43.9479
873.63	36.7808
876.522	43.6254
879.415	41.388
882.308	33.12
885.2	55.0808
888.093	29.6724
890.986	37.4575
893.879	7.27405
896.771	11.6575
899.664	8.03961
902.557	3.53314
905.449	3.07428
908.342	15.5317
911.235	3.30884
914.127	3.25006
917.02	3.26392
919.913	6.93732
922.806	5.61401
925.698	14.192
928.591	5.3974
931.484	23.6036
934.376	35.7154
937.269	46.1471
940.162	84.2217
943.054	112.365
945.947	131.489
948.84	156.143
951.732	131.527
954.625	165.47
957.518	194.139
960.411	326.661
963.303	526.938
966.196	765.404
969.089	935.392
971.981	1647.21
974.874	4768.52
977.767	14393.6
980.659	35899.7
983.552	27669.5
986.445	5528.13
989.338	2496.48
992.23	2026.78
995.123	2633.72
998.016	5159.38
1000.91	13127.8
1003.8	29777.1
1006.69	35976.9
1009.59	10074.2
1012.48	3148.2
1015.37	1462.37
1018.26	806.592
1021.16	474.82
1024.05	301.558
1026.94	198.179
1029.84	129.12
1032.73	114.886
1035.62	82.7342
1038.51	49.4711
1041.41	24.4738
1044.3	39.6356
1047.19	3.58087
1050.08	19.3887
1052.98	5.487
1055.87	16.5898
1058.76	10.8846
1061.65	26.2403
1064.55	18.2425
1067.44	16.3922
1070.33	77.2492
1073.23	180.33
1076.12	291.577
1079.01	508.798
1081.9	737.41
1084.8	558.216
1087.69	292.886
1090.58	103.454
1093.47	63.1539
1096.37	30.3575
1099.26	5.1134
1102.15	8.48517
1105.05	0.146301
1107.94	12.3224
1110.83	46.9982
1113.72	135.34
1116.62	374.822
1119.51	508.723
1122.4	303.029
1125.29	298.395
1128.19	458.884
1131.08	885.708
1133.97	2000.88
1136.87	3941.89
1139.76	4637.89
1142.65	3538.55
1145.54	1408.25
1148.44	662.53
1151.33	524.431
1154.22	676.615
1157.11	1161.5
1160.01	2049.01
1162.9	3357.34
1165.79	3878.04
1168.68	2762.23
1171.58	1605.28
1174.47	980.655
1177.36	560.721
1180.26	331.68
1183.15	211.889
1186.04	131.97
1188.93	68.5927
1191.83	61.8261
1194.72	58.5358
1197.61	31.975
1200.51	15.7296
1203.4	6.93604
1206.29	9.23291
1209.18	21.853
1212.08	29.435
1214.97	15.403
1217.86	33.9411
1220.75	12.845
1223.65	17.7515
1226.54	25.4423
1229.43	47.1701
1232.32	18.5783
1235.22	0.789673
1238.11	22.5273
1241	5.50146
1243.89	19.8115
1246.79	16.9115
1249.68	14.4975
1252.57	23.6422
1255.47	11.4633
1258.36	20.6824
1261.25	34.3164
1264.14	16.1078
1267.04	26.526
1269.93	16.4521
