Measurement: Raman, 780 nm, unoriented, Raman Data Processed
Mineral: Szaibelyite
Rruff sample: R060289
Ideal chemistry: MgBO_2_(OH)
Locality: Franklin, Sussex County, New Jersey, USA
Source: Herb Obodda
Description: Pink massive, associated with rhodochrosite.
Measured chemistry: gray phase: (Mg_0.66_Mn^2+^_0.34_)_Σ=1_BO_2_(OH); B and OH assumed by stoichiometry; light rim: (Mn^2+^_0.70_Ca_0.18_Mg_0.12_)_Σ=1_CO_3_ is rhodochrosite; CO_2_ estimated by difference
Raman shift (cm-1)	intensity
149.413	0
152.306	0.313198
155.199	1.20625
158.091	0.614159
160.984	0.242878
163.877	0.264957
166.769	0.328251
169.662	0.475479
172.555	2.58593
175.447	3.96509
178.34	5.88678
181.233	9.3038
184.126	11.902
187.018	15.4536
189.911	16.9081
192.804	18.7794
195.696	20.6147
198.589	21.9796
201.482	23.1629
204.375	21.5394
207.267	17.4775
210.16	13.8356
213.053	11.2334
215.945	9.60883
218.838	7.86655
221.731	6.79966
224.623	5.62026
227.516	5.98926
230.409	6.01982
233.302	5.53486
236.194	5.10188
239.087	4.79312
241.98	4.07191
244.872	3.85249
247.765	3.72299
250.658	2.34827
253.55	3.68056
256.443	4.90938
259.336	6.58952
262.228	8.98041
265.121	10.8564
268.014	12.2179
270.907	15.178
273.799	17.899
276.692	18.9193
279.585	19.8228
282.477	18.8999
285.37	19.9781
288.263	20.4193
291.156	20.3271
294.048	20.6863
296.941	19.2861
299.834	16.8303
302.726	13.5704
305.619	10.8928
308.512	7.8807
311.404	4.84442
314.297	3.41561
317.19	2.21718
320.082	1.11859
322.975	0.019014
325.868	0.366142
328.761	0.770067
331.653	0.28161
334.546	0.286539
337.439	0.171524
340.331	0.130201
343.224	0.792141
346.117	1.27278
349.01	1.61366
351.902	2.88498
354.795	2.58995
357.688	3.58313
360.58	3.41999
363.473	4.05902
366.366	4.78407
369.258	4.35039
372.151	4.46775
375.044	4.08709
377.937	3.49768
380.829	3.0624
383.722	2.73624
386.615	2.35301
389.507	1.38939
392.4	1.00157
395.293	0.145725
398.185	0.395281
401.078	0.176075
403.971	0.433718
406.863	0.222115
409.756	0.291176
412.649	0.363512
415.542	0.446726
418.434	1.15954
421.327	1.06158
424.22	1.20988
427.112	0.714272
430.005	0.465326
432.898	1.05657
435.791	1.04244
438.683	1.69694
441.576	2.08525
444.469	1.93793
447.361	1.91079
450.254	1.46176
453.147	1.55393
456.039	2.07331
458.932	1.8833
461.825	2.39193
464.717	3.08872
467.61	3.65139
470.503	4.66732
473.396	6.57511
476.288	7.3638
479.181	9.04821
482.074	10.9402
484.966	11.4809
487.859	10.9961
490.752	9.16548
493.644	8.16733
496.537	7.21302
499.43	7.13217
502.323	7.30128
505.215	8.01683
508.108	8.50039
511.001	8.21708
513.893	8.15454
516.786	6.45823
519.679	4.45322
522.572	3.0245
525.464	1.9279
528.357	1.13646
531.25	0.941273
534.142	0.500956
537.035	0.293442
539.928	0.005472
542.82	0.227077
545.713	0.241074
548.606	0.182999
551.499	0.125843
554.391	0.033074
557.284	0.070952
560.177	0.01797
563.069	0.046612
565.962	0.026594
568.855	0.262612
571.747	0.145631
574.64	0.32024
577.533	0.82031
580.426	0.61106
583.318	0.846097
586.211	1.81133
589.104	2.72873
591.996	4.18171
594.889	5.76707
597.782	7.57846
600.674	10.4051
603.567	13.1218
606.46	16.2304
609.352	16.6855
612.245	18.2902
615.138	19.9846
618.03	22.9185
620.923	24.6215
623.816	24.8084
626.709	23.0152
629.601	19.4952
632.494	17.5106
635.387	14.933
638.279	13.9262
641.172	12.6905
644.065	11.3823
646.957	10.4668
649.85	9.56168
652.743	8.73682
655.636	7.41575
658.528	5.96921
661.421	5.5565
664.314	4.1484
667.206	3.11206
670.099	3.4307
672.992	3.08574
675.885	2.17606
678.777	1.82474
681.67	1.52223
684.563	1.53331
687.455	1.75402
690.348	2.28312
693.241	2.88753
696.133	4.53106
699.026	6.92345
701.919	4.53031
704.812	2.75261
707.704	1.07744
710.597	0.128057
713.49	0.316853
716.382	0.023581
719.275	0.268854
722.168	0.058607
725.06	0.251097
727.953	0.337271
730.846	0.132545
733.739	0.011183
736.631	0.178463
739.524	0.06321
742.417	0.296478
745.309	0.017309
748.202	0.080956
751.095	0.060074
753.987	0.096029
756.88	0.546022
759.773	1.18436
762.665	0.381681
765.558	0.370951
768.451	0.673326
771.344	0.673977
774.236	0.472147
777.129	0.992641
780.022	1.21408
782.914	1.37418
785.807	1.76451
788.7	1.48446
791.592	2.70545
794.485	4.16847
797.378	5.68938
800.271	8.39611
803.163	13.2037
806.056	20.8577
808.949	34.2857
811.841	53.846
814.734	77.5605
817.627	104.144
820.519	133.243
823.412	158.301
826.305	153.525
829.198	112.955
832.09	65.3091
834.983	35.4909
837.876	20.9134
840.768	14.3982
843.661	10.6435
846.554	8.19392
849.447	6.01863
852.339	4.28018
855.232	2.95676
858.125	2.38847
861.017	2.01656
863.91	1.98659
866.803	1.92549
869.695	1.26255
872.588	1.83086
875.481	1.30345
878.374	1.70147
881.266	0.952306
884.159	0.878538
887.052	0.723111
889.944	0.479156
892.837	0.39515
895.73	0.429386
898.622	0.584098
901.515	0.944179
904.408	0.13783
907.301	0.308433
910.193	0.475331
913.086	0.061541
915.979	0.231297
918.871	0.217063
921.764	0.191747
924.657	0.226171
927.549	0.10026
930.442	0.463818
933.335	0.03215
936.227	0.234028
939.12	0.28497
942.013	0.353065
944.906	0.554659
947.798	0.581398
950.691	0.659524
953.584	0.904191
956.476	1.3645
959.369	2.63121
962.262	2.14649
965.154	2.64352
968.047	3.39616
970.94	3.22513
973.833	3.48183
976.725	3.1646
979.618	2.76415
982.511	2.86357
985.403	2.32951
988.296	1.48022
991.189	1.20604
994.082	1.74674
996.974	1.07935
999.867	0.943672
1002.76	1.53443
1005.65	0.512878
1008.54	1.08101
1011.44	0.849123
1014.33	0.822628
1017.22	0.711705
1020.12	0.152062
1023.01	0.183721
1025.9	0.117211
1028.79	0.032084
1031.69	0.893878
1034.58	0.127777
1037.47	0.035031
1040.37	0.622806
1043.26	0.303273
1046.15	0.151598
1049.04	0.852737
1051.94	0.918155
1054.83	0.923302
1057.72	0.959657
1060.61	1.49057
1063.51	1.48261
1066.4	1.31756
1069.29	1.20429
1072.18	1.12305
1075.08	1.13767
1077.97	1.13948
1080.86	0.898952
1083.76	1.16551
1086.65	1.79923
1089.54	0.823179
1092.43	0.606206
1095.33	0.512115
1098.22	0.319509
1101.11	0.138824
1104	0.173033
1106.9	0.146529
1109.79	0.261781
1112.68	0.00631
1115.58	0.242596
1118.47	0.22348
1121.36	0.352369
1124.25	0.12994
1127.15	0.004487
1130.04	0.111982
1132.93	0.392417
1135.82	0.408888
1138.72	0.644905
1141.61	0.610788
1144.5	0.221875
1147.39	0.849209
1150.29	1.07665
1153.18	1.08861
1156.07	1.35452
1158.96	1.74035
1161.86	2.15532
1164.75	3.12308
1167.64	3.79845
1170.54	4.69252
1173.43	6.40731
1176.32	8.57542
1179.21	10.0379
1182.11	11.5123
1185	12.6581
1187.89	12.3317
1190.79	11.6597
1193.68	10.3251
1196.57	8.56405
1199.46	6.9092
1202.36	5.55173
1205.25	4.23036
1208.14	3.43691
1211.03	3.27102
1213.93	2.02842
1216.82	1.26751
1219.71	1.18857
1222.61	0.012824
1225.5	0.104882
1228.39	0.267044
1231.28	0.292418
1234.18	0.419772
1237.07	0.097586
1239.96	0.429007
1242.85	0.333334
1245.75	1.71744
1248.64	2.65553
1251.53	3.8681
1254.42	5.91038
1257.32	7.28941
1260.21	8.63944
1263.1	8.57676
1265.99	7.20514
1268.89	4.84886
1271.78	3.11566
1274.67	2.50048
1277.57	1.62845
1280.46	0.630726
1283.35	0.087561
1286.24	0
