Measurement: Raman, 514 nm, unoriented, Raman Data Processed
Mineral: Szaibelyite
Rruff sample: R060289
Ideal chemistry: MgBO_2_(OH)
Locality: Franklin, Sussex County, New Jersey, USA
Source: Herb Obodda
Description: Pink massive, associated with rhodochrosite.
Measured chemistry: gray phase: (Mg_0.66_Mn^2+^_0.34_)_Σ=1_BO_2_(OH); B and OH assumed by stoichiometry; light rim: (Mn^2+^_0.70_Ca_0.18_Mg_0.12_)_Σ=1_CO_3_ is rhodochrosite; CO_2_ estimated by difference
Raman shift (cm-1)	intensity
56.365	0
60.563	40.982
64.758	100.934
68.952	29.098
73.144	10.491
77.333	27.83
81.521	11.338
85.706	157.428
89.89	294.643
94.071	785.667
98.251	1399.29
102.428	2113.26
106.604	2753.36
110.777	2981.41
114.949	2568.34
119.119	2298.06
123.286	1709.52
127.452	1389.69
131.615	1177.63
135.777	1010.2
139.937	1000.33
144.094	921.735
148.25	886.286
152.403	782.153
156.555	738.312
160.705	700.504
164.853	714.574
168.998	699.703
173.142	713.168
177.284	777.967
181.424	863.095
185.562	963.546
189.698	1122.31
193.831	1325.38
197.963	1537.9
202.093	1783.74
206.221	1911.71
210.347	1973.87
214.472	1291.3
218.594	1000.98
222.714	908.015
226.832	786.093
230.948	766.752
235.063	760.247
239.175	697.118
243.286	681.912
247.394	605.337
251.501	509.12
255.605	535.309
259.708	534.109
263.808	621.701
267.907	761.831
272.004	922.22
276.099	1089.85
280.192	1182.71
284.283	1187.79
288.372	1212.08
292.459	1241.57
296.544	1241.24
300.627	1184.1
304.709	1034.12
308.788	833.314
312.865	580.668
316.941	367.183
321.015	300.853
325.086	148.676
329.156	64.647
333.224	17.76
337.29	3.011
341.354	24.608
345.416	9.882
349.476	4.509
353.534	25.552
357.591	69.061
361.645	142.012
365.698	159.046
369.748	151.174
373.797	109.4
377.844	121.722
381.889	110.208
385.932	55.962
389.973	51.636
394.012	26.297
398.049	20.923
402.084	51.965
406.118	5.373
410.15	16.519
414.179	70.457
418.207	101.011
422.233	107.312
426.257	109.383
430.279	70.292
434.299	56.91
438.318	119.582
442.334	165.303
446.349	126.07
450.361	162.88
454.372	149.728
458.381	106.611
462.388	174.527
466.394	192.472
470.397	242.444
474.398	294.439
478.398	379.456
482.396	627.492
486.391	832.544
490.385	850.609
494.377	670.611
498.368	537.645
502.356	437
506.342	482.906
510.327	535.926
514.31	619.021
518.291	576.114
522.27	427.202
526.247	219.283
530.222	150.355
534.196	137.418
538.167	66.467
542.137	28.501
546.105	21.978
550.071	21.569
554.035	20.834
557.998	19.013
561.958	10.626
565.917	8.772
569.874	24.911
573.829	6.295
577.782	15.589
581.733	29.566
585.683	20.966
589.63	62.287
593.576	156.572
597.52	224.819
601.462	383.029
605.402	725.2
609.341	1002.33
613.277	1080.42
617.212	1285.48
621.145	1756.49
625.076	2073.46
629.006	2010.41
632.933	1607.36
636.859	1404.28
640.783	1313.2
644.705	1267.07
648.625	1130.9
652.543	1104.68
656.46	1008.43
660.375	869.71
664.288	686.822
668.199	552.468
672.108	498.075
676.016	444.642
679.921	324.169
683.825	258.656
687.727	243.105
691.628	188.516
695.526	319.888
699.423	654.15
703.318	816.07
707.211	552.498
711.102	254.333
714.992	97.916
718.879	73.59
722.765	18.44
726.649	39.831
730.532	59.141
734.412	8.666
738.291	18.155
742.168	43.081
746.043	12.124
749.916	52.179
753.788	15.24
757.658	94.3
761.526	96.357
765.392	81.412
769.257	113.734
773.119	100.535
776.98	117.377
780.839	153.158
784.697	199.826
788.552	235.795
792.406	266.048
796.258	316.18
800.108	401.225
803.957	615.301
807.804	943.387
811.649	1533.51
815.492	2734.64
819.333	5429.82
823.173	10871.1
827.011	16926.5
830.847	15226.8
834.681	8855.23
838.514	4233.65
842.345	2335.07
846.174	1560.54
850.001	1067.04
853.827	735.56
857.651	444.087
861.473	427.684
865.293	354.362
869.112	249.297
872.928	232.402
876.744	259.815
880.557	205.569
884.369	171.191
888.178	163.77
891.987	141.387
895.793	140.118
899.598	110.724
903.401	124.401
907.202	37.873
911.001	60.016
914.799	52.148
918.595	13.267
922.389	17.372
926.182	2.462
929.972	14.464
933.761	8.42
937.549	20.449
941.334	11.56
945.118	30.313
948.9	52.292
952.681	15.563
956.459	74.249
960.236	98.417
964.012	158.149
967.785	209.302
971.557	273.059
975.327	332.03
979.095	337.834
982.862	348.707
986.627	289.54
990.39	199.198
994.152	164.945
997.912	183.527
1001.67	102.606
1005.43	105.729
1009.18	132.512
1012.93	138.825
1016.68	76.878
1020.43	71.865
1024.18	52.781
1027.93	51.619
1031.67	53.373
1035.42	43.048
1039.16	39.674
1042.9	44.248
1046.63	37.739
1050.37	8.862
1054.11	38.416
1057.84	103.624
1061.57	153.765
1065.3	214.846
1069.03	246.842
1072.75	192.768
1076.47	151.573
1080.2	103.913
1083.92	112.427
1087.64	220.992
1091.36	143.162
1095.07	97.019
1098.79	72.537
1102.5	37.078
1106.21	6.535
1109.92	27.173
1113.62	25.935
1117.33	37.085
1121.04	7.356
1124.74	36.078
1128.44	22.285
1132.14	15.352
1135.83	38.164
1139.53	19.079
1143.22	0.276
1146.92	41.165
1150.61	41.444
1154.3	84.593
1157.98	67.616
1161.67	147.516
1165.35	175.303
1169.04	325.807
1172.72	426.025
1176.4	648.991
1180.07	886.907
1183.75	1236.67
1187.42	1516.18
1191.1	1669.85
1194.77	1589.08
1198.44	1355.62
1202.1	1057.53
1205.77	815.01
1209.43	702.712
1213.1	533.302
1216.76	431.859
1220.42	308.258
1224.07	265.286
1227.73	181.331
1231.38	203.536
1235.04	147.381
1238.69	174.636
1242.34	188.637
1245.99	299.391
1249.63	335.291
1253.28	472.282
1256.92	724.656
1260.56	1056.6
1264.2	1507.83
1267.84	1764.05
1271.48	1548.26
1275.11	1368.21
1278.74	1284.01
1282.38	1324.83
1286.01	1283.48
1289.63	1212.49
1293.26	1012.93
1296.89	873.896
1300.51	802.813
1304.13	696.629
1307.75	608.89
1311.37	484.896
1314.99	380.57
1318.6	295.927
1322.22	203.087
1325.83	149.13
1329.44	158.052
1333.05	77.155
1336.66	123.925
1340.26	71.285
1343.87	77.62
1347.47	7.198
1351.07	23.806
1354.67	46.673
1358.27	62.423
1361.86	48.047
1365.46	36.42
1369.05	2.018
1372.64	7.587
1376.23	15.172
1379.82	3.631
1383.41	12.747
1386.99	25.055
1390.57	23.883
1394.16	15.091
1397.74	48.044
1401.32	51.221
1404.89	42.439
1408.47	48.602
1412.04	33.824
1415.61	110.042
1419.18	95.211
1422.75	55.33
1426.32	100.435
1429.89	174.549
1433.45	196.045
1437.01	327.372
1440.58	491.872
1444.13	628.039
1447.69	634.863
1451.25	491.25
1454.81	328.811
1458.36	214.689
1461.91	66.798
1465.46	12.666
1469.01	12.215
1472.56	12.831
1476.1	173.527
1479.64	53.643
1483.19	77.056
1486.73	147.883
1490.27	186.87
1493.81	341.986
1497.34	511.06
1500.88	555.729
1504.41	544.677
1507.94	534.442
1511.47	359.014
1515	207.064
1518.53	82.447
1522.05	42.11
1525.57	1.369
