Measurement: Raman, 532 nm, unoriented, Raman Data Processed
Mineral: Szaibelyite
Rruff sample: R060289
Ideal chemistry: MgBO_2_(OH)
Locality: Franklin, Sussex County, New Jersey, USA
Source: Herb Obodda
Description: Pink massive, associated with rhodochrosite.
Measured chemistry: gray phase: (Mg_0.66_Mn^2+^_0.34_)_Σ=1_BO_2_(OH); B and OH assumed by stoichiometry; light rim: (Mn^2+^_0.70_Ca_0.18_Mg_0.12_)_Σ=1_CO_3_ is rhodochrosite; CO_2_ estimated by difference
Raman shift (cm-1)	intensity
148.279	0
151.172	0.462242
154.065	1.05461
156.957	1.28045
159.85	0.237137
162.743	1.27648
165.635	0.311852
168.528	0.70269
171.421	0.633911
174.313	1.26115
177.206	1.2031
180.099	0.59288
182.992	1.88437
185.884	2.78117
188.777	3.2776
191.67	4.62771
194.562	6.05055
197.455	7.32463
200.348	8.29209
203.24	9.29118
206.133	8.40614
209.026	6.29298
211.918	5.75277
214.811	4.4038
217.704	2.61158
220.597	1.65456
223.489	0.963676
226.382	0.495201
229.275	0.411583
232.167	0.142632
235.06	1.27103
237.953	0.706032
240.845	1.31554
243.738	1.82732
246.631	0.802124
249.524	1.77698
252.416	1.64092
255.309	2.35833
258.202	2.78318
261.094	3.54351
263.987	5.39842
266.88	5.63224
269.772	7.66449
272.665	8.1586
275.558	10.3348
278.451	12.4916
281.343	12.3687
284.236	13.2426
287.129	12.2959
290.021	12.915
292.914	14.0473
295.807	13.2019
298.7	13.5503
301.592	13.1631
304.485	12.5995
307.378	11.8046
310.27	9.32771
313.163	8.07475
316.056	5.07106
318.948	4.97222
321.841	3.26721
324.734	2.51556
327.627	2.0182
330.519	0.404091
333.412	0.562775
336.305	0.419815
339.197	0.115051
342.09	0.61058
344.983	0.300507
347.875	0.190819
350.768	0.005913
353.661	0.969666
356.553	1.21547
359.446	1.04192
362.339	1.82211
365.232	1.91468
368.124	2.17503
371.017	2.78048
373.91	1.58089
376.802	2.58125
379.695	1.8084
382.588	2.08218
385.481	2.86269
388.373	1.47632
391.266	2.73429
394.159	0.776764
397.051	1.29697
399.944	0.583466
402.837	0.126671
405.729	0.478783
408.622	0.950661
411.515	0.78672
414.408	0.831772
417.3	0.994812
420.193	1.95911
423.086	2.49058
425.978	1.26752
428.871	1.32401
431.764	1.33449
434.656	0.852501
437.549	0.025681
440.442	0.97451
443.334	0.333389
446.227	0.248665
449.12	0.69593
452.013	1.00003
454.905	0.892937
457.798	1.47384
460.691	1.73534
463.583	2.1318
466.476	2.79031
469.369	3.95095
472.262	4.49085
475.154	5.50794
478.047	8.63127
480.94	10.4072
483.832	10.4783
486.725	12.7382
489.618	10.8166
492.51	8.77075
495.403	6.51043
498.296	5.31403
501.188	6.02463
504.081	5.13479
506.974	7.39744
509.867	6.16774
512.759	7.36278
515.652	7.04105
518.545	5.88843
521.437	4.82824
524.33	3.99398
527.223	2.19612
530.115	2.13678
533.008	1.49693
535.901	0.358383
538.794	1.63683
541.686	1.05142
544.579	0.628555
547.472	0.022057
550.364	1.00992
553.257	0.71022
556.15	1.03365
559.043	0.149658
561.935	0.068665
564.828	0.061829
567.721	0.111801
570.613	0.331467
573.506	0.794739
576.399	0.169075
579.291	1.01461
582.184	1.53155
585.077	0.524399
587.97	1.90378
590.862	1.78531
593.755	3.33143
596.648	4.40988
599.54	5.40376
602.433	7.57641
605.326	9.91244
608.218	12.0145
611.111	11.8467
614.004	12.4955
616.896	13.9452
619.789	16.99
622.682	17.9039
625.575	17.3122
628.467	15.6878
631.36	13.432
634.253	11.7901
637.145	10.4662
640.038	8.83903
642.931	8.84401
645.823	9.07538
648.716	7.94926
651.609	7.20083
654.502	5.85835
657.394	5.46025
660.287	4.84268
663.18	4.013
666.072	3.4007
668.965	2.784
671.858	2.18769
674.75	1.92718
677.643	1.58513
680.536	1.14063
683.429	0.617813
686.321	0.474014
689.214	1.63229
692.107	1.71728
694.999	3.3308
697.892	5.05854
700.785	5.05154
703.678	4.84309
706.57	1.94009
709.463	1.80582
712.356	0.586754
715.248	0.042488
718.141	0.397247
721.034	1.29443
723.926	0.245003
726.819	1.03526
729.712	0.505333
732.605	0.199211
735.497	0.120514
738.39	0.134644
741.283	0.010818
744.175	0.249191
747.068	0.453888
749.961	0.40625
752.853	0.703789
755.746	0.323318
758.639	0.147285
761.532	0.07473
764.424	1.30296
767.317	0.265854
770.21	0.132309
773.102	0.120567
775.995	0.369576
778.888	0.00042
781.78	0.533264
784.673	0.276817
787.566	1.2383
790.458	1.94986
793.351	1.91446
796.244	3.42033
799.137	4.01026
802.029	6.36797
804.922	9.1307
807.815	14.7386
810.707	24.4248
813.6	39.0118
816.493	60.042
819.385	86.0259
822.278	118.872
825.171	148.889
828.064	153.254
830.956	118.892
833.849	73.1342
836.742	40.4562
839.634	22.3058
842.527	13.5103
845.42	9.77375
848.312	6.78349
851.205	4.35652
854.098	3.632
856.991	3.71445
859.883	2.75138
862.776	2.26011
865.669	1.96777
868.561	1.547
871.454	2.65128
874.347	2.06838
877.24	2.81564
880.132	1.48888
883.025	2.13284
885.918	2.20734
888.81	1.8736
891.703	1.32999
894.596	1.10532
897.488	1.36493
900.381	0.240379
903.274	0.865112
906.167	0.289619
909.059	0.36718
911.952	0.071243
914.845	0.485542
917.737	0.156342
920.63	0.751678
923.523	0.206688
926.415	0.435585
929.308	0.815323
932.201	0.409798
935.093	0.595139
937.986	0.077156
940.879	0.708229
943.772	0.314354
946.664	0.915199
949.557	1.23195
952.45	0.878456
955.342	1.94292
958.235	2.12527
961.128	2.2439
964.02	3.20519
966.913	3.2218
969.806	2.79185
972.699	2.99942
975.591	3.74708
978.484	4.644
981.377	3.00847
984.269	3.39408
987.162	3.13348
990.055	2.08423
992.947	2.18229
995.84	2.03262
998.733	2.07963
1001.63	1.26625
1004.52	1.05147
1007.41	0.094337
1010.3	0.831619
1013.2	1.61031
1016.09	0.324959
1018.98	0.942787
1021.88	0.184738
1024.77	0.413605
1027.66	0.609169
1030.55	0.141655
1033.44	0.631348
1036.34	1.61098
1039.23	0.318092
1042.12	0.569923
1045.02	0.898033
1047.91	0.822754
1050.8	1.53055
1053.69	1.78233
1056.59	2.21237
1059.48	2.10637
1062.37	3.30865
1065.27	3.42004
1068.16	2.80045
1071.05	2.3986
1073.94	2.65848
1076.84	2.26121
1079.73	2.83514
1082.62	1.77456
1085.51	2.23048
1088.41	1.82508
1091.3	0.844574
1094.19	1.78281
1097.09	1.26716
1099.98	2.10162
1102.87	0.075371
1105.76	0.614494
1108.66	0.140656
1111.55	0.289879
1114.44	0.618729
1117.33	0.182152
1120.23	0.895012
1123.12	0.196007
1126.01	0.224396
1128.9	1.05997
1131.8	0.77832
1134.69	0.519829
1137.58	1.35316
1140.47	0.493263
1143.37	0.087738
1146.26	0.656754
1149.15	1.49136
1152.05	0.363228
1154.94	1.37059
1157.83	1.57805
1160.72	2.84065
1163.62	2.57371
1166.51	3.46114
1169.4	4.38626
1172.3	5.81074
1175.19	7.372
1178.08	10.038
1180.97	11.6444
1183.87	13.6897
1186.76	14.4531
1189.65	15.1086
1192.54	13.4834
1195.44	10.7855
1198.33	10.3538
1201.22	8.67565
1204.12	6.69961
1207.01	5.20219
1209.9	4.74849
1212.79	3.04841
1215.68	3.55268
1218.58	1.6494
1221.47	1.20542
1224.36	1.61174
1227.26	0.751694
1230.15	1.00656
1233.04	0.769722
1235.93	0.485695
1238.83	0.453163
1241.72	0.457092
1244.61	0.382423
1247.51	1.11752
1250.4	2.34263
1253.29	4.05306
1256.18	3.66193
1259.08	6.2015
1261.97	8.84615
1264.86	9.86749
1267.75	9.31018
1270.65	8.58341
1273.54	6.69292
1276.43	6.33946
1279.33	8.17627
1282.22	5.7711
1285.11	6.14679
1288	5.46039
1290.9	4.27899
1293.79	3.61369
1296.68	1.08707
1299.57	0.501282
1302.47	0.756699
