Measurement: Raman, 532 nm, unoriented, Raman Data Processed
Mineral: Szenicsite
Rruff sample: R050146
Ideal chemistry: Cu_3_MoO_4_(OH)_4_
Locality: Jardinera mine, Inca del Oro, Chile
Source: Jim McGlasson
Description: Green lamellar crystals
Measured chemistry: Cu_3.00_Mo_1.00_O_4_(OH)_4_
Raman shift (cm-1)	intensity
120.745	0
124.119	148.301
127.494	598.869
130.869	534.571
134.244	63.7736
137.619	2.99158
140.994	152.878
144.368	348.821
147.743	596.889
151.118	687.333
154.493	826.18
157.868	992.841
161.242	1105.23
164.617	1348.3
167.992	1103.97
171.367	635.222
174.742	269.174
178.117	41.0779
181.491	23.7203
184.866	48.7595
188.241	41.8151
191.616	9.69409
194.991	45.8321
198.365	193.57
201.74	297.88
205.115	444.657
208.49	629.879
211.865	849.016
215.239	849.096
218.614	745.749
221.989	588.454
225.364	347.531
228.739	193.18
232.113	190.35
235.488	238.168
238.863	186.692
242.238	47.074
245.613	82.0002
248.988	70.6419
252.362	43.678
255.737	303.651
259.112	578.597
262.487	1093.23
265.862	1526.68
269.236	2069.13
272.611	2801.04
275.986	3455.45
279.361	4009.03
282.736	4169.12
286.111	3714.01
289.485	3432
292.86	3508.79
296.235	4327.15
299.61	5555.83
302.985	7168
306.36	9124.13
309.734	11993
313.109	14362.8
316.484	12931.1
319.859	7997.16
323.234	4263.22
326.608	2447.38
329.983	1668.21
333.358	1556.65
336.733	1720.71
340.108	2029.8
343.483	2454.86
346.857	2945.84
350.232	2848.75
353.607	2228.71
356.982	1448.73
360.356	806.196
363.731	422.849
367.106	199.862
370.481	44.9958
373.856	44.1356
377.231	69.5005
380.605	129.496
383.98	88.802
387.355	12.9061
390.73	82.5433
394.105	263.683
397.479	542.97
400.854	1018.38
404.229	1845.64
407.604	2982.35
410.979	4337.77
414.354	6155.35
417.728	8346.41
421.103	9517.52
424.478	7517.11
427.853	4343.22
431.228	2459.21
434.603	1463.36
437.977	901.215
441.352	522.687
444.727	390.111
448.102	372.696
451.477	378.394
454.851	468.216
458.226	719.158
461.601	1022.79
464.976	1523.02
468.351	2167.86
471.726	3032.2
475.1	3764.75
478.475	3517.57
481.85	2569.7
485.225	1900.58
488.599	1421.24
491.974	1041.52
495.349	847.003
498.724	836.91
502.099	838.626
505.474	713.805
508.848	515.003
512.223	255.469
515.598	161.603
518.973	82.3962
522.348	32.0875
525.722	12.3137
529.097	8.76953
532.472	17.1428
535.847	38.2022
539.222	51.2462
542.597	35.5671
545.971	30.921
549.346	17.802
552.721	10.4251
556.096	28.1628
559.471	6.82855
562.846	6.89899
566.22	68.2845
569.595	45.3807
572.97	61.4606
576.345	72.0995
579.72	112.032
583.094	85.1986
586.469	61.7903
589.844	119.42
593.219	88.3762
596.594	92.389
599.968	87.6021
603.343	76.9151
606.718	80.0666
610.093	93.5261
613.468	56.8015
616.842	90.4822
620.217	107.077
623.592	52.9512
626.967	78.4555
630.342	95.8077
633.717	93.0524
637.091	66.3378
640.466	87.6702
643.841	94.0882
647.216	112.337
650.591	90.2501
653.966	78.3377
657.34	112.338
660.715	101.76
664.09	119.404
667.465	76.7842
670.84	149.784
674.214	174.802
677.589	202.223
680.964	239.143
684.339	262.681
687.714	246.895
691.088	309.664
694.463	244.953
697.838	233.4
701.213	181.954
704.588	159.682
707.963	136.187
711.337	66.5042
714.712	88.3359
718.087	56.538
721.462	41.2264
724.837	33.9266
728.212	4.0166
731.586	28.4224
734.961	11.6387
738.336	23.7908
741.711	13.0994
745.086	1.54895
748.46	30.4065
751.835	21.6726
755.21	24.8501
758.585	49.9241
761.96	154.911
765.335	272.935
768.709	375.112
772.084	392.016
775.459	276.005
778.834	105.219
782.209	2.6792
785.583	55.8752
788.958	95.8517
792.333	23.2964
795.708	282.384
799.083	546.14
802.457	1025.38
805.832	1343.3
809.207	1342.46
812.582	1298.18
815.957	1232.99
819.332	1245.82
822.706	1656.74
826.081	2263.94
829.456	3207.64
832.831	4362.37
836.206	5441.87
839.58	5739.98
842.955	4676.03
846.33	2995.17
849.705	1650.65
853.08	793.618
856.455	412.842
859.829	263.68
863.204	313.722
866.579	485.814
869.954	843.608
873.329	1315.06
876.703	2095.09
880.078	3495.64
883.453	6465.94
886.828	12512.8
890.203	19720.8
893.577	32682.6
896.952	53726.7
900.327	53669.9
903.702	21271.4
907.077	8044.13
910.452	3838.07
913.826	2113.77
917.201	1254.76
920.576	815.711
923.951	566.992
927.326	402.349
930.7	299.568
934.075	164.036
937.45	76.5609
940.825	20.2469
944.2	17.063
947.574	52.4133
950.949	47.3007
954.324	63.4761
957.699	20.8426
961.074	40.8886
964.449	92.8049
967.823	233.538
971.198	376.796
974.573	350.535
977.948	176.577
981.323	102.922
984.697	109.969
988.072	114.991
991.447	108.752
994.822	134.001
998.197	150.694
1001.57	152.132
1004.95	125.853
1008.32	123.206
1011.7	81.7225
1015.07	59.8008
1018.45	77.6294
1021.82	73.3428
1025.19	78.8655
1028.57	85.7184
1031.94	82.6592
1035.32	65.7526
1038.69	54.2609
1042.07	51.037
1045.44	63.9112
1048.82	35.571
1052.19	16.4504
1055.57	35.8472
1058.94	54.1948
1062.32	28.5047
1065.69	17.6221
1069.07	13.9921
1072.44	13.6746
1075.82	22.2101
1079.19	6.65643
1082.57	66.0985
1085.94	18.9095
1089.32	44.3356
1092.69	47.1533
1096.07	45.5373
1099.44	14.4014
1102.82	27.9202
1106.19	4.26556
1109.57	0.203674
1112.94	18.097
1116.32	20.8484
1119.69	30.4443
1123.07	14.9717
1126.44	17.4346
1129.82	31.4509
1133.19	55.4031
1136.56	7.0661
1139.94	12.1573
1143.31	64.3226
1146.69	24.4422
1150.06	15.8132
1153.44	12.0575
1156.81	14.33
1160.19	5.16699
1163.56	45.9323
1166.94	4.69989
1170.31	37.5299
1173.69	11.5384
1177.06	9.11548
1180.44	27.4172
1183.81	36.0748
1187.19	12.1326
1190.56	57.1075
1193.94	13.475
1197.31	24.207
1200.69	37.9199
1204.06	27.1565
1207.43	45.811
1210.81	59.5795
1214.18	49.0052
1217.56	38.6207
1220.93	34.4519
1224.31	12.2894
1227.68	39.381
1231.06	24.9315
1234.43	27.2122
1237.81	39.9344
1241.18	2.59204
1244.56	33.6273
1247.93	32.7066
1251.31	31.7264
1254.68	33.6831
1258.06	38.711
1261.43	40.3189
1264.81	47.3833
1268.18	14.3681
1271.56	26.0466
1274.93	38.7931
1278.31	26.7814
1281.68	31.9011
1285.06	40.2464
1288.43	30.1499
1291.81	25.824
1295.18	27.512
1298.56	0
