Measurement: Raman, 532 nm, unoriented, Raman Data Processed
Mineral: Szenicsite
Rruff sample: R100179
Ideal chemistry: Cu_3_MoO_4_(OH)_4_
Locality: Carlota mine, Pinto Creek, Gila, Arizona, USA
Source: Joe Ruiz
Description: Green elongated crystals, associated with blue azurite, pale green thick tabular powellite (R100180) and colorless granular prosopite (R100181).
Raman shift (cm-1)	intensity
124.301	0
127.676	15.1304
131.051	34.6885
134.426	5.90819
137.8	2.69216
141.175	31.7086
144.55	106.259
147.925	147.413
151.3	208.575
154.675	334.003
158.049	444.917
161.424	500.986
164.799	507.593
168.174	451.653
171.549	368.024
174.924	263.837
178.298	200.079
181.673	170.711
185.048	156.894
188.423	158.533
191.798	154.718
195.173	181.723
198.547	205.618
201.922	249.261
205.297	302.753
208.672	365.732
212.047	414.574
215.421	410.082
218.796	387.036
222.171	264.702
225.546	116.266
228.921	48.1856
232.296	32.3819
235.67	18.17
239.045	0.352844
242.42	28.9201
245.795	41.4373
249.17	28.7366
252.544	11.4324
255.919	73.8229
259.294	170.308
262.669	276.861
266.044	409.504
269.418	530.772
272.793	665.79
276.168	766.939
279.543	778.418
282.918	714.232
286.293	629.288
289.667	609.149
293.042	702.711
296.417	906.425
299.792	1194.38
303.167	1541.84
306.541	1994.64
309.916	2510.87
313.291	2724.93
316.666	2193.12
320.041	1271.13
323.416	665.734
326.791	420.003
330.165	404.525
333.54	524.226
336.915	701.312
340.29	881.323
343.665	1110.66
347.039	1309.31
350.414	1217.37
353.789	921.331
357.164	653.75
360.539	480.58
363.913	386.511
367.288	297.432
370.663	213.41
374.038	110.074
377.413	47.9518
380.788	3.82752
384.162	23.2416
387.537	46.5516
390.912	27.4407
394.287	2.79791
397.662	82.1706
401.036	226.214
404.411	429.671
407.786	702.48
411.161	1041.35
414.536	1460.51
417.911	1853.54
421.285	1853.2
424.66	1345.25
428.035	798.079
431.41	466.603
434.785	291.744
438.159	207.515
441.534	149.9
444.909	112.571
448.284	98.7584
451.659	101.499
455.034	124.612
458.409	178.785
461.783	256.274
465.158	362.699
468.533	527.323
471.908	695.727
475.283	791.65
478.657	690.893
482.032	494.234
485.407	346.341
488.782	248.029
492.157	191.285
495.531	162.889
498.906	153.238
502.281	147.327
505.656	119.082
509.031	70.2122
512.406	39.7989
515.78	13.6438
519.155	2.36453
522.53	2.4165
525.905	10.0631
529.28	8.00738
532.654	7.03775
536.029	0.573242
539.404	5.85095
542.779	0.985382
546.154	1.64816
549.529	0.819
552.903	2.15967
556.278	6.32275
559.653	3.33612
563.028	12.6843
566.403	17.3689
569.778	19.2867
573.152	20.7831
576.527	19.5582
579.902	24.2215
583.277	20.9205
586.652	20.1301
590.027	21.3483
593.401	25.3441
596.776	26.9097
600.151	26.0103
603.526	32.6329
606.901	30.1733
610.275	31.6038
613.65	34.543
617.025	29.1998
620.4	25.4814
623.775	32.6553
627.149	30.626
630.524	34.7968
633.899	36.0647
637.274	49.5806
640.649	43.7889
644.024	38.7427
647.398	37.0334
650.773	36.3485
654.148	26.9989
657.523	27.6775
660.898	34.9277
664.273	31.848
667.647	31.7616
671.022	40.9084
674.397	44.0328
677.772	48.6237
681.147	53.4326
684.521	57.564
687.896	55.5175
691.271	53.002
694.646	54.8785
698.021	53.2415
701.396	46.4207
704.77	47.2871
708.145	40.7721
711.52	33.3498
714.895	29.0896
718.27	26.2492
721.644	27.2962
725.019	28.2444
728.394	33.9183
731.769	30.7365
735.144	30.3712
738.519	25.7602
741.893	17.2567
745.268	10.903
748.643	4.75458
752.018	1.66272
755.393	6.504
758.768	3.40518
762.142	9.9801
765.517	13.8535
768.892	19.0263
772.267	7.90686
775.642	14.1762
779.016	26.4804
782.391	28.6701
785.766	18.734
789.141	12.9343
792.516	94.8319
795.89	212.226
799.265	412.435
802.64	634.475
806.015	852.35
809.39	1087.15
812.765	1127.38
816.139	851.255
819.514	696.174
822.889	717.36
826.264	840.028
829.639	978.804
833.014	1063.89
836.388	1008.54
839.763	807.734
843.138	558.606
846.513	353.006
849.888	223.643
853.263	157.833
856.637	148.62
860.012	180.185
863.387	273.82
866.762	418.487
870.136	658.707
873.511	991.684
876.886	1452.66
880.261	2169.07
883.636	3292.63
887.011	5522.68
890.385	8507.41
893.76	13776.4
897.135	19978.6
900.51	14736.9
903.885	5643.53
907.26	2397.66
910.634	1243.98
914.009	752.283
917.384	512.981
920.759	415.835
924.134	399.326
927.509	356.209
930.883	283.529
934.258	189.459
937.633	88.4185
941.008	24.7612
944.383	9.18762
947.757	22.4906
951.132	21.6852
954.507	21.9984
957.882	23.3456
961.257	8.4487
964.631	2.81128
968.006	14.8093
971.381	31.2283
974.756	22.7622
978.131	21.7993
981.506	23.3213
984.88	29.3216
988.255	38.0756
991.63	43.5391
995.005	54.801
998.38	57.4312
1001.75	56.2919
1005.13	57.0747
1008.5	54.6029
1011.88	55.063
1015.25	46.4539
1018.63	35.5291
1022	35.9185
1025.38	35.0825
1028.75	38.7205
1032.13	37.5203
1035.5	36.0617
1038.88	32.8768
1042.25	24.7066
1045.63	19.4636
1049	23.988
1052.38	17.5627
1055.75	21.8035
1059.13	14.2387
1062.5	13.7843
1065.88	11.6697
1069.25	15.0207
1072.63	11.7089
1076	9.65579
1079.38	7.78146
1082.75	9.01645
1086.12	13.5502
1089.5	10.3417
1092.88	9.36694
1096.25	10.3083
1099.62	5.3024
1103	10.4607
1106.37	11.2069
1109.75	11.5226
1113.12	13.3019
1116.5	12.0883
1119.87	10.1439
1123.25	14.7399
1126.62	8.49988
1130	9.44473
1133.37	6.71585
1136.75	9.02719
1140.12	7.7309
1143.5	6.2442
1146.87	8.70041
1150.25	8.43527
1153.62	2.61206
1157	0.926178
1160.37	1.04419
1163.75	3.15894
1167.12	5.28354
1170.5	3.19336
1173.87	0.170197
1177.24	0.892548
1180.62	3.96549
1183.99	0.171997
1187.37	0.090393
1190.74	1.14758
1194.12	3.36554
1197.49	3.85669
1200.87	0.276794
1204.24	4.87787
1207.62	6.23273
1210.99	7.9335
1214.37	6.4997
1217.74	5.98691
1221.12	6.47888
1224.49	7.05914
1227.87	4.45914
1231.24	6.38391
1234.62	2.79565
1237.99	2.46988
1241.37	7.28583
1244.74	6.53732
1248.12	4.52957
1251.49	3.2038
1254.87	0.361145
1258.24	2.75128
1261.62	6.69678
1264.99	1.76547
1268.37	4.97769
1271.74	8.18842
1275.12	9.54703
1278.49	8.41199
1281.87	6.68527
1285.24	1.78052
1288.61	4.64117
1291.99	6.99866
1295.36	3.7074
1298.74	3.65781
1302.11	1.85925
