Measurement: Raman, 780 nm, unoriented, Raman Data Processed
Mineral: Szenicsite
Rruff sample: R050146
Ideal chemistry: Cu_3_MoO_4_(OH)_4_
Locality: Jardinera mine, Inca del Oro, Chile
Source: Jim McGlasson
Description: Green lamellar crystals
Measured chemistry: Cu_3.00_Mo_1.00_O_4_(OH)_4_
Raman shift (cm-1)	intensity
120.465	0
123.358	0.754412
126.251	1.24191
129.143	0.678629
132.036	0.139593
134.929	0.34223
137.821	1.29136
140.714	1.39931
143.607	2.50929
146.5	3.0935
149.392	3.52134
152.285	3.94935
155.178	4.2179
158.07	4.22886
160.963	3.31786
163.856	2.18167
166.749	1.06149
169.641	0.125362
172.534	0.063563
175.427	0.434179
178.319	0.460876
181.212	0.133707
184.105	1.20059
186.997	1.34179
189.89	1.46907
192.783	2.01907
195.675	2.87576
198.568	3.07068
201.461	3.10334
204.354	3.01124
207.246	2.84255
210.139	2.903
213.032	2.32285
215.924	1.99907
218.817	1.35959
221.71	0.927141
224.602	0.52306
227.495	0.364615
230.388	0.239883
233.281	0.197793
236.173	0.148169
239.066	0.017642
241.959	0.059879
244.851	0.102591
247.744	1.16073
250.637	2.21001
253.53	3.30236
256.422	4.30269
259.315	5.42215
262.208	7.31327
265.1	7.94172
267.993	9.27045
270.886	10.0251
273.778	11.202
276.671	11.6809
279.564	12.342
282.457	13.7873
285.349	15.5027
288.242	18.8185
291.135	23.95
294.027	29.6378
296.92	34.0974
299.813	38.0952
302.705	40.9584
305.598	42.4045
308.491	41.6535
311.384	36.8998
314.276	30.1513
317.169	21.5189
320.062	14.4068
322.954	10.2651
325.847	8.03117
328.74	7.04094
331.632	6.99559
334.525	7.12293
337.418	7.39984
340.31	7.39526
343.203	7.27222
346.096	6.30322
348.989	5.36498
351.881	3.95959
354.774	2.4011
357.667	1.32881
360.559	0.65068
363.452	0.300628
366.345	0.116504
369.238	0.437484
372.13	0.568879
375.023	0.269652
377.916	0.338101
380.808	0.114324
383.701	0.190938
386.594	0.763185
389.486	1.48996
392.379	2.5881
395.272	4.30135
398.164	6.52208
401.057	9.37459
403.95	11.2219
406.843	13.6319
409.735	15.7127
412.628	16.5564
415.521	16.648
418.413	15.4461
421.306	12.1461
424.199	8.80021
427.091	5.86264
429.984	3.60331
432.877	2.38012
435.77	1.59221
438.662	1.11663
441.555	0.862097
444.448	0.841615
447.34	0.940839
450.233	0.916303
453.126	1.2677
456.019	2.42513
458.911	3.31434
461.804	3.91868
464.697	4.71217
467.589	5.15833
470.482	5.46914
473.375	5.26145
476.267	4.82111
479.16	3.87874
482.053	3.32107
484.945	2.72343
487.838	2.14479
490.731	1.50056
493.624	1.77375
496.516	1.08706
499.409	1.27737
502.302	1.05645
505.194	0.694182
508.087	0.448535
510.98	0.06716
513.872	0.042444
516.765	0.270456
519.658	0.370991
522.551	0.163832
525.443	0.23791
528.336	0.05168
531.229	0.05067
534.121	0.04914
537.014	0.124191
539.907	0.258299
542.799	0.224605
545.692	0.065018
548.585	0.178133
551.478	0.431157
554.37	0.105039
557.263	0.225702
560.156	0.132203
563.048	0.367654
565.941	0.260714
568.834	0.226953
571.726	0.347483
574.619	0.070594
577.512	0.168751
580.405	0.204418
583.297	0.276626
586.19	0.392046
589.083	0.304203
591.975	0.327007
594.868	0.087176
597.761	0.325875
600.653	0.243724
603.546	0.13128
606.439	0.167398
609.332	0.104048
612.224	0.202217
615.117	0.465997
618.01	0.213752
620.902	0.379969
623.795	0.604398
626.688	0.109428
629.58	0.406814
632.473	0.350881
635.366	0.309036
638.259	0.278176
641.151	0.244407
644.044	0.011141
646.937	0.239364
649.829	0.118464
652.722	0.290055
655.615	0.327061
658.507	0.28806
661.4	0.249038
664.293	0.261277
667.186	0.308928
670.078	0.503297
672.971	0.402181
675.864	0.604904
678.756	0.371353
681.649	0.485979
684.542	0.290265
687.434	0.321284
690.327	0.622657
693.22	0.300499
696.112	0.562271
699.005	0.499141
701.898	0.482134
704.791	0.246785
707.683	0.421556
710.576	0.262573
713.469	0.305659
716.361	0.434895
719.254	0.070324
722.147	0.099098
725.04	0.248869
727.932	0.027731
730.825	0.199195
733.718	0.142402
736.61	0.0866
739.503	0.013083
742.396	0.157632
745.288	0.182428
748.181	0.018332
751.074	0.043094
753.967	0.066879
756.859	0.024793
759.752	0.217482
762.645	0.185163
765.537	0.073672
768.43	0.103172
771.323	0.050456
774.216	0.011496
777.108	0.03373
780.001	0.017266
782.894	0.29735
785.786	0.19833
788.679	0.407993
791.572	0.709342
794.464	1.31812
797.357	1.69567
800.25	2.01167
803.143	2.11494
806.035	2.4353
808.928	2.74463
811.821	3.04881
814.713	4.0757
817.606	4.48855
820.499	5.30314
823.391	6.59425
826.284	7.32628
829.177	7.25288
832.069	6.9154
834.962	6.02558
837.855	5.14114
840.748	3.97549
843.64	3.04461
846.533	1.7868
849.426	1.29598
852.318	1.19144
855.211	0.811327
858.104	1.26072
860.996	1.71002
863.889	1.84236
866.782	2.47521
869.675	3.53794
872.567	6.05358
875.46	8.6319
878.353	15.3484
881.245	26.5983
884.138	41.5426
887.031	54.7534
889.923	66.5084
892.816	74.3382
895.709	69.042
898.602	46.3443
901.494	23.5968
904.387	12.6496
907.28	7.03597
910.172	4.40352
913.065	2.56703
915.958	1.47048
918.85	1.08735
921.743	0.643499
924.636	0.418433
927.529	0.491654
930.421	0.040419
933.314	0.164607
936.207	0.25031
939.099	0.274103
941.992	0.037799
944.885	0.165166
947.777	0.000206
950.67	0.109041
953.563	0.083501
956.456	0.073796
959.348	0.403787
962.241	0.559164
965.134	0.830229
968.026	0.773583
970.919	0.813265
973.812	0.661155
976.704	0.520554
979.597	0.344957
982.49	0.190536
985.383	0.415215
988.275	0.40242
991.168	0.417665
994.061	0.215782
996.953	0.446342
999.846	0.149672
1002.74	0.270652
1005.63	0.409415
1008.52	0.330106
1011.42	0.350906
1014.31	0.266696
1017.2	0.359898
1020.1	0.36431
1022.99	0.340416
1025.88	0.419637
1028.77	0.30867
1031.67	0.305852
1034.56	0.277095
1037.45	0.384835
1040.34	0.295691
1043.24	0.491432
1046.13	0.338249
1049.02	0.174978
1051.91	0.112987
1054.81	0.057264
1057.7	0.281685
1060.59	0.082797
1063.48	0.220735
1066.38	0.109037
1069.27	0.155471
1072.16	0.309176
1075.06	0.043218
1077.95	0.163218
1080.84	0.271492
1083.73	0.198235
1086.63	0.089586
1089.52	0.119743
1092.41	0.167454
1095.31	0.273899
1098.2	0.220515
1101.09	0.224069
1103.98	0.537462
1106.88	0.080577
1109.77	0.085008
1112.66	0.20163
1115.55	0.215407
1118.45	0.034973
1121.34	0.349001
1124.23	0.188966
1127.12	0.023434
1130.02	0.143665
1132.91	0.320448
1135.8	0.002265
1138.7	0.109671
1141.59	0.087588
1144.48	0.250198
1147.37	0.025128
1150.27	0.036683
1153.16	0.048356
1156.05	0.391117
1158.94	0.305978
1161.84	0.200248
1164.73	0.158467
1167.62	0.316418
1170.52	0.199582
1173.41	0.057254
1176.3	0.3381
1179.19	0.160568
1182.09	0.073826
1184.98	0.102266
1187.87	0.028371
1190.76	0.070607
1193.66	0.202608
1196.55	0.178841
1199.44	0.30964
1202.34	0.221594
1205.23	0.231772
1208.12	0.050135
1211.01	0.208911
1213.91	0.181326
1216.8	0.092834
1219.69	0.170904
1222.58	0.264214
1225.48	0.191729
1228.37	0.436237
1231.26	0.169156
1234.15	0.026769
1237.05	0.164573
1239.94	0.099644
1242.83	0.13131
1245.72	0.017277
1248.62	0.639488
1251.51	0.196096
1254.4	0.305485
1257.3	0.346535
1260.19	0.028991
1263.08	0.152187
1265.97	0.376952
1268.87	0.147659
