Measurement: Raman, 514 nm, unoriented, Raman Data Processed
Mineral: Szenicsite
Rruff sample: R050146
Ideal chemistry: Cu_3_MoO_4_(OH)_4_
Locality: Jardinera mine, Inca del Oro, Chile
Source: Jim McGlasson
Description: Green lamellar crystals
Measured chemistry: Cu_3.00_Mo_1.00_O_4_(OH)_4_
Raman shift (cm-1)	intensity
52.866	0
57.065	5.275
61.262	1.429
65.458	681.938
69.651	252.617
73.842	136.715
78.031	233.568
82.218	363.057
86.404	457.434
90.587	569.199
94.768	400.003
98.947	365.524
103.124	688.425
107.3	646.512
111.473	421.667
115.644	520.802
119.813	440.852
123.981	332.401
128.146	207.477
132.309	53.956
136.47	33.17
140.63	35.612
144.787	82.211
148.942	134.098
153.096	210.343
157.247	291.986
161.396	360.048
165.544	368.535
169.689	290.451
173.833	185.791
177.974	109.547
182.114	65.71
186.251	18.269
190.387	30.214
194.52	50.532
198.652	65.213
202.782	118.245
206.909	159.617
211.035	241.318
215.159	354.815
219.281	393.382
223.4	276.731
227.518	276.353
231.634	365.103
235.748	479.098
239.86	367.73
243.97	245.937
248.079	233.662
252.185	314.849
256.289	416.457
260.391	607.475
264.492	886.842
268.59	1286.87
272.687	1820.53
276.781	2470.83
280.874	2689.41
284.964	2242.26
289.053	1764.35
293.14	1536.67
297.225	1505.2
301.308	1849.96
305.389	2910.92
309.468	5125.08
313.545	6536.42
317.62	4200.96
321.693	1979.67
325.765	1149.55
329.834	570.595
333.902	458.799
337.967	488.166
342.031	762.686
346.093	1251.35
350.153	1060.16
354.21	541.106
358.267	223.187
362.321	110.407
366.373	49.758
370.423	9.771
374.471	11.731
378.518	4.878
382.563	0.584
386.605	21.093
390.646	58.451
394.685	125.53
398.722	314.305
402.757	547.252
406.79	1059.64
410.821	2032.14
414.851	4053.1
418.878	6171.21
422.904	5051.63
426.927	2726.99
430.949	1433.66
434.969	842.427
438.987	549.128
443.003	393.75
447.018	315.397
451.03	302.795
455.041	286.042
459.049	271.171
463.056	342.785
467.061	479.387
471.064	740.966
475.065	991.322
479.064	1065.44
483.062	1064.53
487.057	918.61
491.051	627.664
495.043	448.298
499.032	326.772
503.02	278.98
507.007	211.818
510.991	135.41
514.973	95.893
518.954	50.216
522.933	24.102
526.91	15.781
530.885	7.746
534.858	9.964
538.829	1.168
542.799	20.944
546.766	26.892
550.732	8.052
554.696	14.375
558.658	24.871
562.618	5.575
566.576	10.373
570.533	3.507
574.488	8.204
578.44	12.284
582.391	6.526
586.341	4.206
590.288	20.243
594.233	9.151
598.177	3.095
602.119	21.5
606.059	15.97
609.997	25.836
613.933	11.587
617.868	25.72
621.801	10.723
625.731	10.614
629.66	33.396
633.588	40.08
637.513	43.667
641.437	44.161
645.358	41.562
649.278	31.871
653.196	12.082
657.113	15.181
661.027	14.18
664.94	10.074
668.851	17.853
672.76	29.526
676.667	16.082
680.572	18.5
684.476	12.799
688.378	26.992
692.278	7.857
696.176	25.363
700.072	19.161
703.967	33.275
707.86	19.586
711.751	4.037
715.64	6.592
719.527	23.841
723.413	18.262
727.297	15.731
731.179	22.192
735.059	38.19
738.937	62.187
742.814	60.091
746.689	69.33
750.562	105.746
754.433	150.881
758.303	217.107
762.17	352.558
766.036	592.901
769.901	761.991
773.763	823.758
777.624	777.028
781.482	650.497
785.339	667.914
789.195	612.202
793.048	704.732
796.9	827.277
800.75	1160.84
804.598	1566.42
808.445	1998.13
812.289	2416.37
816.132	2220.76
819.973	2235.45
823.813	2694.65
827.65	3519.56
831.486	4964.01
835.32	6654.75
839.152	7336.54
842.983	5865.19
846.812	4082.86
850.639	2924.39
854.464	2303.56
858.288	1904.87
862.11	1884.31
865.93	1995.87
869.748	2228.55
873.564	2716.42
877.379	3430.11
881.192	4700.25
885.004	6010.98
888.813	9724.49
892.621	22846.5
896.427	58762.4
900.232	45589.2
904.034	15108.3
907.835	6592.52
911.634	3662.29
915.432	2317.38
919.227	1698.43
923.021	1261.61
926.813	1014.76
930.604	837.98
934.393	654.269
938.18	544.711
941.965	416.129
945.749	341.606
949.53	280.361
953.311	266.96
957.089	222.617
960.866	231.349
964.641	264.359
968.414	444.256
972.185	703.182
975.955	363.176
979.723	160.236
983.49	109.369
987.254	84.588
991.017	63.876
994.779	60.223
998.538	33.018
1002.3	27.595
1006.05	22.645
1009.81	25.396
1013.56	19.855
1017.31	24.103
1021.06	4.036
1024.81	12.855
1028.55	14.532
1032.3	0.042
1036.04	11.863
1039.78	15.967
1043.52	5.907
1047.26	2.792
1050.99	6.361
1054.73	3.596
1058.46	9.172
1062.19	13.055
1065.92	18.309
1069.65	1.406
1073.37	19.132
1077.1	19.867
1080.82	15.607
1084.54	41.352
1088.26	46.098
1091.97	15.865
1095.69	34.625
1099.4	21.581
1103.12	21.319
1106.83	14.052
1110.54	0.175
1114.24	31.74
1117.95	16.663
1121.65	49.385
1125.35	31.055
1129.06	36.712
1132.75	15.466
1136.45	10.236
1140.15	28.251
1143.84	34.46
1147.53	38.245
1151.22	8.887
1154.91	10.364
1158.6	15.484
1162.28	2.836
1165.97	21.356
1169.65	7.769
1173.33	11.91
1177.01	7.711
1180.69	28.69
1184.36	30.815
1188.04	26.414
1191.71	24.562
1195.38	16.484
1199.05	33.095
1202.71	41.62
1206.38	34.288
1210.04	40.605
1213.71	36.895
1217.37	34.823
1221.03	38.717
1224.68	42.342
1228.34	31.896
1231.99	28.6
1235.65	21.131
1239.3	41.791
1242.95	15.268
1246.59	31.423
1250.24	46.784
1253.88	44.093
1257.53	12.272
1261.17	14.504
1264.81	19.666
1268.45	34.894
1272.08	32.04
1275.72	26.111
1279.35	20.148
1282.98	23.104
1286.61	31.078
1290.24	31.954
1293.87	17.354
1297.49	34.895
1301.11	16.317
1304.73	28.637
1308.36	21
1311.97	21.417
1315.59	16.442
1319.2	26.395
1322.82	28.459
1326.43	22.294
1330.04	26.366
1333.65	8.613
1337.26	15.138
1340.86	10.997
1344.47	14.255
1348.07	33.511
1351.67	15.73
1355.27	29.931
1358.87	34.177
1362.46	0.592
1366.06	32.745
1369.65	30.904
1373.24	2.015
1376.83	11.287
1380.42	10.221
1384	13.187
1387.59	26.466
1391.17	24.823
1394.75	22.922
1398.33	6.096
1401.91	21.255
1405.49	19.24
1409.06	19.354
1412.64	33.086
1416.21	27.327
1419.78	27.983
1423.35	28.587
1426.91	26.787
1430.48	16.091
1434.05	27.299
1437.61	45.626
1441.17	32.454
1444.73	27.137
1448.29	5.643
1451.84	25.95
1455.4	12.936
1458.95	17.544
1462.5	21.724
1466.05	14.098
1469.6	19.253
1473.15	21.362
1476.69	24.537
1480.24	22.898
1483.78	26.406
1487.32	9.735
1490.86	17.248
1494.39	21.809
1497.93	22.502
1501.46	25.215
1505	33.178
1508.53	24.238
1512.06	16.586
1515.59	1.258
1519.11	6.185
1522.64	5.835
