Measurement: Raman, 780 nm, unoriented, Raman Data Processed
Mineral: Szomolnokite
Rruff sample: R070620
Ideal chemistry: Fe^2+^SO_4_H_2_O
Locality: Oage mine, Ominato, Aomori-Ken, Honshu, Japan
Source: James Shigley
Description: Pulverulent colorless to pale yellow efflorescent grains. Larger colorless grain with scalloped surface was examined.
Raman shift (cm-1)	intensity
123.858	0
126.751	24.271
129.644	59.8888
132.536	16.7299
135.429	0.392578
138.322	62.9005
141.214	71.4645
144.107	76.4047
147	31.8417
149.893	92.7415
152.785	165.294
155.678	27.5513
158.571	13.854
161.464	55.2771
164.356	46.4321
167.249	39.6844
170.142	60.743
173.034	1.09699
175.927	0.132202
178.82	23.8305
181.712	78.3912
184.605	51.7278
187.498	82.0233
190.391	103.922
193.283	150.332
196.176	169.974
199.069	179.536
201.961	248.525
204.854	257.653
207.747	271.121
210.639	372.531
213.532	331.752
216.425	302.13
219.317	289.499
222.21	222.249
225.103	220.623
227.996	215.71
230.888	98.4601
233.781	117.218
236.674	94.0747
239.566	81.2563
242.459	41.9796
245.352	32.4871
248.244	47.3894
251.137	29.726
254.03	16.6505
256.923	67.5935
259.815	64.8542
262.708	25.3464
265.601	42.1659
268.493	74.0859
271.386	40.8491
274.279	9.77374
277.171	29.5286
280.064	5.06723
282.957	2.40375
285.85	0.180878
288.742	45.343
291.635	35.5527
294.528	52.6994
297.42	23.2248
300.313	11.6772
303.206	67.1882
306.099	60.5536
308.991	51.1677
311.884	24.1456
314.777	48.7144
317.669	28.7555
320.562	30.5572
323.455	3.81146
326.347	16.8704
329.24	38.8735
332.133	10.5382
335.026	12.896
337.918	20.5619
340.811	44.716
343.704	56.4648
346.596	0.128296
349.489	6.95691
352.382	31.0145
355.274	81.4618
358.167	51.195
361.06	96.4612
363.952	135.335
366.845	99.6199
369.738	61.8034
372.631	146.382
375.523	96.87
378.416	44.8499
381.309	38.0721
384.201	17.0265
387.094	4.24115
389.987	20.3449
392.88	25.3227
395.772	14.449
398.665	14.2717
401.558	11.0508
404.45	8.20496
407.343	49.5339
410.236	63.5826
413.128	64.0933
416.021	95.6753
418.914	125.918
421.807	212.853
424.699	228.545
427.592	247.433
430.485	299.921
433.377	341.514
436.27	386.211
439.163	429.26
442.055	443.204
444.948	426.248
447.841	412.216
450.733	421.323
453.626	443.014
456.519	491.111
459.412	537.856
462.304	547.417
465.197	453.585
468.09	374.473
470.982	308.096
473.875	261.417
476.768	150.182
479.661	111.08
482.553	108.531
485.446	46.0502
488.339	71.1044
491.231	14.7644
494.124	110.928
497.017	53.7737
499.909	49.67
502.802	25.6017
505.695	0.804474
508.587	1.99786
511.48	20.111
514.373	7.68527
517.266	22.8017
520.158	27.208
523.051	12.0435
525.944	31.0809
528.836	7.21527
531.729	37.701
534.622	0.186798
537.514	26.3566
540.407	27.5155
543.3	15.4247
546.193	38.2885
549.085	7.13989
551.978	36.5238
554.871	70.6702
557.763	47.2815
560.656	12.506
563.549	26.024
566.442	53.9939
569.334	107.617
572.227	96.6743
575.12	65.1467
578.012	92.3437
580.905	95.8883
583.798	150.028
586.69	138.452
589.583	195.979
592.476	286.737
595.369	273.988
598.261	274.828
601.154	271.317
604.047	259.549
606.939	228.463
609.832	190.393
612.725	197.341
615.617	181.188
618.51	156.502
621.403	154.65
624.295	137.365
627.188	119.815
630.081	104.931
632.974	76.7583
635.866	74.0449
638.759	106.248
641.652	75.5706
644.544	61.6264
647.437	67.3102
650.33	49.3748
653.222	34.3785
656.115	50.1443
659.008	44.2259
661.901	30.7989
664.793	84.0164
667.686	16.6588
670.579	25.8043
673.471	28.0977
676.364	14.4107
679.257	43.3082
682.149	12.9316
685.042	19.2065
687.935	57.0329
690.828	12.0967
693.72	5.0809
696.613	40.7559
699.506	38.1418
702.398	9.51785
705.291	21.7748
708.184	41.0755
711.077	29.7425
713.969	19.6353
716.862	15.113
719.755	38.8893
722.647	9.52396
725.54	27.4182
728.433	33.9037
731.325	28.9723
734.218	2.32553
737.111	32.8235
740.004	7.03781
742.896	6.68594
745.789	35.1195
748.682	20.641
751.574	6.00211
754.467	7.27045
757.36	15.4218
760.252	23.817
763.145	19.6763
766.038	36.6638
768.931	23.9865
771.823	77.6883
774.716	51.4326
777.609	27.0906
780.501	3.25324
783.394	5.71922
786.287	14.0617
789.179	25.8789
792.072	32.8545
794.965	12.9507
797.857	24.5391
800.75	46.2046
803.643	35.0168
806.536	32.9137
809.428	24.4182
812.321	54.6628
815.214	62.5577
818.106	35.448
820.999	33.5195
823.892	16.835
826.784	27.6396
829.677	47.2476
832.57	30.071
835.463	4.2836
838.355	30.3785
841.248	50.7912
844.141	36.929
847.034	41.4735
849.926	25.7143
852.819	27.6189
855.712	25.6152
858.604	18.3934
861.497	62.832
864.39	3.92188
867.282	44.2502
870.175	11.019
873.068	29.7428
875.961	35.7174
878.853	25.191
881.746	14.2355
884.639	18.9726
887.531	38.7935
890.424	15.3855
893.317	22.3536
896.209	1.93665
899.102	38.9032
901.995	14.8643
904.888	15.2027
907.78	12.0344
910.673	17.04
913.566	21.2066
916.458	8.1008
919.351	40.9135
922.244	6.88647
925.136	12.4401
928.029	24.1107
930.922	4.43176
933.814	14.1288
936.707	10.9215
939.6	26.4112
942.493	13.307
945.385	26.8565
948.278	19.2266
951.171	23.5356
954.063	5.14966
956.956	39.8499
959.849	45.9797
962.741	56.3726
965.634	55.2553
968.527	113.14
971.42	145.515
974.312	237.171
977.205	405.623
980.098	717.129
982.99	1448.44
985.883	2491.02
988.776	3658
991.668	4422.77
994.561	3249.7
997.454	1568.07
1000.35	652.518
1003.24	360.918
1006.13	202.55
1009.02	204.339
1011.92	214.609
1014.81	252.459
1017.7	301.506
1020.6	253.041
1023.49	108.093
1026.38	58.7176
1029.27	24.7126
1032.17	12.4824
1035.06	19.615
1037.95	3.47525
1040.84	3.75345
1043.74	33.1356
1046.63	10.0576
1049.52	4.61264
1052.41	21.4638
1055.31	59.794
1058.2	39.0336
1061.09	39.4131
1063.99	63.837
1066.88	75.347
1069.77	80.7772
1072.66	41.8852
1075.56	73.2848
1078.45	70.368
1081.34	80.515
1084.23	96.5456
1087.13	91.7263
1090.02	66.7931
1092.91	56.6292
1095.81	94.1016
1098.7	75.989
1101.59	45.1388
1104.48	63.041
1107.38	47.5045
1110.27	40.5931
1113.16	41.6812
1116.06	22.2495
1118.95	3.0097
1121.84	13.2748
1124.73	18.3839
1127.62	21.5484
1130.52	2.39279
1133.41	10.802
1136.3	32.13
1139.2	81.3341
1142.09	64.5797
1144.98	79.6186
1147.87	108.435
1150.77	123.748
1153.66	105.341
1156.55	112.981
1159.44	101.473
1162.34	43.3971
1165.23	55.3393
1168.12	43.0016
1171.02	46.4597
1173.91	16.1608
1176.8	9.10986
1179.69	3.35855
1182.59	6.89835
1185.48	13.7416
1188.37	25.4438
1191.27	34.8503
1194.16	22.109
1197.05	63.623
1199.94	18.4923
1202.84	15.77
1205.73	3.71365
1208.62	7.26582
1211.51	3.83574
1214.41	45.8775
1217.3	3.61746
1220.19	3.23773
1223.09	11.7512
1225.98	4.87859
1228.87	1.81154
1231.76	20.6769
1234.65	15.0817
1237.55	20.4723
1240.44	26.8402
1243.33	35.3248
1246.23	22.4603
1249.12	23.4793
1252.01	24.1971
1254.9	52.5071
