Measurement: Raman, 532 nm, unoriented, Raman Data Processed
Mineral: Szomolnokite
Rruff sample: R070620
Ideal chemistry: Fe^2+^SO_4_H_2_O
Locality: Oage mine, Ominato, Aomori-Ken, Honshu, Japan
Source: James Shigley
Description: Pulverulent colorless to pale yellow efflorescent grains. Larger colorless grain with scalloped surface was examined.
Raman shift (cm-1)	intensity
120.147	0
123.039	31.2
125.932	48.4188
128.825	206.636
131.718	244.256
134.61	375.747
137.503	521.985
140.396	507.037
143.288	552.413
146.181	562.73
149.074	575.231
151.966	634.646
154.859	523.161
157.752	448.116
160.644	372.194
163.537	331.368
166.43	294.284
169.323	270.077
172.215	176.387
175.108	192.197
178.001	187.367
180.893	169.968
183.786	201.976
186.679	263.397
189.571	297.753
192.464	316.577
195.357	324.076
198.25	343.66
201.142	408.409
204.035	468.482
206.928	487.805
209.82	547.492
212.713	632.587
215.606	613.179
218.499	502.047
221.391	423.501
224.284	370.894
227.177	200.378
230.069	169.152
232.962	105.862
235.855	79.6758
238.747	51.053
241.64	43.4713
244.533	15.4824
247.425	13.9602
250.318	10.1777
253.211	24.9781
256.103	2.97437
258.996	9.82837
261.889	51.8383
264.782	67.7041
267.674	59.4044
270.567	66.8485
273.46	29.5488
276.352	14.5012
279.245	27.0404
282.138	2.82959
285.031	5.8739
287.923	4.5564
290.816	21.796
293.709	40.0452
296.601	78.1656
299.494	92.254
302.387	79.9109
305.279	147.394
308.172	101.93
311.065	62.4221
313.957	104.494
316.85	86.6428
319.743	77.4553
322.636	55.056
325.528	73.6071
328.421	43.5271
331.314	2.53613
334.206	0.49292
337.099	22.3496
339.992	2.13769
342.885	3.64172
345.777	45.217
348.67	40.1728
351.563	74.4944
354.455	65.3273
357.348	131.624
360.241	117.953
363.133	105.174
366.026	168.746
368.919	158.517
371.811	130.721
374.704	66.9739
377.597	83.9928
380.49	23.2078
383.382	28.1645
386.275	5.19238
389.168	6.48303
392.06	1.23157
394.953	6.8446
397.846	28.9642
400.738	49.0452
403.631	68.2096
406.524	157.16
409.416	221.533
412.309	254.006
415.202	370.408
418.095	471.693
420.987	578.048
423.88	560.201
426.773	538.18
429.665	601.73
432.558	652.539
435.451	774.5
438.344	761.036
441.236	801.425
444.129	803.664
447.022	833.345
449.914	940.763
452.807	999.362
455.7	1063.44
458.592	1018.92
461.485	1071.49
464.378	952.003
467.27	764.795
470.163	558.062
473.056	454.45
475.949	295.568
478.841	342.487
481.734	244.88
484.627	304.67
487.519	275.271
490.412	236.851
493.305	223.139
496.197	146.136
499.09	119.053
501.983	89.5017
504.875	77.1514
507.768	55.4149
510.661	8.27063
513.554	11.7104
516.446	9.4104
519.339	5.6875
522.232	13.077
525.124	26.5801
528.017	12.9158
530.91	31.3413
533.803	0.457153
536.695	5.78662
539.588	3.34619
542.481	56.092
545.373	48.1606
548.266	29.7529
551.159	28.7471
554.051	58.3133
556.944	74.5983
559.837	56.6158
562.73	94.0353
565.622	140.796
568.515	145.197
571.408	154.348
574.3	163.04
577.193	167.979
580.086	293.673
582.978	389.289
585.871	394.111
588.764	484.98
591.656	594.891
594.549	616.32
597.442	662.175
600.335	601.468
603.227	574.352
606.12	516.394
609.013	552.056
611.905	565.247
614.798	565.09
617.691	492.751
620.583	412.211
623.476	310.264
626.369	241.296
629.261	174.406
632.154	151.995
635.047	133.648
637.94	119.425
640.832	135.382
643.725	159.662
646.618	133.748
649.51	124.788
652.403	163.269
655.296	191.395
658.188	188.802
661.081	147.012
663.974	128.244
666.867	93.5519
669.759	37.5773
672.652	61.7511
675.545	16.5301
678.437	15.8423
681.33	16.3756
684.223	12.3332
687.115	2.69873
690.008	28.7333
692.901	28.8663
695.794	20.3859
698.686	10.2273
701.579	45.8279
704.472	48.8547
707.364	0.067505
710.257	6.7926
713.15	18.8375
716.042	12.5974
718.935	23.0724
721.828	18.5928
724.721	38.1538
727.613	5.20325
730.506	63.9119
733.399	44.2299
736.291	34.9326
739.184	59.8934
742.077	43.8925
744.969	52.7821
747.862	78.0406
750.755	40.7563
753.648	50.4471
756.54	78.8014
759.433	26.2582
762.326	76.2353
765.218	24.7264
768.111	45.9435
771.004	48.7279
773.896	107.501
776.789	23.5334
779.682	55.1223
782.574	45.1133
785.467	45.1333
788.36	17.6321
791.253	21.2173
794.145	53.7664
797.038	35.9369
799.931	36.4364
802.823	34.6011
805.716	3.0907
808.609	32.286
811.501	41.9542
814.394	32.0123
817.287	28.1758
820.18	15.6931
823.072	28.2153
825.965	75.2235
828.858	8.87183
831.75	11.0206
834.643	43.6868
837.536	62.7262
840.428	61.3422
843.321	31.9673
846.214	60.5773
849.106	65.7188
851.999	73.334
854.892	48.8286
857.785	40.7671
860.677	26.109
863.57	36.3148
866.463	54.6243
869.355	32.7318
872.248	34.5298
875.141	55.9635
878.034	37.2139
880.926	55.6553
883.819	32.0573
886.712	38.621
889.604	64.5579
892.497	19.5571
895.39	5.56396
898.282	20.8607
901.175	12.2837
904.068	57.9678
906.96	32.6591
909.853	40.0424
912.746	3.67737
915.639	24.4559
918.531	35.9635
921.424	21.0563
924.317	23.2798
927.209	9.83655
930.102	2.93945
932.995	8.62195
935.888	7.99011
938.78	3.63745
941.673	21.4457
944.566	38.2925
947.458	26.6721
950.351	7.26147
953.244	30.5715
956.136	38.062
959.029	54.8005
961.922	97.1011
964.814	155.623
967.707	252.985
970.6	412.491
973.492	728.388
976.385	1386.7
979.278	2821.78
982.171	4819.56
985.063	6859.62
987.956	9043.63
990.849	11207
993.741	8479.19
996.634	3668.63
999.527	1650.14
1002.42	1126.72
1005.31	1031.12
1008.21	1200.02
1011.1	1478.19
1013.99	1804.12
1016.88	1780.3
1019.78	1183.01
1022.67	560.91
1025.56	235.899
1028.45	84.0765
1031.35	22.7959
1034.24	20.6633
1037.13	14.8203
1040.03	24.652
1042.92	4.14514
1045.81	126.894
1048.7	104.781
1051.6	152.728
1054.49	215.787
1057.38	297.01
1060.27	331.833
1063.17	419.131
1066.06	426.963
1068.95	444.43
1071.84	434.147
1074.74	370.075
1077.63	386.392
1080.52	330.165
1083.41	383.526
1086.31	366.611
1089.2	410.359
1092.09	356.398
1094.99	318.31
1097.88	271.659
1100.77	192.628
1103.66	103.949
1106.56	94.2424
1109.45	56.1218
1112.34	45.1404
1115.23	10.1902
1118.13	18.8662
1121.02	7.32532
1123.91	22.3871
1126.81	2.07776
1129.7	29.0159
1132.59	58.314
1135.48	106.102
1138.38	137.476
1141.27	212.537
1144.16	308.095
1147.05	301.122
1149.95	273.723
1152.84	339.878
1155.73	269.915
1158.62	188.33
1161.52	150.837
1164.41	118.66
1167.3	84.9768
1170.2	78.6108
1173.09	29.7233
1175.98	3.16333
1178.87	22.2905
1181.77	74.7419
1184.66	87.8131
1187.55	140.582
1190.44	196.448
1193.34	252.482
1196.23	225.237
1199.12	70.9712
1202.02	48.2067
1204.91	58.4096
1207.8	0.617065
1210.69	15.3071
1213.59	9.52368
1216.48	10.516
1219.37	38.7863
1222.27	55.5826
1225.16	17.151
1228.05	29.7804
1230.94	19.6803
1233.84	4.14368
1236.73	32.7399
1239.62	64.4932
1242.51	51.377
1245.41	49.6615
1248.3	31.3234
1251.19	79.6099
1254.08	66.3812
1256.98	47.4329
1259.87	37.5081
1262.76	29.4576
1265.65	7.62976
1268.55	63.1055
1271.44	1.70923
1274.33	22.7551
