Measurement: Raman, 514 nm, unoriented, Raman Data Processed
Mineral: Talc
Rruff sample: R040137
Ideal chemistry: Mg_3_Si_4_O_10_(OH)_2_
Locality: Murphy, North Carolina, USA
Source: University of Arizona Mineral Museum
Description: Colorless massive
Measured chemistry: (Mg_0.97_Fe_0.01_Al_0.01_)_3_Si_4.03_O_10_((OH)_0.99_F_0.01_)_2_
Raman shift (cm-1)	intensity
118.424	0
122.592	62.271
126.758	97.697
130.922	476.691
135.083	266.641
139.243	433.205
143.401	120.578
147.557	400.123
151.711	222.158
155.863	305.277
160.013	315.064
164.161	320.115
168.308	200.975
172.452	508.383
176.594	312.15
180.734	627.135
184.872	716.297
189.008	1670.6
193.143	3029.81
197.275	1501.53
201.405	638.143
205.534	263.264
209.66	417.117
213.784	455.457
217.907	579.367
222.027	176.764
226.146	519.578
230.263	263.797
234.377	260.43
238.49	6.48
242.601	409.32
246.709	460.881
250.816	164.088
254.921	273.941
259.024	262.477
263.125	196.346
267.224	280.539
271.321	443.979
275.416	184.477
279.51	282.654
283.601	655.037
287.69	787.432
291.778	783.416
295.863	187.273
299.947	487.281
304.029	306.785
308.108	569.691
312.186	368.172
316.262	367.672
320.336	382.305
324.408	455.32
328.478	328.656
332.546	658.293
336.612	329.805
340.677	448.527
344.739	620.09
348.799	667.734
352.858	805.719
356.915	936.793
360.969	1495.93
365.022	921.367
369.073	722.602
373.122	98.344
377.169	358.34
381.215	1096.42
385.258	167.355
389.299	275.277
393.339	315.562
397.376	585.258
401.412	218.992
405.446	396.461
409.478	339.062
413.508	590.535
417.536	220.492
421.562	429.934
425.586	585.195
429.609	305.582
433.629	901.355
437.648	52.043
441.665	281.836
445.68	128.449
449.693	80.203
453.704	582.023
457.713	2.969
461.721	542.266
465.726	159.375
469.73	407
473.731	530.883
477.731	339.141
481.729	305.266
485.725	299.609
489.72	376.105
493.712	118.242
497.703	11.098
501.691	185.672
505.678	317.266
509.663	148.715
513.646	216.992
517.627	720.043
521.607	451.719
525.584	75.105
529.56	307.676
533.534	141.785
537.506	286.586
541.476	205.785
545.444	474.621
549.41	187.133
553.375	328.652
557.337	543.613
561.298	30.25
565.257	190.312
569.214	554.277
573.17	461.676
577.123	113.508
581.075	514.281
585.024	326.258
588.972	645.867
592.918	25.07
596.863	496.734
600.805	548.84
604.746	481.766
608.685	256.168
612.621	526.906
616.557	317.734
620.49	394.836
624.421	444.398
628.351	965.949
632.279	1044.75
636.205	175.5
640.129	497.902
644.051	458.855
647.972	426.637
651.89	259.547
655.807	752.715
659.722	1199.75
663.636	750.562
667.547	1473.39
671.457	2237.13
675.365	3427.05
679.271	2427.64
683.175	1602.85
687.077	688.969
690.978	652.121
694.877	1107.28
698.774	149.805
702.669	549.453
706.562	771.836
710.454	973.48
714.344	21.426
718.232	9.578
722.118	364.543
726.002	423.066
729.885	445.621
733.766	257.559
737.645	674.156
741.522	270.266
745.397	729.125
749.271	161.445
753.143	246.5
757.013	198.434
760.881	563.125
764.748	557.75
768.613	238.824
772.476	358.352
776.337	528.043
780.196	437.34
784.054	584.621
787.91	58.277
791.764	620.938
795.616	422.629
799.467	243.621
803.316	92.012
807.163	789.262
811.008	335.195
814.851	596.965
818.693	60.715
822.533	356.242
826.371	121.008
830.208	756.59
834.042	577.051
837.875	403.527
841.706	952.035
845.536	945.461
849.363	72.523
853.189	468.883
857.013	139.938
860.836	428.801
864.656	788.863
868.475	695.805
872.292	353.363
876.108	442.219
879.922	281.285
883.733	671.871
887.544	403.754
891.352	586.191
895.159	494.414
898.964	335.453
902.767	747.012
906.568	554.414
910.368	309.438
914.166	647.168
917.962	270.305
921.757	944.184
925.55	796.879
929.341	295.445
933.13	461.918
936.918	234.012
940.703	535.695
944.488	300.641
948.27	992.355
952.051	565.324
955.83	508.828
959.607	474.512
963.383	271.961
967.156	651.016
970.928	560.836
974.699	387.711
978.468	207.742
982.234	574.602
986	670.086
989.763	1180.59
993.525	696.188
997.285	616.723
1001.04	1413.65
1004.8	528.766
1008.55	537.918
1012.31	729.289
1016.06	856.832
1019.81	742.301
1023.56	906.266
1027.31	1202.68
1031.05	971.719
1034.79	1075.99
1038.53	1041.46
1042.27	466.184
1046.01	1289.28
1049.75	1837.26
1053.48	1437.49
1057.22	1261.02
1060.95	965.809
1064.68	1080.81
1068.4	1027.17
1072.13	1115.27
1075.86	770.961
1079.58	1119.64
1083.3	319.793
1087.02	313.125
1090.74	499.797
1094.45	332.895
1098.17	319.5
1101.88	671.32
1105.59	500.684
1109.3	103.156
1113.01	216.621
1116.71	180.152
1120.42	348.902
1124.12	631.59
1127.82	414.551
1131.52	421.02
1135.22	7.105
1138.91	497.016
1142.61	434.387
1146.3	864.77
1149.99	415.879
1153.68	909.777
1157.37	206.922
1161.06	1099.07
1164.74	618.57
1168.42	984.086
