Measurement: Raman, 532 nm, unoriented, Raman Data Processed
Mineral: Talc
Rruff sample: R050050
Ideal chemistry: Mg_3_Si_4_O_10_(OH)_2_
Locality: Christmas mine, Christmas, Gila County, Arizona, USA
Source: University of Arizona Mineral Museum
Description: Fine-grained consolidated powder
Measured chemistry: (Mg_2.83_Ca_0.14_Al_0.03_)_Σ=3_(Si_3.97_Al_0.03_)_Σ=4_O_10_(OH)_2_
Raman shift (cm-1)	intensity
158.822	0
161.715	28.2314
164.607	113.195
167.5	303.966
170.393	579.273
173.286	843.498
176.178	1154.25
179.071	1477.57
181.964	1691.82
184.856	1693.56
187.749	1385.78
190.642	993.631
193.535	740.168
196.427	569.53
199.32	514.135
202.213	513.753
205.105	382.299
207.998	349.367
210.891	358.144
213.783	335.254
216.676	284.86
219.569	206.731
222.462	241.699
225.354	150.484
228.247	167.461
231.14	207.439
234.032	129.605
236.925	147.725
239.818	70.5205
242.71	127.923
245.603	55.7803
248.496	93.1035
251.388	71.9492
254.281	52.0449
257.174	63.8652
260.067	24.0078
262.959	89.8711
265.852	35.5078
268.745	43.8613
271.637	73.4141
274.53	82.3203
277.423	30.5508
280.315	84.7559
283.208	78.2129
286.101	129.703
288.994	144.512
291.886	62.9492
294.779	73.6055
297.672	103.826
300.564	1.37695
303.457	148.102
306.35	28.2461
309.243	71.4434
312.135	14.1016
315.028	60.4141
317.921	45.7656
320.813	0.900391
323.706	52.375
326.599	98.5488
329.491	84.1641
332.384	112.049
335.277	25.4492
338.17	189.666
341.062	188.35
343.955	205.76
346.848	348.447
349.74	417.859
352.633	747.334
355.526	828.174
358.418	834.35
361.311	696.459
364.204	412.846
367.097	479.695
369.989	250.615
372.882	182.033
375.775	97.4648
378.667	210.119
381.56	95.8652
384.453	108.211
387.346	60.3965
390.238	121.525
393.131	12.7695
396.024	52.3613
398.916	41.334
401.809	43.5547
404.702	48.8633
407.594	10.2656
410.487	1.18359
413.38	153.904
416.272	200.637
419.165	144.244
422.058	169.94
424.951	58.7852
427.843	183.725
430.736	244.981
433.629	59.6367
436.521	239.746
439.414	155.648
442.307	168.477
445.2	281.908
448.092	99.8906
450.985	176.363
453.878	107.65
456.77	191.631
459.663	41.793
462.556	281.848
465.448	138.342
468.341	151.168
471.234	22.7285
474.127	176.219
477.019	112.24
479.912	145.43
482.805	197.121
485.697	11.5605
488.59	90.9492
491.483	120.227
494.375	141.978
497.268	60.4395
500.161	40.6641
503.053	139.568
505.946	109.486
508.839	91.2305
511.732	121.549
514.624	93.9414
517.517	121.617
520.41	93.5703
523.302	128.957
526.195	34.0039
529.088	13.4941
531.981	17.1348
534.873	61.2617
537.766	147.404
540.659	87.8184
543.551	183.81
546.444	155.211
549.337	112.508
552.229	80.5762
555.122	29.4629
558.015	63.0586
560.908	2.57031
563.8	152.838
566.693	222.248
569.586	41.9902
572.478	39.2266
575.371	52.1504
578.264	116.803
581.156	74.9336
584.049	70.9609
586.942	69.0898
589.835	6.21875
592.727	4.06445
595.62	120.906
598.513	39.0723
601.405	48.3164
604.298	85.7188
607.191	122.471
610.083	71.1387
612.976	173.799
615.869	89.6699
618.762	129.959
621.654	203.334
624.547	141.994
627.44	174.287
630.332	233.299
633.225	301.318
636.118	295.701
639.01	360.619
641.903	300.715
644.796	310.535
647.689	267.562
650.581	449.082
653.474	498.812
656.367	673.371
659.259	609.797
662.152	836.305
665.045	970.629
667.938	1325.78
670.83	1685.68
673.723	2217.04
676.616	2530.91
679.508	2639.83
682.401	2270
685.294	1775.06
688.186	1183.2
691.079	1009.93
693.972	796.773
696.865	635.93
699.757	378.938
702.65	270.641
705.543	287.18
708.435	221.41
711.328	44.6758
714.221	92.6367
717.113	102.898
720.006	49.8555
722.899	11.3086
725.792	0.628906
728.684	11.0195
731.577	75.2695
734.47	41.6953
737.362	13.4375
740.255	26.2422
743.148	37.4219
746.04	0.222656
748.933	84.2891
751.826	10.457
754.719	8.04297
757.611	10.8164
760.504	27.0547
763.397	199.832
766.289	84.0273
769.182	343.551
772.075	309.875
774.967	4.29297
777.86	144.125
780.753	33.5625
783.646	169.688
786.538	198.758
789.431	267.297
792.324	76.5898
795.216	82.8516
798.109	10.0469
801.002	82.1992
803.894	105.129
806.787	192.25
809.68	75.1211
812.573	18.9141
815.465	8.57812
818.358	48.0469
821.251	106.672
824.143	104.926
827.036	151.922
829.929	132.168
832.822	75.3594
835.714	99.2656
838.607	127.168
841.5	8.56641
844.392	86.5352
847.285	18.5898
850.178	173.516
853.07	110.644
855.963	68.4258
858.856	107.449
861.749	55.8594
864.641	148.004
867.534	227.977
870.427	23.2891
873.319	158.863
876.212	152.809
879.105	101.82
881.997	59.5391
884.89	138.215
887.783	206.957
890.676	210.371
893.568	171.293
896.461	124.977
899.354	129.773
902.246	115.051
905.139	57.0117
908.032	225.969
910.924	209.648
913.817	117.344
916.71	201.59
919.602	236.918
922.495	142.633
925.388	159.394
928.281	143.809
931.173	225.219
934.066	88.9102
936.959	246.18
939.851	211.695
942.744	137.281
945.637	70.7539
948.529	194.672
951.422	97.7891
954.315	94.2422
957.208	194.582
960.1	104.492
962.993	325.527
965.886	195.348
968.778	125.559
971.671	160.109
974.564	173.438
977.457	202.688
980.349	44.8086
983.242	21.1016
986.135	71.3125
989.027	179.516
991.92	151.117
994.813	251.801
997.705	134.039
1000.6	174.34
1003.49	64.0078
1006.38	96.4688
1009.28	144.656
1012.17	28.6055
1015.06	214.086
1017.95	79.4297
1020.85	34.2383
1023.74	211.441
1026.63	97.4219
1029.53	57.0586
1032.42	232.543
1035.31	80.3945
1038.2	11.1641
1041.1	52.7305
1043.99	3.3125
1046.88	29.1758
1049.77	24.4961
1052.67	89.168
1055.56	207.031
1058.45	1.76562
1061.35	99.3242
1064.24	113.203
1067.13	149.347
1070.02	83.8339
1072.92	201.124
1075.81	234.522
1078.7	235.801
1081.59	160.102
1084.49	141.094
1087.38	265.082
1090.27	255.316
1093.16	128.617
1096.06	175.453
1098.95	65.4688
1101.84	169.031
1104.73	60.8477
1107.63	66.5547
1110.52	42.2109
1113.41	94.7266
1116.31	115.477
1119.2	140.484
1122.09	12.3125
1124.98	25.2969
1127.88	114.273
1130.77	2.85547
1133.66	151.731
1136.56	138.019
1139.45	75.5859
1142.34	55.5586
1145.23	9.98828
1148.13	93.3242
1151.02	150.551
1153.91	118.059
1156.8	120.297
1159.7	39.5039
1162.59	104.508
1165.48	160.719
1168.38	44.3477
1171.27	181.91
1174.16	98.0312
1177.05	4.83984
1179.95	61.8047
1182.84	119.883
1185.73	6.75781
1188.62	42.9336
1191.52	204.269
1194.41	152.016
1197.3	259.356
1200.19	16.7188
1203.09	107.594
1205.98	120.844
1208.87	45.8828
1211.77	139.906
1214.66	161.91
1217.55	345.047
1220.44	23.3242
1223.34	214.789
1226.23	52.5156
1229.12	196.336
1232.01	147.711
1234.91	136.301
1237.8	290.535
1240.69	154.5
1243.59	89.207
1246.48	288.504
1249.37	92.0195
1252.26	355.125
1255.16	189.508
1258.05	17.0547
1260.94	125.793
1263.83	220.117
1266.73	227.938
1269.62	284.301
1272.51	263.637
1275.4	203.875
1278.3	355.918
1281.19	269.703
1284.08	261.234
1286.98	237.176
1289.87	218.348
1292.76	12.2578
1295.65	167.062
1298.55	0
