Measurement: Raman, 532 nm, unoriented, Raman Data Processed
Mineral: Talc
Rruff sample: R040137
Ideal chemistry: Mg_3_Si_4_O_10_(OH)_2_
Locality: Murphy, North Carolina, USA
Source: University of Arizona Mineral Museum
Description: Colorless massive
Measured chemistry: (Mg_0.97_Fe_0.01_Al_0.01_)_3_Si_4.03_O_10_((OH)_0.99_F_0.01_)_2_
Raman shift (cm-1)	intensity
161.715	0
164.607	1.86133
167.5	200.191
170.393	333.049
173.286	388.184
176.178	516.256
179.071	688.898
181.964	861.43
184.856	1103.52
187.749	1673.7
190.642	2951.44
193.535	5757.2
196.427	2563.9
199.32	866.133
202.213	641.818
205.105	673.322
207.998	605.807
210.891	651.484
213.783	543.531
216.676	565.924
219.569	636.518
222.462	545.068
225.354	459.725
228.247	435.602
231.14	475.488
234.032	304.498
236.925	214.678
239.818	358.305
242.71	171.121
245.603	391.481
248.496	165.742
251.388	253.191
254.281	201.297
257.174	134.316
260.067	237.176
262.959	75.7188
265.852	174.219
268.745	144.488
271.637	41.7812
274.53	136.766
277.423	70.2422
280.315	287.359
283.208	273.457
286.101	378.797
288.994	526.324
291.886	506.734
294.779	274.18
297.672	19.3008
300.564	2.5
303.457	69.0078
306.35	59.8906
309.243	26.875
312.135	68.7461
315.028	24.3555
317.921	46.9805
320.813	32.0547
323.706	91.9766
326.599	115.129
329.491	306.055
332.384	229.106
335.277	120.086
338.17	135.859
341.062	185.547
343.955	180.727
346.848	278.356
349.74	484.332
352.633	788.914
355.526	1342.21
358.418	2118.12
361.311	3017.34
364.204	2104.92
367.097	865.43
369.989	411.035
372.882	277.871
375.775	274.469
378.667	450.203
381.56	409.641
384.453	110.309
387.346	119.379
390.238	141.766
393.131	132.356
396.024	107.629
398.916	102.207
401.809	46.0547
404.702	98.7539
407.594	21.2266
410.487	46.7305
413.38	10.625
416.272	123.164
419.165	209.438
422.058	372.617
424.951	228.168
427.843	597.301
430.736	737.777
433.629	852.996
436.521	344.551
439.414	327.648
442.307	140.375
445.2	239.547
448.092	345.113
450.985	328.934
453.878	322.508
456.77	291.988
459.663	317.547
462.556	339.098
465.448	505.512
468.341	566.531
471.234	353.535
474.127	360.363
477.019	278.676
479.912	146.211
482.805	18.7578
485.697	71.5391
488.59	69.4844
491.483	4.20312
494.375	166.926
497.268	118.758
500.161	261.711
503.053	191.09
505.946	231.129
508.839	138.672
511.732	218.516
514.624	191.918
517.517	113.258
520.41	242.406
523.302	168.144
526.195	122.633
529.088	89.8633
531.981	3.63672
534.873	158.434
537.766	114.625
540.659	21.4766
543.551	54.4961
546.444	8.03125
549.337	140.301
552.229	123.191
555.122	22.6445
558.015	139.215
560.908	98.4531
563.8	110.965
566.693	124.496
569.586	99.1562
572.478	43.0039
575.371	10.2812
578.264	70.5156
581.156	44.5898
584.049	26.9688
586.942	46.3477
589.835	21.2852
592.727	12.918
595.62	113.59
598.513	98.7266
601.405	179.129
604.298	46.6055
607.191	94.8711
610.083	168.137
612.976	298.406
615.869	48.9648
618.762	163.793
621.654	262.297
624.547	330.477
627.44	246.441
630.332	136.246
633.225	367.352
636.118	224.449
639.01	395.445
641.903	452.777
644.796	416.887
647.689	434.703
650.581	375.258
653.474	419.848
656.367	584.891
659.259	950.215
662.152	1404.79
665.045	1999.79
667.938	3227.02
670.83	4665.25
673.723	5869.47
676.616	5904.24
679.508	4080.66
682.401	2265.53
685.294	1338.48
688.186	942.539
691.079	680.539
693.972	670.473
696.865	266.414
699.757	244.363
702.65	248.894
705.543	257.394
708.435	118.305
711.328	4.89453
714.221	129.207
717.113	258.113
720.006	44.832
722.899	215.551
725.792	39.4883
728.684	222.434
731.577	103.961
734.47	26.875
737.362	169.734
740.255	113.824
743.148	114.934
746.04	9.89844
748.933	14.2695
751.826	123.504
754.719	136.008
757.611	115.258
760.504	144.519
763.397	181
766.289	89.0273
769.182	43.3945
772.075	305.285
774.967	217.219
777.86	176.66
780.753	469.098
783.646	601.773
786.538	386.195
789.431	518.5
792.324	401.41
795.216	534.969
798.109	324.656
801.002	231.574
803.894	200.484
806.787	225.644
809.68	224.758
812.573	198.664
815.465	208.352
818.358	81.8359
821.251	297.449
824.143	149.148
827.036	65.6523
829.929	157.117
832.822	162.129
835.714	100.734
838.607	214.797
841.5	142.543
844.392	201.117
847.285	72.1289
850.178	213.519
853.07	109.16
855.963	159.078
858.856	225.012
861.749	120.09
864.641	182.293
867.534	261.5
870.427	99.832
873.319	345.465
876.212	182.789
879.105	163.797
881.997	26.4766
884.89	181.516
887.783	180.828
890.676	208.238
893.568	143.715
896.461	125.129
899.354	144.957
902.246	202.231
905.139	205.488
908.032	182.527
910.924	104.559
913.817	271.066
916.71	128.09
919.602	102.023
922.495	120.535
925.388	51.6289
928.281	125.676
931.173	120.965
934.066	190.496
936.959	14.9258
939.851	265.852
942.744	88.0234
945.637	108.805
948.529	149.203
951.422	274.332
954.315	119.258
957.208	125.852
960.1	77.8594
962.993	190.836
965.886	223.488
968.778	19.5352
971.671	48.7695
974.564	151.168
977.457	174.781
980.349	229.129
983.242	62.4648
986.135	216.211
989.027	166.383
991.92	314.586
994.813	174.922
997.705	87.1328
1000.6	229.227
1003.49	221.246
1006.38	34.3242
1009.28	216.695
1012.17	130.75
1015.06	335.828
1017.95	279.281
1020.85	166.234
1023.74	280.57
1026.63	192.047
1029.53	174.367
1032.42	7.42188
1035.31	216.094
1038.2	180.156
1041.1	67.5312
1043.99	435.922
1046.88	274.852
1049.77	206.109
1052.67	278.742
1055.56	230.094
1058.45	150.477
1061.35	155.688
1064.24	297.18
1067.13	193.352
1070.02	47.4922
1072.92	163.562
1075.81	36.75
1078.7	144.531
1081.59	31.4844
1084.49	227.641
1087.38	138.867
1090.27	7.74219
1093.16	214
1096.06	125.891
1098.95	215.055
1101.84	250.078
1104.73	127.719
1107.63	166.711
1110.52	16.8594
1113.41	33.4297
1116.31	154.883
1119.2	252.211
1122.09	217.031
1124.98	290.203
1127.88	324.773
1130.77	106.25
1133.66	382.547
1136.56	324.562
1139.45	320.812
1142.34	294.359
1145.23	86.1641
1148.13	298.492
1151.02	472.961
1153.91	215.305
1156.8	313.922
1159.7	304.492
1162.59	370.32
1165.48	137.32
1168.38	351.312
1171.27	10.7812
1174.16	260.211
1177.05	185.359
1179.95	275.438
1182.84	283.398
1185.73	197.227
1188.62	174.781
1191.52	215.328
1194.41	177.812
1197.3	147.109
1200.19	285.703
1203.09	64.9297
1205.98	130.594
1208.87	60.3281
1211.77	225.25
1214.66	44.4844
1217.55	91.8516
1220.44	328.328
1223.34	118.273
1226.23	214.641
1229.12	19.0469
1232.01	249.539
1234.91	117.664
1237.8	141.906
1240.69	9.94531
1243.59	113.172
1246.48	64.6797
1249.37	210.688
1252.26	293.117
1255.16	386.867
1258.05	141.719
1260.94	234.711
1263.83	167.148
1266.73	224.984
1269.62	285.516
1272.51	218.688
1275.4	384.656
1278.3	118.281
1281.19	315.844
1284.08	76.3672
1286.98	305.602
1289.87	241.312
1292.76	181.039
1295.65	227.695
1298.55	105.117
1301.44	518.305
1304.33	131.242
1307.22	90.2109
1310.12	76.9375
1313.01	307.266
