Measurement: Raman, 514 nm, unoriented, Raman Data Processed
Mineral: Talc
Rruff sample: R050050
Ideal chemistry: Mg_3_Si_4_O_10_(OH)_2_
Locality: Christmas mine, Christmas, Gila County, Arizona, USA
Source: University of Arizona Mineral Museum
Description: Fine-grained consolidated powder
Measured chemistry: (Mg_2.83_Ca_0.14_Al_0.03_)_Σ=3_(Si_3.97_Al_0.03_)_Σ=4_O_10_(OH)_2_
Raman shift (cm-1)	intensity
91.981	0
96.161	1687.57
100.34	6600.2
104.516	8481.32
108.691	4157.18
112.864	1419.9
117.034	1906.37
121.203	893.311
125.369	159.469
129.534	30.6
133.696	83.68
137.857	49.965
142.016	66.871
146.172	389.189
150.327	386.527
154.48	672.547
158.63	917.021
162.779	1323.23
166.926	2248.72
171.07	4022.94
175.213	8325.35
179.354	15117.7
183.493	21928.6
187.63	21021.6
191.765	12874.8
195.898	6296.22
200.029	3407.41
204.158	2120.44
208.285	1364.95
212.41	813.895
216.533	668.025
220.654	593.91
224.773	686.506
228.891	778.576
233.006	772.418
237.119	401.986
241.231	91.568
245.34	12.68
249.448	23.871
253.553	166.934
257.657	243.67
261.758	89.154
265.858	154.539
269.956	221.52
274.052	10.318
278.146	275.018
282.237	670.465
286.327	1278.16
290.416	1502.7
294.502	1218.62
298.586	696.172
302.668	325.754
306.749	410.973
310.827	319.943
314.903	381.701
318.978	541.268
323.051	829.654
327.121	1079.86
331.19	1080.89
335.257	1475.24
339.322	1320.46
343.385	1603.47
347.446	2481.72
351.505	4543.52
355.563	8328.38
359.618	10955.5
363.672	8866.51
367.723	5285.17
371.773	3578.49
375.821	2711.4
379.866	1978.55
383.91	1700.15
387.952	1343.31
391.992	867.715
396.031	555.334
400.067	717.389
404.101	534.775
408.134	601.469
412.165	553.76
416.193	871.721
420.22	1236.15
424.245	1705.74
428.268	2133.36
432.289	2081.69
436.309	1812.25
440.326	1608.77
444.342	1667.97
448.355	1573.93
452.367	1314.79
456.377	1158.91
460.385	1368.16
464.391	1693.13
468.395	2010.12
472.398	1572.54
476.398	992.428
480.397	549.793
484.394	465.621
488.389	380.908
492.382	531.648
496.373	321.844
500.362	455.523
504.349	387.777
508.335	297.658
512.319	454.154
516.3	281.221
520.28	150.832
524.259	207.947
528.235	169.494
532.209	222.588
536.182	124.713
540.152	207.447
544.121	44.479
548.088	13.645
552.053	137.818
556.017	30.287
559.978	93.949
563.938	112.205
567.895	89.43
571.851	49.346
575.805	117.799
579.758	193.234
583.708	220.496
587.657	15.881
591.603	86.039
595.548	581.666
599.491	221.195
603.432	280.541
607.372	390.91
611.309	325.217
615.245	416.598
619.179	563.33
623.111	886.443
627.041	733.922
630.97	866.775
634.896	1524
638.821	1629.59
642.744	1942.53
646.665	1980.04
650.584	2376.84
654.502	2815.64
658.418	3587.08
662.331	4634.1
666.244	6595.89
670.154	11184.2
674.062	19508.1
677.969	29462.5
681.874	32062.9
685.777	25883.2
689.678	17734
693.577	11347.1
697.475	8512.25
701.371	5870.89
705.265	4128.88
709.157	2510.55
713.047	1887.66
716.936	1118.73
720.823	1036.18
724.708	797.473
728.591	446.021
732.472	609.021
736.352	534.953
740.23	646.951
744.106	525.564
747.98	393.682
751.853	710.574
755.723	851.689
759.592	605.371
763.459	1037.49
767.325	1185.64
771.188	1146.03
775.05	777.66
778.91	1169.62
782.768	1074.83
786.625	1301.88
790.479	1069.99
794.332	807.199
798.183	813.719
802.033	790.596
805.88	538.775
809.726	272.852
813.57	23.521
817.413	29.932
821.253	35.271
825.092	88.582
828.929	132.713
832.764	156.699
836.598	68.865
840.429	26.975
844.259	3.346
848.088	133.604
851.914	183.756
855.739	148.467
859.562	72.102
863.383	175.16
867.203	188.02
871.02	157.406
874.836	137.006
878.65	118.975
882.463	51.941
886.274	139.301
890.083	252.725
893.89	122.018
897.695	124.846
901.499	140.979
905.301	70.412
909.102	124.557
912.9	324.459
916.697	225.789
920.492	161.521
924.285	143.688
928.077	254.279
931.867	442.303
935.655	689.777
939.442	274.709
943.226	446.094
947.009	574.955
950.791	324.299
954.57	346.902
958.348	590.059
962.124	399.053
965.899	446.883
969.671	591.109
973.442	782.449
977.211	905.74
980.979	785.893
984.745	546.377
988.509	507.094
992.271	449.791
996.032	949.848
999.791	695.396
1003.55	992.518
1007.3	903.381
1011.06	825.246
1014.81	900.477
1018.56	1208.48
1022.31	1212.6
1026.06	1196.48
1029.8	1071.44
1033.55	1183.56
1037.29	1255.43
1041.03	1677
1044.77	1506.64
1048.5	1163.93
1052.24	1615.75
1055.97	1483.95
1059.7	1803.08
1063.43	1744.62
1067.16	1635.88
1070.89	1713.86
1074.61	1653.92
1078.34	1738.83
1082.06	1853.06
1085.78	1604.67
1089.5	1519.67
1093.21	1237.77
1096.93	1304.83
1100.64	1509.91
1104.35	1633.75
1108.06	1667.86
1111.77	1662.65
1115.48	1952.13
1119.18	1404.98
1122.89	1122.81
1126.59	375.867
1130.29	476.605
1133.99	104.012
1137.68	139.238
1141.38	52.066
1145.07	124.895
1148.76	109.621
1152.45	42.562
1156.14	130.25
1159.83	3.734
1163.51	220.844
1167.19	192.246
1170.88	68.566
1174.56	4.375
1178.23	173.961
1181.91	19.617
1185.59	77.551
1189.26	78.039
1192.93	209.984
1196.6	214.453
1200.27	514.164
1203.94	10.492
1207.6	523.055
1211.27	486.766
1214.93	184.008
1218.59	332.816
1222.25	652.391
1225.9	796.027
1229.56	500.48
1233.21	426.164
1236.86	254.414
1240.51	409.148
1244.16	309.078
1247.81	686.367
1251.45	293.547
1255.1	254.824
1258.74	80.41
1262.38	277.098
1266.02	383.43
1269.66	352.426
1273.29	289.727
1276.93	284.379
1280.56	233.77
1284.19	99
1287.82	44.035
1291.45	396.625
1295.07	451.047
1298.7	343.582
1302.32	262.797
1305.94	7.246
1309.56	20.34
1313.18	92.773
1316.8	62.012
1320.41	195.777
1324.02	132.59
1327.63	154.574
1331.24	95.246
1334.85	174.652
1338.46	288.852
1342.06	262.691
1345.67	385.344
1349.27	421.516
1352.87	442.242
1356.47	55.105
1360.07	604.5
1363.66	552.773
1367.25	802.844
1370.85	324.234
1374.44	569.863
1378.03	462.078
1381.61	664.059
1385.2	780.043
1388.78	749.824
1392.37	384.055
1395.95	313.438
1399.53	496.602
1403.1	482.977
1406.68	515.047
1410.26	620.164
1413.83	39.852
1417.4	601.613
1420.97	293.676
1424.54	474.945
1428.1	431.859
1431.67	283.227
1435.23	270.449
1438.8	138.66
1442.36	400.438
1445.91	400.926
1449.47	419.266
1453.03	292.859
1456.58	272.066
1460.13	184.992
1463.68	149.258
1467.23	0
