Measurement: Raman, 514 nm, unoriented, Raman Data Processed
Mineral: Talc
Rruff sample: R050058
Ideal chemistry: Mg_3_Si_4_O_10_(OH)_2_
Locality: Murphy, North Carolina, USA
Source: Rock Currier
Description: Fine-grained massive fragment
Measured chemistry: (Mg_.994_Fe_.006_)_3_(Si_.996_Al_.004_)_4_O_10_(OH)_2_
Raman shift (cm-1)	intensity
122.592	0
126.758	117.041
130.922	314.645
135.083	129.684
139.243	464.148
143.401	235.652
147.557	459.725
151.711	629.549
155.863	180.355
160.013	303.969
164.161	357.562
168.308	378.564
172.452	445.969
176.594	469.682
180.734	545.285
184.872	1205.55
189.008	4242.12
193.143	10582.3
197.275	2599.83
201.405	914.719
205.534	290.066
209.66	395.936
213.784	273.387
217.907	214.906
222.027	359.484
226.146	446.574
230.263	355.518
234.377	275.094
238.49	185.201
242.601	397.807
246.709	180.969
250.816	102.857
254.921	33.541
259.024	159.137
263.125	14.85
267.224	207.703
271.321	305.191
275.416	78.359
279.51	186.717
283.601	550.178
287.69	1028.98
291.778	924.51
295.863	221.047
299.947	156.844
304.029	31.854
308.108	316.572
312.186	143.643
316.262	145.896
320.336	46.074
324.408	150.432
328.478	51.59
332.546	354.211
336.612	311.195
340.677	124.715
344.739	349.424
348.799	215.34
352.858	866.85
356.915	2132.52
360.969	4064.22
365.022	2093.54
369.073	861.561
373.122	121.133
377.169	254.312
381.215	388.344
385.258	162.436
389.299	30.727
393.339	60.674
397.376	80.617
401.412	16.361
405.446	205.816
409.478	210.5
413.508	11.541
417.536	139.934
421.562	298.055
425.586	722.895
429.609	1025.26
433.629	1212.23
437.648	276.021
441.665	10.729
445.68	178.668
449.693	246.594
453.704	576.066
457.713	191.576
461.721	275.492
465.726	609.004
469.73	521.166
473.731	942.141
477.731	104.938
481.729	90.619
485.725	163.814
489.72	171.17
493.712	8.305
497.703	72.148
501.691	73.199
505.678	284.029
509.663	208.557
513.646	236.771
517.627	444.672
521.607	208.221
525.584	158.395
529.56	330.199
533.534	16.424
537.506	147.273
541.476	74.598
545.444	304.496
549.41	120.176
553.375	120.754
557.337	138.625
561.298	123.945
565.257	4.922
569.214	178.121
573.17	84.621
577.123	80.656
581.075	302.988
585.024	8.203
588.972	532.648
592.918	412.578
596.863	341.652
600.805	181.508
604.746	362.934
608.685	186
612.621	205.066
616.557	214.367
620.49	352.75
624.421	208.66
628.351	598.422
632.279	802.926
636.205	278.113
640.129	556.492
644.051	235.477
647.972	762.035
651.89	424.668
655.807	913.855
659.722	1110.96
663.636	1625.91
667.547	3200.02
671.457	5954.85
675.365	8693.22
679.271	6407.23
683.175	3235.65
687.077	1786.42
690.978	1250
694.877	1086.98
698.774	498.094
702.669	508.754
706.562	641.797
710.454	736.039
714.344	316.641
718.232	534.738
722.118	233.832
726.002	304.82
729.885	235.219
733.766	120.625
737.645	363.102
741.522	312.824
745.397	241.602
749.271	230
753.143	13.875
757.013	165.086
760.881	2.062
764.748	134.121
768.613	36.484
772.476	97.113
776.337	347.652
780.196	173.207
784.054	607.121
787.91	412.785
791.764	539.426
795.616	399.707
799.467	141.68
803.316	66.668
807.163	486.301
811.008	207.023
814.851	328.473
818.693	141.531
822.533	193.449
826.371	77.113
830.208	646.004
834.042	299.891
837.875	395.98
841.706	716.066
845.536	569.035
849.363	97.094
853.189	33.594
857.013	615.766
860.836	429.336
864.656	821.805
868.475	469.809
872.292	375.812
876.108	202.027
879.922	425.527
883.733	366.383
887.544	300.184
891.352	459.938
895.159	431.332
898.964	253.973
902.767	402.625
906.568	384.285
910.368	481.238
914.166	482.703
917.962	80.965
921.757	678.867
925.55	862.473
929.341	421.973
933.13	390.148
936.918	234.211
940.703	288.277
944.488	736.203
948.27	589.508
952.051	541.207
955.83	547.5
959.607	218.262
963.383	458.75
967.156	689.656
970.928	560.195
974.699	296.848
978.468	40.941
982.234	242.852
986	571.613
989.763	662.375
993.525	642.371
997.285	587.883
1001.04	1084.58
1004.8	527.324
1008.55	561.77
1012.31	1095.09
1016.06	785.855
1019.81	579.238
1023.56	464.414
1027.31	649.371
1031.05	416.473
1034.79	370.527
1038.53	837.316
1042.27	754.793
1046.01	1105.61
1049.75	2054.96
1053.48	1909.89
1057.22	1485.32
1060.95	647.48
1064.68	713.176
1068.4	1298
1072.13	855.043
1075.86	606.641
1079.58	873.832
1083.3	421.094
1087.02	212.27
1090.74	439.785
1094.45	130.715
1098.17	79.781
1101.88	47.781
1105.59	334.211
1109.3	226.184
1113.01	68.234
1116.71	256.02
1120.42	159.27
1124.12	199.543
1127.82	155.469
1131.52	324.191
1135.22	153.23
1138.91	597.699
1142.61	58.746
1146.3	481.594
1149.99	360.867
1153.68	487.586
1157.37	64.758
1161.06	597.09
1164.74	345.629
1168.42	814.055
1172.1	268.238
1175.78	647.555
1179.46	751.734
1183.14	552.039
1186.81	364.477
1190.48	318.879
1194.15	198.934
1197.83	753.637
1201.49	176.18
1205.16	747.379
1208.82	80.578
1212.49	383.043
1216.15	635.715
1219.81	336.867
1223.46	0
