Measurement: Raman, 514 nm, unoriented, Raman Data Processed
Mineral: Talc
Rruff sample: R050087
Ideal chemistry: Mg_3_Si_4_O_10_(OH)_2_
Locality: St. Lawrence County, New York, USA
Source: University of Arizona Mineral Museum
Description: An aggregate of colorless foliated coarse single crystals
Measured chemistry: (Mg_.998_Fe_.002_)_3_(Si_.997_Al_.003_)_4_O_10_(OH_.966_F_.034_)_2_
Raman shift (cm-1)	intensity
97.554	0
101.732	2732.62
105.908	5965.02
110.082	7152.2
114.254	4536.29
118.424	1833.48
122.592	356.646
126.758	12.742
130.922	61.626
135.083	81.94
139.243	5.45
143.401	108
147.557	112.443
151.711	12.172
155.863	0.615
160.013	3.426
164.161	50.387
168.308	58.317
172.452	152.295
176.594	239.312
180.734	425.059
184.872	1525.06
189.008	8467.35
193.143	27319.7
197.275	8632.77
201.405	1927.9
205.534	849.616
209.66	444.664
213.784	388.505
217.907	323.197
222.027	371.735
226.146	916.092
230.263	719.229
234.377	286.112
238.49	90.839
242.601	10.671
246.709	6.155
250.816	6.146
254.921	52.754
259.024	104.626
263.125	39.947
267.224	33.043
271.321	121.094
275.416	104.75
279.51	204.294
283.601	1125.96
287.69	3456.24
291.778	3037.05
295.863	636.984
299.947	350.912
304.029	304.764
308.108	52.627
312.186	54.812
316.262	124.588
320.336	194.508
324.408	551.455
328.478	1086.83
332.546	1708.56
336.612	1084.85
340.677	812.703
344.739	1304.88
348.799	1728.37
352.858	3601.16
356.915	8404.25
360.969	15401.6
365.022	11079.2
369.073	4362.16
373.122	1669.29
377.169	1438.75
381.215	1318.58
385.258	819.404
389.299	424.068
393.339	237.764
397.376	289.463
401.412	107.133
405.446	160.211
409.478	271.844
413.508	120.859
417.536	195.506
421.562	546.381
425.586	1158.27
429.609	2907.7
433.629	4358.37
437.648	1637.84
441.665	580.469
445.68	612.178
449.693	765.078
453.704	1167.99
457.713	835.055
461.721	1292.34
465.726	3004.86
469.73	2773.48
473.731	1234.06
477.731	313.893
481.729	136.785
485.725	200.504
489.72	206.658
493.712	129.613
497.703	72.654
501.691	396.684
505.678	888.695
509.663	789.686
513.646	642.648
517.627	585.047
521.607	388.467
525.584	201.309
529.56	90.102
533.534	104.17
537.506	123.275
541.476	126.357
545.444	53.5
549.41	84.896
553.375	204.098
557.337	165.148
561.298	48.053
565.257	66.479
569.214	2.729
573.17	96.404
577.123	85.91
581.075	197.078
585.024	71.691
588.972	0.275
592.918	11.256
596.863	259.223
600.805	210.123
604.746	221.23
608.685	62.303
612.621	135.908
616.557	299.436
620.49	426.846
624.421	182.145
628.351	704.328
632.279	632.4
636.205	433.357
640.129	856.195
644.051	828.912
647.972	1356.51
651.89	1341.44
655.807	2176.8
659.722	3378.02
663.636	5088.13
667.547	10260.2
671.457	22317.1
675.365	38968.9
679.271	32556.5
683.175	16811.1
687.077	8173.54
690.978	4697.23
694.877	3127.48
698.774	1866.76
702.669	1433.42
706.562	1300.2
710.454	1027.96
714.344	610.789
718.232	484.17
722.118	430.715
726.002	273.801
729.885	385.553
733.766	245.086
737.645	242.902
741.522	98.672
745.397	400.895
749.271	314.037
753.143	50.252
757.013	155.68
760.881	260.059
764.748	196.844
768.613	98.809
772.476	78.125
776.337	422.373
780.196	944.619
784.054	2023.26
787.91	2231.89
791.764	2361.12
795.616	1896.63
799.467	873.93
803.316	315.184
807.163	515.436
811.008	190.727
814.851	239.996
818.693	15.641
822.533	117
826.371	185.391
830.208	47.369
834.042	47.18
837.875	83.18
841.706	268.01
845.536	386.98
849.363	49.33
853.189	250.846
857.013	368.438
860.836	129.332
864.656	341.307
868.475	121.336
872.292	296.561
876.108	46.896
879.922	175.402
883.733	193.227
887.544	127.213
891.352	190.432
895.159	174.744
898.964	3.303
902.767	63.391
906.568	238.717
910.368	106.963
914.166	58.9
917.962	118.246
921.757	368.814
925.55	366.842
929.341	135.016
933.13	0.027
936.918	0.885
940.703	287.736
944.488	60.928
948.27	216.812
952.051	244.758
955.83	266.869
959.607	231.969
963.383	237.602
967.156	243.822
970.928	168.076
974.699	277.637
978.468	28.211
982.234	160.908
986	442.488
989.763	571.875
993.525	438.783
997.285	453.957
1001.04	874.15
1004.8	566.629
1008.55	588.098
1012.31	1040.08
1016.06	1491.26
1019.81	1345.97
1023.56	925.736
1027.31	838.1
1031.05	654.65
1034.79	465.969
1038.53	752.355
1042.27	1081.81
1046.01	1062.01
1049.75	2157.64
1053.48	1993.13
1057.22	1284.49
1060.95	762.746
1064.68	542.74
1068.4	752.324
1072.13	662.867
1075.86	694.262
1079.58	799.17
1083.3	356.828
1087.02	463.889
1090.74	292.008
1094.45	198.123
1098.17	346.844
1101.88	103.221
1105.59	317.426
1109.3	182.088
1113.01	39.451
1116.71	143.422
1120.42	181.857
1124.12	208.559
1127.82	192.236
1131.52	298.768
1135.22	77.477
1138.91	356.396
1142.61	76.121
1146.3	175.504
1149.99	199.996
1153.68	305.324
1157.37	22.562
1161.06	329.078
1164.74	93.379
1168.42	411.355
1172.1	127.488
1175.78	205.941
1179.46	185.742
1183.14	299.094
1186.81	298.387
1190.48	256.598
1194.15	346.137
1197.83	302.414
1201.49	260.008
1205.16	722.188
1208.82	49.133
1212.49	558.488
1216.15	458.43
1219.81	472.641
1223.46	422.176
1227.12	456.586
1230.78	544.922
1234.43	526.129
1238.08	634.367
1241.73	716.898
1245.38	325.332
1249.03	195.762
1252.67	237.348
1256.31	252.348
1259.95	196.141
1263.6	378.379
1267.23	354.867
1270.87	81.184
1274.51	314.234
1278.14	166.598
1281.77	463.605
1285.4	254.168
1289.03	388.484
1292.66	334.875
1296.28	213.801
1299.91	323.711
1303.53	261.797
1307.15	267.066
1310.77	534.219
1314.38	27.5
1318	445.117
1321.61	260.504
1325.23	244.707
1328.84	81.547
1332.45	382.273
1336.06	137.43
