Measurement: Raman, 532 nm, unoriented, Raman Data Processed
Mineral: Talc
Rruff sample: R050087
Ideal chemistry: Mg_3_Si_4_O_10_(OH)_2_
Locality: St. Lawrence County, New York, USA
Source: University of Arizona Mineral Museum
Description: An aggregate of colorless foliated coarse single crystals
Measured chemistry: (Mg_.998_Fe_.002_)_3_(Si_.997_Al_.003_)_4_O_10_(OH_.966_F_.034_)_2_
Raman shift (cm-1)	intensity
153.78	0
156.672	43.6609
159.565	8.88062
162.458	16.2229
165.351	37.7673
168.243	42.5701
171.136	115.523
174.029	56.8762
176.921	166.172
179.814	367.807
182.707	491.774
185.6	744.179
188.492	1433.48
191.385	2545.67
194.278	5463.63
197.17	1185.96
200.063	271.793
202.956	143.041
205.848	128.542
208.741	101.423
211.634	96.6982
214.526	94.0222
217.419	33.8428
220.312	48.043
223.205	86.9893
226.097	128.376
228.99	182.455
231.883	106.735
234.775	1.0227
237.668	23.396
240.561	13.457
243.453	39.1182
246.346	30.2707
249.239	9.42285
252.132	19.7107
255.024	4.88379
257.917	48.8818
260.81	25.2229
263.702	36.4268
266.595	59.603
269.488	24.0149
272.38	43.3083
275.273	104.999
278.166	134.048
281.059	230.936
283.951	321.507
286.844	535.248
289.737	944.941
292.629	348.767
295.522	236.084
298.415	78.5845
301.308	87.5081
304.2	136.646
307.093	18.2459
309.986	24.0794
312.878	11.9456
315.771	22.634
318.664	73.7786
321.556	69.9409
324.449	182.607
327.342	267.747
330.235	515.83
333.127	671.566
336.02	525.63
338.913	279.253
341.805	253.446
344.698	448.862
347.591	729.615
350.483	1107.95
353.376	1659.67
356.269	2600.9
359.162	3598.06
362.054	4445.88
364.947	3126.07
367.84	1417.94
370.732	702.684
373.625	470.424
376.518	410.3
379.411	446.449
382.303	350.877
385.196	224.988
388.089	129.485
390.981	89.0078
393.874	34.3408
396.767	23.4558
399.659	24.2913
402.552	27.1816
405.445	19.2974
408.337	0.3125
411.23	3.49414
414.123	3.74902
417.016	55.1836
419.908	95.207
422.801	212.084
425.694	346.774
428.586	578.387
431.479	988.259
434.372	899.45
437.264	249.796
440.157	70.4819
443.05	220.739
445.943	4.78516
448.835	17.4839
451.728	107.747
454.621	121.463
457.513	206.99
460.406	237.078
463.299	373.842
466.192	555.042
469.084	668.524
471.977	267.856
474.87	91.1816
477.762	56.7017
480.655	29.3838
483.548	10.1143
486.44	40.123
489.333	22.9712
492.226	63.3359
495.118	111.053
498.011	149.364
500.904	256.525
503.797	393.483
506.689	445.606
509.582	358.798
512.475	277.794
515.367	243.831
518.26	196.307
521.153	173.003
524.045	126.725
526.938	86.6274
529.831	88.6245
532.724	103.48
535.616	63.1724
538.509	38.0117
541.402	67.6748
544.294	41.792
547.187	47.376
550.08	74.8398
552.972	6.67383
555.865	64.8086
558.758	28.3774
561.651	37.1025
564.543	5.43848
567.436	73.7095
570.329	24.0786
573.221	34.2554
576.114	7.03613
579.007	16.2041
581.899	8.00537
584.792	4.47168
587.685	90.6636
590.578	36.1187
593.47	40.4487
596.363	55.0596
599.256	32.6352
602.149	69.5391
605.041	51.8115
607.934	92.9419
610.827	114.655
613.719	79.3638
616.612	121.96
619.505	127.71
622.397	67.9863
625.29	114.234
628.183	102.42
631.076	124.752
633.968	136.778
636.861	112.662
639.754	181.037
642.646	211.132
645.539	246.783
648.432	238.353
651.324	353.014
654.217	471.275
657.11	709.261
660.003	980.528
662.895	1839.15
665.788	2780.37
668.681	4328.59
671.573	6478.49
674.466	8629.5
677.359	8976.47
680.251	6105.66
683.144	3241.97
686.037	1841.45
688.929	1087.2
691.822	645.651
694.715	477.049
697.608	310.114
700.5	211.21
703.393	113.469
706.286	95.0894
709.178	62.1045
712.071	2.45459
714.964	8.58496
717.856	10.647
720.749	26.8486
723.642	28.0298
726.535	2.5957
729.427	32.0923
732.32	10.1719
735.213	68.2534
738.105	68.8857
740.998	65.6919
743.891	88.3491
746.784	44.294
749.676	50.3774
752.569	87.0391
755.462	105.334
758.354	181.394
761.247	91.9937
764.14	114.124
767.033	116.212
769.925	120.931
772.818	219.45
775.711	287.052
778.603	460.918
781.496	684.382
784.389	1024.04
787.281	1179.24
790.174	1107.48
793.067	1070.7
795.96	775.394
798.852	375.371
801.745	277.155
804.638	91.5684
807.53	57.2739
810.423	79.0781
813.316	29.3218
816.208	7.40234
819.101	25.0625
821.994	15.2471
824.886	12.169
827.779	12.1138
830.672	18.8052
833.565	29.1367
836.457	14.8867
839.35	12.1572
842.243	51.4941
845.135	68.4409
848.028	35.9487
850.921	90.2353
853.813	18.3726
856.706	51.9829
859.599	77.0181
862.492	89.2559
865.384	89.8789
868.277	141.772
871.17	117.05
874.062	137.198
876.955	128.105
879.848	161.278
882.74	116.2
885.633	151.857
888.526	136.246
891.419	174.25
894.311	111.388
897.204	69.1768
900.097	98.8203
902.989	96.356
905.882	87.687
908.775	88.0596
911.668	75.7144
914.56	50.6963
917.453	4.24756
920.346	60.269
923.238	32.9228
926.131	62.2529
929.024	68.0698
931.916	11.6357
934.809	11.6484
937.702	40.9536
940.595	20.6626
943.487	73.7251
946.38	14.0859
949.273	58.1953
952.165	99.7827
955.058	65.3975
957.951	49.8262
960.843	96.8667
963.736	94.0371
966.629	95.0606
969.521	92.4404
972.414	95.8359
975.307	120.315
978.2	142.446
981.092	132.366
983.985	132.27
986.878	91.1333
989.77	129.94
992.663	127.676
995.556	134.06
998.448	136.184
1001.34	119.814
1004.23	130.875
1007.13	158.076
1010.02	170.697
1012.91	247.096
1015.8	227.651
1018.7	198.635
1021.59	159.81
1024.48	138.208
1027.38	177.649
1030.27	125.87
1033.16	64.9541
1036.05	133.682
1038.95	54.5908
1041.84	70.7251
1044.73	50.792
1047.62	84.0576
1050.52	111.35
1053.41	86.8638
1056.3	92.5679
1059.19	41.5962
1062.09	17.7119
1064.98	75.314
1067.87	22.2246
1070.77	5.7168
1073.66	16.5518
1076.55	3.38184
1079.44	15.9355
1082.34	74.7549
1085.23	30.4805
1088.12	79.709
1091.02	21.2334
1093.91	18.2783
1096.8	106.08
1099.69	55.7808
1102.59	136.089
1105.48	105.972
1108.37	117.617
1111.26	89.5693
1114.16	82.332
1117.05	117.418
1119.94	133.945
1122.84	172.176
1125.73	154.88
1128.62	177.542
1131.51	141.167
1134.41	151.85
1137.3	136.04
1140.19	68.3779
1143.08	138.451
1145.98	61.2026
1148.87	74.0601
1151.76	72.9356
1154.65	48.419
1157.55	48.1377
1160.44	21.7622
1163.33	46.7471
1166.22	47.1621
1169.12	43.5102
1172.01	14.8032
1174.9	6.93066
1177.8	48.3809
1180.69	49.9385
1183.58	40.7539
1186.47	44.8008
1189.37	49.5757
1192.26	62.2051
1195.15	83.751
1198.05	108.894
1200.94	117.413
1203.83	92.6997
1206.72	127.307
1209.62	103.802
1212.51	134.459
1215.4	105.71
1218.29	139.341
1221.19	121.967
1224.08	160.5
1226.97	122.298
1229.87	192.146
1232.76	194.705
1235.65	147.614
1238.54	198.06
1241.44	142.02
1244.33	165.341
1247.22	146.586
1250.11	168.25
1253.01	138.337
1255.9	167.505
1258.79	157.835
1261.68	119.476
1264.58	99.6719
1267.47	65.3862
1270.36	162.216
1273.26	97.8106
1276.15	94.8062
1279.04	74.7651
1281.93	48.5088
1284.83	24.2979
1287.72	88.6816
1290.61	40.0098
1293.5	5.14404
1296.4	70.2812
1299.29	66.7871
1302.18	3.00049
1305.08	30.2153
