Measurement: Raman, 785 nm, unoriented, Raman Data Processed
Mineral: Talc
Rruff sample: R050087
Ideal chemistry: Mg_3_Si_4_O_10_(OH)_2_
Locality: St. Lawrence County, New York, USA
Source: University of Arizona Mineral Museum
Description: An aggregate of colorless foliated coarse single crystals
Measured chemistry: (Mg_.998_Fe_.002_)_3_(Si_.997_Al_.003_)_4_O_10_(OH_.966_F_.034_)_2_
Raman shift (cm-1)	intensity
135.493	0
138.385	28.8742
141.278	19.1929
144.171	106.365
147.064	490.818
149.956	1063.2
152.849	1433.86
155.742	996.074
158.634	558.266
161.527	387.789
164.42	432.071
167.312	519.604
170.205	581.287
173.098	558.975
175.99	550.362
178.883	787.627
181.776	1043.23
184.669	1289.81
187.561	1888.94
190.454	3449.85
193.347	7852.65
196.239	4639.7
199.132	912.875
202.025	469.222
204.917	370.903
207.81	306.288
210.703	200.292
213.596	184.635
216.488	189.493
219.381	208.83
222.274	173.901
225.166	261.899
228.059	298.658
230.952	330.998
233.845	127.009
236.737	78.2498
239.63	93.5349
242.523	112.682
245.415	35.9233
248.308	50.3672
251.201	16.6226
254.093	5.48511
256.986	29.8926
259.879	59.5337
262.772	9.52808
265.664	37.4273
268.557	4.34546
271.45	22.4707
274.342	112.06
277.235	209.838
280.128	337.276
283.02	506.309
285.913	901.312
288.806	1880.37
291.699	1380.35
294.591	227.995
297.484	49.2419
300.377	26.1152
303.269	99.147
306.162	16.29
309.055	43.4653
311.947	51.3667
314.84	22.7727
317.733	37.1682
320.625	93.6103
323.518	261.108
326.411	427.891
329.304	720.765
332.196	1033.31
335.089	830.453
337.982	557.476
340.874	491.775
343.767	680.976
346.66	1225.87
349.553	1730.99
352.445	2401.85
355.338	3661.99
358.231	5578.48
361.123	7377.24
364.016	6318.63
366.909	3244.51
369.801	1534.43
372.694	838.4
375.587	666.949
378.479	722.329
381.372	555.077
384.265	399.745
387.158	234.187
390.05	118.232
392.943	78.2915
395.836	32.0418
398.728	66.9031
401.621	11.6897
404.514	35.0623
407.406	19.9412
410.299	24.7996
413.192	0.828857
416.085	84.4004
418.977	197.689
421.87	339.393
424.763	494.916
427.655	889.661
430.548	1582.69
433.441	1923.28
436.334	875.334
439.226	286.027
442.119	120.422
445.012	88.3445
447.904	131.86
450.797	166.408
453.69	177.56
456.582	191.355
459.475	222.201
462.368	376.633
465.26	697.297
468.153	1007.95
471.046	582.811
473.939	203.842
476.831	94.8784
479.724	40.9634
482.617	35.2844
485.509	5.61914
488.402	78.1172
491.295	119.946
494.188	123.029
497.08	295.166
499.973	274.239
502.866	378.889
505.758	546.361
508.651	493.638
511.544	337.326
514.436	355.771
517.329	378.435
520.222	327.592
523.115	167.381
526.007	124.986
528.9	65.9399
531.793	62.4993
534.685	39.1211
537.578	29.1895
540.471	1.69165
543.363	10.2048
546.256	3.66724
549.149	5.36011
552.041	32.645
554.934	8.49292
557.827	31.1333
560.72	35.523
563.612	12.615
566.505	11.123
569.398	5.53638
572.29	3.54834
575.183	3.32129
578.076	8.71631
580.968	16.3525
583.861	40.5405
586.754	57.5361
589.646	23.4959
592.539	24.0642
595.432	22.0845
598.325	45.8274
601.217	55.2144
604.11	45.0251
607.003	47.5437
609.895	50.7341
612.788	50.8862
615.681	13.1948
618.573	22.5974
621.466	36.7119
624.359	64.6555
627.252	84.5061
630.144	74.9836
633.037	93.043
635.93	152.054
638.822	141.371
641.715	177.637
644.608	222.57
647.5	304.548
650.393	392.76
653.286	566.955
656.179	790.183
659.071	1233.56
661.964	1953.29
664.857	3269.77
667.75	5372.07
670.642	8464.92
673.535	12032.1
676.428	13886.7
679.32	10329.8
682.213	5818.23
685.106	3185.34
687.998	1859.03
690.891	1215.38
693.784	823.422
696.677	551.613
699.569	404.576
702.462	287.982
705.355	195.036
708.247	124.854
711.14	106.91
714.033	58.4553
716.925	51.5207
719.818	66.3064
722.711	13.5867
725.604	19.6148
728.496	14.3038
731.389	4.46582
734.282	4.31177
737.174	17.87
740.067	12.7111
742.96	14.6747
745.852	30.4452
748.745	18.391
751.638	43.5815
754.53	20.9454
757.423	14.006
760.316	1.40381
763.209	9.33508
766.101	35.0553
768.994	59.8711
771.887	118.405
774.779	171.602
777.672	301.537
780.565	548.064
783.457	908.335
786.35	1157.08
789.243	1082.33
792.136	1113.02
795.028	842.743
797.921	482.375
800.814	225.736
803.706	132.726
806.599	93.5742
809.492	34.9077
812.385	27.4544
815.277	25.1526
818.17	14.4155
821.063	6.03247
823.955	15.0729
826.848	4.67712
829.741	45.2023
832.633	12.4791
835.526	7.47925
838.419	22.9696
841.312	6.09692
844.204	24.0267
847.097	2.12793
849.99	29.5476
852.882	52.1054
855.775	2.51502
858.668	22.6801
861.56	62.5778
864.453	12.9314
867.346	34.7306
870.239	13.9718
873.131	58.0791
876.024	45.5383
878.917	61.6663
881.809	51.012
884.702	38.2936
887.595	41.3389
890.487	68.7622
893.38	29.2429
896.273	50.8606
899.165	40.0725
902.058	28.3887
904.951	36.4337
907.844	32.6968
910.736	33.8514
913.629	50.0209
916.522	51.0773
919.414	44.3068
922.307	5.03162
925.2	4.97205
928.092	13.7188
930.985	34.7019
933.878	23.7585
936.771	10.5592
939.663	7.46545
942.556	4.31079
945.449	2.1073
948.341	44.4822
951.234	46.3038
954.127	2.3988
957.019	8.07214
959.912	79.4314
962.805	20.5068
965.698	44.3978
968.59	31.9131
971.483	26.8353
974.376	4.87244
977.268	34.917
980.161	52.894
983.054	6.84375
985.947	81.7278
988.839	25.1251
991.732	28.0936
994.625	29.8156
997.517	82.2711
1000.41	64.3806
1003.3	36.3603
1006.2	56.1526
1009.09	84.6887
1011.98	81.4415
1014.87	114.454
1017.77	186.11
1020.66	92.4816
1023.55	47.5934
1026.44	33.1266
1029.34	69.4805
1032.23	1.60706
1035.12	1.65234
1038.02	12.4329
1040.91	21.8557
1043.8	80.2427
1046.69	96.5093
1049.59	111.235
1052.48	125.015
1055.37	101.31
1058.26	36.8635
1061.16	52.8712
1064.05	19.9011
1066.94	3.6637
1069.84	7.3479
1072.73	18.1329
1075.62	0.631836
1078.51	2.53149
1081.41	34.9448
1084.3	24.7291
1087.19	13.9873
1090.08	28.4246
1092.98	16.0458
1095.87	22.7862
1098.76	17.5138
1101.65	41.2175
1104.55	24.6682
1107.44	51.1425
1110.33	47.0745
1113.22	51.3793
1116.12	30.8771
1119.01	45.3209
1121.9	39.5697
1124.8	56.6127
1127.69	62.9644
1130.58	48.8829
1133.47	20.6536
1136.37	32.7875
1139.26	20.3112
1142.15	36.2715
1145.05	44.8612
1147.94	36.4207
1150.83	47.3694
1153.72	58.8582
1156.62	71.7322
1159.51	21.7972
1162.4	3.09094
1165.29	17.2021
1168.19	49.718
1171.08	11.8334
1173.97	3.77966
1176.87	4.66577
1179.76	14.0531
1182.65	6.64343
1185.54	27.5342
1188.43	20.0627
1191.33	1.92151
1194.22	28.6757
1197.11	41.4154
1200.01	53.5061
1202.9	43.155
1205.79	60.9728
1208.68	57.6016
1211.58	49.3424
1214.47	16.9971
1217.36	9.17261
1220.26	27.0858
1223.15	28.6582
1226.04	33.5808
1228.93	21.1365
