Measurement: Raman, 785 nm, unoriented, Raman Data Processed
Mineral: Talc
Rruff sample: R050050
Ideal chemistry: Mg_3_Si_4_O_10_(OH)_2_
Locality: Christmas mine, Christmas, Gila County, Arizona, USA
Source: University of Arizona Mineral Museum
Description: Fine-grained consolidated powder
Measured chemistry: (Mg_2.83_Ca_0.14_Al_0.03_)_Σ=3_(Si_3.97_Al_0.03_)_Σ=4_O_10_(OH)_2_
Raman shift (cm-1)	intensity
164.892	0
167.785	76.4626
170.677	304.163
173.57	537.024
176.463	851.811
179.356	1236.38
182.248	1650.1
185.141	1850.03
188.034	1483.19
190.926	926.961
193.819	490.172
196.712	249.569
199.604	117.478
202.497	75.2007
205.39	57.0261
208.282	12.8308
211.175	1.63818
214.068	6.6145
216.961	8.54761
219.853	49.456
222.746	19.7048
225.639	20.3147
228.531	38.3652
231.424	46.1206
234.317	1.34375
237.209	0.206299
240.102	41.615
242.995	0.491455
245.888	22.8147
248.78	19.5877
251.673	12.396
254.566	13.2336
257.458	14.7217
260.351	47.8582
263.244	24.5024
266.137	22.9783
269.029	66.6257
271.922	29.6689
274.815	91.0256
277.707	88.6233
280.6	98.6616
283.493	139.897
286.385	223.627
289.278	204.286
292.171	216.257
295.063	142.281
297.956	99.9165
300.849	93.7405
303.742	70.7519
306.634	59.144
309.527	93.2715
312.42	68.5269
315.312	23.0574
318.205	72.7073
321.098	62.0906
323.99	100.449
326.883	72.8294
329.776	129.114
332.669	112.276
335.561	127.243
338.454	148.81
341.347	210.403
344.239	263.854
347.132	384.05
350.025	537.466
352.918	713.681
355.81	949.353
358.703	1133.16
361.596	1026.7
364.488	710.265
367.381	478.025
370.274	321.816
373.166	248.99
376.059	201.575
378.952	205.841
381.844	143.339
384.737	67.7974
387.63	23.2183
390.523	31.3723
393.415	13.4219
396.308	29.4482
399.201	5.17261
402.093	2.98926
404.986	20.7625
407.879	18.1419
410.772	2.14673
413.664	10.2407
416.557	29.7
419.45	56.9727
422.342	112.531
425.235	111.536
428.128	141.651
431.02	130.431
433.913	108.497
436.806	102.274
439.699	146.293
442.591	93.9895
445.484	117.469
448.377	126.44
451.269	100.514
454.162	112.152
457.055	122.288
459.947	97.0945
462.84	128.23
465.733	145.22
468.625	157.863
471.518	127.353
474.411	60.6167
477.304	36.846
480.196	20.877
483.089	3.271
485.982	1.75635
488.874	24.2112
491.767	41.4834
494.66	25.6826
497.553	46.7415
500.445	21.011
503.338	13.4582
506.231	50.0259
509.123	51.6958
512.016	59.7129
514.909	19.9446
517.802	28.3535
520.694	42.4714
523.587	40.1492
526.48	21.8599
529.372	5.24585
532.265	23.4048
535.158	9.61084
538.05	16.094
540.943	41.3994
543.836	2.45825
546.729	13.2244
549.621	11.741
552.514	13.3867
555.407	29.1143
558.299	3.86011
561.192	32.1526
564.085	68.4834
566.977	18.1155
569.87	38.5874
572.763	22.6609
575.655	0.412109
578.548	2.77881
581.441	41.2434
584.333	20.877
587.226	36.6162
590.119	57.8076
593.012	13.3508
595.904	17.6113
598.797	21.0649
601.69	18.2549
604.582	23.1956
607.475	38.4905
610.368	19.9409
613.26	3.48462
616.153	31.9334
619.046	20.4268
621.939	3.11523
624.831	50.9917
627.724	104.01
630.617	69.3311
633.509	86.2922
636.402	97.9773
639.295	140.216
642.188	98.4985
645.08	132.06
647.973	168.644
650.866	149.699
653.758	254.247
656.651	273.705
659.544	410.034
662.436	508.56
665.329	701.078
668.222	1021.67
671.115	1434.31
674.007	1976.2
676.9	2445.38
679.793	2730.75
682.685	2541.56
685.578	1997.76
688.471	1466.02
691.363	1098.89
694.256	776.415
697.149	623.597
700.042	480.288
702.934	354.651
705.827	238.266
708.72	167.424
711.612	87.4619
714.505	60.9116
717.398	77.364
720.29	58.793
723.183	20.0146
726.076	38.8069
728.968	12.9731
731.861	21.1174
734.754	6.97388
737.647	40.5337
740.539	3.45776
743.432	24.4578
746.325	19.5747
749.217	48.5974
752.11	55.3857
755.003	63.957
757.895	37.6597
760.788	71.7498
763.681	65.5903
766.574	64.4812
769.466	35.4282
772.359	83.4932
775.252	100.418
778.144	92.7905
781.037	120.194
783.93	85.3369
786.822	82.7607
789.715	52.2336
792.608	50.1826
795.501	33.6609
798.393	36.5906
801.286	22.0098
804.179	5.90918
807.071	16.0176
809.964	0.102783
812.857	9.77539
815.75	16.6584
818.642	11.8892
821.535	36.4204
824.428	5.56885
827.32	24.5469
830.213	35.3999
833.106	1.97363
835.998	23.1699
838.891	10.3462
841.784	25.7866
844.677	71.6663
847.569	32.4163
850.462	21.8686
853.355	21.6062
856.247	16.5479
859.14	12.8081
862.033	43.0078
864.925	18.3906
867.818	25.4426
870.711	16.3799
873.604	42.6853
876.496	49.0134
879.389	23.876
882.282	4.43872
885.174	34.949
888.067	29.113
890.96	31.2197
893.852	34.3332
896.745	12.7398
899.638	18.2524
902.53	45.8142
905.423	38.9104
908.316	9.3169
911.209	39.3565
914.101	17.0972
916.994	22.7476
919.887	1.73242
922.779	25.0725
925.672	25.5586
928.565	45.354
931.457	4.10864
934.35	0.740234
937.243	52.5547
940.136	12.7705
943.028	23.5447
945.921	13.1099
948.814	18.0471
951.706	10.9802
954.599	42.9893
957.492	52.1953
960.385	65.7744
963.277	34.7759
966.17	24.5203
969.063	9.73511
971.955	70.1973
974.848	30.5813
977.741	34.3181
980.633	31.5718
983.526	50.1226
986.419	15.9053
989.312	6.04224
992.204	39.8699
995.097	0.829102
997.99	25.6824
1000.88	46.9497
1003.77	8.72363
1006.67	35.2051
1009.56	36.7373
1012.45	6.10938
1015.35	25.0715
1018.24	19.9089
1021.13	51.7798
1024.02	37.9419
1026.92	20.9893
1029.81	31.6406
1032.7	12.3234
1035.6	26.176
1038.49	34.8866
1041.38	53.1409
1044.27	35.2839
1047.17	16.6112
1050.06	39.9285
1052.95	44.2373
1055.84	64.7406
1058.74	62.4584
1061.63	62.1444
1064.52	35.2524
1067.41	65.0564
1070.31	62.8263
1073.2	76.4601
1076.09	126.055
1078.98	132.23
1081.88	139.72
1084.77	144.237
1087.66	207.27
1090.56	155.425
1093.45	110.999
1096.34	117.639
1099.23	86.6149
1102.13	70.7755
1105.02	70.6665
1107.91	74.0393
1110.81	79.5078
1113.7	74.9619
1116.59	41.3351
1119.48	29.0222
1122.38	39.5818
1125.27	33.1116
1128.16	15.2714
1131.05	3.00147
1133.95	20.5081
1136.84	27.4575
1139.73	3.2804
1142.62	1.91419
1145.52	0.573975
1148.41	14.8267
1151.3	33.5885
1154.19	10.6826
1157.09	34.4126
1159.98	34.3639
1162.87	14.166
1165.77	18.2162
1168.66	10.4551
1171.55	16.3632
1174.44	18.9135
1177.34	15.1896
1180.23	15.8964
1183.12	18.7943
1186.02	32.5829
1188.91	62.0088
1191.8	17.5848
1194.69	38.4318
1197.59	44.1786
1200.48	37.9371
1203.37	3.11523
1206.26	1.9585
1209.16	5.08972
1212.05	14.7106
1214.94	28.4285
1217.84	20.6939
1220.73	41.0525
1223.62	31.9009
1226.51	2.03186
1229.41	17.8079
1232.3	5.28577
1235.19	0
