Measurement: Raman, 532 nm, unoriented, Raman Data Processed
Mineral: Talc
Rruff sample: R050058
Ideal chemistry: Mg_3_Si_4_O_10_(OH)_2_
Locality: Murphy, North Carolina, USA
Source: Rock Currier
Description: Fine-grained massive fragment
Measured chemistry: (Mg_.994_Fe_.006_)_3_(Si_.996_Al_.004_)_4_O_10_(OH)_2_
Raman shift (cm-1)	intensity
167.5	0
170.393	125.576
173.286	161.684
176.178	208.629
179.071	795.676
181.964	1031.23
184.856	1848.91
187.749	3162.01
190.642	5661.36
193.535	10897.4
196.427	4398.68
199.32	804.879
202.213	459.699
205.105	346.914
207.998	288.373
210.891	392.435
213.783	336.621
216.676	252.809
219.569	383.414
222.462	284.871
225.354	395.697
228.247	444.738
231.14	241.75
234.032	207.088
236.925	121.064
239.818	288.246
242.71	55.6934
245.603	7.05859
248.496	146.408
251.388	33.5859
254.281	98.3594
257.174	68.1719
260.067	37.8184
262.959	57.543
265.852	93.1562
268.745	28.4473
271.637	10.9297
274.53	12.4629
277.423	156.457
280.315	164.672
283.208	355.668
286.101	548.281
288.994	823.785
291.886	612.918
294.779	299.734
297.672	140.168
300.564	71.9414
303.457	6.21094
306.35	186.113
309.243	110.016
312.135	64.2812
315.028	53.2812
317.921	109.301
320.813	77.5391
323.706	62.9531
326.599	40.7227
329.491	121.336
332.384	196.242
335.277	220.422
338.17	135.762
341.062	86.4531
343.955	313.809
346.848	439.324
349.74	707.629
352.633	1129.6
355.526	1903.82
358.418	2721.68
361.311	3643.08
364.204	2432.16
367.097	891.039
369.989	588.301
372.882	438.57
375.775	300.203
378.667	442.617
381.56	362.856
384.453	275.094
387.346	259.465
390.238	90.4844
393.131	24.3555
396.024	27.4219
398.916	91.5469
401.809	117.793
404.702	62.5742
407.594	5.72266
410.487	174.492
413.38	157.902
416.272	119.902
419.165	132.727
422.058	276.777
424.951	488.539
427.843	630.375
430.736	972.906
433.629	999.285
436.521	445.84
439.414	270.973
442.307	280.199
445.2	349.66
448.092	333.977
450.985	494.414
453.878	475.289
456.77	313.402
459.663	389.356
462.556	344.223
465.448	627.457
468.341	591.414
471.234	352.922
474.127	129.902
477.019	162.883
479.912	107.824
482.805	69.1719
485.697	122.613
488.59	23.2969
491.483	32.168
494.375	133.391
497.268	142.062
500.161	221.519
503.053	194.359
505.946	244.25
508.839	100.305
511.732	201.742
514.624	266.488
517.517	157.238
520.41	170.539
523.302	162.918
526.195	89.5742
529.088	184.07
531.981	129.238
534.873	151.254
537.766	73.6914
540.659	94.0352
543.551	133.938
546.444	123.523
549.337	238.082
552.229	35.9961
555.122	165.562
558.015	116.594
560.908	8.78516
563.8	118.824
566.693	103.016
569.586	8.03906
572.478	30.4023
575.371	43.668
578.264	82.0547
581.156	20.5703
584.049	147.379
586.942	64.4609
589.835	6.15625
592.727	60.9531
595.62	252.867
598.513	148.953
601.405	314.848
604.298	134.285
607.191	207.906
610.083	186.992
612.976	28.4297
615.869	175.434
618.762	114.606
621.654	94.6406
624.547	180.91
627.44	187.981
630.332	154.207
633.225	319.504
636.118	211.117
639.01	362.836
641.903	390.328
644.796	418.309
647.689	447.867
650.581	563.098
653.474	958.598
656.367	1020.96
659.259	1322.11
662.152	2137.28
665.045	3167.2
667.938	4681.3
670.83	6649.31
673.723	8141.26
676.616	7933.16
679.508	5377.46
682.401	3156.73
685.294	1728.18
688.186	1053.86
691.079	718.117
693.972	480.004
696.865	462.703
699.757	243.859
702.65	255.238
705.543	202.957
708.435	139.789
711.328	157.598
714.221	38.9141
717.113	89.043
720.006	118.816
722.899	71.4688
725.792	152.523
728.684	10.3203
731.577	104.68
734.47	84.8086
737.362	67.5117
740.255	144.387
743.148	93.7305
746.04	9.54297
748.933	104.086
751.826	17.8047
754.719	108.469
757.611	86.457
760.504	17.7617
763.397	232.07
766.289	47.5508
769.182	166.074
772.075	165.461
774.967	138.102
777.86	215.844
780.753	269.152
783.646	444.082
786.538	515.102
789.431	433.754
792.324	393.914
795.216	368.894
798.109	461.809
801.002	108.387
803.894	171.273
806.787	236.465
809.68	249.555
812.573	100.16
815.465	74.5312
818.358	8.75
821.251	196.008
824.143	52.9258
827.036	122.539
829.929	32.5938
832.822	7.92969
835.714	29.1289
838.607	80.6523
841.5	241.902
844.392	64.9102
847.285	165.16
850.178	96.4961
853.07	29.5273
855.963	78.9375
858.856	86.6523
861.749	227.305
864.641	162.273
867.534	57.8516
870.427	209.098
873.319	200.297
876.212	286.519
879.105	114.203
881.997	135.172
884.89	282.059
887.783	142.285
890.676	174.051
893.568	58.2305
896.461	188.613
899.354	265.5
902.246	258.812
905.139	125.082
908.032	73.1055
910.924	191.367
913.817	115.793
916.71	81.6523
919.602	212.664
922.495	97.668
925.388	79.7969
928.281	95.3086
931.173	143.352
934.066	110.656
936.959	56.9141
939.851	294.211
942.744	131.32
945.637	239.414
948.529	218.719
951.422	138.043
954.315	86.8906
957.208	73.4609
960.1	205.137
962.993	97.6992
965.886	219.059
968.778	75.1406
971.671	187.586
974.564	105.543
977.457	239.09
980.349	68.1289
983.242	27.7969
986.135	57.8438
989.027	183.606
991.92	61.5742
994.813	104.531
997.705	6.56641
1000.6	31.2695
1003.49	54.3789
1006.38	142.777
1009.28	214.496
1012.17	302.883
1015.06	519.777
1017.95	561.277
1020.85	267.129
1023.74	272.094
1026.63	38.4805
1029.53	76.1836
1032.42	45.2578
1035.31	155.148
1038.2	201.734
1041.1	211.57
1043.99	602.309
1046.88	869.949
1049.77	728.16
1052.67	657.699
1055.56	531.305
1058.45	118.434
1061.35	278.961
1064.24	11.3633
1067.13	124.391
1070.02	166.383
1072.92	33.7383
1075.81	145.621
1078.7	163.543
1081.59	64.9258
1084.49	54.6484
1087.38	288.16
1090.27	61.3477
1093.16	246.863
1096.06	59.4492
1098.95	239.848
1101.84	257.996
1104.73	203.133
1107.63	155.324
1110.52	162.691
1113.41	183.418
1116.31	106.519
1119.2	286.453
1122.09	219.746
1124.98	347.875
1127.88	38.3672
1130.77	42.5156
1133.66	104.188
1136.56	209.703
1139.45	101.266
1142.34	156.269
1145.23	268.051
1148.13	295.375
1151.02	318.863
1153.91	282.832
1156.8	147.156
1159.7	10.0703
1162.59	181.375
1165.48	174.078
1168.38	182.074
1171.27	140.606
1174.16	271.609
1177.05	90.6484
1179.95	134.809
1182.84	29
1185.73	46.8281
1188.62	214.07
1191.52	255.539
1194.41	227.769
1197.3	22.7383
1200.19	210.758
1203.09	3.125
1205.98	29.043
1208.87	150.918
1211.77	35.6133
1214.66	149.644
1217.55	18.6875
1220.44	41.1992
1223.34	106.512
1226.23	238.988
1229.12	84.7734
1232.01	103.797
1234.91	42.4922
1237.8	209.008
1240.69	31.9453
1243.59	193.695
1246.48	60.0703
1249.37	143.434
1252.26	99.1016
1255.16	406.453
1258.05	112.449
1260.94	232.102
1263.83	269.285
1266.73	173.203
1269.62	100.75
1272.51	123.344
1275.4	297.992
1278.3	188.945
1281.19	197.945
1284.08	205.594
1286.98	122.828
1289.87	274.633
1292.76	69.1484
