Measurement: Raman, 785 nm, unoriented, Raman Data Processed
Mineral: Talc
Rruff sample: R040137
Ideal chemistry: Mg_3_Si_4_O_10_(OH)_2_
Locality: Murphy, North Carolina, USA
Source: University of Arizona Mineral Museum
Description: Colorless massive
Measured chemistry: (Mg_0.97_Fe_0.01_Al_0.01_)_3_Si_4.03_O_10_((OH)_0.99_F_0.01_)_2_
Raman shift (cm-1)	intensity
172.606	0
175.499	33.8574
178.391	243.568
181.284	387.412
184.177	756.814
187.069	1180.98
189.962	2244.39
192.855	5306.11
195.748	6193.83
198.64	1225.86
201.533	559.83
204.426	349.85
207.318	304.49
210.211	160.783
213.104	281.377
215.996	287.656
218.889	322.859
221.782	355.99
224.674	402.398
227.567	431.24
230.46	395.619
233.353	323.096
236.245	239.397
239.138	249.791
242.031	239.383
244.923	274.316
247.816	240.559
250.709	202.684
253.601	29.6133
256.494	91.0137
259.387	156.49
262.28	203.752
265.172	110.293
268.065	66.5742
270.958	3.28906
273.85	30.1855
276.743	23.8047
279.636	37.084
282.529	300.682
285.421	427.1
288.314	707.295
291.207	776.76
294.099	370.701
296.992	138.299
299.885	28.9277
302.777	67.9941
305.67	41.4766
308.563	46.7012
311.455	31.1914
314.348	68.0469
317.241	42.7383
320.134	1.43945
323.026	19.9336
325.919	1
328.812	302.523
331.704	332.414
334.597	415.088
337.49	48.8633
340.382	12.7988
343.275	80.2188
346.168	316.947
349.061	577.615
351.953	898.084
354.846	1407.46
357.739	2359.47
360.631	3507.07
363.524	3462.29
366.417	1570.38
369.31	652.769
372.202	384.234
375.095	397.117
377.988	351.541
380.88	497.789
383.773	309.215
386.666	61.873
389.558	4.28711
392.451	56.9668
395.344	13.6738
398.236	19.5781
401.129	64.7344
404.022	69.0723
406.915	19.9512
409.807	60.9434
412.7	48.918
415.593	82.2266
418.485	171.383
421.378	253.223
424.271	341.793
427.163	486.172
430.056	785.705
432.949	992.146
435.842	560.393
438.734	231.018
441.627	234.926
444.52	236.484
447.412	181.148
450.305	362.902
453.198	301.4
456.091	309.674
458.983	195.426
461.876	352.885
464.769	454.932
467.661	621.957
470.554	450.371
473.447	226.766
476.339	144.008
479.232	68.4941
482.125	21.8848
485.017	42.584
487.91	145.557
490.803	77.9023
493.696	173.81
496.588	87.0156
499.481	167.18
502.374	161.658
505.266	156.856
508.159	147.603
511.052	214.098
513.944	167.609
516.837	188.15
519.73	178.453
522.623	73.9824
525.515	81.0703
528.408	52.4824
531.301	24.3574
534.193	76.6309
537.086	19.6152
539.979	13.3926
542.871	55.3809
545.764	59.4277
548.657	80.4902
551.55	0.708984
554.442	22.6133
557.335	99.8125
560.228	140.4
563.12	61.8418
566.013	72.9121
568.906	91.8281
571.798	82.3027
574.691	107.908
577.584	43.875
580.477	136.324
583.369	162.404
586.262	167.971
589.155	230.797
592.047	26.3223
594.94	79.7148
597.833	17.4219
600.726	9.05859
603.618	53.9551
606.511	160.67
609.404	88.0644
612.296	92.0938
615.189	76.0801
618.082	61.0664
620.974	27.3184
623.867	6.2168
626.76	37.0352
629.653	69.6406
632.545	113.459
635.438	123.295
638.331	59.082
641.223	116.607
644.116	123.617
647.009	151.879
649.901	192.004
652.794	267.25
655.687	452.828
658.58	734.143
661.472	1101.94
664.365	1753.59
667.258	2720.03
670.15	4211.27
673.043	5918.25
675.936	6750.82
678.828	5423.75
681.721	3279.25
684.614	1879.86
687.506	1026.44
690.399	569.445
693.292	502.688
696.185	379.269
699.077	306.416
701.97	276.82
704.863	150.096
707.755	181.877
710.648	139.772
713.541	102.723
716.433	68.3125
719.326	131.16
722.219	146.482
725.112	110.272
728.004	62.7676
730.897	136.257
733.79	27.207
736.682	35.543
739.575	3.03516
742.468	16.6104
745.361	89.6602
748.253	9.33203
751.146	65.7383
754.039	39.0264
756.931	115.399
759.824	176.014
762.717	6.45215
765.609	86.8047
768.502	152.703
771.395	99.1113
774.288	86.5459
777.18	158.807
780.073	232.085
782.966	291.674
785.858	435.401
788.751	395.749
791.644	433.227
794.536	328.097
797.429	170.054
800.322	219.28
803.215	152.773
806.107	22.4443
809	58.0635
811.893	32.999
814.785	172.726
817.678	140.19
820.571	37.9424
823.463	80.0322
826.356	29.2754
829.249	66.8086
832.141	51.3613
835.034	12.3271
837.927	23.0713
840.82	134.748
843.712	74.6475
846.605	124.513
849.498	37.3486
852.39	63.6143
855.283	27.6152
858.176	45.8223
861.068	68.7188
863.961	71.9023
866.854	114.806
869.747	71.4199
872.639	33.5166
875.532	13.3184
878.425	72.793
881.317	54.2861
884.21	32.4072
887.103	88.2002
889.995	72.4844
892.888	62.9668
895.781	98.7207
898.674	38.7647
901.566	17.2998
904.459	2.95606
907.352	124.601
910.244	26.6494
913.137	94.6894
916.03	69.1543
918.923	77.2295
921.815	66.7822
924.708	96.3965
927.601	70.7988
930.493	68.2822
933.386	100.699
936.279	100.122
939.171	60.1182
942.064	91.3438
944.957	88.0752
947.85	37.6377
950.742	74.7705
953.635	92.5635
956.528	35.1504
959.42	10.5957
962.313	46.1543
965.206	41.8984
968.098	41.916
970.991	66.6025
973.884	17.7559
976.777	55.9336
979.669	125.502
982.562	76.9814
985.455	74.7744
988.347	79.7197
991.24	60.8174
994.133	88.4404
997.025	115.65
999.918	66.2695
1002.81	101.009
1005.7	142.135
1008.6	183.912
1011.49	151.752
1014.38	234.501
1017.27	218.19
1020.17	128.926
1023.06	146.918
1025.95	142.639
1028.85	59.3975
1031.74	47.7002
1034.63	28.5449
1037.52	102.894
1040.42	101.36
1043.31	205.856
1046.2	166.236
1049.09	276.656
1051.99	317.05
1054.88	178.358
1057.77	98.6279
1060.66	124.869
1063.56	46.7197
1066.45	20.71
1069.34	75.4609
1072.24	75.3262
1075.13	54.7832
1078.02	46.6602
1080.91	110.544
1083.81	17.8809
1086.7	83.9258
1089.59	9.27148
1092.48	78.8584
1095.38	27.4688
1098.27	69.4678
1101.16	26.3506
1104.06	52.6494
1106.95	0.861328
1109.84	31.9824
1112.73	27.1406
1115.63	40.7471
1118.52	105.584
1121.41	81.6602
1124.3	66.9658
1127.2	44.9004
1130.09	97.2041
1132.98	51.6621
1135.88	40.1123
1138.77	48.333
1141.66	100.561
1144.55	62.6504
1147.45	44.1211
1150.34	130.456
1153.23	80.3945
1156.12	44.4629
1159.02	72.8008
1161.91	46.376
1164.8	72.2617
1167.69	1.27832
1170.59	48.5039
1173.48	50.9287
1176.37	71.2324
1179.27	63.0996
1182.16	100.091
1185.05	25.6084
1187.94	127.919
1190.84	41.0918
1193.73	74.125
1196.62	38.543
1199.51	97.835
1202.41	61.4365
1205.3	82.5879
1208.19	46.127
1211.09	103.367
1213.98	31.0176
1216.87	19.6934
1219.76	11.8359
1222.66	119.543
1225.55	21.8926
1228.44	44.3047
1231.33	25.9785
1234.23	4.7041
1237.12	19.8447
1240.01	104.289
1242.9	0
