Measurement: Raman, 785 nm, unoriented, Raman Data Processed
Mineral: Talc
Rruff sample: R050058
Ideal chemistry: Mg_3_Si_4_O_10_(OH)_2_
Locality: Murphy, North Carolina, USA
Source: Rock Currier
Description: Fine-grained massive fragment
Measured chemistry: (Mg_.994_Fe_.006_)_3_(Si_.996_Al_.004_)_4_O_10_(OH)_2_
Raman shift (cm-1)	intensity
171.642	0
174.534	21.79
177.427	56.5882
180.32	514.543
183.212	1033.56
186.105	1698.07
188.998	3030.19
191.891	7128.27
194.783	13011.3
197.676	4043.18
200.569	966.948
203.461	651.451
206.354	342.175
209.247	254.075
212.139	154.42
215.032	234.85
217.925	312.875
220.818	486.04
223.71	383.797
226.603	531.745
229.496	571.363
232.388	279.234
235.281	42.7054
238.174	195.248
241.066	174.42
243.959	235.564
246.852	128.325
249.745	41.3622
252.637	38.1414
255.53	28.9069
258.423	22.8315
261.315	43.9863
264.208	134.747
267.101	102.585
269.993	72.6126
272.886	14.9506
275.779	59.426
278.672	126.925
281.564	166.572
284.457	443.239
287.35	912.894
290.242	1158.15
293.135	725.14
296.028	280.89
298.921	33.2382
301.813	52.8053
304.706	44.9834
307.599	13.2245
310.491	57.0396
313.384	37.1692
316.277	27.2242
319.169	26.8672
322.062	110.92
324.955	25.882
327.847	85.9221
330.74	385.247
333.633	324.207
336.526	353.838
339.418	96.6709
342.311	69.7899
345.204	294.23
348.096	611.412
350.989	1122.36
353.882	1724.52
356.774	2740.42
359.667	4623.65
362.56	5833.34
365.452	3359.97
368.345	1153.25
371.238	657.029
374.131	372.765
377.023	563.894
379.916	531.994
382.809	411.599
385.701	131.215
388.594	19.2934
391.487	2.9712
394.38	119.172
397.272	7.9951
400.165	72.4121
403.058	39.3238
405.95	18.5421
408.843	34.2808
411.736	4.0914
414.628	21.0162
417.521	119.474
420.414	297.35
423.307	350.488
426.199	559.882
429.092	929.034
431.985	1362.15
434.877	1116.69
437.77	487.671
440.663	217.457
443.555	288.957
446.448	451.683
449.341	409.174
452.234	547.731
455.126	522.293
458.019	362.44
460.912	427.368
463.804	589.225
466.697	834.012
469.59	887.737
472.483	444.563
475.375	69.5036
478.268	55.6472
481.161	32.8858
484.053	11.6135
486.946	7.43353
489.839	40.9066
492.731	146.353
495.624	144.664
498.517	118.507
501.409	131.029
504.302	73.0926
507.195	97.7859
510.088	203.959
512.98	145.884
515.873	129.274
518.766	219.302
521.658	143.115
524.551	78.7018
527.444	4.19173
530.337	77.1299
533.229	58.1616
536.122	98.1184
539.015	112.458
541.907	75.8686
544.8	99.6883
547.693	11.5214
550.585	4.37103
553.478	12.4894
556.371	32.5855
559.263	64.9075
562.156	102.992
565.049	8.76468
567.942	92.4287
570.834	3.08732
573.727	76.0086
576.62	6.74972
579.512	43.478
582.405	98.6965
585.298	73.9699
588.19	66.2732
591.083	36.7619
593.976	0.075196
596.869	7.38804
599.761	15.4598
602.654	64.2163
605.547	16.7021
608.439	7.22526
611.332	0.66206
614.225	11.7811
617.117	112.491
620.01	17.5172
622.903	27.7651
625.795	3.70406
628.688	96.813
631.581	58.7891
634.474	57.9908
637.366	84.7453
640.259	103.63
643.152	48.8134
646.044	133.161
648.937	248.968
651.83	310.305
654.722	457.782
657.615	720.895
660.508	1150.21
663.401	1986.2
666.293	3339.66
669.186	5449.25
672.079	8104.36
674.971	10079.6
677.864	9182.57
680.757	6031.65
683.649	3426.95
686.542	1926.73
689.435	1098.73
692.328	720.437
695.22	483.574
698.113	375.284
701.006	261.731
703.898	264.031
706.791	83.006
709.684	92.3421
712.577	105.436
715.469	13.6685
718.362	16.8857
721.255	10.7004
724.147	5.7244
727.04	23.7954
729.933	2.71604
732.825	41.4236
735.718	11.8611
738.611	32.843
741.504	9.26915
744.396	43.2313
747.289	35.7857
750.182	63.6385
753.074	42.712
755.967	70.942
758.86	115.204
761.752	86.2024
764.645	33.226
767.538	34.2164
770.431	72.1019
773.323	63.9204
776.216	104.947
779.109	205.584
782.001	284.2
784.894	413.085
787.787	436.603
790.679	489.194
793.572	483.505
796.465	247.111
799.357	130.545
802.25	92.5033
805.143	69.9881
808.036	124.887
810.928	76.2786
813.821	29.5549
816.714	174.861
819.606	39.3714
822.499	40.5854
825.392	2.76898
828.284	150.22
831.177	49.5012
834.07	65.256
836.963	38.0228
839.855	11.2075
842.748	18.0559
845.641	135.3
848.533	56.196
851.426	65.0039
854.319	111.275
857.212	86.4655
860.104	139.054
862.997	83.4683
865.89	11.0663
868.782	105.731
871.675	35.6659
874.568	106.602
877.46	91.8404
880.353	81.4713
883.246	80.7496
886.139	128.613
889.031	88.0129
891.924	76.8388
894.817	89.4155
897.709	69.0316
900.602	61.6127
903.495	9.596
906.388	55.7399
909.28	79.1537
912.173	30.0631
915.066	52.7326
917.958	22.6253
920.851	69.142
923.744	36.0155
926.636	11.7496
929.529	4.97095
932.422	8.24324
935.314	46.2391
938.207	61.7415
941.1	24.9221
943.993	7.88496
946.885	15.5382
949.778	12.6282
952.671	85.7992
955.563	63.7857
958.456	49.6389
961.349	65.6091
964.241	31.0888
967.134	0.213049
970.027	59.4051
972.92	62.716
975.812	4.26079
978.705	47.931
981.598	0.053494
984.49	101.583
987.383	40.2053
990.276	31.7783
993.168	2.97634
996.061	13.1869
998.954	55.2527
1001.85	44.0676
1004.74	40.4173
1007.63	103.481
1010.52	201.624
1013.42	362.179
1016.31	430.018
1019.2	266.34
1022.1	168.869
1024.99	68.925
1027.88	47.4552
1030.77	1.48703
1033.67	4.06507
1036.56	123.19
1039.45	97.7973
1042.34	143.141
1045.24	275.145
1048.13	456.009
1051.02	661.784
1053.91	446.813
1056.81	220.018
1059.7	74.484
1062.59	41.3965
1065.49	3.31442
1068.38	63.3871
1071.27	3.69632
1074.16	12.5412
1077.06	31.3459
1079.95	27.8639
1082.84	84.5107
1085.73	87.4032
1088.63	37.7231
1091.52	20.4909
1094.41	46.8943
1097.31	79.7292
1100.2	35.3084
1103.09	60.4022
1105.98	32.528
1108.88	50.5328
1111.77	72.5029
1114.66	4.62907
1117.56	45.8063
1120.45	38.9019
1123.34	13.3592
1126.23	147.228
1129.12	105.795
1132.02	57.5045
1134.91	29.9112
1137.8	74.372
1140.7	67.687
1143.59	80.7385
1146.48	43.4786
1149.37	76.4524
1152.27	82.602
1155.16	50.7619
1158.05	9.64764
1160.94	61.6343
1163.84	47.2795
1166.73	54.0165
1169.62	1.20538
1172.52	41.9251
1175.41	12.7989
1178.3	0.110814
1181.19	103.727
1184.09	118.843
1186.98	48.3389
1189.87	18.2302
1192.77	62.5628
1195.66	78.097
1198.55	49.4128
1201.44	51.2293
1204.34	66.3306
1207.23	0.135798
1210.12	81.3159
1213.01	46.0819
1215.91	85.3838
1218.8	45.9014
1221.69	102.268
1224.58	2.17533
1227.48	35.9414
1230.37	38.1531
1233.26	0.189126
