Measurement: Raman, 780 nm, unoriented, Raman Data Processed
Mineral: Talmessite
Rruff sample: R060369
Ideal chemistry: Ca_2_Mg(As^5+^O_4_)_2_2H_2_O
Locality: Gold Hill, Tooele County, Utah, USA
Source: Michael Scott
Description: Colorless saddle-shaped crystals associated with austinite
Raman shift (cm-1)	intensity
103.104	0
106.479	9.15811
109.854	21.9244
113.228	5.69116
116.603	2.64596
119.978	8.50501
123.353	6.15561
126.728	0.353748
130.102	1.42564
133.477	1.20556
136.852	0.9552
140.227	1.35343
143.602	3.87583
146.977	1.58011
150.351	5.22199
153.726	8.59162
157.101	12.2995
160.476	19.0087
163.851	18.3886
167.226	9.08508
170.6	9.87003
173.975	13.1044
177.35	18.9299
180.725	20.8653
184.1	16.3634
187.474	17.9352
190.849	25.7643
194.224	35.3263
197.599	41.2181
200.974	21.601
204.349	14.8139
207.723	15.3087
211.098	20.1201
214.473	18.3699
217.848	5.61108
221.223	3.6046
224.597	2.52098
227.972	3.85242
231.347	7.3075
234.722	10.6289
238.097	16.1892
241.471	18.1206
244.846	20.1558
248.221	23.8801
251.596	27.2145
254.971	21.9621
258.346	13.6624
261.72	7.83432
265.095	8.36622
268.47	10.3326
271.845	10.4371
275.22	10.8581
278.594	10.7683
281.969	4.01157
285.344	1.31097
288.719	1.5358
292.094	0.56813
295.469	2.50829
298.843	5.92074
302.218	10.7784
305.593	18.6277
308.968	10.0069
312.343	4.38403
315.717	1.24679
319.092	0.455276
322.467	1.77131
325.842	3.70303
329.217	8.01292
332.592	16.0963
335.966	30.3462
339.341	46.8689
342.716	72.3399
346.091	101.029
349.466	126.247
352.841	149.357
356.215	158.238
359.59	148.057
362.965	124.765
366.34	82.4461
369.715	53.14
373.089	38.9238
376.464	32.8632
379.839	36.707
383.214	43.1134
386.589	49.9516
389.964	44.719
393.338	24.6332
396.713	9.07858
400.088	3.26343
403.463	0.455517
406.838	0.770498
410.212	3.07457
413.587	0.679291
416.962	0.096964
420.337	2.95823
423.712	2.9749
427.087	9.70381
430.461	14.2958
433.836	21.8118
437.211	31.1624
440.586	41.4975
443.961	53.1437
447.335	62.9175
450.71	61.3543
454.085	53.7362
457.46	48.5471
460.835	42.1218
464.209	31.6711
467.584	19.3122
470.959	10.1637
474.334	8.05158
477.709	5.95977
481.084	4.99356
484.458	4.04737
487.833	3.54521
491.208	3.55773
494.583	4.09331
497.958	0.633064
501.332	0.042557
504.707	0.273973
508.082	1.34513
511.457	0.556768
514.832	0.168945
518.207	1.41087
521.581	1.99712
524.956	1.9205
528.331	1.25581
531.706	1.3648
535.081	4.18024
538.455	0.293444
541.83	1.20057
545.205	3.6007
548.58	3.12579
551.955	4.53505
555.33	2.57679
558.704	3.76139
562.079	5.55035
565.454	3.9694
568.829	0.959515
572.204	3.09944
575.578	3.16068
578.953	1.6024
582.328	1.62962
585.703	3.29893
589.078	0.439922
592.452	0.936804
595.827	1.24723
599.202	0.950142
602.577	1.83497
605.952	0.376598
609.327	0.705862
612.701	1.04362
616.076	1.80849
619.451	2.59791
622.826	3.01002
626.201	2.29117
629.576	2.37471
632.95	3.29871
636.325	1.08666
639.7	2.14812
643.075	1.77979
646.45	3.31062
649.824	2.59811
653.199	0.435036
656.574	2.76589
659.949	3.92724
663.324	3.45779
666.698	3.58702
670.073	2.37426
673.448	3.25263
676.823	7.92344
680.198	5.68471
683.573	0.95451
686.947	6.34651
690.322	3.95325
693.697	4.15997
697.072	3.30761
700.447	2.45674
703.822	0.94219
707.196	2.07182
710.571	0.990059
713.946	1.13825
717.321	0.753162
720.696	0.076361
724.07	1.17373
727.445	1.8066
730.82	1.44872
734.195	1.27458
737.57	0.424768
740.944	1.08865
744.319	0.468061
747.694	0.906584
751.069	4.58285
754.444	4.62173
757.818	9.04392
761.193	17.2005
764.568	27.9515
767.943	40.309
771.318	55.9158
774.693	64.3496
778.067	66.8256
781.442	60.4438
784.817	54.9273
788.192	47.0311
791.567	34.9064
794.942	28.3039
798.316	32.5972
801.691	41.2435
805.066	58.2674
808.441	82.4036
811.816	106.21
815.19	112.593
818.565	104.979
821.94	120.115
825.315	168.048
828.69	224.952
832.064	298.645
835.439	361.903
838.814	296.797
842.189	160.712
845.564	81.1107
848.939	45.0228
852.313	24.0948
855.688	16.7892
859.063	14.4484
862.438	19.4898
865.813	30.651
869.188	42.9802
872.562	58.7291
875.937	72.5397
879.312	66.7614
882.687	35.2084
886.062	14.7238
889.436	4.95339
892.811	0.475344
896.186	1.43217
899.561	1.5978
902.936	0.442495
906.311	1.54715
909.685	1.25167
913.06	1.17237
916.435	0.724985
919.81	1.02402
923.185	3.91264
926.559	8.08427
929.934	8.27544
933.309	10.646
936.684	6.53235
940.059	4.94588
943.433	3.55852
946.808	1.95629
950.183	1.70732
953.558	2.18433
956.933	0.739375
960.308	3.28069
963.682	1.41117
967.057	0.368497
970.432	0.369865
973.807	0.432568
977.182	2.84666
980.557	2.2932
983.931	1.93101
987.306	4.07697
990.681	3.97633
994.056	4.62314
997.431	4.52725
1000.8	5.19847
1004.18	4.31831
1007.55	1.71618
1010.93	3.894
1014.3	3.41492
1017.68	1.5165
1021.05	1.86147
1024.43	2.52631
1027.8	0.14076
1031.18	0.871127
1034.55	0.000584
1037.93	0.897193
1041.3	3.86228
1044.68	0.256086
1048.05	2.69249
1051.43	3.37796
1054.8	1.62476
1058.18	2.22612
1061.55	2.95442
1064.93	0.832586
1068.3	2.42256
1071.68	1.28736
1075.05	1.31217
1078.43	3.49892
1081.8	2.19347
1085.18	2.785
1088.55	3.91673
1091.92	0.978025
1095.3	0.858922
1098.67	2.22263
1102.05	3.79382
1105.42	2.62573
1108.8	1.73254
1112.17	0.970115
1115.55	3.36879
1118.92	3.1942
1122.3	4.31701
1125.67	0.959456
1129.05	2.56698
1132.42	1.665
1135.8	0.879486
1139.17	1.60445
1142.55	4.19233
1145.92	0.457255
1149.3	1.5957
1152.67	1.5717
1156.05	0.228201
1159.42	3.28973
1162.8	3.03368
1166.17	3.33557
1169.55	1.87052
1172.92	1.60969
1176.3	1.04124
1179.67	1.77813
1183.05	1.34136
1186.42	2.80052
1189.8	3.95443
1193.17	3.74876
1196.55	2.91788
1199.92	3.40557
1203.29	2.54924
1206.67	3.95579
1210.04	4.82343
1213.42	2.14344
1216.79	2.57393
1220.17	1.98493
1223.54	0.988065
1226.92	3.89374
1230.29	5.06224
1233.67	2.88787
1237.04	2.01716
1240.42	1.62988
1243.79	2.58595
1247.17	3.10113
1250.54	2.61169
1253.92	4.14417
1257.29	3.21895
1260.67	5.26025
1264.04	0.229288
1267.42	2.90925
1270.79	2.11569
1274.17	3.88056
1277.54	2.59658
1280.91	0.22375
1284.29	1.51203
