Measurement: Raman, 780 nm, unoriented, Raman Data Processed
Mineral: Talmessite
Rruff sample: R080007
Ideal chemistry: Ca_2_Mg(As^5+^O_4_)_2_2H_2_O
Locality: Tsumeb mine, Tsumeb, Otavi District, Oshikoto, Namibia
Source: William W. Pinch
Description: Pale yellow to colorless crystals
Measured chemistry: Ca_2.00_(Mg_0.99_Fe_0.01_)_Σ=1_(As_1.00_O_4_)_2_·1.98H_2_O; trace amounts of P; H_2_O estimated by difference
Raman shift (cm-1)	intensity
127.776	0
131.151	2.06256
134.526	3.12799
137.901	3.32261
141.275	3.27124
144.65	2.45768
148.025	0.383064
151.4	2.99221
154.775	20.115
158.149	35.1535
161.524	54.6625
164.899	58.9173
168.274	48.5259
171.649	74.7873
175.024	115.158
178.398	129.631
181.773	95.2533
185.148	96.6429
188.523	112.686
191.898	156.969
195.272	230.059
198.647	263.511
202.022	123.982
205.397	81.9044
208.772	97.3986
212.147	124.851
215.521	109.477
218.896	35.7907
222.271	5.72071
225.646	12.1064
229.021	33.3075
232.395	67.6085
235.77	107.17
239.145	135.457
242.52	145.6
245.895	144.215
249.269	172.829
252.644	203.929
256.019	157.521
259.394	75.147
262.769	29.0957
266.144	12.1677
269.518	9.25165
272.893	19.8622
276.268	23.7054
279.643	14.775
283.018	5.61144
286.392	3.35705
289.767	0.665378
293.142	0.827233
296.517	5.06992
299.892	19.9826
303.267	33.9169
306.641	41.1562
310.016	24.2033
313.391	4.27188
316.766	0.882504
320.141	0.384261
323.515	4.73807
326.89	19.0514
330.265	41.9693
333.64	84.4989
337.015	148.853
340.39	212.465
343.764	315.99
347.139	423.807
350.514	521.457
353.889	607.342
357.264	615.917
360.639	599.351
364.013	503.273
367.388	297.233
370.763	174.798
374.138	127.504
377.512	101.516
380.887	98.7893
384.262	126.402
387.637	185.033
391.012	169.065
394.387	69.7798
397.761	24.9158
401.136	4.74957
404.511	2.14273
407.886	1.81495
411.261	2.30307
414.635	0.074845
418.01	1.34949
421.385	3.81041
424.76	11.0128
428.135	26.4043
431.51	43.6097
434.884	71.0278
438.259	108.749
441.634	169.734
445.009	246.477
448.384	294.61
451.759	283.924
455.133	299.648
458.508	338.448
461.883	312.443
465.258	201.006
468.633	108.728
472.007	52.4933
475.382	29.7851
478.757	21.6215
482.132	9.57912
485.507	6.99482
488.882	9.39497
492.256	6.2023
495.631	6.73515
499.006	9.33447
502.381	8.29871
505.756	1.58388
509.13	2.0362
512.505	4.49651
515.88	0.439697
519.255	0.492368
522.63	0.205075
526.005	0.950625
529.379	1.15834
532.754	0.048582
536.129	0.786451
539.504	2.95541
542.879	0.35632
546.253	0.564235
549.628	2.97799
553.003	6.18419
556.378	0.489101
559.753	4.10322
563.127	3.54171
566.502	4.53008
569.877	3.30571
573.252	3.7435
576.627	2.45053
580.001	4.35356
583.376	0.831465
586.751	3.44006
590.126	2.21753
593.501	2.11401
596.876	1.29775
600.25	1.86329
603.625	3.00081
607	4.62676
610.375	0.418578
613.75	3.99955
617.125	6.50996
620.499	5.90139
623.874	3.94496
627.249	0.23999
630.624	0.897994
633.999	4.27786
637.373	5.47289
640.748	0.529998
644.123	4.83739
647.498	3.25026
650.873	5.63686
654.247	6.5769
657.622	9.09193
660.997	10.8582
664.372	10.3429
667.747	10.8802
671.122	11.9698
674.496	15.3281
677.871	17.45
681.246	15.5358
684.621	13.6506
687.996	16.1319
691.37	12.0939
694.745	13.582
698.12	15.4276
701.495	13.4641
704.87	12.0069
708.245	8.21296
711.619	4.90956
714.994	3.78805
718.369	2.01626
721.744	3.19927
725.119	3.64167
728.494	3.42771
731.868	2.36437
735.243	5.33037
738.618	2.43069
741.993	1.00707
745.368	2.30112
748.742	4.20176
752.117	4.95793
755.492	4.13643
758.867	2.5153
762.242	12.0095
765.616	37.145
768.991	71.7435
772.366	118.13
775.741	172.757
779.116	240.091
782.49	298.114
785.865	322.863
789.24	258.053
792.615	174.203
795.99	164.385
799.365	242.348
802.739	381.103
806.114	535.647
809.489	763.997
812.864	1068.54
816.239	1107.85
819.614	804.952
822.988	697.399
826.363	757.24
829.738	897.936
833.113	1217.98
836.487	1656.8
839.862	1344.32
843.237	564.608
846.612	228.184
849.987	97.4316
853.362	39.6053
856.736	26.3343
860.111	31.561
863.486	58.475
866.861	92.8586
870.236	142.012
873.611	204.82
876.985	272.777
880.36	175.6
883.735	57.0543
887.11	13.2991
890.485	4.24774
893.859	3.65112
897.234	4.18603
900.609	2.4139
903.984	1.63577
907.359	2.14921
910.734	0.207303
914.108	5.63667
917.483	4.65264
920.858	7.53929
924.233	1.89266
927.608	1.54725
930.982	6.41191
934.357	10.4576
937.732	6.00824
941.107	6.31707
944.482	10.2668
947.856	14.5572
951.231	16.3857
954.606	12.0337
957.981	14.6508
961.356	16.3149
964.731	17.1625
968.105	12.4919
971.48	12.449
974.855	14.9703
978.23	9.68464
981.605	11.6979
984.98	5.23006
988.354	9.27924
991.729	13.0512
995.104	7.91969
998.479	8.14709
1001.85	4.99287
1005.23	10.4098
1008.6	7.73871
1011.98	9.24186
1015.35	7.4476
1018.73	5.43475
1022.1	2.74916
1025.48	6.32773
1028.85	4.15755
1032.23	6.43946
1035.6	3.81922
1038.98	4.87905
1042.35	4.65381
1045.73	2.92028
1049.1	4.02049
1052.48	2.30978
1055.85	2.78221
1059.22	2.17476
1062.6	2.04378
1065.97	0.712658
1069.35	2.92882
1072.72	0.424941
1076.1	1.12444
1079.47	0.155475
1082.85	0.70919
1086.22	1.71296
1089.6	1.64735
1092.97	2.49579
1096.35	1.62768
1099.72	2.06854
1103.1	6.89734
1106.47	3.67572
1109.85	3.42995
1113.22	5.22916
1116.6	5.62636
1119.97	7.87683
1123.35	2.08455
1126.72	0.813132
1130.1	1.72898
1133.47	0.112475
1136.85	1.2725
1140.22	2.64324
1143.6	3.20786
1146.97	2.43703
1150.35	3.54109
1153.72	0.931117
1157.1	1.63943
1160.47	0.092145
1163.85	3.15696
1167.22	2.87713
1170.59	6.57421
1173.97	1.37328
1177.34	6.59901
1180.72	1.69643
1184.09	5.41184
1187.47	5.10296
1190.84	0.403902
1194.22	1.4497
1197.59	0.18437
1200.97	1.0405
1204.34	2.34027
1207.72	0.339173
1211.09	0.459483
1214.47	0.485512
1217.84	2.08666
1221.22	0.594078
1224.59	3.01442
1227.97	1.81062
1231.34	3.57162
1234.72	2.01055
1238.09	2.88628
1241.47	1.8898
1244.84	5.07146
1248.21	0.226354
1251.59	0.333167
1254.96	1.29673
1258.34	2.44973
1261.71	3.7218
1265.09	3.44816
1268.46	2.86905
1271.84	0.561512
1275.21	5.29466
1278.59	2.36157
1281.96	0.258402
1285.34	1.89241
