Measurement: Raman, 532 nm, unoriented, Raman Data Processed
Mineral: Talmessite
Rruff sample: R060369
Ideal chemistry: Ca_2_Mg(As^5+^O_4_)_2_2H_2_O
Locality: Gold Hill, Tooele County, Utah, USA
Source: Michael Scott
Description: Colorless saddle-shaped crystals associated with austinite
Raman shift (cm-1)	intensity
163.292	0
166.185	4.65962
169.077	1.56186
171.97	1.55286
174.863	3.73589
177.755	8.89358
180.648	11.4822
183.541	7.40799
186.433	8.88634
189.326	8.66802
192.219	13.4467
195.112	25.8086
198.004	30.6134
200.897	18.8029
203.79	8.50951
206.682	4.37132
209.575	3.0451
212.468	5.88239
215.36	5.59409
218.253	0.438278
221.146	1.65286
224.038	4.58102
226.931	3.96608
229.824	3.52263
232.717	5.78322
235.609	13.3614
238.502	14.6465
241.395	18.3507
244.287	13.1761
247.18	8.11588
250.073	9.27651
252.965	5.10141
255.858	3.96249
258.751	2.34866
261.644	4.42328
264.536	7.72813
267.429	11.3098
270.322	17.0528
273.214	20.4053
276.107	29.7697
279	23.0166
281.892	16.8053
284.785	9.0557
287.678	2.96577
290.571	2.15949
293.463	5.14615
296.356	8.0298
299.249	10.6872
302.141	17.2539
305.034	29.7508
307.927	32.2015
310.82	22.5919
313.712	10.4285
316.605	2.17331
319.498	0.276291
322.39	0.900284
325.283	2.38571
328.176	1.39915
331.068	4.095
333.961	7.30928
336.854	13.1267
339.747	19.1866
342.639	36.1515
345.532	54.8128
348.425	72.6473
351.317	97.747
354.21	121.323
357.103	140.815
359.995	150.363
362.888	148.028
365.781	124.479
368.673	79.7644
371.566	48.49
374.459	36.2567
377.352	25.2223
380.244	25.9188
383.137	29.999
386.03	35.8266
388.922	41.39
391.815	35.19
394.708	21.4522
397.601	7.7139
400.493	5.4969
403.386	1.34003
406.279	1.24175
409.171	1.43897
412.064	1.94585
414.957	2.13753
417.849	0.07251
420.742	3.44243
423.635	0.120453
426.527	2.29456
429.42	5.89621
432.313	9.07274
435.206	14.1948
438.098	19.2688
440.991	25.4385
443.884	36.1796
446.776	44.5568
449.669	52.3918
452.562	53.0427
455.454	55.5116
458.347	54.026
461.24	52.0189
464.133	41.1092
467.025	26.7873
469.918	18.0948
472.811	13.6997
475.703	9.29611
478.596	9.19765
481.489	4.07587
484.382	3.4597
487.274	2.81012
490.167	2.99843
493.06	3.34665
495.952	1.51932
498.845	3.64096
501.738	0.229752
504.63	1.37691
507.523	2.21165
510.416	0.821732
513.308	4.52989
516.201	1.41463
519.094	0.4543
521.987	1.71634
524.879	2.16631
527.772	3.73471
530.665	0.945419
533.557	1.48056
536.45	4.11655
539.343	0.062042
542.236	1.13272
545.128	3.11983
548.021	1.40353
550.914	3.9446
553.806	2.36862
556.699	1.74464
559.592	1.98224
562.484	6.54077
565.377	5.07202
568.27	4.84265
571.163	4.83717
574.055	1.76743
576.948	3.2207
579.841	2.74606
582.733	2.17065
585.626	3.04542
588.519	0.696487
591.411	0.998306
594.304	0.960587
597.197	2.57452
600.09	1.62422
602.982	1.63268
605.875	0.623978
608.768	2.04839
611.66	3.57712
614.553	0.031784
617.446	1.51849
620.338	4.96431
623.231	2.2825
626.124	2.92406
629.016	1.7527
631.909	2.30611
634.802	3.11945
637.695	4.64011
640.587	1.16751
643.48	4.30592
646.373	1.04912
649.265	3.56529
652.158	4.86563
655.051	4.15527
657.943	2.37678
660.836	8.95132
663.729	1.45665
666.622	5.83151
669.514	6.11728
672.407	5.74248
675.3	4.15057
678.192	2.91037
681.085	7.50771
683.978	3.78273
686.87	3.26942
689.763	5.86565
692.656	3.62054
695.549	5.62202
698.441	2.28728
701.334	5.93774
704.227	2.76961
707.119	3.00928
710.012	1.65684
712.905	2.58658
715.798	1.92079
718.69	0.657898
721.583	1.45721
724.476	1.44081
727.368	0.046402
730.261	0.279633
733.154	0.727737
736.046	1.27121
738.939	1.5163
741.832	0.774612
744.725	1.05878
747.617	0.140869
750.51	0.603271
753.403	0.002441
756.295	0.067261
759.188	0.616409
762.081	2.36752
764.973	5.63171
767.866	13.3007
770.759	19.6662
773.652	26.0836
776.544	33.2958
779.437	31.561
782.33	30.0805
785.222	26.1231
788.115	23.9358
791.008	18.7279
793.9	12.115
796.793	7.76396
799.686	7.40399
802.578	14.5751
805.471	22.7132
808.364	37.7848
811.257	56.1969
814.149	71.0752
817.042	81.4582
819.935	92.7883
822.827	129.299
825.72	192.896
828.613	298.045
831.505	442.745
834.398	634.804
837.291	770.889
840.184	648.748
843.076	404.564
845.969	232.98
848.862	143.443
851.754	87.3601
854.647	60.4463
857.54	45.3058
860.433	42.5126
863.325	48.5658
866.218	61.0863
869.111	81.8398
872.003	111.485
874.896	151.317
877.789	182.032
880.681	160.015
883.574	93.3439
886.467	48.4259
889.36	25.1537
892.252	12.3605
895.145	6.51915
898.038	3.24822
900.93	2.47319
903.823	0.021469
906.716	1.04181
909.608	2.49844
912.501	1.64217
915.394	1.07419
918.287	1.19029
921.179	0.308517
924.072	3.66724
926.965	4.22482
929.857	9.03937
932.75	12.4253
935.643	14.6837
938.535	6.01358
941.428	5.63983
944.321	0.432571
947.213	3.95021
950.106	1.42104
952.999	4.31529
955.892	4.40852
958.784	3.47388
961.677	3.04884
964.57	0.030586
967.462	2.72241
970.355	2.13234
973.248	0.165459
976.14	1.79076
979.033	0.131302
981.926	2.87711
984.819	1.58189
987.711	3.16964
990.604	3.54848
993.497	2.41248
996.389	6.00021
999.282	5.53902
1002.17	7.0903
1005.07	6.93402
1007.96	6.15965
1010.85	5.54922
1013.75	7.33552
1016.64	4.1114
1019.53	6.37894
1022.42	3.22945
1025.32	0.545052
1028.21	1.72997
1031.1	1.71329
1033.99	3.84592
1036.89	1.6466
1039.78	1.85838
1042.67	0.110497
1045.57	0.470779
1048.46	1.95952
1051.35	5.05448
1054.24	2.11848
1057.14	1.29678
1060.03	3.84627
1062.92	2.50545
1065.81	1.41421
1068.71	1.13991
1071.6	1.28759
1074.49	0.585922
1077.38	0.410736
1080.28	3.3649
1083.17	0.993729
1086.06	1.1567
1088.96	4.13009
1091.85	3.18353
1094.74	1.87762
1097.63	2.61674
1100.53	3.67291
1103.42	0.415031
1106.31	0.934555
1109.2	0.129051
1112.1	2.32719
1114.99	0.956604
1117.88	1.4193
1120.78	0.440895
1123.67	1.18964
1126.56	0.80883
1129.45	0.583794
1132.35	2.2685
1135.24	1.98093
1138.13	0.27668
1141.02	2.70969
1143.92	2.46893
1146.81	0.071754
1149.7	0.043411
1152.6	0.96962
1155.49	2.89036
1158.38	0.213531
1161.27	2.35337
1164.17	1.89187
1167.06	2.59983
1169.95	0.711716
1172.84	2.80001
1175.74	3.07341
1178.63	2.56609
1181.52	3.3625
1184.41	0.003723
1187.31	0.063461
1190.2	0.763763
1193.09	2.27432
1195.99	1.72939
1198.88	1.00381
1201.77	3.71363
1204.66	3.69868
1207.56	3.86431
1210.45	2.0554
1213.34	2.13197
1216.23	2.69782
1219.13	1.93242
1222.02	3.23659
1224.91	5.94258
1227.81	3.55245
1230.7	1.23009
1233.59	2.65076
1236.48	2.12016
1239.38	0.475471
1242.27	3.4078
1245.16	5.7013
1248.05	2.56191
1250.95	1.36923
1253.84	2.25373
1256.73	0.563286
1259.62	2.40497
1262.52	3.47234
1265.41	0.290489
1268.3	2.88291
1271.2	1.7846
1274.09	0.279022
1276.98	4.17544
1279.87	2.37743
1282.77	3.66418
1285.66	1.899
1288.55	0.090134
1291.44	4.13831
1294.34	3.29331
1297.23	0.011787
1300.12	2.07902
1303.02	0
