Measurement: Raman, 532 nm, unoriented, Raman Data Processed
Mineral: Talmessite
Rruff sample: R080007
Ideal chemistry: Ca_2_Mg(As^5+^O_4_)_2_2H_2_O
Locality: Tsumeb mine, Tsumeb, Otavi District, Oshikoto, Namibia
Source: William W. Pinch
Description: Pale yellow to colorless crystals
Measured chemistry: Ca_2.00_(Mg_0.99_Fe_0.01_)_Σ=1_(As_1.00_O_4_)_2_·1.98H_2_O; trace amounts of P; H_2_O estimated by difference
Raman shift (cm-1)	intensity
124.262	0
127.636	12.7028
131.011	10.57
134.386	4.38342
137.761	2.48041
141.136	4.04468
144.511	38.6049
147.885	53.335
151.26	88.0657
154.635	119.282
158.01	215.784
161.385	386.714
164.76	272.5
168.134	148.787
171.509	171.446
174.884	276.957
178.259	279.196
181.634	227.36
185.008	214.348
188.383	276.926
191.758	401.36
195.133	706.958
198.508	900.278
201.882	342.962
205.257	162.628
208.632	163.527
212.007	225.804
215.382	168.928
218.757	33.4108
222.131	12.012
225.506	3.15478
228.881	33.1145
232.256	90.6694
235.631	169.053
239.006	245.105
242.38	265.19
245.755	307.646
249.13	395.369
252.505	479.632
255.88	332.179
259.254	153.78
262.629	85.6151
266.004	83.2355
269.379	101.656
272.754	155.187
276.128	212.805
279.503	152.198
282.878	42.0643
286.253	10.5801
289.628	6.66956
293.002	1.18414
296.377	23.5158
299.752	73.1245
303.127	136.429
306.502	177.248
309.877	72.9795
313.251	6.34009
316.626	7.50958
320.001	0.497559
323.376	16.0461
326.751	47.7358
330.125	114.998
333.5	223.082
336.875	387.975
340.25	609.875
343.625	902.072
347	1275.42
350.374	1676.72
353.749	1946.81
357.124	1906.09
360.499	1806.03
363.874	1479.22
367.248	857.84
370.623	544.118
373.998	442.515
377.373	429.46
380.748	495.716
384.123	671.199
387.497	931.611
390.872	744.906
394.247	281.413
397.622	103.981
400.997	41.3679
404.371	12.7679
407.746	1.76971
411.121	3.09876
414.496	6.6275
417.871	1.05823
421.245	12.012
424.62	43.9974
427.995	89.1791
431.37	176.211
434.745	282.338
438.12	435.184
441.494	686.404
444.869	997.217
448.244	1140.63
451.619	1147.6
454.994	1319.21
458.368	1453.49
461.743	1163.11
465.118	677.663
468.493	359.993
471.868	190.071
475.243	116.9
478.617	65.199
481.992	47.4987
485.367	28.3846
488.742	19.1768
492.117	19.6703
495.491	11.3528
498.866	17.6726
502.241	18.231
505.616	8.37824
508.991	7.94885
512.365	2.54553
515.74	4.03784
519.115	4.33655
522.49	4.48901
525.865	1.08679
529.24	3.86365
532.614	7.62457
535.989	5.15314
539.364	7.89642
542.739	0.819275
546.114	8.03748
549.489	10.3089
552.863	14.7409
556.238	15.6022
559.613	11.0215
562.988	17.6892
566.363	16.6066
569.737	19.6102
573.112	26.7014
576.487	18.0309
579.862	18.439
583.237	18.3619
586.611	17.7425
589.986	22.0986
593.361	22.4292
596.736	24.4924
600.111	28.4589
603.486	28.7284
606.86	31.1833
610.235	27.3738
613.61	28.015
616.985	30.182
620.36	28.8383
623.735	35.0258
627.109	24.1008
630.484	29.0079
633.859	38.0676
637.234	37.5891
640.609	43.2942
643.983	45.6326
647.358	46.3502
650.733	57.8442
654.108	51.0493
657.483	54.3689
660.857	61.1907
664.232	69.6436
667.607	66.2578
670.982	72.317
674.357	75.134
677.732	81.47
681.106	83.9717
684.481	75.2288
687.856	73.4352
691.231	64.2684
694.606	58.8571
697.981	54.5862
701.355	59.287
704.73	55.3607
708.105	42.9291
711.48	32.773
714.855	28.2674
718.229	15.9023
721.604	13.7092
724.979	1.55542
728.354	8.59412
731.729	7.34088
735.103	9.22192
738.478	9.72846
741.853	6.1908
745.228	4.85712
748.603	6.12207
751.977	11.1479
755.352	33.6101
758.727	22.9751
762.102	7.32397
765.477	61.8845
768.852	176.83
772.226	338.068
775.601	536.238
778.976	747.48
782.351	971.92
785.726	1012.03
789.101	776.151
792.475	472.699
795.85	408.794
799.225	638.5
802.6	1163.19
805.975	1858.61
809.349	2888.66
812.724	4110.19
816.099	4234.63
819.474	2857.73
822.849	2172.54
826.223	2343.79
829.598	2874.48
832.973	4114.66
836.348	5712.25
839.723	4552.18
843.097	1861.67
846.472	777.546
849.847	399.96
853.222	282.488
856.597	313.591
859.972	490.353
863.346	961.826
866.721	1626.4
870.096	2462.43
873.471	3851.02
876.846	4878.45
880.221	3062.21
883.595	1258.51
886.97	592.207
890.345	333.185
893.72	225.128
897.095	170.468
900.469	132.56
903.844	92.6185
907.219	53.1968
910.594	16.6309
913.969	16.7121
917.343	29.5486
920.718	35.2138
924.093	28.2234
927.468	25.0056
930.843	4.09851
934.218	7.30316
937.592	11.9264
940.967	10.1911
944.342	25.8525
947.717	34.4783
951.092	38.1633
954.466	52.3754
957.841	62.5355
961.216	64.4231
964.591	75.2754
967.966	82.8085
971.341	84.5863
974.715	86.2815
978.09	70.4883
981.465	76.297
984.84	58.609
988.215	55.0937
991.589	59.0876
994.964	49.101
998.339	50.511
1001.71	57.7394
1005.09	49.9815
1008.46	46.2498
1011.84	46.5896
1015.21	41.7204
1018.59	36.8027
1021.96	36.183
1025.34	39.8314
1028.71	33.867
1032.09	30.7502
1035.46	25.3105
1038.84	29.4641
1042.21	22.6583
1045.59	18.954
1048.96	20.2279
1052.34	16.3672
1055.71	12.5196
1059.09	6.99725
1062.46	0.293579
1065.84	0.239746
1069.21	1.60919
1072.59	1.63849
1075.96	2.55786
1079.34	2.37836
1082.71	1.74347
1086.08	1.95514
1089.46	7.81726
1092.83	8.39636
1096.21	5.93787
1099.58	1.56775
1102.96	5.37634
1106.33	11.1335
1109.71	12.3195
1113.08	20.8984
1116.46	17.3522
1119.83	9.30792
1123.21	1.67877
1126.58	6.59992
1129.96	2.80664
1133.33	0.784058
1136.71	2.59686
1140.08	6.19946
1143.46	5.20911
1146.83	6.03943
1150.21	10.4313
1153.58	11.092
1156.95	9.17371
1160.33	8.1958
1163.7	9.53101
1167.08	15.6589
1170.45	6.87927
1173.83	13.0463
1177.2	4.66193
1180.58	3.70935
1183.95	8.85132
1187.33	1.66107
1190.7	0.294739
1194.08	9.43036
1197.45	7.46246
1200.83	0.247986
1204.2	1.37708
1207.58	3.52765
1210.95	8.40002
1214.33	6.91394
1217.7	9.63025
1221.08	8.42816
1224.45	7.26703
1227.83	13.2151
1231.2	12.9829
1234.58	14.9264
1237.95	15.9734
1241.33	5.26447
1244.7	17.2736
1248.08	18.2276
1251.45	14.7477
1254.83	17.5036
1258.2	16.0108
1261.58	19.4234
1264.95	11.7195
1268.32	12.8425
1271.7	8.45099
1275.07	14.9175
1278.45	15.5057
1281.82	2.84802
1285.2	16.7462
1288.57	12.5597
1291.95	6.37524
1295.32	6.76013
1298.7	3.05554
1302.07	1.70496
