Measurement: Raman, 532 nm, unoriented, Raman Data Processed
Mineral: Tamarugite
Rruff sample: R061060
Ideal chemistry: NaAl(SO_4_)_2_6H_2_O
Locality: El Desierto mine fumaroles, Potos√≠, Bolivia
Source: Michael Scott
Description: Colorless thin tabular crystals associated with yellow sulfur and colorless potassium alum
Raman shift (cm-1)	intensity
83.4349	0
86.8097	0.078594
90.1846	30.8374
93.5594	27.9218
96.9342	55.1124
100.309	21.7964
103.684	14.0127
107.059	15.3731
110.433	1.70769
113.808	31.1002
117.183	238.826
120.558	476.57
123.933	591.475
127.308	770.721
130.682	674.384
134.057	575.245
137.432	542.989
140.807	595.473
144.182	633.973
147.556	760.558
150.931	771.779
154.306	779.403
157.681	654.63
161.056	601.791
164.43	608.482
167.805	590.668
171.18	504.927
174.555	355.686
177.93	309.563
181.305	247.85
184.679	245.932
188.054	222.818
191.429	216.25
194.804	157.351
198.179	149.272
201.553	127.877
204.928	114.313
208.303	141.147
211.678	211.664
215.053	279.538
218.428	319.837
221.802	140.864
225.177	37.3577
228.552	13.8771
231.927	13.7581
235.302	7.05072
238.676	0.027893
242.051	18.0436
245.426	53.4338
248.801	63.8083
252.176	18.6759
255.55	22.5554
258.925	5.11932
262.3	5.11896
265.675	20.1119
269.05	1.65955
272.425	0.781372
275.799	40.1931
279.174	34.1418
282.549	82.0476
285.924	146.205
289.299	214.108
292.673	262.219
296.048	355.832
299.423	388.629
302.798	382.988
306.173	430.052
309.548	557.079
312.922	683.691
316.297	650.349
319.672	515.764
323.047	405.452
326.422	302.21
329.796	222.834
333.171	227.519
336.546	278.996
339.921	360.928
343.296	315.884
346.671	238.957
350.045	188.67
353.42	108.971
356.795	87.4173
360.17	43.6471
363.545	5.34192
366.919	13.926
370.294	5.58197
373.669	8.54279
377.044	14.185
380.419	7.99872
383.793	6.74786
387.168	3.96606
390.543	5.13434
393.918	4.95801
397.293	48.4004
400.668	56.0002
404.042	111.24
407.417	180.464
410.792	238.57
414.167	290.407
417.542	290.098
420.916	331.53
424.291	330.09
427.666	350.31
431.041	448.977
434.416	549.25
437.79	694.004
441.165	828.951
444.54	887.721
447.915	967.056
451.29	1196.51
454.664	1529.53
458.039	1760.55
461.414	1731.48
464.789	1434.53
468.164	1232.78
471.539	1140.22
474.913	1068.16
478.288	986.366
481.663	895.232
485.038	717.186
488.413	509.256
491.788	318.836
495.162	219.693
498.537	178.106
501.912	172.082
505.287	167.307
508.662	203.639
512.036	306.823
515.411	351.536
518.786	423.554
522.161	479.626
525.536	489.767
528.91	411.346
532.285	278.499
535.66	149.403
539.035	105.558
542.41	33.0803
545.784	14.1826
549.159	31.1219
552.534	48.2846
555.909	27.6929
559.284	17.6799
562.659	25.8997
566.033	33.8915
569.408	41.6182
572.783	83.9872
576.158	125.224
579.533	218.47
582.908	297.398
586.282	406.381
589.657	537.457
593.032	709.492
596.407	909.08
599.782	1113.14
603.156	1132.01
606.531	1049.93
609.906	930.298
613.281	886.375
616.656	840.222
620.03	916.957
623.405	942.564
626.78	902.948
630.155	815.09
633.53	717.552
636.904	582.748
640.279	426.876
643.654	313.272
647.029	276.005
650.404	324.711
653.779	354.836
657.153	340.162
660.528	322.883
663.903	227.123
667.278	159.069
670.653	125.024
674.028	79.0091
677.402	44.2714
680.777	38.3259
684.152	58.5462
687.527	2.73547
690.902	8.06549
694.276	0.939087
697.651	4.92322
701.026	9.57611
704.401	11.452
707.776	6.39185
711.15	26.3126
714.525	19.9338
717.9	2.94623
721.275	23.8276
724.65	19.8963
728.024	16.9924
731.399	27.1746
734.774	27.3939
738.149	25.5598
741.524	51.7048
744.899	48.8969
748.273	55.9556
751.648	49.8202
755.023	59.1342
758.398	81.8201
761.773	80.9185
765.148	81.7938
768.522	89.878
771.897	68.9094
775.272	80.4861
778.647	61.0712
782.021	48.6481
785.396	45.6397
788.771	35.0478
792.146	29.2133
795.521	22.7827
798.896	18.3886
802.27	4.93225
805.645	13.1781
809.02	32.0198
812.395	6.97284
815.77	1.87207
819.144	5.23059
822.519	27.0134
825.894	19.3433
829.269	28.319
832.644	41.2924
836.019	45.0914
839.393	47.6523
842.768	40.8511
846.143	29.9591
849.518	46.9258
852.893	41.1277
856.268	59.2473
859.642	26.3742
863.017	31.1587
866.392	25.7033
869.767	11.7454
873.141	24.392
876.516	16.7065
879.891	11.236
883.266	5.15906
886.641	14.7249
890.016	8.63965
893.39	5.56696
896.765	4.47394
900.14	0.654358
903.515	5.16644
906.89	15.541
910.264	23.4682
913.639	19.8456
917.014	62.9821
920.389	63.9489
923.764	116.472
927.139	153.987
930.513	228.012
933.888	339.942
937.263	431.33
940.638	550.597
944.013	614.109
947.388	713.146
950.762	767.838
954.137	818.159
957.512	880.874
960.887	911.551
964.261	1016.73
967.636	1266.57
971.011	1707.61
974.386	2431.47
977.761	4052.73
981.136	7273.76
984.51	13192.1
987.885	24646.3
991.26	37059.6
994.635	21268.9
998.01	6645.79
1001.38	2692.18
1004.76	1360.38
1008.13	733.097
1011.51	409.817
1014.88	225.181
1018.26	106.726
1021.63	33.8013
1025.01	8.64771
1028.38	31.2683
1031.76	38.1596
1035.13	16.5564
1038.51	4.85217
1041.88	56.2792
1045.26	150.935
1048.63	250.537
1052.01	487.807
1055.38	758.635
1058.76	1142.36
1062.13	1435.05
1065.51	1608.86
1068.88	1385.84
1072.26	1124.81
1075.63	826.618
1079.01	689.129
1082.38	629.187
1085.76	717.632
1089.13	812.537
1092.5	929.568
1095.88	903.031
1099.25	758.028
1102.63	557.585
1106	480.546
1109.38	435.077
1112.75	292.868
1116.13	148.489
1119.5	83.3857
1122.88	54.7537
1126.25	83.0001
1129.63	189.353
1133	314.33
1136.38	435.255
1139.75	518.946
1143.13	560.467
1146.5	517.95
1149.88	447.597
1153.25	408.582
1156.63	345.661
1160	301.236
1163.38	263.754
1166.75	191.534
1170.12	109.959
1173.5	49.6946
1176.88	19.788
1180.25	6.38843
1183.62	8.06616
1187	12.4739
1190.37	23.3445
1193.75	10.0989
1197.12	11.0075
1200.5	6.94641
1203.87	29.9908
1207.25	40.6118
1210.62	18.423
1214	26.9729
1217.37	36.8906
1220.75	42.3105
1224.12	38.5247
1227.5	53.3004
1230.87	44.1327
1234.25	60.6782
1237.62	44.2144
1241	58.4125
1244.37	47.3234
1247.75	44.069
1251.12	31.0952
1254.49	42.6106
1257.87	32.7794
1261.24	26.9626
1264.62	36.9431
1267.99	22.708
1271.37	21.0471
1274.74	26.0681
1278.12	1.78949
1281.49	13.0414
1284.87	13.9503
1288.24	2.75177
1291.62	3.36786
1294.99	22.8627
