Measurement: Raman, 785 nm, unoriented, Raman Data Processed
Mineral: Tamarugite
Rruff sample: R061060
Ideal chemistry: NaAl(SO_4_)_2_6H_2_O
Locality: El Desierto mine fumaroles, Potos√≠, Bolivia
Source: Michael Scott
Description: Colorless thin tabular crystals associated with yellow sulfur and colorless potassium alum
Raman shift (cm-1)	intensity
106.582	0
109.957	0.656906
113.332	9.48541
116.707	14.4805
120.082	11.172
123.457	4.96008
126.831	13.7958
130.206	66.0667
133.581	89.5273
136.956	56.0527
140.331	100.945
143.706	158.042
147.08	265.678
150.455	298.322
153.83	289.267
157.205	196.24
160.58	131.509
163.954	131.392
167.329	132.245
170.704	140.901
174.079	134.606
177.454	120.307
180.828	127.374
184.203	171.643
187.578	197.403
190.953	178.125
194.328	165.342
197.703	143.8
201.077	110.452
204.452	118.343
207.827	119.939
211.202	151.875
214.577	188.316
217.952	190.157
221.326	70.5384
224.701	18.7871
228.076	6.41377
231.451	12.0248
234.826	4.89311
238.2	3.12637
241.575	51.7193
244.95	70.7737
248.325	92.3169
251.7	92.8813
255.074	55.58
258.449	23.3161
261.824	12.8649
265.199	5.96744
268.574	8.3551
271.949	5.75378
275.323	19.3752
278.698	36.4838
282.073	39.3001
285.448	57.1801
288.823	80.3016
292.197	110.856
295.572	149.38
298.947	167.418
302.322	195.254
305.697	249.947
309.072	372.647
312.446	476.225
315.821	468.234
319.196	318.39
322.571	217.947
325.946	158.124
329.32	120.007
332.695	141.926
336.07	215.668
339.445	284.194
342.82	267.329
346.195	216.439
349.569	146.614
352.944	93.0513
356.319	55.8998
359.694	14.2986
363.069	4.09141
366.443	4.40663
369.818	2.28572
373.193	11.324
376.568	1.74095
379.943	13.3937
383.317	4.03444
386.692	4.27052
390.067	7.22078
393.442	18.8554
396.817	34.9344
400.192	61.8984
403.566	111.672
406.941	181.255
410.316	234.374
413.691	264.002
417.066	308.616
420.44	344.735
423.815	339.8
427.19	348.016
430.565	412.502
433.94	512.693
437.315	654.603
440.689	743.261
444.064	708.016
447.439	688.797
450.814	787.244
454.189	964.756
457.563	1144.93
460.938	1099.06
464.313	890.631
467.688	708.572
471.063	583.07
474.438	501.142
477.812	430.296
481.187	386.517
484.562	306.583
487.937	194.624
491.312	111.392
494.686	78.5501
498.061	56.4545
501.436	59.7246
504.811	69.8438
508.186	74.1724
511.56	102.503
514.935	167.208
518.31	197.248
521.685	233.749
525.06	218.878
528.435	199.898
531.809	106.493
535.184	65.3349
538.559	35.3206
541.934	1.57429
545.309	10.7114
548.683	16.1361
552.058	14.8491
555.433	11.329
558.808	3.59821
562.183	3.37714
565.558	10.105
568.932	19.0512
572.307	40.4167
575.682	78.9624
579.057	91.9839
582.432	128.258
585.807	160.425
589.181	210.325
592.556	275.001
595.931	349.204
599.306	394.688
602.681	413.999
606.055	394.365
609.43	381.089
612.805	399.524
616.18	386.11
619.555	418.285
622.929	464.152
626.304	505.208
629.679	518.823
633.054	508.453
636.429	444.413
639.803	349.316
643.178	273.099
646.553	250.682
649.928	271.862
653.303	274.131
656.678	271.862
660.052	203.838
663.427	138.21
666.802	110.126
670.177	67.9287
673.552	48.7298
676.927	34.3709
680.301	14.9223
683.676	12.514
687.051	12.2761
690.426	9.38797
693.801	2.16156
697.175	2.43355
700.55	1.56363
703.925	26.7252
707.3	8.08388
710.675	10.7395
714.049	1.78601
717.424	22.0912
720.799	3.21822
724.174	13.7516
727.549	13.9912
730.924	18.0236
734.298	10.9866
737.673	20.8147
741.048	22.6326
744.423	3.28139
747.798	18.941
751.173	17.2496
754.547	41.6165
757.922	38.1812
761.297	33.2533
764.672	18.7922
768.047	14.4292
771.421	15.4909
774.796	25.1844
778.171	24.181
781.546	27.3801
784.921	21.854
788.295	18.094
791.67	17.1289
795.045	17.9025
798.42	9.43092
801.795	4.4866
805.17	3.4044
808.544	10.1563
811.919	13.6422
815.294	9.41592
818.669	11.0397
822.044	7.91646
825.418	7.25957
828.793	0.085739
832.168	15.0741
835.543	16.3899
838.918	11.298
842.293	12.0069
845.667	19.3899
849.042	31.9302
852.417	9.15159
855.792	15.6765
859.167	6.97033
862.541	16.8186
865.916	6.37512
869.291	9.76412
872.666	10.8357
876.041	1.24925
879.415	7.02443
882.79	11.6363
886.165	6.67353
889.54	0.466759
892.915	2.25731
896.29	2.0367
899.664	2.40712
903.039	4.16663
906.414	4.71589
909.789	15.0048
913.164	19.3673
916.538	18.9137
919.913	16.6502
923.288	27.2842
926.663	51.9029
930.038	62.7077
933.413	87.3058
936.787	112.587
940.162	144.727
943.537	179.566
946.912	186.914
950.287	213.95
953.661	223.201
957.036	245.535
960.411	261.372
963.786	312.538
967.161	368.276
970.535	508.932
973.91	698.663
977.285	1049.12
980.66	1835.47
984.035	4058.3
987.41	8922.17
990.784	13307.2
994.159	7319.28
997.534	2339.39
1000.91	985.519
1004.28	483.306
1007.66	283.065
1011.03	164
1014.41	95.0898
1017.78	45.0795
1021.16	19.8262
1024.53	6.30093
1027.91	2.09477
1031.28	4.52121
1034.66	9.66417
1038.03	17.0787
1041.41	3.27837
1044.78	13.925
1048.16	53.3847
1051.53	125.913
1054.91	209.877
1058.28	309.353
1061.66	385.812
1065.03	399.627
1068.4	314.257
1071.78	257.994
1075.15	208.776
1078.53	203.871
1081.9	212.829
1085.28	254.357
1088.65	313.351
1092.03	361.731
1095.4	364.556
1098.78	320.038
1102.15	247.959
1105.53	241.177
1108.9	219.657
1112.28	162.317
1115.65	86.3088
1119.03	51.9537
1122.4	35.0543
1125.78	39.0193
1129.15	67.5683
1132.53	101.486
1135.9	130.733
1139.28	166.381
1142.65	194.392
1146.03	185.632
1149.4	179.968
1152.78	152.374
1156.15	110.384
1159.53	96.4074
1162.9	96.1253
1166.28	67.3237
1169.65	30.2811
1173.03	5.42047
1176.4	3.8455
1179.77	13.897
1183.15	0.549591
1186.52	5.17839
1189.9	0.826622
1193.27	13.5772
1196.65	14.4498
1200.02	11.0251
1203.4	9.5977
1206.77	14.8125
1210.15	31.4702
1213.52	29.5356
1216.9	38.511
1220.27	44.0236
1223.65	49.0785
1227.02	44.9725
1230.4	41.6938
1233.77	24.8822
1237.15	17.5838
1240.52	8.78869
1243.9	21.392
1247.27	5.11525
1250.64	13.5969
1254.02	2.7681
1257.39	20.7184
1260.77	2.51075
1264.14	3.81463
1267.52	5.81463
1270.89	0.113762
