Measurement: Raman, 785 nm, unoriented, Raman Data Processed
Mineral: Tangeite
Rruff sample: R070489
Ideal chemistry: CaCuVO_4_(OH)
Locality: Chinita mine, Tal Tal, Antofagasta Province, Chile
Source: Bob Jenkins
Description: Aggregates of bright green prismatic crystals associated with calcite and malachite
Measured chemistry: (Ca_0.99_[box]_0.01_)_Σ=1_Cu_1.00_(V_0.93_P_0.04_S_0.02_As_0.01_)_Σ=1_O_4_(OH); OH estimated by charge balance
Raman shift (cm-1)	intensity
153.219	0
156.112	55.5395
159.004	6.50354
161.897	124.298
164.79	193.225
167.683	200.566
170.575	235.817
173.468	309.862
176.361	466.278
179.253	579.382
182.146	669.892
185.039	781.159
187.931	899.745
190.824	951.919
193.717	1001.8
196.609	1035.25
199.502	1014.25
202.395	991.443
205.288	978.743
208.18	917.029
211.073	787.635
213.966	625.255
216.858	544.66
219.751	360.549
222.644	248.44
225.536	124.94
228.429	41.7111
231.322	13.9177
234.215	57.3767
237.107	25.1992
240	31.7738
242.893	11.5282
245.785	79.3522
248.678	161.983
251.571	235.252
254.464	326.461
257.356	397.124
260.249	472.29
263.142	458.943
266.034	398.475
268.927	287.455
271.82	179.043
274.712	105.071
277.605	14.5938
280.498	5.9314
283.39	11.2231
286.283	31.0828
289.176	40.4745
292.069	131.865
294.961	164.059
297.854	329.132
300.747	536.382
303.639	765.585
306.532	1156.6
309.425	1525.71
312.317	1959.23
315.21	2413.94
318.103	2848.81
320.996	3244.21
323.888	3269.28
326.781	2999.52
329.674	2447.59
332.566	1902.98
335.459	1435.64
338.352	1084.03
341.245	841.407
344.137	664.853
347.03	535.303
349.923	511.121
352.815	478.74
355.708	553.123
358.601	587.539
361.493	702.525
364.386	766.244
367.279	867.928
370.171	864.778
373.064	777.193
375.957	619.198
378.85	444.641
381.742	266.956
384.635	194.232
387.528	124.508
390.42	119.6
393.313	103.652
396.206	111.093
399.099	83.5548
401.991	39.9963
404.884	29.9084
407.777	15.1628
410.669	9.27685
413.562	19.9755
416.455	2.79456
419.347	9.2428
422.24	10.3138
425.133	10.7655
428.026	0.928345
430.918	4.43994
433.811	5.74939
436.704	4.98184
439.596	0.88736
442.489	1.43463
445.382	1.23068
448.274	17.7257
451.167	24.7552
454.06	34.6841
456.952	66.5456
459.845	77.5028
462.738	122.008
465.631	185.375
468.523	243.251
471.416	339.645
474.309	415.633
477.201	543.136
480.094	631.605
482.987	660.259
485.88	586.684
488.772	450.373
491.665	325.9
494.558	247.89
497.45	229.422
500.343	219.105
503.236	205.736
506.128	209.65
509.021	200.165
511.914	172.035
514.807	171.491
517.699	160.119
520.592	137.361
523.485	83.8097
526.377	80.3049
529.27	70.3165
532.163	50.7139
535.055	57.938
537.948	30.5409
540.841	42.0376
543.734	27.0299
546.626	21.5365
549.519	31.6392
552.412	11.5003
555.304	31.2482
558.197	0.341583
561.09	18.4017
563.982	16.3235
566.875	9.02466
569.768	2.43677
572.66	14.2694
575.553	4.83267
578.446	5.66666
581.339	16.649
584.231	20.5507
587.124	15.8482
590.017	7.20505
592.909	3.18921
595.802	9.12439
598.695	11.1001
601.587	6.69568
604.48	14.8065
607.373	8.80206
610.266	6.73733
613.158	10.6162
616.051	17.9525
618.944	17.0393
621.836	6.94135
624.729	16.2027
627.622	22.9729
630.514	18.9004
633.407	36.5057
636.3	38.6403
639.193	24.6519
642.085	27.5284
644.978	25.766
647.871	25.4485
650.763	39.0188
653.656	33.8145
656.549	7.12329
659.442	25.7483
662.334	26.0443
665.227	26.4297
668.12	13.3314
671.012	33.9392
673.905	40.0919
676.798	30.6252
679.69	49.0399
682.583	61.8121
685.476	63.7826
688.369	82.3418
691.261	57.3078
694.154	54.2707
697.047	59.8951
699.939	58.1786
702.832	45.7599
705.725	63.6026
708.617	63.0178
711.51	52.5698
714.403	59.3664
717.295	37.3451
720.188	22.2285
723.081	15.9661
725.974	5.3551
728.866	37.9271
731.759	18.4599
734.652	37.0168
737.544	37.4554
740.437	22.4332
743.33	23.3328
746.222	6.50818
749.115	40.8948
752.008	72.9661
754.901	130.021
757.793	208.524
760.686	270.531
763.579	330.425
766.471	343.851
769.364	349.163
772.257	275.039
775.149	215.571
778.042	194.404
780.935	206.107
783.828	272.254
786.72	385.827
789.613	581.296
792.506	676.915
795.398	769.999
798.291	820.463
801.184	709.079
804.077	652.573
806.969	647.674
809.862	716.443
812.755	937.597
815.647	1223.79
818.54	1614.38
821.433	2073.18
824.325	2490.24
827.218	2892.47
830.111	3561.14
833.004	4714.42
835.896	6322.23
838.789	8267.84
841.682	9811.27
844.574	9510.73
847.467	7240.57
850.36	4843.24
853.252	3139.29
856.145	2107.05
859.038	1421.22
861.931	1015.85
864.823	709.784
867.716	528.372
870.609	397.021
873.501	277.202
876.394	190.659
879.287	157.247
882.179	92.5808
885.072	98.9331
887.965	73.5157
890.857	44.0667
893.75	14.3447
896.643	6.24353
899.536	1.07642
902.428	16.2178
905.321	15.689
908.214	10.3273
911.106	15.1196
913.999	19.6733
916.892	21.1148
919.784	12.6491
922.677	8.79538
925.57	2.33289
928.463	3.00857
931.355	0.695404
934.248	2.29843
937.141	16.1573
940.033	17.025
942.926	17.7836
945.819	26.5901
948.712	27.3723
951.604	40.8864
954.497	62.4038
957.39	73.0791
960.282	70.7798
963.175	87.8767
966.068	84.8407
968.96	81.0421
971.853	83.1572
974.746	95.6697
977.639	77.2436
980.531	82.4
983.424	69.5569
986.317	79.1618
989.209	70.8231
992.102	63.2442
994.995	64.057
997.887	75.6933
1000.78	59.0529
1003.67	62.2885
1006.57	57.7536
1009.46	87.9332
1012.35	116.247
1015.24	110.294
1018.14	79.3383
1021.03	78.9334
1023.92	71.0885
1026.81	71.1782
1029.71	49.4435
1032.6	62.4731
1035.49	46.219
1038.38	42.6938
1041.28	41.3543
1044.17	38.5538
1047.06	30.4537
1049.96	46.7472
1052.85	27.1092
1055.74	31.2222
1058.63	19.8667
1061.53	26.8603
1064.42	16.1568
1067.31	14.0437
1070.2	6.44733
1073.1	14.2842
1075.99	0.246887
1078.88	13.4295
1081.78	20.3145
1084.67	7.03076
1087.56	90.5028
1090.45	2.56397
1093.35	1.86359
1096.24	8.24142
1099.13	2.39301
1102.03	12.0567
1104.92	10.9905
1107.81	14.4189
1110.7	16.1811
1113.6	9.77823
1116.49	27.5486
1119.38	3.89014
1122.27	7.69052
1125.17	8.27701
1128.06	12.1534
1130.95	10.1768
1133.84	14.3206
1136.74	17.0285
1139.63	9.64673
1142.52	7.60202
1145.41	11.4347
1148.31	20.7169
1151.2	11.8496
1154.09	1.62344
1156.99	6.77136
1159.88	7.81445
1162.77	19.9289
1165.66	5.10663
1168.56	14.0085
1171.45	12.5982
1174.34	8.13254
1177.23	8.76007
1180.13	22.8439
1183.02	23.3031
1185.91	12.6702
1188.81	23.0408
1191.7	17.1005
1194.59	15.468
1197.48	27.022
1200.38	19.8592
1203.27	20.9944
1206.16	26.7933
1209.05	28.4421
1211.95	20.5622
1214.84	19.3189
1217.73	22.442
1220.62	6.0708
1223.52	18.4401
1226.41	5.27979
1229.3	26.6923
1232.2	6.52219
1235.09	18.9865
1237.98	10.055
1240.87	21.9841
1243.77	32.5715
1246.66	20.8623
1249.55	3.70734
1252.44	19.9906
1255.34	15.7163
1258.23	12.7216
1261.12	17.4982
1264.02	3.02057
