Measurement: Raman, 532 nm, unoriented, Raman Data Processed
Mineral: Tangeite
Rruff sample: R070489
Ideal chemistry: CaCuVO_4_(OH)
Locality: Chinita mine, Tal Tal, Antofagasta Province, Chile
Source: Bob Jenkins
Description: Aggregates of bright green prismatic crystals associated with calcite and malachite
Measured chemistry: (Ca_0.99_[box]_0.01_)_Σ=1_Cu_1.00_(V_0.93_P_0.04_S_0.02_As_0.01_)_Σ=1_O_4_(OH); OH estimated by charge balance
Raman shift (cm-1)	intensity
130.389	0
133.281	104.119
136.174	344.976
139.067	455.514
141.959	452.303
144.852	520.314
147.745	513.043
150.637	421.271
153.53	383.337
156.423	545.225
159.316	640.477
162.208	720.78
165.101	828.784
167.994	984.885
170.886	1166.22
173.779	1437.95
176.672	1810.63
179.565	2101.17
182.457	2317.94
185.35	2394.85
188.243	2325.89
191.135	2187.24
194.028	2020.78
196.921	1837.96
199.813	1762.08
202.706	1797.37
205.599	1840.48
208.492	1826.96
211.384	1694.15
214.277	1515.62
217.17	1261.2
220.062	968.288
222.955	618.734
225.848	375.038
228.74	128.944
231.633	106.249
234.526	40.8628
237.418	115.905
240.311	99.3962
243.204	8.53296
246.097	137.36
248.989	349.822
251.882	683.56
254.775	1042.53
257.667	1536.55
260.56	1975.89
263.453	2270.6
266.346	2162.56
269.238	1707.47
272.131	1112.9
275.024	597.216
277.916	228.498
280.809	37.2659
283.702	60.8254
286.594	95.221
289.487	57.0781
292.38	19.5207
295.272	139.75
298.165	325.083
301.058	636.077
303.951	1167.84
306.843	1940.74
309.736	2927.3
312.629	4071.8
315.522	5618.92
318.414	7228.61
321.307	8996.4
324.2	9810.48
327.092	9325.07
329.985	7797
332.878	5758.57
335.77	4256.03
338.663	3126.06
341.556	2435.87
344.449	1882.74
347.341	1546.1
350.234	1436.91
353.127	1451.73
356.019	1728.32
358.912	1725.69
361.805	1944.04
364.697	2230.7
367.59	2464.14
370.483	2491.54
373.375	2313.22
376.268	1986.15
379.161	1399.2
382.054	886.783
384.946	558.503
387.839	365.054
390.732	308.967
393.624	322.847
396.517	315.998
399.41	328.141
402.303	194.398
405.195	153.875
408.088	52.3044
410.981	106.509
413.873	94.5867
416.766	60.8767
419.659	73.5098
422.551	54.3164
425.444	7.23169
428.337	2.60425
431.229	56.4426
434.122	39.3682
437.015	37.02
439.908	6.4729
442.8	40.1262
445.693	29.417
448.586	5.81689
451.478	44.2268
454.371	50.969
457.264	79.7019
460.156	169.108
463.049	206.342
465.942	328.124
468.835	564.543
471.727	997.712
474.62	1537.32
477.513	2246.33
480.405	2916.06
483.298	3493.81
486.191	3512.16
489.084	2724.56
491.976	1803.53
494.869	1142.07
497.762	907.945
500.654	837.372
503.547	833.926
506.44	825.107
509.332	770.659
512.225	658.908
515.118	605.346
518.011	505.111
520.903	449.764
523.796	336.591
526.689	232.22
529.581	183.133
532.474	159.527
535.367	101.015
538.26	109.187
541.152	91.404
544.045	90.7095
546.938	87.064
549.83	29.0596
552.723	19.7778
555.616	22.5947
558.508	26.5742
561.401	25.9221
564.294	4.17554
567.187	9.50977
570.079	41.7056
572.972	13.2991
575.865	12.2109
578.757	48.8948
581.65	0.693848
584.543	26.4605
587.435	20.4311
590.328	20.7993
593.221	14.8171
596.114	10.2998
599.006	10.946
601.899	18.1704
604.792	2.06006
607.684	29.5911
610.577	29.8569
613.47	4.39722
616.362	30.7185
619.255	28.8291
622.148	67.4048
625.04	69.1755
627.933	66.363
630.826	85.0449
633.719	71.489
636.611	54.8945
639.504	94.7673
642.397	95.624
645.289	115.949
648.182	120.948
651.075	107.873
653.967	89.7062
656.86	91.4111
659.753	107.288
662.646	107.961
665.538	88.342
668.431	106.797
671.324	113.362
674.216	129.185
677.109	144.436
680.002	177.45
682.894	211.246
685.787	236.374
688.68	269.369
691.573	214.616
694.465	213.602
697.358	190.867
700.251	188.097
703.143	192.518
706.036	225.007
708.929	179.849
711.822	185.336
714.714	220.88
717.607	194.314
720.5	165.702
723.392	74.8303
726.285	37.0457
729.178	9.12769
732.07	41.4641
734.963	72.6826
737.856	112.622
740.749	110.867
743.641	85.8813
746.534	64.2129
749.427	31.7605
752.319	85.4888
755.212	268.219
758.105	533.937
760.997	829.943
763.89	1114.15
766.783	1386.48
769.676	1455.8
772.568	1319.9
775.461	994.237
778.354	796.408
781.246	1013.12
784.139	1425
787.032	2223.1
789.924	3239.49
792.817	4198.32
795.71	4821.81
798.602	5076.53
801.495	4866.85
804.388	4089.72
807.281	3509.34
810.173	3472.45
813.066	4080.56
815.959	5346.57
818.851	7083.6
821.744	9265.18
824.637	11321.5
827.529	12684.1
830.422	14416.4
833.315	18940.6
836.208	26799
839.1	36272.5
841.993	44263.8
844.886	43310.3
847.779	31487
850.671	19191.9
853.564	11521.7
856.457	7139.66
859.349	4652.04
862.242	3148.36
865.135	2199.46
868.027	1590.48
870.92	1189.24
873.813	911.003
876.706	636.986
879.598	465.423
882.491	282.748
885.384	195.748
888.276	158.983
891.169	145.749
894.062	99.4905
896.954	79.7703
899.847	46.0737
902.74	86.1231
905.633	40.4749
908.525	73.3225
911.418	64.1526
914.311	63.5903
917.203	58.7913
920.096	32.9971
922.989	51.8391
925.881	0.811279
928.774	11.4395
931.667	23.8543
934.559	20.0852
937.452	55.3621
940.345	4.12305
943.238	49.1611
946.13	76.2117
949.023	81.9492
951.916	105.084
954.808	195.409
957.701	175.938
960.594	258.779
963.486	283.558
966.379	289.719
969.272	330.687
972.165	307.625
975.057	299.254
977.95	323.559
980.843	319.829
983.735	293.067
986.628	319.584
989.521	303.578
992.413	294.571
995.306	259.764
998.199	287.433
1001.09	278.993
1003.98	295.498
1006.88	339.528
1009.77	354.365
1012.66	402.955
1015.55	429.68
1018.45	430.482
1021.34	414.047
1024.23	368.599
1027.13	359.749
1030.02	317.984
1032.91	271.158
1035.8	222.076
1038.7	202.04
1041.59	192.677
1044.48	187.764
1047.38	194.921
1050.27	185.511
1053.16	112.846
1056.05	88.1785
1058.95	77.9231
1061.84	53.0293
1064.73	45.9165
1067.62	67.194
1070.52	50.4589
1073.41	48.5384
1076.3	47.4301
1079.19	23.9451
1082.09	41.5085
1084.98	19.9891
1087.87	16.2087
1090.77	28.7975
1093.66	0.014648
1096.55	17.7189
1099.44	26.0713
1102.34	8.65063
1105.23	7.90405
1108.12	12.332
1111.01	4.9801
1113.91	26.478
1116.8	8.52002
1119.69	44.0222
1122.59	10.2484
1125.48	0.410522
1128.37	1.33508
1131.26	39.0525
1134.16	17.8414
1137.05	36.6543
1139.94	42.0785
1142.83	40.4645
1145.73	37.7238
1148.62	11.964
1151.51	39.1437
1154.4	16.9346
1157.3	4.45532
1160.19	18.5483
1163.08	14.4099
1165.98	31.3774
1168.87	20.3246
1171.76	15.7482
1174.65	7.46777
1177.55	37.2755
1180.44	24.2909
1183.33	30.5275
1186.22	22.7012
1189.12	26.9175
1192.01	19.84
1194.9	7.9812
1197.8	12.4713
1200.69	5.83545
1203.58	25.064
1206.47	13.598
1209.37	23.335
1212.26	21.7834
1215.15	24.7612
1218.04	61.5765
1220.94	54.5287
1223.83	72.0542
1226.72	50.9138
1229.62	55.3965
1232.51	46.281
1235.4	65.7147
1238.29	50.7065
1241.19	21.533
1244.08	22.8364
1246.97	48.5398
1249.86	33.2147
1252.76	7.63562
1255.65	2.68689
1258.54	43.2859
1261.43	23.9502
1264.33	38.7178
1267.22	20.2845
