Measurement: Raman, 780 nm, unoriented, Raman Data Processed
Mineral: Taniajacoite
Rruff sample: R140945
Ideal chemistry: SrCaMn^3+^_2_Si_4_O_11_(OH)_4_2H_2_O
Locality: N'Chwaning III mine, Kalahari Manganese Fields, Northern Cape Province, South Africa
Source: Jaco and Tania Janse van Nieuwenhuizen
Description: Aggregates of radiating acicular  brown crystals, associated with pink sugilite and dark-red lipuite. Type sample.
Measured chemistry: Sr(Ca_0.81_Sr_0.19_)_Σ1.00_(Mn^3+^_1.90_Fe^3+^_0.15_Al_0.01_)_Σ2.06_Si_3.96_O_11_(OH)_4_·2H_2_O
Raman shift (cm-1)	intensity
170.627	0
173.52	41.5083
176.412	111.131
179.305	124.681
182.198	107.238
185.09	82.9138
187.983	64.1636
190.876	69.1646
193.769	49.9678
196.661	26.3498
199.554	5.77637
202.447	7.78503
205.339	39.3469
208.232	93.2234
211.125	146.701
214.018	199.031
216.91	254.137
219.803	307.495
222.696	319.613
225.588	260.32
228.481	156.278
231.374	76.3988
234.266	23.4927
237.159	1.99023
240.052	18.0392
242.945	11.1091
245.837	16.1016
248.73	46.5592
251.623	64.1099
254.515	90.1052
257.408	153.208
260.301	224.262
263.193	241.633
266.086	174.854
268.979	110.794
271.872	60.3932
274.764	41.5278
277.657	47.3574
280.55	60.0148
283.442	82.4536
286.335	99.3978
289.228	104.244
292.12	76.6072
295.013	45.6968
297.906	28.5151
300.798	9.0929
303.691	4.02954
306.584	4.05115
309.476	0.723022
312.369	5.38672
315.262	4.29907
318.155	12.5048
321.047	2.34167
323.94	3.94263
326.833	3.31458
329.725	14.4446
332.618	34.873
335.511	65.922
338.404	105.659
341.296	149.059
344.189	201.343
347.082	224.086
349.974	214.503
352.867	186.933
355.76	178.012
358.652	157.274
361.545	131.163
364.438	110.055
367.33	92.3868
370.223	84.8357
373.116	70.9824
376.009	67.8539
378.901	64.4893
381.794	63.3021
384.687	60.301
387.579	60.1591
390.472	54.2073
393.365	56.9514
396.257	61.728
399.15	72.8337
402.043	74.3109
404.935	72.8617
407.828	65.7935
410.721	51.125
413.614	33.2018
416.506	23.0067
419.399	16.2048
422.292	23.642
425.184	29.8178
428.077	45.8176
430.97	66.2753
433.863	88.7645
436.755	102.231
439.648	112.997
442.541	117.98
445.433	111.933
448.326	98.0286
451.219	94.6451
454.111	89.7893
457.004	91.2604
459.897	112.033
462.789	136.568
465.682	162.795
468.575	207.077
471.468	241.486
474.36	248.984
477.253	219.063
480.146	178.461
483.038	129.463
485.931	84.9308
488.824	57.6296
491.716	35.6075
494.609	22.6339
497.502	9.6311
500.395	0.837891
503.287	0.087036
506.18	4.09607
509.073	4.92407
511.965	6.22595
514.858	3.94397
517.751	5.53638
520.644	0.205444
523.536	4.7821
526.429	4.85059
529.322	2.11597
532.214	4.84058
535.107	13.9371
538	15.4352
540.892	19.296
543.785	24.7849
546.678	35.5908
549.57	53.8617
552.463	84.5663
555.356	119.165
558.249	170.486
561.141	245.14
564.034	324.303
566.927	376.645
569.819	355.947
572.712	279.292
575.605	195.558
578.497	129.382
581.39	95.489
584.283	58.749
587.176	35.5079
590.068	25.6104
592.961	21.8392
595.854	18.612
598.746	17.4222
601.639	25.8507
604.532	25.9589
607.424	27.3804
610.317	36.4463
613.21	38.6014
616.102	43.568
618.995	36.0322
621.888	37.1673
624.781	44.1927
627.673	44.2905
630.566	49.5604
633.459	57.2884
636.351	58.5342
639.244	58.3771
642.137	55.2964
645.029	49.8329
647.922	48.0558
650.815	35.5578
653.708	23.6668
656.6	20.277
659.493	18.3168
662.386	10.0319
665.278	6.03839
668.171	6.61591
671.064	4.36847
673.957	4.64056
676.849	0.517029
679.742	4.80029
682.635	8.15149
685.527	0.209351
688.42	0.423584
691.313	6.97223
694.205	1.3327
697.098	5.18219
699.991	0.389343
702.884	0.662964
705.776	4.65808
708.669	1.5744
711.562	3.19128
714.454	5.47846
717.347	12.3732
720.24	9.91052
723.132	13.8135
726.025	9.55115
728.918	15.137
731.81	23.5868
734.703	19.0805
737.596	19.9187
740.489	18.5023
743.381	20.6981
746.274	19.4161
749.167	19.986
752.059	16.6883
754.952	9.53241
757.845	12.3566
760.737	6.25244
763.63	8.12653
766.523	12.0515
769.415	13.195
772.308	8.37189
775.201	8.72516
778.094	0.188232
780.986	6.15747
783.879	2.94977
786.772	1.52203
789.664	3.53491
792.557	12.9731
795.45	4.37872
798.342	3.75263
801.235	2.26819
804.128	11.5471
807.021	7.34723
809.913	10.6138
812.806	0.313721
815.699	2.26788
818.591	8.8642
821.484	8.75647
824.377	4.99042
827.269	0.889465
830.162	0.15332
833.055	3.40997
835.948	1.51654
838.84	0.190552
841.733	4.28784
844.626	0.868286
847.518	0.805786
850.411	2.51569
853.304	0.48877
856.197	1.73596
859.089	5.66339
861.982	4.50812
864.875	8.10101
867.767	12.8925
870.66	21.3132
873.553	24.4554
876.445	29.3968
879.338	41.881
882.231	49.8848
885.123	59.8287
888.016	50.2893
890.909	47.2698
893.802	42.5361
896.694	35.6488
899.587	38.7488
902.48	33.8533
905.372	44.8952
908.265	53.9565
911.158	60.3063
914.05	83.2702
916.943	122.569
919.836	177.499
922.729	228.809
925.621	276.448
928.514	274.456
931.407	242.403
934.299	189.758
937.192	149.941
940.085	114.299
942.977	90.7902
945.87	67.5729
948.763	55.2697
951.655	46.1589
954.548	40.9485
957.441	36.9917
960.334	32.3065
963.226	24.4344
966.119	18.7777
969.012	18.6191
971.904	11.8503
974.797	8.75519
977.69	4.75018
980.582	8.46893
983.475	3.34271
986.368	0.356812
989.261	0.46051
992.153	1.56897
995.046	0.345581
997.939	0.365845
1000.83	0.446899
1003.72	3.37842
1006.62	0.429199
1009.51	1.23114
1012.4	2.82684
1015.29	2.26733
1018.19	2.72052
1021.08	1.94098
1023.97	1.14502
1026.87	0.489685
1029.76	5.89002
1032.65	4.44922
1035.54	6.52167
1038.44	5.26984
1041.33	2.9201
1044.22	6.76532
1047.12	6.70538
1050.01	6.01379
1052.9	3.29419
1055.79	5.2243
1058.68	11.9842
1061.58	8.9154
1064.47	7.90808
1067.36	6.83398
1070.26	9.84021
1073.15	10.7376
1076.04	4.0567
1078.93	5.40509
1081.83	13.8325
1084.72	9.52338
1087.61	11.5207
1090.51	9.67902
1093.4	10.0255
1096.29	3.55969
1099.18	1.98816
1102.08	5.26971
1104.97	5.26715
1107.86	15.8361
1110.75	5.99847
1113.65	0.730408
1116.54	6.62207
1119.43	0.816406
1122.33	1.85877
1125.22	5.10065
1128.11	6.64453
1131	2.77655
1133.9	1.78992
1136.79	5.14093
1139.68	11.3467
1142.57	7.89453
1145.47	9.44885
1148.36	10.3141
1151.25	7.34405
1154.14	9.58301
1157.04	4.5741
1159.93	7.375
1162.82	8.64825
1165.71	9.27588
1168.61	12.095
1171.5	9.81348
1174.39	13.0657
1177.29	14.8545
1180.18	20.2775
1183.07	9.2218
1185.96	8.72949
1188.86	8.77759
1191.75	11.4943
1194.64	5.99927
1197.54	8.23181
1200.43	13.4163
1203.32	10.2695
1206.21	3.11316
1209.11	3.11231
1212	4.448
1214.89	2.05127
1217.78	1.29804
1220.68	0.220764
1223.57	3.67987
1226.46	7.08478
1229.35	3.74097
1232.25	0.898743
1235.14	3.60785
1238.03	3.95508
1240.92	1.63532
1243.82	2.48993
1246.71	8.22223
1249.6	0.014526
1252.5	2.90088
1255.39	2.58478
1258.28	6.47119
1261.17	8.86786
1264.07	8.43463
1266.96	5.04987
1269.85	0.526001
1272.74	0.806763
1275.64	2.26001
1278.53	0.424683
1281.42	6.08801
1284.32	0.73877
