Measurement: Raman, 532 nm, unoriented, Raman Data Processed
Mineral: Taniajacoite
Rruff sample: R140945
Ideal chemistry: SrCaMn^3+^_2_Si_4_O_11_(OH)_4_2H_2_O
Locality: N'Chwaning III mine, Kalahari Manganese Fields, Northern Cape Province, South Africa
Source: Jaco and Tania Janse van Nieuwenhuizen
Description: Aggregates of radiating acicular  brown crystals, associated with pink sugilite and dark-red lipuite. Type sample.
Measured chemistry: Sr(Ca_0.81_Sr_0.19_)_Σ1.00_(Mn^3+^_1.90_Fe^3+^_0.15_Al_0.01_)_Σ2.06_Si_3.96_O_11_(OH)_4_·2H_2_O
Raman shift (cm-1)	intensity
147.155	0
150.048	1.16748
152.94	1.65448
155.833	17.1487
158.726	48.667
161.619	99.3558
164.511	167.188
167.404	258.769
170.297	359.092
173.189	452.952
176.082	476.831
178.975	448.725
181.868	415.228
184.76	404.599
187.653	399.673
190.546	385.204
193.438	367.962
196.331	363.026
199.224	390.876
202.116	456.399
205.009	553.134
207.902	665.569
210.794	769.077
213.687	851.136
216.58	883.42
219.473	847.157
222.365	707.915
225.258	509.283
228.151	322.646
231.043	187.232
233.936	107.612
236.829	68.6879
239.721	65.1575
242.614	95.5139
245.507	147.868
248.4	197.816
251.292	260.39
254.185	314.178
257.078	368.125
259.97	392.578
262.863	341.543
265.756	238.377
268.649	143.537
271.541	87.4855
274.434	66.9219
277.327	68.3677
280.219	81.2504
283.112	84.3033
286.005	70.9824
288.897	43.2214
291.79	14.7956
294.683	6.44946
297.575	10.0385
300.468	12.3866
303.361	7.27014
306.254	14.4657
309.146	15.7687
312.039	16.0707
314.932	7.87689
317.824	7.66907
320.717	25.9875
323.61	47.1223
326.502	71.2654
329.395	92.1893
332.288	106.101
335.181	132.249
338.073	161.767
340.966	183.669
343.859	192.533
346.751	184.913
349.644	164.17
352.537	145.111
355.43	127.868
358.322	107.503
361.215	96.0261
364.108	91.7069
367	98.0319
369.893	101.194
372.786	122.945
375.678	142.57
378.571	167.576
381.464	184.364
384.356	203.701
387.249	211.05
390.142	216.219
393.035	222.07
395.927	220.734
398.82	212.383
401.713	196.338
404.605	174.116
407.498	141.703
410.391	110.264
413.284	82.2404
416.176	59.478
419.069	54.8489
421.962	60.3675
424.854	76.2586
427.747	97.1414
430.64	121.112
433.532	142.459
436.425	150.344
439.318	154.199
442.211	148.164
445.103	128.734
447.996	111.034
450.889	99.587
453.781	99.8443
456.674	114.669
459.567	134.856
462.459	158.375
465.352	191.923
468.245	214.062
471.137	222.495
474.03	206.522
476.923	168.769
479.816	118.789
482.708	79.4391
485.601	47.6776
488.494	25.8521
491.386	10.3643
494.279	2.37103
497.172	11.1668
500.065	13.1113
502.957	13.9844
505.85	10.1576
508.743	9.72974
511.635	4.25073
514.528	1.11523
517.421	5.99628
520.313	14.4784
523.206	23.1846
526.099	32.8489
528.991	41.9308
531.884	48.907
534.777	55.9923
537.67	62.7741
540.562	72.7664
543.455	90.6025
546.348	119.872
549.24	162.356
552.133	211.939
555.026	273.831
557.918	348.248
560.811	421.57
563.704	454.433
566.597	433.436
569.489	365.382
572.382	280.267
575.275	213.635
578.167	167.048
581.06	142.045
583.953	132.189
586.846	127.818
589.738	120.507
592.631	120.423
595.524	123.841
598.416	123.968
601.309	128.392
604.202	132.556
607.094	136.595
609.987	142.393
612.88	145.364
615.773	142.663
618.665	137.961
621.558	130.182
624.451	129.456
627.343	123.357
630.236	117.413
633.129	109.968
636.021	103.484
638.914	90.4094
641.807	77.639
644.699	63.712
647.592	48.5114
650.485	34.7568
653.378	26.3572
656.27	14.0195
659.163	3.10712
662.056	1.55048
664.948	0.871887
667.841	2.50208
670.734	1.85059
673.626	2.23346
676.519	1.58453
679.412	2.66003
682.305	0.660706
685.197	6.16632
688.09	1.82275
690.983	2.23187
693.875	2.91171
696.768	5.07727
699.661	10.2793
702.553	13.7173
705.446	17.7348
708.339	23.0774
711.232	25.9364
714.124	30.6904
717.017	37.7743
719.91	39.2903
722.802	41.6979
725.695	40.5301
728.588	36.7393
731.481	36.5367
734.373	37.0891
737.266	35.0385
740.159	30.8868
743.051	31.6775
745.944	26.2219
748.837	27.6243
751.729	26.3331
754.622	23.5189
757.515	20.2433
760.408	18.7781
763.3	17.7203
766.193	14.9287
769.086	12.6055
771.978	13.1761
774.871	12.6068
777.764	11.6609
780.656	9.26794
783.549	9.20373
786.442	7.85272
789.335	6.18604
792.227	8.74741
795.12	6.68131
798.013	6.63519
800.905	3.74499
803.798	1.25375
806.691	1.71387
809.583	3.53018
812.476	0.303986
815.369	2.47635
818.261	1.64233
821.154	4.4852
824.047	1.94684
826.94	0.631775
829.832	0.359253
832.725	0.995667
835.618	3.1026
838.51	1.65601
841.403	0.114319
844.296	0.048096
847.188	2.30151
850.081	2.59467
852.974	0.014648
855.867	1.16419
858.759	0.315063
861.652	9.40558
864.545	14.7899
867.437	22.6746
870.33	32.8827
873.223	49.2679
876.115	63.3965
879.008	77.3746
881.901	86.8109
884.794	94.4124
887.686	100.583
890.579	111.11
893.472	123.336
896.364	136.852
899.257	158.257
902.15	193.124
905.043	246.887
907.935	318.232
910.828	417.557
913.721	551.013
916.613	691.264
919.506	823.759
922.399	893.434
925.291	878.319
928.184	785.998
931.077	657.757
933.97	525.646
936.862	412.308
939.755	316.911
942.648	245.922
945.54	195.732
948.433	153.614
951.326	128.043
954.218	102.093
957.111	81.3013
960.004	64.2922
962.896	50.1755
965.789	42.0788
968.682	39.4797
971.575	32.4099
974.467	28.9452
977.36	24.4561
980.253	18.0619
983.145	15.9272
986.038	14.4379
988.931	13.9303
991.823	5.97339
994.716	3.15973
997.609	1.38324
1000.5	0.761841
1003.39	1.91644
1006.29	0.052246
1009.18	3.18909
1012.07	2.65387
1014.97	1.64197
1017.86	3.99194
1020.75	2.086
1023.64	0.116272
1026.54	0.919678
1029.43	0.768738
1032.32	0.431641
1035.21	0.475769
1038.11	1.82623
1041	0.131836
1043.89	3.98297
1046.79	5.32172
1049.68	6.771
1052.57	8.68195
1055.46	10.9438
1058.36	13.7335
1061.25	14.3576
1064.14	21.4822
1067.03	24.7947
1069.93	26.4915
1072.82	24.5475
1075.71	25.6453
1078.6	22.4022
1081.5	15.8524
1084.39	15.1439
1087.28	12.194
1090.17	6.83514
1093.07	7.33069
1095.96	1.24811
1098.85	4.13086
1101.75	3.30719
1104.64	1.84845
1107.53	1.50263
1110.42	1.00415
1113.32	0.824524
1116.21	3.58472
1119.1	2.48029
1121.99	3.05536
1124.89	4.29944
1127.78	2.98425
1130.67	2.78699
1133.57	4.8114
1136.46	2.18469
1139.35	5.19189
1142.24	3.89349
1145.14	3.29547
1148.03	1.86749
1150.92	6.17871
1153.82	5.78857
1156.71	5.8009
1159.6	3.54419
1162.49	1.72583
1165.38	2.12012
1168.28	2.25494
1171.17	1.92999
1174.06	3.28388
1176.96	3.8913
1179.85	3.8529
1182.74	4.72186
1185.63	2.98187
1188.53	2.57812
1191.42	3.69971
1194.31	3.15033
1197.2	1.63153
1200.1	1.62561
1202.99	1.32642
1205.88	3.08679
1208.78	0.185242
1211.67	1.133
1214.56	2.0481
1217.45	2.02087
1220.35	2.97961
1223.24	0.312134
1226.13	0.172302
1229.03	1.94482
1231.92	1.48334
1234.81	2.08673
1237.7	1.34711
1240.6	3.72827
1243.49	4.19031
1246.38	4.78369
1249.27	3.51929
1252.17	6.68726
1255.06	1.93671
1257.95	2.62976
1260.85	0.998657
1263.74	4.66925
1266.63	0.397522
1269.52	4.27692
1272.42	1.09277
1275.31	1.50665
1278.2	0.474792
1281.09	2.70203
1283.99	1.4378
1286.88	0.536926
1289.77	3.58398
1292.66	3.70178
1295.56	1.71466
1298.45	0.449402
1301.34	0.76123
