Measurement: Raman, 780 nm, unoriented, Raman Data Processed
Mineral: Tantalite-(Mn)
Rruff sample: R060252
Ideal chemistry: Mn^2+^Ta_2_O_6_
Locality: Kohtokay mine, Xinjiang Autonomous Region, China
Source: William W. Pinch
Description: Reddish-brown fragment
Measured chemistry: (Mn^2+^_0.93_Fe^2+^_0.07_)_Σ=1_(Ta_1.44_Nb_0.56_)_Σ=2_O_6_
Raman shift (cm-1)	intensity
99.3769	0
102.752	8.60895
106.127	183.18
109.501	379.051
112.876	808.096
116.251	1229.25
119.626	1491.85
123.001	2214.69
126.376	2347.02
129.75	1211.91
133.125	502.129
136.5	212.374
139.875	56.4815
143.25	40.8759
146.624	37.9468
149.999	6.28149
153.374	104.707
156.749	361.326
160.124	627.37
163.499	1096.89
166.873	1402.69
170.248	1629.66
173.623	2846.77
176.998	2807.85
180.373	1163.52
183.747	694.783
187.122	689.618
190.497	902.88
193.872	1328.53
197.247	1963.02
200.621	2445.31
203.996	1887.41
207.371	866.642
210.746	271.498
214.121	36.2731
217.495	2.36633
220.87	72.0958
224.245	216.185
227.62	389.842
230.995	668.292
234.37	1113.72
237.744	1854.29
241.119	2151.61
244.494	1404.65
247.869	878.319
251.244	779.98
254.619	840.592
257.993	1109.03
261.368	1711.62
264.743	2988.93
268.118	3238.18
271.493	2101.52
274.867	1513.58
278.242	1503.7
281.617	1625.85
284.992	1008.16
288.367	367.858
291.741	80.5797
295.116	44.4558
298.491	72.8347
301.866	25.6727
305.241	152.321
308.616	219.593
311.99	379.233
315.365	723.728
318.74	1379.05
322.115	1788.94
325.49	925.018
328.865	299.154
332.239	69.1558
335.614	5.24439
338.989	6.78546
342.364	5.60974
345.739	62.1399
349.113	168.817
352.488	287.157
355.863	437.443
359.238	637.268
362.613	907.828
365.988	1210.54
369.362	1474.95
372.737	1490.85
376.112	1431.18
379.487	1585.02
382.862	2012.99
386.236	2776.22
389.611	3952.1
392.986	5364.76
396.361	5918.04
399.736	4685.49
403.111	2843.53
406.485	1616.81
409.86	929.433
413.235	549.062
416.61	352.617
419.985	215.852
423.359	138.825
426.734	89.0254
430.109	58.1216
433.484	55.3044
436.859	34.7278
440.233	27.9059
443.608	9.10608
446.983	12.7734
450.358	11.1623
453.733	24.259
457.108	2.03918
460.482	27.7115
463.857	29.3011
467.232	9.96924
470.607	16.1434
473.982	8.92133
477.356	55.894
480.731	117.473
484.106	207.505
487.481	316.769
490.856	436.182
494.231	566.899
497.605	699.268
500.98	827.551
504.355	995.502
507.73	1144.19
511.105	1292.28
514.479	1440.7
517.854	1495.36
521.229	1540.49
524.604	1592.16
527.979	1757.13
531.354	2125.42
534.728	2758.07
538.103	3586.41
541.478	4043.9
544.853	3418.12
548.228	2239.84
551.602	1301.49
554.977	760.997
558.352	436.213
561.727	235.945
565.102	114.724
568.476	43.26
571.851	2.0965
575.226	10.4684
578.601	20.1083
581.976	3.68823
585.351	42.543
588.725	109.339
592.1	183.258
595.475	307.89
598.85	473.999
602.225	724.284
605.6	1029.21
608.974	1378.45
612.349	1784.21
615.724	2078.56
619.099	2013.04
622.474	1598.64
625.848	1129.98
629.223	810.749
632.598	647.908
635.973	583.891
639.348	559.473
642.722	482.417
646.097	365.78
649.472	239.4
652.847	132.146
656.222	73.7409
659.597	40.2499
662.971	11.6773
666.346	3.03851
669.721	3.20932
673.096	8.47269
676.471	8.96603
679.846	1.63971
683.22	4.40564
686.595	13.305
689.97	31.7377
693.345	52.5602
696.72	84.1719
700.094	133.298
703.469	179.323
706.844	231.798
710.219	263.557
713.594	251.205
716.968	205.435
720.343	172.304
723.718	134.508
727.093	109.109
730.468	83.606
733.842	73.8941
737.217	63.2856
740.592	47.0789
743.967	44.7547
747.342	44.688
750.717	40.8268
754.091	34.5461
757.466	29.3601
760.841	27.0684
764.216	15.5367
767.591	16.2296
770.966	18.5105
774.34	14.1902
777.715	0.995193
781.09	6.19928
784.465	5.59186
787.84	5.01971
791.214	4.6358
794.589	7.17935
797.964	5.52267
801.339	9.98782
804.714	11.8511
808.088	0.372559
811.463	10.8388
814.838	26.1263
818.213	69.0024
821.588	108.91
824.963	162.986
828.337	228.107
831.712	321.23
835.087	417.008
838.462	513.316
841.837	594.98
845.212	651.517
848.586	668.546
851.961	775.815
855.336	964.051
858.711	1297.48
862.086	1843.64
865.46	2825.77
868.835	4731.26
872.21	8009.87
875.585	12461.5
878.96	20605.5
882.335	34729.5
885.709	33442.9
889.084	14373
892.459	5959.97
895.834	3047.55
899.209	1798
902.583	1191.7
905.958	822.21
909.333	572.437
912.708	365.919
916.083	236.327
919.457	169.033
922.832	96.014
926.207	59.0687
929.582	29.3546
932.957	27.6598
936.332	13.3658
939.706	5.61697
943.081	7.61231
946.456	12.5229
949.831	2.70358
953.206	9.76093
956.58	7.19553
959.955	4.08225
963.33	4.49561
966.705	0.643616
970.08	5.93189
973.455	9.84038
976.829	0.207504
980.204	11.5279
983.579	21.6927
986.954	9.99393
990.329	14.5897
993.703	15.0337
997.078	14.728
1000.45	21.9896
1003.83	19.8874
1007.2	20.4421
1010.58	16.2802
1013.95	18.7216
1017.33	21.9993
1020.7	23.5496
1024.08	15.6581
1027.45	15.0207
1030.83	11.1429
1034.2	12.44
1037.58	12.7903
1040.95	15.1572
1044.33	16.616
1047.7	17.7025
1051.08	15.7969
1054.45	17.2295
1057.83	22.0576
1061.2	14.7126
1064.58	20.9849
1067.95	24.7696
1071.32	19.678
1074.7	18.5609
1078.07	27.5638
1081.45	28.6719
1084.82	23.532
1088.2	22.2101
1091.57	20.7577
1094.95	22.3103
1098.32	18.5083
1101.7	22.3165
1105.07	17.622
1108.45	15.9727
1111.82	13.7019
1115.2	13.0942
1118.57	13.2968
1121.95	2.91261
1125.32	6.94794
1128.7	9.06464
1132.07	7.41589
1135.45	5.36018
1138.82	7.54423
1142.19	6.87203
1145.57	1.96743
1148.94	2.5922
1152.32	4.28137
1155.69	0.341254
1159.07	3.48197
1162.44	3.01344
1165.82	0.657494
1169.19	9.25868
1172.57	10.2787
1175.94	3.74197
1179.32	3.71382
1182.69	0.86879
1186.07	0.597328
1189.44	4.28794
1192.82	2.51318
1196.19	12.7431
1199.57	2.46735
1202.94	0.742256
1206.32	8.49893
1209.69	4.77536
1213.07	11.6261
1216.44	1.40408
1219.82	7.28921
1223.19	9.76433
1226.57	10.0791
1229.94	11.0584
1233.32	1.52137
1236.69	6.88026
1240.07	7.84266
1243.44	0.225983
1246.82	6.60706
1250.19	8.53342
1253.56	5.84949
1256.94	5.82798
1260.31	2.07861
1263.69	0.970238
1267.06	6.72694
1270.44	10.3041
1273.81	8.13679
1277.19	7.23968
1280.56	4.02151
1283.94	3.84462
