Measurement: Raman, 532 nm, unoriented, Raman Data Processed
Mineral: Tantalite-(Mn)
Rruff sample: R050600
Ideal chemistry: Mn^2+^Ta_2_O_6_
Locality: Shengus, Pakistan
Source: Wayne Thompson
Description: Black tabular crystal associated with white albite and colorless quartz
Raman shift (cm-1)	intensity
149.934	25.9796
152.826	25.4703
155.719	27.6165
158.612	27.7664
161.504	29.0401
164.397	38.9807
167.29	42.1274
170.183	52.4885
173.075	43.9171
175.968	34.7082
178.861	20.2393
181.753	9.93762
184.646	10.5399
187.539	12.6777
190.431	15.9413
193.324	20.1331
196.217	32.6662
199.109	48.2294
202.002	63.9346
204.895	63.8402
207.788	37.9443
210.68	16.5973
213.573	3.87971
216.466	1.63859
219.358	5.68942
222.251	3.1325
225.144	2.43145
228.036	11.2078
230.929	19.1699
233.822	27.5611
236.715	38.8491
239.607	50.1703
242.5	64.7673
245.393	67.4385
248.286	57.7328
251.178	51.5776
254.071	49.3062
256.964	57.6327
259.856	72.4214
262.749	87.9315
265.642	110.839
268.534	130.404
271.427	137.756
274.32	127.739
277.212	111.698
280.105	93.9824
282.998	72.1422
285.891	58.5589
288.783	42.8234
291.676	37.2401
294.569	39.8202
297.461	46.2312
300.354	50.773
303.247	49.0487
306.14	45.3576
309.032	40.219
311.925	37.6015
314.818	39.2201
317.71	54.2818
320.603	71.5091
323.496	66.7342
326.389	41.8963
329.281	35.5009
332.174	10.4657
335.067	5.52882
337.959	3.21038
340.852	2.78401
343.745	2.4971
346.637	2.65787
349.53	3.03003
352.423	2.12929
355.315	0.764427
358.208	1.53565
361.101	3.99566
363.994	6.5989
366.886	8.19528
369.779	7.85859
372.672	8.45093
375.565	7.49499
378.457	9.81632
381.35	9.94733
384.243	12.3762
387.135	11.747
390.028	10.8104
392.921	9.45923
395.813	8.24507
398.706	8.40904
401.599	7.07625
404.491	4.31705
407.384	3.03027
410.277	0.206306
413.17	0.031898
416.062	1.00796
418.955	2.44578
421.848	0.383461
424.74	0.978821
427.633	2.09427
430.526	2.717
433.418	3.24127
436.311	1.8752
439.204	3.01012
442.097	4.68737
444.989	5.17317
447.882	4.62418
450.775	4.98708
453.667	4.0136
456.56	4.62734
459.453	8.00893
462.346	8.7926
465.238	13.2734
468.131	12.0661
471.024	19.4594
473.916	21.6209
476.809	25.1073
479.702	30.8027
482.594	38.5101
485.487	48.1899
488.38	53.7184
491.273	64.0971
494.165	69.0221
497.058	78.0262
499.951	81.7532
502.843	90.2339
505.736	95.6831
508.629	91.5223
511.522	90.8688
514.414	86.2242
517.307	77.9946
520.2	70.4273
523.092	63.6038
525.985	58.7881
528.878	63.9789
531.77	69.1798
534.663	73.9647
537.556	78.1329
540.448	71.6342
543.341	59.6057
546.234	43.0226
549.127	27.8418
552.019	18.1086
554.912	12.3598
557.805	7.91467
560.697	6.62108
563.59	2.95316
566.483	3.43518
569.376	1.42307
572.268	0.208611
575.161	1.02425
578.054	0.365417
580.946	0.189926
583.839	1.39233
586.732	0.819717
589.625	0.12957
592.517	0.169052
595.41	1.54235
598.303	3.22112
601.195	5.98017
604.088	10.1383
606.981	14.6735
609.874	19.4292
612.766	25.9192
615.659	32.7585
618.552	43.1083
621.444	48.7182
624.337	59.6394
627.23	69.6539
630.122	83.7742
633.015	97.1233
635.908	110.057
638.801	110.529
641.693	107.024
644.586	91.4416
647.479	71.7454
650.371	54.8288
653.264	38.7846
656.157	29.0021
659.049	20.1376
661.942	14.6307
664.835	10.668
667.727	6.76546
670.62	4.36807
673.513	2.44109
676.406	3.25456
679.298	2.52435
682.191	0.598503
685.084	0.148796
687.976	0.270294
690.869	0.227272
693.762	0.094315
696.654	1.56856
699.547	2.89738
702.44	2.18798
705.333	0.736031
708.225	5.22202
711.118	6.52235
714.011	5.20848
716.904	5.76399
719.796	6.74298
722.689	7.49012
725.582	8.97003
728.474	11.3768
731.367	11.6168
734.26	13.7973
737.152	14.5012
740.045	14.2616
742.938	15.1407
745.831	14.5215
748.723	14.2247
751.616	12.5234
754.509	12.48
757.401	7.81508
760.294	9.75905
763.187	7.49175
766.08	5.7583
768.972	6.30317
771.865	3.76356
774.758	0.330025
777.65	2.04105
780.543	1.65933
783.436	2.35919
786.328	0.755028
789.221	3.17584
792.114	4.17923
795.006	1.49548
797.899	2.77718
800.792	0.910759
803.685	0.07325
806.577	2.89259
809.47	7.27867
812.363	8.85046
815.255	16.8841
818.148	18.9107
821.041	26.9978
823.933	31.3288
826.826	42.7689
829.719	48.7697
832.612	59.0384
835.504	64.1928
838.397	70.3538
841.29	77.9618
844.182	89.1122
847.075	102.015
849.968	122.46
852.861	155.754
855.753	197.542
858.646	256.497
861.539	341.381
864.431	457.7
867.324	622.785
870.217	876.214
873.11	1237.25
876.002	1718.79
878.895	2247.52
881.788	2573.85
884.68	2266.94
887.573	1481.67
890.466	842.729
893.358	489.759
896.251	310.056
899.144	206.584
902.037	146.184
904.929	107.326
907.822	77.5648
910.715	60.3211
913.607	42.5011
916.5	30.512
919.393	23.4962
922.285	17.099
925.178	11.2341
928.071	7.06623
930.964	3.47232
933.856	4.51753
936.749	1.12712
939.642	2.65985
942.534	0.910141
945.427	1.45847
948.32	1.68236
951.212	0.287544
954.105	0.241669
956.998	2.28905
959.891	1.72343
962.783	0.286354
965.676	0.252632
968.569	0.505119
971.461	0.006165
974.354	1.37751
977.247	0.31971
980.139	1.69804
983.032	1.18542
985.925	1.71476
988.818	2.0267
991.71	3.79088
994.603	3.12801
997.496	3.12201
1000.39	3.77306
1003.28	5.48697
1006.17	3.55384
1009.07	3.95722
1011.96	4.7342
1014.85	4.00966
1017.75	4.54612
1020.64	2.37603
1023.53	3.86853
1026.42	4.71332
1029.32	4.68853
1032.21	4.5512
1035.1	5.53437
1037.99	2.46116
1040.89	4.39471
1043.78	2.5197
1046.67	2.29055
1049.56	3.33992
1052.46	5.13769
1055.35	2.71186
1058.24	3.93671
1061.13	4.4477
1064.03	2.52333
1066.92	1.80705
1069.81	4.79191
1072.71	4.4106
1075.6	1.92687
1078.49	5.14645
1081.38	3.14186
1084.28	4.79963
1087.17	3.37224
1090.06	3.13691
1092.95	3.63537
1095.85	3.06638
1098.74	5.54385
1101.63	3.57173
1104.53	3.03683
1107.42	3.57349
1110.31	3.93232
1113.2	2.02628
1116.1	2.85106
1118.99	3.63436
1121.88	3.39578
1124.78	1.46827
1127.67	0.24036
1130.56	2.87022
1133.45	2.8824
1136.35	1.65461
1139.24	0.072948
1142.13	2.9288
1145.02	2.25809
1147.92	0.017391
1150.81	0.948509
1153.7	2.23081
1156.59	1.41473
1159.49	1.32185
1162.38	1.56659
1165.27	0.472939
1168.16	2.09143
1171.06	0.728764
1173.95	0.143074
1176.84	1.27634
1179.74	0.307076
1182.63	1.18232
1185.52	0.353298
1188.41	1.27919
1191.31	2.61244
1194.2	0.213806
1197.09	0.928215
1199.98	0.187355
1202.88	1.85267
1205.77	1.7865
1208.66	0.876053
1211.56	1.72249
1214.45	2.11007
1217.34	1.53802
1220.23	2.00813
1223.13	1.68081
1226.02	1.81376
1228.91	2.6021
1231.81	1.07977
1234.7	1.36785
1237.59	1.3732
1240.48	3.10887
1243.38	2.1685
1246.27	3.31022
1249.16	1.24871
1252.05	3.89369
1254.95	1.31797
1257.84	1.47165
1260.73	1.48204
1263.62	3.62778
1266.52	3.21766
1269.41	2.63096
1272.3	2.99467
1275.19	3.69369
1278.09	2.50563
1280.98	1.78865
1283.87	0.15271
1286.77	3.54115
1289.66	3.5869
1292.55	3.01768
1295.44	0.789768
1298.34	2.63599
1301.23	0.016296
