Measurement: Raman, 785 nm, unoriented, Raman Data Processed
Mineral: Tantalite-(Fe)
Rruff sample: R070548
Ideal chemistry: Fe^2+^Ta_2_O_6_
Locality: Grizzly Bear Gulch, Black Hills, Custer County, South Dakota, USA
Source: James Shigley
Description: Submetallic dark grey fragments with parallel cleavage planes
Raman shift (cm-1)	intensity
155.63	0
158.523	5.36572
161.416	132.073
164.308	297.04
167.201	204.539
170.094	280.477
172.987	360.744
175.879	444.768
178.772	285.68
181.665	75.4001
184.557	1.3606
187.45	57.1665
190.343	143.797
193.235	272.48
196.128	379.581
199.021	615.102
201.913	846.46
204.806	947.63
207.699	676.735
210.591	390.915
213.484	153.429
216.377	1.97485
219.27	23.4094
222.162	17.5503
225.055	22.4592
227.948	20.0859
230.84	66.4175
233.733	166.899
236.626	271.304
239.518	400.389
242.411	443.456
245.304	541.845
248.197	466.595
251.089	458.389
253.982	520.062
256.875	535.347
259.767	732.175
262.66	846.23
265.553	923.144
268.445	979.652
271.338	1071.16
274.231	1033.11
277.124	823.713
280.016	678.398
282.909	534.592
285.802	468.182
288.694	323.532
291.587	247.234
294.48	211.923
297.373	177.38
300.265	192.838
303.158	147.447
306.051	143.729
308.943	120.397
311.836	174.843
314.729	202.7
317.621	187.824
320.514	169.019
323.407	63.477
326.3	49.0273
329.192	20.0039
332.085	2.97925
334.978	21.9985
337.87	0.939453
340.763	4.39697
343.656	25.3484
346.548	116.622
349.441	140.512
352.334	223.785
355.226	309.453
358.119	345.15
361.012	402.637
363.904	449.487
366.797	461.138
369.69	512.592
372.583	621.033
375.475	809.318
378.368	1019.23
381.261	1350.38
384.153	1690.19
387.046	2089.74
389.939	2479.2
392.832	2820.47
395.724	2965
398.617	2839.28
401.51	2314.76
404.402	1719.71
407.295	1204.73
410.188	877.402
413.08	559.83
415.973	389.014
418.866	337.952
421.759	214.622
424.651	164.705
427.544	92.1419
430.437	98.6501
433.329	67.0915
436.222	72.8413
439.115	38.4758
442.007	55.603
444.9	21.7131
447.793	19.2239
450.685	16.8193
453.578	11.1921
456.471	27.9627
459.364	24.0713
462.256	42.052
465.149	77.0938
468.042	105.654
470.934	192.117
473.827	227.588
476.72	301.755
479.613	349.226
482.505	429.214
485.398	442.106
488.291	440.565
491.183	417.734
494.076	368.949
496.969	331.674
499.861	330.211
502.754	273.499
505.647	294.636
508.539	337.504
511.432	415.961
514.325	457.185
517.218	644.609
520.11	773.354
523.003	982.151
525.896	1155.93
528.788	1304.37
531.681	1351.41
534.574	1236.82
537.466	1010.96
540.359	787.208
543.252	581.383
546.144	410.518
549.037	318.459
551.93	178.419
554.823	117.597
557.715	62.1409
560.608	45.8323
563.501	35.4609
566.393	41.3774
569.286	23.4133
572.179	18.5293
575.072	14.9092
577.964	29.7712
580.857	22.0977
583.75	57.3721
586.642	110.993
589.535	155.32
592.428	193.215
595.32	222.432
598.213	304.559
601.106	327.903
603.999	299.1
606.891	348.177
609.784	328.582
612.677	293.705
615.569	262.2
618.462	264.522
621.355	215.974
624.247	205.07
627.14	183.778
630.033	202.331
632.926	229.347
635.818	218.467
638.711	216.546
641.604	165.621
644.496	141.17
647.389	131.38
650.282	157.712
653.174	110.042
656.067	100.009
658.96	55.989
661.852	104.416
664.745	99.8657
667.638	56.0027
670.531	122.339
673.423	46.1204
676.316	51.2329
679.209	39.9602
682.101	42.8997
684.994	46.2334
687.887	13.8044
690.779	26.9131
693.672	39.102
696.565	10.0964
699.458	9.1626
702.35	28.9561
705.243	12.155
708.136	20.3057
711.028	2.9978
713.921	16.2568
716.814	49.291
719.707	13.3325
722.599	40.0159
725.492	26.2261
728.385	22.0444
731.277	5.11987
734.17	27.6975
737.063	46.6799
739.955	34.4307
742.848	80.0234
745.741	94.2517
748.633	116.624
751.526	179.041
754.419	230.752
757.312	263.399
760.204	262.467
763.097	324.243
765.99	331.35
768.882	363.338
771.775	393.821
774.668	375.729
777.56	414.974
780.453	453.606
783.346	423.969
786.239	467.13
789.131	488.061
792.024	491.874
794.917	443.061
797.809	448.681
800.702	415.411
803.595	412.585
806.487	411.774
809.38	416.639
812.273	398.432
815.165	437.138
818.058	447.62
820.951	499.911
823.844	464.279
826.736	480.129
829.629	504.487
832.522	504.748
835.414	547.854
838.307	578.628
841.2	569.609
844.092	628.368
846.985	744.746
849.878	929.497
852.771	1126.87
855.663	1402.14
858.556	1817.59
861.449	2414.38
864.341	3416.84
867.234	4696.08
870.127	6434
873.019	8410.58
875.912	10153.4
878.805	10287.7
881.698	7813.07
884.59	4744.84
887.483	2563.92
890.376	1264.97
893.268	682.845
896.161	387.85
899.054	166.727
901.947	90.7065
904.839	11.9758
907.732	16.7881
910.625	50.6337
913.517	23.0974
916.41	30.5527
919.303	30.4619
922.195	42.9011
925.088	15.7693
927.981	24.4139
930.873	46.0834
933.766	65.4568
936.659	91.2009
939.552	63.7711
942.444	83.611
945.337	113.562
948.23	129.508
951.122	120.885
954.015	141.49
956.908	162.651
959.8	165.401
962.693	155.085
965.586	184.324
968.479	181.528
971.371	172.951
974.264	166.119
977.157	191.763
980.049	145.44
982.942	139.084
985.835	120.082
988.727	98.6987
991.62	80.3354
994.513	83.7703
997.405	80.6357
1000.3	84.2004
1003.19	82.115
1006.08	107.284
1008.98	117.62
1011.87	90.4134
1014.76	66.2958
1017.65	54.4672
1020.55	65.1906
1023.44	60.7835
1026.33	52.8965
1029.22	45.1812
1032.12	56.3318
1035.01	72.6
1037.9	51.3824
1040.8	43.2738
1043.69	43.9019
1046.58	36.5509
1049.47	24.7605
1052.37	33.8353
1055.26	26.2007
1058.15	38.4332
1061.05	17.5902
1063.94	32.5782
1066.83	9.94165
1069.72	30.2616
1072.62	26.386
1075.51	6.93616
1078.4	28.9204
1081.29	35.0485
1084.19	0.923218
1087.08	15.029
1089.97	15.6434
1092.87	0.977905
1095.76	26.4099
1098.65	6.68799
1101.54	18.701
1104.43	7.67407
1107.33	6.80457
1110.22	18.5345
1113.11	21.0081
1116.01	20.2413
1118.9	15.7419
1121.79	4.76074
1124.68	12.7068
1127.58	11.6604
1130.47	19.3478
1133.36	35.3226
1136.26	5.30994
1139.15	9.41785
1142.04	31.9357
1144.93	1.25696
1147.83	11.8298
1150.72	12.0308
1153.61	1.53369
1156.5	17.1344
1159.4	1.10681
1162.29	2.5603
1165.18	20.7799
1168.08	14.3112
1170.97	21.8455
1173.86	31.8329
1176.75	34.7284
1179.65	16.0291
1182.54	7.94922
1185.43	23.2441
1188.32	10.9664
1191.22	21.8447
1194.11	36.457
1197	29.7351
1199.89	23.8239
1202.79	1.98596
1205.68	9.7326
1208.57	5.49304
1211.46	30.1627
1214.36	54.4158
1217.25	22.9311
1220.14	5.50085
1223.04	17.3802
1225.93	30.2197
1228.82	25.393
1231.71	4.70544
1234.61	24.1533
1237.5	28.4926
1240.39	33.3298
1243.29	23.4072
1246.18	0.464355
1249.07	14.8608
1251.96	18.2339
1254.86	28.3365
1257.75	26.4788
1260.64	4.50586
1263.53	15.7051
1266.43	7.15204
