Measurement: Raman, 780 nm, unoriented, Raman Data Processed
Mineral: Tantalite-(Mn)
Rruff sample: R050600
Ideal chemistry: Mn^2+^Ta_2_O_6_
Locality: Shengus, Pakistan
Source: Wayne Thompson
Description: Black tabular crystal associated with white albite and colorless quartz
Raman shift (cm-1)	intensity
149.919	0
152.812	18.7435
155.705	17.5605
158.597	2.72218
161.49	51.0155
164.383	130.651
167.276	251.343
170.168	302.057
173.061	258.54
175.954	126.77
178.846	11.3644
181.739	7.46699
184.632	47.21
187.524	175.06
190.417	330.988
193.31	526.742
196.203	756.838
199.095	1003.48
201.988	1170.85
204.881	1038.23
207.773	641.288
210.666	271.797
213.559	47.2739
216.451	53.0398
219.344	25.3558
222.237	112.046
225.13	358.574
228.022	682.52
230.915	1029.53
233.808	1459.12
236.7	1985.4
239.593	2543.64
242.486	2764.82
245.378	2300.07
248.271	1527.86
251.164	966.654
254.056	691.718
256.949	610.516
259.842	662.126
262.735	803.201
265.627	988.422
268.52	1094.45
271.413	1045.53
274.305	910.576
277.198	810.094
280.091	866.751
282.983	982.177
285.876	844.467
288.769	533.909
291.662	349.988
294.554	336.999
297.447	432.248
300.34	511.178
303.232	532.829
306.125	540.14
309.018	579.501
311.911	720.132
314.803	1007.32
317.696	1445.43
320.589	1812.91
323.481	1618.98
326.374	902.732
329.267	380.794
332.159	133.884
335.052	24.7347
337.945	30.9586
340.837	22.852
343.73	1.41575
346.623	7.15864
349.516	8.42718
352.408	2.24936
355.301	9.96746
358.194	9.72248
361.086	14.2071
363.979	43.0803
366.872	63.4189
369.764	75.7877
372.657	91.7799
375.55	94.4216
378.442	114.106
381.335	133.06
384.228	159.81
387.121	193.466
390.013	218.463
392.906	223.329
395.799	215.744
398.691	192.021
401.584	154.809
404.477	110.727
407.37	77.6019
410.262	41.6617
413.155	18.2573
416.048	0.598859
418.94	5.3832
421.833	0.687547
424.726	2.25903
427.618	4.82294
430.511	8.04119
433.404	3.8219
436.296	4.22042
439.189	3.98814
442.082	7.5027
444.975	11.1969
447.867	5.05655
450.76	1.90037
453.653	0.611237
456.545	1.14633
459.438	12.0179
462.331	36.2799
465.224	61.2015
468.116	94.662
471.009	147.882
473.902	214.716
476.794	291.994
479.687	375.917
482.58	472.561
485.472	584.39
488.365	689.983
491.258	809.046
494.151	931.001
497.043	1054.16
499.936	1143.69
502.829	1231.46
505.721	1306.73
508.614	1330.02
511.507	1325.8
514.399	1290.44
517.292	1246.58
520.185	1234.79
523.077	1299.8
525.97	1423.4
528.863	1646.09
531.756	1920.9
534.648	2176.01
537.541	2256.64
540.434	2014.24
543.326	1527.84
546.219	1062.48
549.112	706.403
552.004	474.849
554.897	324.864
557.79	218.542
560.683	151.116
563.575	94.704
566.468	56.1703
569.361	29.8956
572.253	11.0749
575.146	5.08315
578.039	13.0263
580.931	10.8115
583.824	1.94603
586.717	3.05007
589.61	3.7144
592.502	4.69258
595.395	3.34115
598.288	1.89638
601.18	23.2243
604.073	57.4079
606.966	95.7134
609.858	138.958
612.751	192.053
615.644	239.114
618.537	276.428
621.429	293.588
624.322	306.911
627.215	315.131
630.107	352.165
633	388.692
635.893	434.125
638.785	443.055
641.678	409.272
644.571	341.666
647.463	255.336
650.356	181.053
653.249	120.398
656.141	76.4465
659.034	48.0296
661.927	30.7593
664.82	18.5078
667.712	10.8283
670.605	5.70146
673.498	3.89452
676.39	1.04845
679.283	0.043432
682.176	1.92625
685.068	0.580371
687.961	0.465235
690.854	0.267233
693.747	2.38482
696.639	5.51432
699.532	8.80235
702.425	14.1554
705.317	17.7828
708.21	18.6537
711.103	20.9846
713.995	23.9716
716.888	25.3627
719.781	29.3185
722.674	32.741
725.566	39.2694
728.459	49.6806
731.352	58.965
734.244	58.7596
737.137	59.6076
740.03	62.0759
742.923	61.5427
745.815	62.0992
748.708	59.3009
751.601	58.0303
754.493	48.9247
757.386	44.3971
760.279	36.7006
763.171	26.5026
766.064	20.9321
768.957	19.5246
771.85	10.0285
774.742	3.79265
777.635	0.220783
780.528	0.27075
783.42	1.17996
786.313	4.09277
789.206	4.33643
792.098	2.00593
794.991	3.32765
797.884	7.33334
800.776	14.5486
803.669	9.34607
806.562	3.36437
809.455	15.8378
812.347	36.535
815.24	54.4457
818.133	82.7519
821.025	113.392
823.918	146.548
826.811	175.562
829.703	210.081
832.596	236.404
835.489	250.735
838.381	271.214
841.274	295.835
844.167	340.117
847.06	402.793
849.952	503.965
852.845	657.045
855.738	868.542
858.63	1183.34
861.523	1644.43
864.416	2380.17
867.308	3530.2
870.201	5271.33
873.094	7661.15
875.987	10727.5
878.879	14370.5
881.772	16569
884.665	13427.3
887.557	7777.59
890.45	4020.2
893.343	2277.21
896.236	1422.37
899.128	954.747
902.021	669.424
904.914	481.178
907.806	361.581
910.699	259.243
913.592	179.996
916.484	116.836
919.377	75.2843
922.27	42.9865
925.163	27.5928
928.055	11.5042
930.948	1.18606
933.841	5.30783
936.733	13.1916
939.626	9.22868
942.519	8.81826
945.411	1.87981
948.304	3.07906
951.197	1.10031
954.09	1.25997
956.982	3.67386
959.875	0.449182
962.768	0.304856
965.66	0.745883
968.553	2.42457
971.446	5.28051
974.338	7.89359
977.231	7.5004
980.124	11.9974
983.016	15.9726
985.909	16.1068
988.802	15.9374
991.694	20.8755
994.587	20.5803
997.48	18.6849
1000.37	18.0127
1003.26	15.6603
1006.16	15.536
1009.05	14.4114
1011.94	12.9469
1014.84	11.981
1017.73	10.795
1020.62	11.1992
1023.51	11.6779
1026.41	9.18959
1029.3	7.25286
1032.19	8.9493
1035.09	6.24264
1037.98	6.60664
1040.87	8.698
1043.76	8.53256
1046.66	4.0289
1049.55	5.73645
1052.44	6.14191
1055.33	5.34004
1058.23	3.02418
1061.12	4.3114
1064.01	4.1205
1066.9	4.28331
1069.8	4.1824
1072.69	4.1898
1075.58	5.94798
1078.47	3.54962
1081.37	2.24565
1084.26	4.06974
1087.15	6.47616
1090.05	6.62759
1092.94	4.96832
1095.83	7.13553
1098.72	5.9466
1101.62	3.52723
1104.51	10.1023
1107.4	9.5983
1110.3	12.4553
1113.19	10.4044
1116.08	7.68039
1118.97	8.21493
1121.87	5.97702
1124.76	3.05359
1127.65	0.077269
1130.54	3.32115
1133.44	4.1467
1136.33	0.035769
1139.22	0.994551
1142.12	0.203722
1145.01	0.97659
1147.9	0.982827
1150.79	1.84154
1153.69	0.651816
1156.58	0.355926
1159.47	0.212686
1162.36	0.291666
1165.26	0.391985
1168.15	0.667171
1171.04	1.94099
1173.93	0.434393
1176.83	0.343498
1179.72	0.639556
1182.61	3.59521
1185.51	5.13501
1188.4	4.10705
1191.29	3.13877
1194.18	0.673946
1197.08	1.5413
1199.97	1.06709
1202.86	1.11332
1205.75	1.94968
1208.65	2.49851
1211.54	2.50366
1214.43	3.9218
1217.33	2.96178
1220.22	3.98788
1223.11	3.86262
1226	7.58337
1228.9	4.47803
1231.79	2.7886
1234.68	2.81835
1237.57	2.52657
1240.47	1.80588
1243.36	2.40712
1246.25	0.330312
1249.14	2.51817
1252.04	2.94677
1254.93	0.982306
1257.82	1.4023
1260.71	1.51936
1263.61	0.024745
1266.5	0.044673
1269.39	2.12655
1272.29	1.22763
1275.18	2.61243
1278.07	0.297861
1280.96	3.32662
1283.86	0.126602
