Measurement: Raman, 780 nm, unoriented, Raman Data Processed
Mineral: Tantalite-(Mn)
Rruff sample: R060415
Ideal chemistry: Mn^2+^Ta_2_O_6_
Locality: Nuristan, Laghman Province, Afghanistan
Source: Herb Obodda
Description: Dark brown fragment
Raman shift (cm-1)	intensity
151.834	0
154.727	4.82529
157.62	30.2863
160.512	52.0358
163.405	57.3697
166.298	64.0554
169.19	66.4993
172.083	74.3247
174.976	85.9925
177.869	73.1592
180.761	36.6926
183.654	40.5406
186.547	129.339
189.439	188.409
192.332	218.065
195.225	240.14
198.117	265.46
201.01	284.21
203.903	310.324
206.796	285.291
209.688	169.496
212.581	52.9784
215.474	3.78421
218.366	19.5212
221.259	7.84766
224.152	21.0298
227.044	55.2767
229.937	88.5736
232.83	114.19
235.722	141.173
238.615	168.346
241.508	200.953
244.401	225.468
247.293	224.699
250.186	210.274
253.079	234.152
255.971	280.439
258.864	321.302
261.757	360.17
264.649	392.283
267.542	394.83
270.435	402.63
273.328	386.006
276.22	314.449
279.113	232.643
282.006	174.419
284.898	132.398
287.791	88.7728
290.684	56.1094
293.576	46.4668
296.469	46.8848
299.362	63.9232
302.255	64.1836
305.147	35.5022
308.04	31.4992
310.933	33.7756
313.825	43.0032
316.718	52.6625
319.611	45.5962
322.503	24.0101
325.396	0.263382
328.289	7.16907
331.182	9.55629
334.074	5.54869
336.967	1.13738
339.86	13.7042
342.752	32.036
345.645	50.5789
348.538	64.9793
351.43	82.3359
354.323	94.9956
357.216	112.522
360.108	125.039
363.001	146.119
365.894	169.732
368.787	213.773
371.679	297.19
374.572	423.604
377.465	621.767
380.357	867.383
383.25	1105.92
386.143	1271.92
389.036	1369.28
391.928	1407.01
394.821	1393.22
397.714	1273.24
400.606	1032.26
403.499	724.708
406.392	470.124
409.284	306.494
412.177	198.429
415.07	127.655
417.962	82.547
420.855	56.0658
423.748	32.8915
426.641	17.865
429.533	10.4625
432.426	0.542084
435.319	1.64987
438.211	1.25971
441.104	3.74115
443.997	7.34757
446.889	6.7511
449.782	0.177094
452.675	4.69046
455.567	20.9977
458.46	38.267
461.353	59.57
464.246	87.9227
467.138	115.616
470.031	149.716
472.924	173.28
475.816	195.416
478.709	209.023
481.602	213.954
484.495	213.814
487.387	199.02
490.28	184.209
493.173	170.116
496.065	161.689
498.958	162.794
501.851	176.712
504.743	214.753
507.636	286.94
510.529	385.174
513.422	514.792
516.314	654.145
519.207	765.173
522.1	844.948
524.992	875.573
527.885	863.913
530.778	783.747
533.67	641.679
536.563	466.452
539.456	318.503
542.348	201.351
545.241	127.777
548.134	76.5698
551.027	44.149
553.919	24.07
556.812	9.53195
559.705	0.723541
562.597	6.54655
565.49	3.67392
568.383	2.88037
571.275	1.5461
574.168	4.68013
577.061	8.7822
579.954	14.0561
582.846	25.2533
585.739	35.6663
588.632	52.7654
591.524	67.1988
594.417	85.7416
597.31	96.1331
600.202	106.088
603.095	108.549
605.988	107.678
608.881	100.082
611.773	93.9846
614.666	86.1656
617.559	86.8146
620.451	90.6472
623.344	96.3933
626.237	97.4528
629.129	105.219
632.022	109.812
634.915	107.327
637.808	99.1123
640.7	86.2029
643.593	67.0357
646.486	49.5808
649.378	33.4359
652.271	26.6792
655.164	14.6365
658.056	9.24651
660.949	8.93999
663.842	2.46936
666.735	1.4091
669.627	1.88718
672.52	2.14542
675.413	0.935928
678.305	0.747437
681.198	0.418442
684.091	1.13684
686.983	5.05432
689.876	7.69967
692.769	10.7414
695.662	13.6012
698.554	19.8404
701.447	18.7382
704.34	21.0987
707.232	19.3256
710.125	21.7703
713.018	16.1892
715.91	19.4846
718.803	10.6138
721.696	16.2513
724.588	11.9181
727.481	13.2887
730.374	12.4599
733.266	10.5348
736.159	10.4627
739.052	9.58215
741.945	6.63377
744.837	3.19225
747.73	2.68118
750.623	0.064896
753.515	1.51924
756.408	0.677383
759.301	1.44829
762.193	0.589218
765.086	3.8512
767.979	2.23377
770.872	2.71652
773.764	1.07988
776.657	2.42883
779.55	2.33643
782.442	1.86427
785.335	4.24452
788.228	0.800812
791.12	1.27107
794.013	2.66582
796.906	9.77394
799.799	12.6556
802.691	22.6698
805.584	35.5949
808.477	53.3364
811.369	70.7978
814.262	98.7586
817.155	124.517
820.048	150.555
822.94	175.602
825.833	189.367
828.726	196.329
831.618	198.629
834.511	212.073
837.404	242.785
840.296	292.572
843.189	363.474
846.082	472.986
848.975	625.442
851.867	850.816
854.76	1198.81
857.653	1758.33
860.545	2666.83
863.438	3940.32
866.331	5075.78
869.223	5715.71
872.116	5966.52
875.009	5774.55
877.901	4905.15
880.794	3327.11
883.687	1879.35
886.58	1075
889.472	669.833
892.365	455.269
895.258	320.776
898.15	231.56
901.043	164.173
903.936	108.096
906.828	78.3615
909.721	52.0656
912.614	32.1351
915.506	19.5582
918.399	13.2756
921.292	6.69182
924.185	0.065804
927.077	1.19669
929.97	2.49139
932.863	2.09238
935.755	6.16991
938.648	4.25935
941.541	3.09197
944.433	2.23202
947.326	1.08377
950.219	0.536926
953.112	0.553505
956.004	2.55965
958.897	5.45921
961.79	4.21149
964.682	5.37373
967.575	8.92025
970.468	8.54113
973.361	8.68841
976.253	11.204
979.146	13.4589
982.039	13.7464
984.931	13.5352
987.824	13.1783
990.717	12.1333
993.609	14.045
996.502	14.3143
999.395	12.3539
1002.29	11.7453
1005.18	9.69661
1008.07	10.8145
1010.97	6.62288
1013.86	6.81712
1016.75	7.67267
1019.64	6.66239
1022.54	7.63407
1025.43	5.57789
1028.32	6.94308
1031.21	7.77066
1034.11	8.10469
1037	6.68249
1039.89	9.36136
1042.79	7.3519
1045.68	7.73796
1048.57	9.43287
1051.46	7.37673
1054.36	6.77027
1057.25	9.02939
1060.14	10.3628
1063.03	8.94723
1065.93	6.92062
1068.82	7.8262
1071.71	9.45472
1074.61	6.92827
1077.5	5.89113
1080.39	5.86417
1083.28	5.69764
1086.18	5.4809
1089.07	4.22981
1091.96	4.23908
1094.85	2.00472
1097.75	4.48405
1100.64	4.4179
1103.53	0.868603
1106.42	3.15226
1109.32	0.542194
1112.21	0.108738
1115.1	2.25542
1117.99	1.03801
1120.89	0.411701
1123.78	1.20802
1126.67	1.85588
1129.57	1.83782
1132.46	0.113949
1135.35	0.660778
1138.24	1.26926
1141.14	0.865597
1144.03	0.471924
1146.92	0.185204
1149.82	0.417217
1152.71	1.1618
1155.6	2.83963
1158.49	3.22459
1161.39	1.86135
1164.28	0.460487
1167.17	2.02976
1170.06	2.17762
1172.96	1.43327
1175.85	1.93954
1178.74	1.77851
1181.63	1.15663
1184.53	2.32734
1187.42	2.26052
1190.31	3.11072
1193.21	4.25919
1196.1	2.33755
1198.99	0.835785
1201.88	4.16282
1204.78	2.99307
1207.67	4.78979
1210.56	1.06015
1213.45	3.79724
1216.35	1.14442
1219.24	4.22554
1222.13	1.28607
1225.03	2.78231
1227.92	2.89217
1230.81	0.724422
1233.7	2.95022
1236.6	1.22215
1239.49	3.47438
1242.38	4.24043
1245.27	3.0463
1248.17	3.30678
1251.06	1.80142
1253.95	2.54953
1256.85	1.16827
1259.74	2.40438
1262.63	3.40408
1265.52	1.99543
1268.42	5.02609
1271.31	0.449623
1274.2	3.11157
1277.09	2.82689
1279.99	0.95834
1282.88	0.885174
