Measurement: Raman, 532 nm, unoriented, Raman Data Processed
Mineral: Tantalite-(Mn)
Rruff sample: R060415
Ideal chemistry: Mn^2+^Ta_2_O_6_
Locality: Nuristan, Laghman Province, Afghanistan
Source: Herb Obodda
Description: Dark brown fragment
Raman shift (cm-1)	intensity
131.051	0
134.426	2.59374
137.8	0.548179
141.175	0.163338
144.55	6.18421
147.925	3.96049
151.3	3.27021
154.675	9.62586
158.049	14.3572
161.424	19.3292
164.799	23.3536
168.174	34.6665
171.549	39.616
174.924	43.6589
178.298	47.8769
181.673	29.8912
185.048	17.4629
188.423	14.5899
191.798	14.5872
195.173	16.633
198.547	21.8294
201.922	27.463
205.297	42.3339
208.672	41.904
212.047	25.4785
215.421	11.1866
218.796	6.25787
222.171	3.29417
225.546	4.38591
228.921	9.20324
232.296	14.3354
235.67	22.4232
239.045	30.7304
242.42	48.6108
245.795	61.0633
249.17	57.0509
252.544	38.2502
255.919	30.7315
259.294	30.6343
262.669	36.0424
266.044	43.3304
269.418	41.3188
272.793	38.4704
276.168	29.6405
279.543	22.7503
282.918	16.8422
286.293	17.8295
289.667	13.2926
293.042	8.9552
296.417	0.575665
299.792	4.00324
303.167	0.278519
306.541	1.81025
309.916	4.35964
313.291	10.5543
316.666	22.0266
320.041	29.0452
323.416	17.7662
326.791	4.95311
330.165	3.07893
333.54	0.687046
336.915	0.818409
340.29	0.671772
343.665	4.74152
347.039	6.40926
350.414	7.13348
353.789	13.8429
357.164	15.9029
360.539	14.9567
363.913	17.6011
367.288	10.7745
370.663	9.16104
374.038	8.19213
377.413	9.07862
380.788	11.9441
384.162	20.1499
387.537	30.8427
390.912	42.948
394.287	54.2914
397.662	65.2343
401.036	65.1357
404.411	47.1341
407.786	28.7014
411.161	15.9399
414.536	9.01192
417.911	4.0678
421.285	2.69318
424.66	2.11272
428.035	0.276951
431.41	1.53683
434.785	1.52651
438.159	1.06973
441.534	1.65385
444.909	0.74704
448.284	0.58223
451.659	2.04801
455.034	3.44179
458.409	4.02239
461.783	5.26283
465.158	8.9146
468.533	11.4708
471.908	14.8346
475.283	19.0713
478.657	19.5894
482.032	22.0974
485.407	23.0781
488.782	21.547
492.157	19.8864
495.531	16.7455
498.906	16.7723
502.281	17.9927
505.656	22.2983
509.031	27.9858
512.406	34.7286
515.78	51.5826
519.155	72.3376
522.53	96.3096
525.905	121.59
529.28	141.578
532.654	139.503
536.029	115.701
539.404	80.9497
542.779	52.0045
546.154	31.046
549.529	20.3113
552.903	12.1128
556.278	7.08105
559.653	4.4087
563.028	3.91382
566.403	0.983925
569.778	1.00776
573.152	1.78842
576.527	2.93152
579.902	0.562939
583.277	0.416973
586.652	2.50074
590.027	5.3618
593.401	6.57742
596.776	12.9926
600.151	12.4675
603.526	16.4655
606.901	17.6481
610.275	13.524
613.65	14.0618
617.025	9.71143
620.4	11.9341
623.775	7.92925
627.149	10.2223
630.524	12.5086
633.899	13.1188
637.274	10.4757
640.649	11.0376
644.024	10.5937
647.398	8.42168
650.773	5.12354
654.148	3.46036
657.523	2.9786
660.898	1.08189
664.273	1.45904
667.647	0.042976
671.022	0.103615
674.397	1.81168
677.772	0.336338
681.147	2.0458
684.521	1.39167
687.896	2.4925
691.271	2.09744
694.646	3.64852
698.021	4.19492
701.396	7.16495
704.77	3.11755
708.145	7.58773
711.52	5.43291
714.895	6.87596
718.27	6.73492
721.644	4.88317
725.019	5.88224
728.394	4.67957
731.769	6.83229
735.144	7.11799
738.519	7.94424
741.893	6.05132
745.268	5.30384
748.643	4.30682
752.018	3.06575
755.393	2.72139
758.768	2.92623
762.142	1.09865
765.517	1.99837
768.892	0.177181
772.267	0.974697
775.642	1.2905
779.016	1.11918
782.391	0.151577
785.766	1.16351
789.141	1.01969
792.516	0.175373
795.89	0.414753
799.265	0.231815
802.64	3.96756
806.015	2.58428
809.39	6.55613
812.765	7.98171
816.139	10.1369
819.514	16.2766
822.889	19.4358
826.264	23.7832
829.639	30.4916
833.014	33.9531
836.388	37.8299
839.763	40.6996
843.138	49.9141
846.513	62.2332
849.888	79.0173
853.263	109.198
856.637	152.371
860.012	217.523
863.387	319.151
866.762	474.623
870.136	662.155
873.511	884.173
876.886	1047.95
880.261	898.567
883.636	514.669
887.011	263.116
890.385	145.359
893.76	90.4349
897.135	59.6526
900.51	43.275
903.885	29.0683
907.26	20.0402
910.634	14.2205
914.009	10.4373
917.384	5.96603
920.759	3.88873
924.134	2.34168
927.509	3.41846
930.883	0.952305
934.258	0.531986
937.633	0.572521
941.008	1.66966
944.383	0.194824
947.757	1.02453
951.132	0.43586
954.507	0.498192
957.882	0.6105
961.257	1.2511
964.631	1.42253
968.006	3.61031
971.381	0.4571
974.756	1.41602
978.131	2.94353
981.506	1.82219
984.88	2.4985
988.255	2.84463
991.63	2.78148
995.005	3.158
998.38	2.79728
1001.75	3.77434
1005.13	4.12872
1008.5	1.99628
1011.88	2.32291
1015.25	1.52219
1018.63	4.11566
1022	1.8621
1025.38	1.69513
1028.75	2.95439
1032.13	2.4317
1035.5	1.9704
1038.88	2.05989
1042.25	1.58101
1045.63	4.39099
1049	2.75283
1052.38	3.29479
1055.75	1.36801
1059.13	2.88376
1062.5	1.49478
1065.88	1.28947
1069.25	0.86311
1072.63	3.11741
1076	1.10512
1079.38	1.48052
1082.75	2.02445
1086.12	0.482615
1089.5	2.4691
1092.88	0.055502
1096.25	2.29551
1099.62	0.502811
1103	1.43199
1106.37	2.28755
1109.75	2.76944
1113.12	2.85344
1116.5	0.023451
1119.87	1.01395
1123.25	2.63505
1126.62	0.868359
1130	0.33783
1133.37	0.507774
1136.75	1.16061
1140.12	1.90383
1143.5	2.68459
1146.87	1.25307
1150.25	2.14241
1153.62	0.794014
1157	1.80878
1160.37	0.924061
1163.75	1.73224
1167.12	1.25702
1170.5	3.78371
1173.87	2.60144
1177.24	3.16862
1180.62	1.1832
1183.99	2.8775
1187.37	1.23716
1190.74	1.8993
1194.12	2.50123
1197.49	2.83657
1200.87	1.38288
1204.24	3.13677
1207.62	2.60365
1210.99	1.95957
1214.37	1.18733
1217.74	2.62755
1221.12	2.23769
1224.49	2.26225
1227.87	2.4454
1231.24	1.13063
1234.62	3.21927
1237.99	1.27352
1241.37	1.40665
1244.74	2.27262
1248.12	0.383175
1251.49	3.04284
1254.87	3.01669
1258.24	2.40603
1261.62	1.45863
1264.99	2.68947
1268.37	0.661596
1271.74	1.18825
1275.12	0.73844
1278.49	3.43444
1281.87	1.0075
1285.24	2.06047
1288.61	0.033136
1291.99	2.18181
1295.36	0.506737
1298.74	2.13165
1302.11	0.47496
