Measurement: Raman, 532 nm, unoriented, Raman Data Processed
Mineral: Tantalite-(Fe)
Rruff sample: R070548
Ideal chemistry: Fe^2+^Ta_2_O_6_
Locality: Grizzly Bear Gulch, Black Hills, Custer County, South Dakota, USA
Source: James Shigley
Description: Submetallic dark grey fragments with parallel cleavage planes
Raman shift (cm-1)	intensity
153.048	0
155.941	4.78357
158.833	32.1378
161.726	47.1172
164.619	23.411
167.512	32.5662
170.404	73.4813
173.297	112.071
176.19	105.48
179.082	100.028
181.975	86.7488
184.868	17.3633
187.761	3.23804
190.653	32.9536
193.546	45.5374
196.439	47.9137
199.331	111.73
202.224	152.453
205.117	192.814
208.009	167.961
210.902	126.591
213.795	62.5118
216.688	48.5659
219.58	23.2046
222.473	3.01196
225.366	5.47156
228.258	8.44788
231.151	4.4342
234.044	51.2253
236.936	92.9919
239.829	127.539
242.722	200.945
245.614	207.633
248.507	185.605
251.4	148.938
254.293	132.596
257.185	118.982
260.078	123.585
262.971	184.024
265.863	219.755
268.756	188.987
271.649	166.472
274.541	151.143
277.434	123.911
280.327	109.818
283.22	95.2625
286.112	81.4075
289.005	12.895
291.898	37.6018
294.79	1.35815
297.683	1.78503
300.576	3.20117
303.469	2.67773
306.361	29.8419
309.254	65.9688
312.147	93.0918
315.039	114.126
317.932	112.284
320.825	92.9185
323.717	76.913
326.61	45.4883
329.503	13.2583
332.396	2.1206
335.288	9.18323
338.181	2.07666
341.074	9.86646
343.966	0.644775
346.859	18.6721
349.752	0.638184
352.644	49.3508
355.537	73.3625
358.43	69.506
361.322	42.0991
364.215	48.8617
367.108	52.45
370.001	56.4512
372.893	50.7109
375.786	86.7677
378.679	98.0034
381.572	158.986
384.464	194.5
387.357	259.833
390.25	318.303
393.142	371.615
396.035	411.061
398.928	412.718
401.82	312.204
404.713	218.86
407.606	141.533
410.498	71.2302
413.391	69.7511
416.284	49.7844
419.177	13.6582
422.069	28.9924
424.962	2.93298
427.855	14.0284
430.747	21.2653
433.64	11.7656
436.533	20.604
439.425	4.78589
442.318	26.1436
445.211	41.1305
448.104	2.74146
450.996	9.97742
453.889	35.7773
456.782	11.5546
459.674	32.964
462.567	14.7658
465.46	19.0146
468.353	34.1782
471.245	50.4141
474.138	40.2087
477.031	35.3282
479.923	121.109
482.816	126.234
485.709	103.658
488.601	96.6829
491.494	74.3406
494.387	71.3625
497.279	56.0342
500.172	74.9835
503.065	43.8541
505.958	31.8295
508.85	61.5736
511.743	83.6899
514.636	142.956
517.528	186.979
520.421	235.551
523.314	304.304
526.207	375.119
529.099	388.442
531.992	404.684
534.885	395.103
537.777	281.132
540.67	209.107
543.563	155.508
546.455	122.071
549.348	49.4465
552.241	66.0844
555.134	66.7034
558.026	20.4561
560.919	18.3628
563.812	8.54639
566.704	7.36987
569.597	0.960449
572.49	21.6572
575.382	14.8857
578.275	9.66809
581.168	3.94067
584.061	27.3217
586.953	14.3852
589.846	25.2483
592.739	47.2096
595.631	44.5223
598.524	50.0366
601.417	75.1124
604.309	104.117
607.202	80.6654
610.095	80.4921
612.987	89.8109
615.88	43.4211
618.773	56.8998
621.666	57.0923
624.558	46.339
627.451	42.0599
630.344	52.9534
633.236	70.2579
636.129	26.6392
639.022	61.04
641.915	39.4215
644.807	42.0378
647.7	22.4758
650.593	56.8782
653.485	32.2174
656.378	21.9011
659.271	33.8373
662.163	11.8147
665.056	8.52075
667.949	16.0956
670.842	8.02991
673.734	8.79468
676.627	24.03
679.52	29.3916
682.412	37.1279
685.305	26.9856
688.198	9.56067
691.091	39.2704
693.983	33.9689
696.876	41.4657
699.769	11.4817
702.661	43.1757
705.554	33.5392
708.447	15.7012
711.339	29.3882
714.232	4.35046
717.125	27.1566
720.018	4.69434
722.91	17.9005
725.803	10.2279
728.696	20.3884
731.588	26.743
734.481	4.19885
737.374	23.1244
740.266	3.13599
743.159	21.8058
746.052	3.18897
748.944	14.1599
751.837	15.7716
754.73	16.093
757.623	78.4133
760.515	63.8308
763.408	41.052
766.301	46.668
769.193	72.7424
772.086	45.9285
774.979	51.4607
777.871	55.3068
780.764	43.895
783.657	101.834
786.55	117.719
789.442	53.6873
792.335	70.0529
795.228	72.9436
798.12	46.9359
801.013	46.6625
803.906	75.8246
806.798	80.2493
809.691	99.0659
812.584	110.089
815.477	94.9624
818.369	79.8751
821.262	144.934
824.155	188.21
827.047	196.444
829.94	202.312
832.833	185.293
835.726	202.198
838.618	245.828
841.511	242.472
844.404	276.722
847.296	356.454
850.189	393.849
853.082	470.148
855.975	567.152
858.867	757.357
861.76	994.912
864.653	1315.42
867.545	1780.61
870.438	2482.98
873.331	3111.59
876.223	3635.43
879.116	3463.38
882.009	2471.86
884.902	1457.02
887.794	771.191
890.687	412.817
893.58	222.948
896.472	126.577
899.365	31.4961
902.258	3.68249
905.15	18.7347
908.043	8.49194
910.936	14.105
913.828	5.98877
916.721	1.57568
919.614	0.795288
922.507	42.721
925.399	22.2763
928.292	3.10364
931.185	31.5726
934.077	12.853
936.97	12.4285
939.863	10.126
942.755	29.0085
945.648	34.1047
948.541	25.3966
951.434	44.5358
954.326	14.9507
957.219	19.2831
960.112	53.7191
963.004	73.4198
965.897	59.6373
968.79	55.6581
971.683	54.4811
974.575	76.2858
977.468	52.6987
980.361	29.0181
983.253	35.7631
986.146	67.995
989.039	21.1963
991.931	27.6337
994.824	35.6348
997.717	47.5286
1000.61	20.1372
1003.5	41.0159
1006.39	33.5673
1009.29	40.9475
1012.18	32.8931
1015.07	10.5734
1017.97	52.1927
1020.86	14.1664
1023.75	39.599
1026.64	18.6661
1029.54	26.8767
1032.43	44.8245
1035.32	10.5513
1038.21	18.0916
1041.11	41.0052
1044	21.405
1046.89	9.64856
1049.79	28.453
1052.68	12.6383
1055.57	44.9142
1058.46	10.7355
1061.36	19.0863
1064.25	32.95
1067.14	63.6649
1070.03	47.2505
1072.93	41.9188
1075.82	18.4265
1078.71	23.8025
1081.61	24.2444
1084.5	40.1459
1087.39	28.7721
1090.28	28.1648
1093.18	5.9679
1096.07	14.6969
1098.96	35.7401
1101.85	44.8484
1104.75	9.52087
1107.64	35.5341
1110.53	35.0194
1113.42	17.5786
1116.32	30.6414
1119.21	26.0514
1122.1	5.32251
1125	2.03406
1127.89	20.738
1130.78	31.1179
1133.67	23.6176
1136.57	31.0001
1139.46	16.2253
1142.35	34.6023
1145.24	25.6372
1148.14	32.4128
1151.03	47.0441
1153.92	4.37402
1156.82	23.9943
1159.71	13.1744
1162.6	22.486
1165.49	3.43164
1168.39	24.462
1171.28	17.6143
1174.17	30.1656
1177.06	23.3362
1179.96	28.4498
1182.85	9.53394
1185.74	39.5387
1188.63	47.1705
1191.53	61.594
1194.42	11.5761
1197.31	49.9025
1200.21	36.9222
1203.1	22.7485
1205.99	3.1532
1208.88	38.3605
1211.78	22.8263
1214.67	17.2974
1217.56	43.564
1220.45	79.1377
1223.35	22.4248
1226.24	40.0294
1229.13	13.317
1232.03	33.3475
1234.92	35.8839
1237.81	21.1877
1240.7	18.424
1243.6	26.9215
1246.49	38.4508
1249.38	19.0774
1252.28	47.8802
1255.17	31.6621
1258.06	27.5166
1260.95	17.1536
1263.85	46.4844
1266.74	55.4575
1269.63	2.98877
1272.52	48.8187
1275.42	15.4568
1278.31	12.4945
1281.2	3.4419
1284.09	36.7305
1286.99	22.8079
1289.88	21.9414
