Measurement: Raman, 532 nm, unoriented, Raman Data Processed
Mineral: Tantalite-(Mn)
Rruff sample: R060252
Ideal chemistry: Mn^2+^Ta_2_O_6_
Locality: Kohtokay mine, Xinjiang Autonomous Region, China
Source: William W. Pinch
Description: Reddish-brown fragment
Measured chemistry: (Mn^2+^_0.93_Fe^2+^_0.07_)_Σ=1_(Ta_1.44_Nb_0.56_)_Σ=2_O_6_
Raman shift (cm-1)	intensity
89.6035	0
92.9783	19.0709
96.3531	17.3658
99.728	50.7689
103.103	61.76
106.478	70.1151
109.852	44.5231
113.227	4.68665
116.602	3.63189
119.977	20.7649
123.352	3.5135
126.727	53.1222
130.101	126.368
133.476	134.852
136.851	135.4
140.226	131.929
143.601	141.228
146.975	144.781
150.35	148.25
153.725	221.2
157.1	304.143
160.475	457.694
163.85	614.15
167.224	719.946
170.599	802.617
173.974	1193.97
177.349	1196.11
180.724	673.449
184.098	640.427
187.473	779.798
190.848	1014.74
194.223	1381.5
197.598	1850.77
200.972	2031.68
204.347	1330.4
207.722	559.699
211.097	212.853
214.472	56.9178
217.846	9.64496
221.221	5.34094
224.596	34.5742
227.971	66.1253
231.346	108.886
234.721	178.798
238.095	310.455
241.47	374.619
244.845	282.994
248.22	242.263
251.595	325.952
254.97	457.396
258.344	640.587
261.719	1000.35
265.094	1588.74
268.469	1899.05
271.844	1573.79
275.218	1379.23
278.593	1289.88
281.968	1133.2
285.343	626.557
288.718	229.028
292.092	67.3087
295.467	19.0218
298.842	29.1238
302.217	32.3934
305.592	4.9021
308.967	29.4708
312.341	91.6813
315.716	188.827
319.091	351.828
322.466	404.528
325.841	211.77
329.216	81.7632
332.59	13.6466
335.965	8.37457
339.34	3.60406
342.715	22.9367
346.09	56.9545
349.464	120.334
352.839	179.089
356.214	273.735
359.589	376.472
362.964	520.408
366.339	693.934
369.713	858.985
373.088	1001.48
376.463	1222.07
379.838	1663.48
383.213	2411.09
386.587	3368.87
389.962	4619.65
393.337	5873.16
396.712	6244.59
400.087	4961.24
403.462	3072.94
406.836	1778.47
410.211	1077.53
413.586	673.694
416.961	443.212
420.336	294.875
423.71	200.74
427.085	138.331
430.46	108.65
433.835	67.8195
437.21	49.625
440.584	27.2399
443.959	13.9335
447.334	5.75568
450.709	8.16229
454.084	15.6813
457.459	19.4329
460.833	0.622253
464.208	1.73206
467.583	3.61847
470.958	14.2342
474.333	62.8824
477.707	101.906
481.082	185.921
484.457	272.191
487.832	355.45
491.207	446.239
494.582	543.433
497.956	640.359
501.331	735.099
504.706	837.794
508.081	930.054
511.456	1021.21
514.83	1114.7
518.205	1150.46
521.58	1243.62
524.955	1373.88
528.33	1690.8
531.705	2160.75
535.079	2801.2
538.454	3443.93
541.829	3673.59
545.204	3035.42
548.579	2006.24
551.953	1195.98
555.328	708.232
558.703	417.587
562.078	245.367
565.453	156.395
568.827	75.2759
572.202	28.5234
575.577	9.06165
578.952	15.1677
582.327	17.681
585.702	12.8672
589.076	12.6049
592.451	42.6407
595.826	96.6115
599.201	169.181
602.576	283.817
605.95	437.558
609.325	594.463
612.7	768.856
616.075	860.566
619.45	848.724
622.824	705.115
626.199	568.083
629.574	509.521
632.949	515.48
636.324	572.371
639.699	595.245
643.073	552.565
646.448	415.818
649.823	280.58
653.198	185.528
656.573	118.462
659.947	75.8834
663.322	39.5397
666.697	19.2533
670.072	11.6513
673.447	2.31513
676.822	4.71451
680.196	3.88864
683.571	3.54117
686.946	8.08527
690.321	8.80747
693.696	28.2188
697.071	35.7136
700.445	64.2775
703.82	91.5902
707.195	111.422
710.57	123.33
713.945	118.278
717.319	97.5768
720.694	84.6191
724.069	65.0527
727.444	65.918
730.819	51.1952
734.193	54.1616
737.568	50.3507
740.943	54.072
744.318	51.578
747.693	44.0649
751.068	48.2087
754.442	50.1276
757.817	42.3382
761.192	31.2042
764.567	24.4535
767.942	8.86453
771.317	6.04913
774.691	12.0481
778.066	4.32626
781.441	2.89429
784.816	2.71991
788.191	4.54681
791.565	5.25085
794.94	9.40717
798.315	9.52429
801.69	9.05701
805.065	2.09015
808.439	4.09485
811.814	22.8992
815.189	53.6411
818.564	93.1921
821.939	150.547
825.313	206.148
828.688	295.768
832.063	381.281
835.438	489.954
838.813	595.555
842.188	696.049
845.562	780.275
848.937	889.794
852.312	1065.31
855.687	1343.83
859.062	1791.6
862.437	2523.4
865.811	3725.5
869.186	5976.03
872.561	10469.8
875.936	16998.1
879.311	26936.8
882.685	38745.3
886.06	34347.1
889.435	15239.3
892.81	6424.26
896.185	3310.15
899.559	1966.47
902.934	1305.38
906.309	905.154
909.684	632.397
913.059	434.741
916.434	269.109
919.808	157.247
923.183	103.424
926.558	65.161
929.933	30.0084
933.308	19.4218
936.683	2.29993
940.057	1.14557
943.432	8.85938
946.807	7.86874
950.182	9.30765
953.557	14.3692
956.931	1.50269
960.306	8.27295
963.681	0.742065
967.056	3.64493
970.431	1.23453
973.806	7.38051
977.18	8.82498
980.555	13.1284
983.93	8.02547
987.305	18.6436
990.68	27.2836
994.054	19.8533
997.429	22.3304
1000.8	28.4291
1004.18	26.5778
1007.55	22.034
1010.93	19.6496
1014.3	21.646
1017.68	24.326
1021.05	20.7891
1024.43	9.89983
1027.8	17.3757
1031.18	10.5793
1034.55	9.6519
1037.93	15.6385
1041.3	16.437
1044.68	10.2705
1048.05	21.1314
1051.43	18.2488
1054.8	29.3165
1058.18	24.0198
1061.55	24.3404
1064.93	23.5029
1068.3	32.7501
1071.67	25.2812
1075.05	32.3765
1078.42	27.0351
1081.8	26.9738
1085.17	26.8462
1088.55	31.6644
1091.92	34.5224
1095.3	24.0255
1098.67	22.9771
1102.05	29.5469
1105.42	23.6126
1108.8	20.0972
1112.17	22.6367
1115.55	19.0034
1118.92	20.0137
1122.3	12.6565
1125.67	15.5193
1129.05	21.3588
1132.42	14.0998
1135.8	7.77228
1139.17	10.5122
1142.55	3.13361
1145.92	0.69075
1149.3	4.63384
1152.67	1.82336
1156.05	8.80186
1159.42	8.35643
1162.8	2.61499
1166.17	2.96635
1169.55	2.80182
1172.92	1.46685
1176.29	3.19954
1179.67	5.16274
1183.04	5.66943
1186.42	5.82517
1189.79	4.82716
1193.17	0.991264
1196.54	2.47272
1199.92	5.17807
1203.29	6.49716
1206.67	5.68881
1210.04	17.3277
1213.42	5.50441
1216.79	7.66096
1220.17	3.17608
1223.54	9.89526
1226.92	9.96165
1230.29	0.476265
1233.67	9.81595
1237.04	11.3468
1240.42	4.70089
1243.79	10.8578
1247.17	8.81322
1250.54	8.66986
1253.91	6.43785
1257.29	13.6931
1260.66	7.43066
1264.04	7.03755
1267.41	10.1562
1270.79	6.82315
1274.16	3.78264
1277.54	5.6683
1280.91	9.66706
1284.29	3.7383
1287.66	5.11854
1291.04	0.080498
1294.41	8.09208
1297.79	6.31075
1301.16	5.0899
