Measurement: Raman, 532 nm, unoriented, Raman Data Processed
Mineral: Tapiolite-(Fe)
Rruff sample: R110014
Ideal chemistry: Fe^2+^Ta_2_O_6_
Locality: Sapucaia do Norte district, Galileia, Minas Gerais, Brazil
Source: Luiz Menezes
Description: Black to dark red on thin fragments, euhedral prismatic crystal
Raman shift (cm-1)	intensity
200.958	0.017914
203.851	5.71179
206.743	6.92975
209.636	8.37599
212.529	12.7688
215.421	19.8271
218.314	23.6772
221.207	30.312
224.1	35.0134
226.992	39.6978
229.885	45.3768
232.778	43.7278
235.67	43.5922
238.563	40.8827
241.456	40.7647
244.348	35.4367
247.241	33.2858
250.134	32.1287
253.026	28.1714
255.919	28.0027
258.812	26.4686
261.705	28.6207
264.597	31.2006
267.49	30.8409
270.383	30.8626
273.276	32.0921
276.168	35.7899
279.061	34.1031
281.954	37.6085
284.846	40.5018
287.739	36.7757
290.632	37.9459
293.524	37.4674
296.417	38.847
299.31	38.4278
302.202	33.719
305.095	39.6142
307.988	31.8244
310.881	24.4826
313.773	15.3871
316.666	12.3403
319.559	7.84193
322.451	6.87636
325.344	8.21176
328.237	5.04678
331.13	3.59225
334.022	2.52864
336.915	1.91888
339.808	1.3679
342.7	2.14673
345.593	0.285835
348.486	1.93319
351.378	1.3481
354.271	2.37282
357.164	1.56092
360.057	3.80212
362.949	2.848
365.842	1.8782
368.735	2.01685
371.627	0.402802
374.52	4.95339
377.413	6.17683
380.305	6.32724
383.198	8.33455
386.091	9.21112
388.984	9.26616
391.876	4.67752
394.769	10.6624
397.662	12.6167
400.554	12.9459
403.447	8.94548
406.34	13.1425
409.233	6.53818
412.125	7.19139
415.018	4.6731
417.911	4.01634
420.803	6.9032
423.696	6.33212
426.589	7.47041
429.481	16.0203
432.374	24.8196
435.267	33.8248
438.159	49.4808
441.052	71.1924
443.945	91.6528
446.838	113.233
449.73	135.561
452.623	148.874
455.516	148.655
458.409	133.797
461.301	114.112
464.194	94.6107
467.087	76.4939
469.979	63.8433
472.872	53.9775
475.765	40.2349
478.657	34.4781
481.55	25.0843
484.443	19.5726
487.336	12.4152
490.228	12.6686
493.121	12.6664
496.014	12.538
498.906	7.02663
501.799	7.57405
504.692	4.1259
507.584	5.21674
510.477	5.88643
513.37	3.93054
516.263	0.333603
519.155	1.75479
522.048	1.38768
524.941	0.963821
527.833	3.01411
530.726	0.484573
533.619	1.9568
536.511	2.82107
539.404	0.570343
542.297	2.78253
545.19	3.87401
548.082	4.37646
550.975	2.4276
553.868	2.73083
556.76	5.4209
559.653	5.13161
562.546	2.99295
565.438	2.18544
568.331	0.743393
571.224	0.286728
574.117	0.884628
577.009	1.02498
579.902	0.310516
582.795	0.742874
585.687	2.21062
588.58	0.854904
591.473	2.86261
594.365	1.12713
597.258	0.974175
600.151	1.97996
603.044	3.42339
605.936	2.38383
608.829	6.33194
611.722	10.2208
614.614	14.651
617.507	17.665
620.4	27.4945
623.293	25.2532
626.185	40.209
629.078	39.5393
631.971	44.4043
634.863	52.6982
637.756	51.6251
640.649	57.235
643.542	57.2
646.434	61.3542
649.327	66.1926
652.22	80.8263
655.112	99.5582
658.005	127.255
660.898	160.583
663.79	193.279
666.683	223.377
669.576	267.288
672.468	278.311
675.361	269.873
678.254	247.902
681.147	211.484
684.039	174.207
686.932	139.164
689.825	110.659
692.717	85.0404
695.61	60.0955
698.503	44.6331
701.396	31.011
704.288	19.4745
707.181	15.1794
710.074	10.953
712.966	5.42969
715.859	3.08656
718.752	1.18471
721.644	2.76791
724.537	2.54462
727.43	0.685608
730.323	1.89311
733.215	2.4115
736.108	4.59984
739.001	3.16122
741.893	1.20631
744.786	0.995239
747.679	0.765259
750.572	0.106705
753.464	1.32075
756.357	0.6754
759.25	4.79742
762.142	5.7764
765.035	4.53583
767.928	8.37325
770.82	3.63953
773.713	4.81783
776.606	6.37411
779.499	7.56509
782.391	7.30022
785.284	6.69954
788.177	12.0184
791.069	10.7961
793.962	9.41605
796.855	6.08772
799.747	10.1728
802.64	14.913
805.533	14.6995
808.426	16.1055
811.318	18.8814
814.211	20.9429
817.104	21.8022
819.996	23.3106
822.889	24.8313
825.782	24.756
828.674	22.8168
831.567	27.1118
834.46	24.0859
837.353	27.2355
840.245	24.9397
843.138	26.3004
846.031	22.8937
848.923	26.0381
851.816	26.816
854.709	24.2514
857.601	25.6334
860.494	25.5175
863.387	22.5053
866.28	24.4574
869.172	19.1803
872.065	17.4504
874.958	17.5025
877.851	13.0444
880.743	12.9197
883.636	11.6564
886.529	11.3012
889.421	7.86727
892.314	5.50531
895.207	1.33337
898.099	2.68554
900.992	0.239319
903.885	0.591362
906.778	2.51848
909.67	0.902092
912.563	1.77321
915.456	0.692314
918.348	2.41033
921.241	0.663773
924.134	2.23835
927.026	2.77322
929.919	9.0673
932.812	4.75016
935.705	3.17849
938.597	5.02013
941.49	3.75084
944.383	7.75168
947.275	9.80861
950.168	7.04188
953.061	4.40997
955.953	8.77034
958.846	8.63484
961.739	10.1443
964.631	7.91183
967.524	10.381
970.417	7.04981
973.31	6.80199
976.202	4.79936
979.095	4.44124
981.988	2.43893
984.88	4.06775
987.773	4.67228
990.666	3.76421
993.559	4.15448
996.451	4.86788
999.344	3.61878
1002.24	1.52096
1005.13	2.82159
1008.02	3.61819
1010.91	2.83279
1013.81	4.61251
1016.7	2.2515
1019.59	2.13773
1022.49	3.16471
1025.38	0.977203
1028.27	1.34847
1031.16	3.14006
1034.06	0.872833
1036.95	4.12405
1039.84	2.70634
1042.73	3.19308
1045.63	2.27288
1048.52	2.84935
1051.41	0.594719
1054.31	1.19151
1057.2	2.56065
1060.09	2.53023
1062.98	0.251923
1065.88	2.82741
1068.77	3.59073
1071.66	2.35667
1074.55	1.73076
1077.45	2.9884
1080.34	2.83388
1083.23	0.751686
1086.12	1.55648
1089.02	0.829018
1091.91	2.66514
1094.8	3.61181
1097.7	4.16767
1100.59	1.01405
1103.48	2.82784
1106.37	2.35218
1109.27	2.4109
1112.16	0.072418
1115.05	4.22791
1117.94	3.19504
1120.84	4.67277
1123.73	1.50424
1126.62	2.97054
1129.52	0.688843
1132.41	3.02809
1135.3	2.38178
1138.19	1.07001
1141.09	5.80233
1143.98	0.474846
1146.87	0.240494
1149.77	3.36455
1152.66	1.34156
1155.55	0.618027
1158.44	2.25489
1161.34	4.78138
1164.23	2.60954
1167.12	1.22875
1170.01	4.71682
1172.91	4.83612
1175.8	3.51875
1178.69	1.09719
1181.58	4.85393
1184.48	6.14461
1187.37	3.72635
1190.26	3.88493
1193.15	0.303978
1196.05	0.833916
1198.94	0.66246
1201.83	2.78845
1204.73	6.69083
1207.62	2.82764
1210.51	1.35251
1213.4	2.39375
1216.3	3.73879
1219.19	1.5835
1222.08	2.7909
1224.97	2.89517
1227.87	1.91295
1230.76	2.07817
1233.65	2.92996
1236.55	2.43467
1239.44	1.70435
1242.33	3.19218
1245.22	3.15712
1248.12	3.42989
1251.01	4.0146
1253.9	0.901276
1256.8	1.35938
1259.69	3.26936
1262.58	1.62316
1265.47	3.87573
1268.37	3.77251
1271.26	4.04411
1274.15	2.65783
1277.04	2.3175
1279.94	6.09743
1282.83	4.9186
1285.72	4.42416
1288.61	0.215813
1291.51	1.85018
1294.4	2.29571
1297.29	0.853561
1300.18	2.50813
