Measurement: Raman, 780 nm, unoriented, Raman Data Processed
Mineral: Tapiolite-(Fe)
Rruff sample: R050358
Ideal chemistry: Fe^2+^Ta_2_O_6_
Locality: Musgrave Ranges, South Australia, Australia
Source: University of Arizona Mineral Museum
Description: Brown fragments
Measured chemistry: (Fe^2+^_0.79_Mn^2+^_0.18_Fe^3+^_0.03_)_Σ=1_(Ta_1.89_Nb_0.08_Ti_0.03_)_Σ=2_O_6_ ; Fe^2+^ and Fe^3+^ estimated by charge balance
Raman shift (cm-1)	intensity
133.986	0
136.878	1.9241
139.771	2.94168
142.664	0.690125
145.556	0.809021
148.449	1.25619
151.342	5.44763
154.234	15.2866
157.127	27.0637
160.02	50.123
162.912	73.2206
165.805	97.7579
168.698	122.756
171.591	149.359
174.483	176.02
177.376	195.099
180.269	193.778
183.161	151.729
186.054	97.2196
188.947	58.6233
191.839	35.3026
194.732	20.2879
197.625	11.9331
200.518	14.0832
203.41	15.3683
206.303	20.1854
209.196	21.2276
212.088	26.5719
214.981	36.9734
217.874	45.8132
220.766	54.1832
223.659	59.1534
226.552	59.2528
229.445	55.627
232.337	48.7206
235.23	39.4277
238.123	25.8284
241.015	13.8781
243.908	7.3768
246.801	4.03496
249.693	3.9086
252.586	2.77773
255.479	1.81496
258.372	3.659
261.264	6.67131
264.157	10.5694
267.05	13.4003
269.942	17.9149
272.835	19.8686
275.728	25.9002
278.62	27.0901
281.513	28.0655
284.406	32.8983
287.298	32.1314
290.191	32.0885
293.084	25.7834
295.977	22.2089
298.869	20.2311
301.762	17.4197
304.655	14.5823
307.547	14.2253
310.44	13.4932
313.333	10.4133
316.226	7.27298
319.118	3.72417
322.011	0.935318
324.904	1.45966
327.796	2.09601
330.689	3.01091
333.582	4.05356
336.474	1.15593
339.367	2.28542
342.26	0.799789
345.152	0.40094
348.045	1.42332
350.938	1.86772
353.831	4.72199
356.723	5.8121
359.616	10.0372
362.509	11.4586
365.401	14.7429
368.294	16.3482
371.187	20.9629
374.079	25.5986
376.972	31.0376
379.865	38.4646
382.758	48.5086
385.65	56.2204
388.543	67.8885
391.436	79.2304
394.328	89.7472
397.221	95.3893
400.114	96.7851
403.007	91.9549
405.899	82.9115
408.792	70.17
411.685	53.8307
414.577	42.4609
417.47	33.3662
420.363	30.9508
423.255	34.1863
426.148	42.0451
429.041	58.0812
431.933	77.7456
434.826	106.379
437.719	141.066
440.612	181.768
443.504	221.311
446.397	256.664
449.29	283.283
452.182	292.262
455.075	279.52
457.968	250.907
460.861	213.527
463.753	173.179
466.646	139.935
469.539	112.544
472.431	88.784
475.324	66.0459
478.217	52.785
481.109	40.3414
484.002	30.0464
486.895	22.1548
489.788	14.3106
492.68	9.42294
495.573	4.61144
498.466	3.79965
501.358	1.40239
504.251	2.32021
507.144	0.276245
510.036	0.185638
512.929	1.24155
515.822	1.27377
518.715	1.59259
521.607	0.442657
524.5	2.16435
527.393	1.26062
530.285	1.14732
533.178	1.26022
536.071	2.59381
538.963	3.72882
541.856	1.3774
544.749	5.29038
547.641	3.02104
550.534	2.56648
553.427	3.41904
556.32	3.06148
559.212	2.98749
562.105	2.55217
564.998	1.0753
567.89	2.70093
570.783	1.78659
573.676	1.81668
576.568	2.00986
579.461	1.00886
582.354	2.21841
585.247	0.206131
588.139	1.38457
591.032	1.97519
593.925	1.70245
596.817	0.606659
599.71	0.526047
602.603	3.3644
605.495	6.29532
608.388	9.20578
611.281	16.1318
614.174	25.4113
617.066	32.2522
619.959	39.077
622.852	48.7203
625.744	59.7566
628.637	66.9385
631.53	75.953
634.423	79.4799
637.315	83.3536
640.208	84.6466
643.101	88.498
645.993	96.3325
648.886	110.873
651.779	136.037
654.671	170.182
657.564	210.222
660.457	256.095
663.35	301.541
666.242	346.137
669.135	374.702
672.028	381.674
674.92	371.84
677.813	341.239
680.706	306.045
683.598	263.284
686.491	221.886
689.384	183.091
692.277	150.599
695.169	123.259
698.062	98.6533
700.955	80.8017
703.847	62.5476
706.74	48.836
709.633	39.3563
712.525	29.3539
715.418	21.3676
718.311	16.7852
721.203	11.7703
724.096	7.5907
726.989	4.59482
729.881	2.30872
732.774	3.25221
735.667	0.079681
738.56	0.238411
741.452	0.770912
744.345	0.316528
747.238	1.26064
750.13	1.01307
753.023	2.26508
755.916	1.36604
758.808	0.492119
761.701	0.669701
764.594	1.46168
767.487	1.93276
770.379	2.72539
773.272	2.58193
776.165	3.72289
779.057	5.66048
781.95	4.38805
784.843	7.95974
787.736	8.51301
790.628	9.48634
793.521	9.16418
796.414	11.0569
799.306	12.216
802.199	12.2115
805.092	13.6317
807.984	13.3043
810.877	14.3588
813.77	13.5123
816.663	14.7386
819.555	13.1648
822.448	11.5026
825.341	12.2953
828.233	10.3486
831.126	12.6769
834.019	11.4841
836.911	8.90902
839.804	9.54208
842.697	7.31154
845.59	8.10908
848.482	7.99527
851.375	7.65947
854.268	5.90207
857.16	5.59554
860.053	5.52995
862.946	3.01769
865.838	2.93319
868.731	3.86998
871.624	4.16005
874.516	2.47823
877.409	1.70144
880.302	2.50024
883.195	0.954201
886.087	1.64316
888.98	0.769432
891.873	0.207428
894.765	2.00828
897.658	0.777855
900.551	0.04203
903.443	0.448242
906.336	0.167931
909.229	0.104561
912.122	0.86702
915.014	0.661575
917.907	0.921318
920.8	0.74015
923.692	1.7286
926.585	0.752144
929.478	0.960892
932.37	0.642273
935.263	2.18232
938.156	0.510803
941.049	0.331741
943.941	1.2028
946.834	0.02121
949.727	1.86844
952.619	1.67062
955.512	1.87563
958.405	1.10543
961.298	0.759022
964.19	0.874077
967.083	0.664307
969.976	1.1465
972.868	0.102013
975.761	1.31662
978.654	0.272141
981.546	0.500523
984.439	0.657555
987.332	1.09319
990.225	1.68673
993.117	0.372787
996.01	1.45077
998.903	2.47774
1001.79	0.855133
1004.69	0.796635
1007.58	0.004047
1010.47	1.71477
1013.37	0.7332
1016.26	1.50187
1019.15	1.58088
1022.04	1.75567
1024.94	1.62182
1027.83	0.792816
1030.72	2.11033
1033.62	2.36158
1036.51	1.68043
1039.4	1.52288
1042.29	1.19661
1045.19	2.28636
1048.08	1.47611
1050.97	0.948528
1053.86	1.9667
1056.76	2.02956
1059.65	0.784782
1062.54	2.08586
1065.43	0.501347
1068.33	1.54577
1071.22	0.624107
1074.11	1.31061
1077.01	1.06578
1079.9	1.37082
1082.79	1.686
1085.68	2.38791
1088.58	1.3917
1091.47	1.6421
1094.36	1.90329
1097.25	1.27977
1100.15	2.24517
1103.04	0.477364
1105.93	0.95327
1108.83	0.419186
1111.72	0.243286
1114.61	0.096115
1117.5	0.616276
1120.4	0.886398
1123.29	0.127525
1126.18	1.3714
1129.07	1.3103
1131.97	0.193993
1134.86	1.83654
1137.75	0.200714
1140.64	0.036968
1143.54	1.20762
1146.43	0.984814
1149.32	1.62534
1152.22	1.27404
1155.11	0.749325
1158	1.68717
1160.89	0.950142
1163.79	1.08982
1166.68	2.21855
1169.57	2.13083
1172.46	1.82809
1175.36	2.64176
1178.25	1.28296
1181.14	1.43573
1184.04	1.35106
1186.93	1.6011
1189.82	1.27604
1192.71	0.858749
1195.61	1.83276
1198.5	1.84774
1201.39	1.01703
1204.28	1.4463
1207.18	0.462578
1210.07	0.890202
1212.96	1.3109
1215.86	0.864319
1218.75	1.37497
1221.64	0.696774
1224.53	0.772362
1227.43	1.51178
1230.32	1.80055
1233.21	0.290535
1236.1	1.43813
1239	2.38561
1241.89	0.08963
1244.78	1.44112
1247.67	0.050171
1250.57	0.300049
1253.46	2.22138
1256.35	0.706974
1259.25	0.547718
1262.14	0.223427
1265.03	1.88648
1267.92	2.52203
