Measurement: Raman, 532 nm, unoriented, Raman Data Processed
Mineral: Tapiolite-(Fe)
Rruff sample: R050358
Ideal chemistry: Fe^2+^Ta_2_O_6_
Locality: Musgrave Ranges, South Australia, Australia
Source: University of Arizona Mineral Museum
Description: Brown fragments
Measured chemistry: (Fe^2+^_0.79_Mn^2+^_0.18_Fe^3+^_0.03_)_Σ=1_(Ta_1.89_Nb_0.08_Ti_0.03_)_Σ=2_O_6_ ; Fe^2+^ and Fe^3+^ estimated by charge balance
Raman shift (cm-1)	intensity
135.262	0
138.155	7.66266
141.047	9.83341
143.94	0.807831
146.833	5.26865
149.725	4.69708
152.618	8.46185
155.511	7.49689
158.404	5.24789
161.296	7.03058
164.189	10.7332
167.082	14.8088
169.974	18.9712
172.867	20.9222
175.76	25.3156
178.652	27.42
181.545	27.1553
184.438	24.4754
187.331	11.461
190.223	4.26373
193.116	0.0354
196.009	0.947937
198.901	2.55469
201.794	2.98026
204.687	9.2995
207.579	17.9958
210.472	24.5572
213.365	35.3712
216.257	52.1903
219.15	70.1986
222.043	93.4215
224.936	112.897
227.828	93.0155
230.721	74.88
233.614	73.3797
236.506	61.9254
239.399	50.2435
242.292	41.0804
245.185	37.1058
248.077	28.3194
250.97	21.5803
253.863	17.7062
256.755	15.2423
259.648	17.0979
262.541	21.1977
265.433	25.6875
268.326	29.7224
271.219	42.5487
274.111	53.0357
277.004	65.8436
279.897	77.2096
282.79	91.0536
285.682	113.843
288.575	126.568
291.468	134.605
294.36	117.417
297.253	96.3595
300.146	81.1566
303.038	66.0702
305.931	50.1059
308.824	35.8293
311.717	28.3484
314.609	21.5885
317.502	17.8364
320.395	11.1273
323.287	5.15677
326.18	1.99536
329.073	3.98669
331.966	1.12811
334.858	0.442169
337.751	1.21997
340.644	1.84128
343.536	2.35471
346.429	3.5994
349.322	1.82129
352.214	0.259735
355.107	2.25745
358	0.578094
360.892	1.71509
363.785	3.23785
366.678	0.768768
369.571	1.49551
372.463	0.034607
375.356	3.0827
378.249	3.76224
381.141	4.76978
384.034	5.50037
386.927	12.4241
389.82	18.4072
392.712	22.1431
395.605	31.4473
398.498	40.2168
401.39	47.7759
404.283	52.4706
407.176	57.0093
410.068	50.9368
412.961	38.2756
415.854	23.5178
418.747	15.3756
421.639	5.67593
424.532	5.23413
427.425	4.36758
430.317	10.4677
433.21	21.1583
436.103	37.7739
438.995	56.0467
441.888	81.6654
444.781	111.411
447.673	138.901
450.566	170.075
453.459	187.099
456.352	189.154
459.244	171.923
462.137	145.533
465.03	119.708
467.922	91.3688
470.815	72.6574
473.708	56.4465
476.601	45.7258
479.493	33.6695
482.386	24.7885
485.279	22.021
488.171	17.7767
491.064	13.4953
493.957	13.5827
496.849	11.0428
499.742	13.8811
502.635	10.3384
505.527	9.33908
508.42	7.25699
511.313	5.37836
514.206	5.9375
517.098	5.78909
519.991	6.21332
522.884	3.55051
525.776	5.56003
528.669	5.94748
531.562	3.44522
534.455	4.5513
537.347	5.86313
540.24	7.25943
543.133	6.63168
546.025	6.1431
548.918	3.09744
551.811	5.6546
554.703	3.7876
557.596	1.8335
560.489	0.357452
563.381	0.235382
566.274	0.117462
569.167	2.08981
572.06	5.32693
574.952	4.25165
577.845	3.75769
580.738	5.28842
583.63	2.88174
586.523	0.134003
589.416	4.57886
592.308	4.27979
595.201	10.3794
598.094	12.3226
600.987	20.8022
603.879	25.769
606.772	31.6451
609.665	37.5714
612.557	47.0155
615.45	54.7399
618.343	62.7801
621.236	72.9163
624.128	82.7874
627.021	93.2799
629.914	103.469
632.806	114.951
635.699	124.305
638.592	124.812
641.484	131.807
644.377	140.218
647.27	158.327
650.163	185.048
653.055	224.575
655.948	279.043
658.841	342.426
661.733	416.575
664.626	486.713
667.519	546.561
670.411	581.877
673.304	589.232
676.197	556.096
679.09	496.264
681.982	425.259
684.875	354.85
687.768	290.747
690.66	237.198
693.553	189.948
696.446	153.989
699.338	125.253
702.231	100.667
705.124	74.6419
708.016	57.551
710.909	43.9168
713.802	32.0087
716.695	24.2467
719.587	16.0157
722.48	9.38345
725.373	7.74728
728.265	5.26761
731.158	3.97974
734.051	1.53714
736.943	2.88413
739.836	0.259277
742.729	0.819336
745.622	2.70309
748.514	0.642578
751.407	2.5647
754.3	3.09961
757.192	2.32306
760.085	0.495728
762.978	0.849854
765.87	4.12741
768.763	5.85794
771.656	4.05606
774.549	8.4194
777.441	12.6382
780.334	13.953
783.227	17.0111
786.119	19.4096
789.012	24.6904
791.905	28.2559
794.798	25.2462
797.69	30.5794
800.583	30.755
803.476	33.1798
806.368	35.8456
809.261	34.8584
812.154	33.6979
815.046	36.5919
817.939	31.6916
820.832	33.556
823.725	35.8398
826.617	31.4778
829.51	28.8305
832.403	31.7516
835.295	25.281
838.188	28.0907
841.081	27.0906
843.973	23.5281
846.866	17.8963
849.759	17.1825
852.652	16.9199
855.544	14.0586
858.437	13.3167
861.33	10.8723
864.222	9.55725
867.115	8.92718
870.008	10.528
872.9	7.79297
875.793	5.70627
878.686	5.12506
881.578	4.00867
884.471	5.39804
887.364	3.26578
890.257	2.50617
893.149	0.578369
896.042	1.34705
898.935	1.89572
901.827	3.27673
904.72	1.65164
907.613	2.81873
910.505	0.591949
913.398	0.444214
916.291	3.29916
919.184	2.96158
922.076	6.04916
924.969	5.47723
927.862	4.88956
930.754	4.5445
933.647	6.40173
936.54	2.14197
939.433	3.39386
942.325	6.12036
945.218	2.15784
948.111	5.47015
951.003	6.7197
953.896	6.22812
956.789	0.702209
959.681	2.60062
962.574	2.81384
965.467	0.611359
968.36	1.03162
971.252	1.17023
974.145	3.74051
977.038	0.749298
979.93	0.186035
982.823	4.57187
985.716	1.29535
988.608	3.11298
991.501	3.59589
994.394	2.1633
997.287	1.65823
1000.18	0.07016
1003.07	0.66507
1005.97	3.12537
1008.86	0.928833
1011.75	3.4267
1014.64	4.98282
1017.53	3.53726
1020.43	4.20099
1023.32	2.69998
1026.21	4.02499
1029.11	6.67127
1032	7.81079
1034.89	5.33304
1037.78	10.1525
1040.68	9.48962
1043.57	7.95291
1046.46	6.61099
1049.36	9.85306
1052.25	7.32309
1055.14	10.8171
1058.03	11.7431
1060.93	8.63919
1063.82	7.98514
1066.71	7.20221
1069.6	6.84229
1072.5	7.07632
1075.39	6.66248
1078.28	5.28091
1081.17	6.5939
1084.07	5.79578
1086.96	6.83853
1089.85	4.87314
1092.75	5.90601
1095.64	5.50967
1098.53	6.08276
1101.42	7.02133
1104.32	4.96985
1107.21	7.92731
1110.1	5.16714
1112.99	6.25583
1115.89	5.84738
1118.78	5.19626
1121.67	3.60788
1124.57	6.51239
1127.46	3.33777
1130.35	2.67355
1133.24	3.16226
1136.14	3.17996
1139.03	2.64331
1141.92	0.520081
1144.81	4.05493
1147.71	2.05576
1150.6	1.37503
1153.49	0.640503
1156.38	0.047699
1159.28	0.312653
1162.17	1.18787
1165.06	4.15964
1167.96	6.73459
1170.85	6.44113
1173.74	8.33624
1176.63	5.25931
1179.53	6.00394
1182.42	5.83652
1185.31	7.21011
1188.2	6.24701
1191.1	5.51398
1193.99	6.3988
1196.88	2.81647
1199.78	5.21796
1202.67	3.2229
1205.56	1.64099
1208.45	3.48071
1211.35	0.826996
1214.24	0.497986
1217.13	0.595673
1220.02	1.21188
1222.92	0.355652
1225.81	0.015564
1228.7	4.57022
1231.6	4.26978
1234.49	3.1496
1237.38	4.58438
1240.27	0.311462
1243.17	1.93433
1246.06	5.94934
1248.95	4.36822
1251.84	6.96252
1254.74	1.98209
1257.63	1.39887
1260.52	1.18756
1263.41	1.33685
1266.31	3.59338
1269.2	6.12494
