Measurement: Raman, 780 nm, unoriented, Raman Data Processed
Mineral: Tapiolite-(Fe)
Rruff sample: R110014
Ideal chemistry: Fe^2+^Ta_2_O_6_
Locality: Sapucaia do Norte district, Galileia, Minas Gerais, Brazil
Source: Luiz Menezes
Description: Black to dark red on thin fragments, euhedral prismatic crystal
Raman shift (cm-1)	intensity
147.977	0
150.87	0.682434
153.763	1.14859
156.655	3.27283
159.548	3.70537
162.441	5.15897
165.333	12.355
168.226	19.6503
171.119	24.7825
174.012	28.6752
176.904	32.9871
179.797	32.0667
182.69	21.8597
185.582	13.3832
188.475	7.63426
191.368	1.01099
194.261	1.90268
197.153	0.683762
200.046	2.16766
202.939	8.98399
205.831	11.1317
208.724	11.1269
211.617	13.082
214.509	19.5401
217.402	21.0499
220.295	29.3164
223.188	33.8391
226.08	34.146
228.973	36.5418
231.866	37.3307
234.758	34.1239
237.651	34.2482
240.544	32.4794
243.436	31.638
246.329	30.9698
249.222	31.2992
252.114	31.4968
255.007	28.4215
257.9	26.8694
260.793	27.8931
263.685	28.0678
266.578	24.5379
269.471	24.2555
272.363	29.1075
275.256	29.3158
278.149	28.5403
281.041	33.8978
283.934	32.5276
286.827	31.0372
289.719	30.5941
292.612	30.0788
295.505	31.3322
298.398	29.9396
301.29	26.9232
304.183	24.3949
307.076	19.5036
309.968	13.9724
312.861	8.6587
315.754	6.32802
318.647	1.7141
321.539	2.05242
324.432	3.67789
327.325	1.4351
330.217	0.117126
333.11	5.44962
336.003	1.36974
338.895	0.600143
341.788	1.35988
344.681	2.80962
347.574	1.82323
350.466	2.23279
353.359	3.40648
356.252	5.15356
359.144	5.48038
362.037	3.73229
364.93	9.38872
367.822	14.2227
370.715	11.8672
373.608	13.0602
376.5	26.1477
379.393	22.8345
382.286	32.0954
385.179	31.067
388.071	32.7432
390.964	30.0986
393.857	31.6319
396.749	38.6397
399.642	31.5382
402.535	21.9113
405.427	18.3812
408.32	13.0392
411.213	16.1069
414.106	13.6921
416.998	11.1631
419.891	24.3021
422.784	27.0035
425.676	30.9495
428.569	30.8678
431.462	43.9676
434.354	55.4764
437.247	70.2638
440.14	91.7818
443.033	106.639
445.925	118.526
448.818	128.693
451.711	121.578
454.603	109.794
457.496	91.6769
460.389	78.6369
463.281	66.7353
466.174	49.9641
469.067	40.7349
471.959	36.4703
474.852	25.7796
477.745	17.0322
480.638	13.4311
483.53	11.1011
486.423	4.5256
489.316	5.55354
492.208	4.47484
495.101	3.97849
497.994	1.26955
500.887	1.22253
503.779	2.08762
506.672	1.82361
509.565	4.80559
512.457	0.056732
515.35	2.24039
518.243	1.97433
521.135	0.776108
524.028	1.97669
526.921	3.0488
529.813	2.42105
532.706	2.64398
535.599	4.18028
538.492	2.27019
541.384	3.39914
544.277	2.1347
547.17	3.92456
550.062	2.36774
552.955	4.49994
555.848	6.5229
558.74	3.98833
561.633	2.77716
564.526	4.76926
567.418	2.89156
570.311	1.31914
573.204	3.2706
576.097	4.49918
578.989	4.93987
581.882	3.04976
584.775	1.31157
587.667	0.769653
590.56	4.65364
593.453	0.122147
596.346	0.975113
599.238	1.13228
602.131	2.19957
605.024	0.692169
607.916	1.7263
610.809	1.71081
613.702	5.77072
616.594	3.13458
619.487	4.09709
622.38	6.63107
625.273	5.4588
628.165	9.76413
631.058	10.6379
633.951	15.8543
636.843	15.7921
639.736	22.387
642.629	22.3704
645.521	31.8421
648.414	45.6477
651.307	62.2848
654.199	77.5348
657.092	95.5208
659.985	121.144
662.878	136.528
665.77	163.398
668.663	173.051
671.556	166.881
674.448	147.625
677.341	130.567
680.234	103.08
683.126	85.5691
686.019	62.3022
688.912	48.8825
691.805	33.1136
694.697	19.435
697.59	11.0097
700.483	1.86046
703.375	2.33455
706.268	0.977859
709.161	0.876251
712.053	1.3309
714.946	0.872391
717.839	0.441055
720.731	3.5217
723.624	5.91379
726.517	8.22925
729.41	6.60141
732.302	12.9962
735.195	8.68906
738.088	8.16785
740.98	10.6952
743.873	11.3898
746.766	14.3433
749.659	14.6535
752.551	14.6186
755.444	12.1381
758.337	15.7208
761.229	15.7063
764.122	18.0731
767.015	16.8948
769.907	12.2702
772.8	10.9399
775.693	9.90782
778.586	9.15691
781.478	9.92186
784.371	4.05827
787.264	2.61206
790.156	4.61626
793.049	3.72006
795.942	0.827332
798.834	3.73825
801.727	0.122375
804.62	2.66742
807.513	0.897141
810.405	1.98721
813.298	1.6247
816.191	6.42041
819.083	7.16849
821.976	11.3968
824.869	7.66553
827.761	11.2703
830.654	13.9107
833.547	14.3765
836.439	19.0653
839.332	17.1579
842.225	21.242
845.118	25.5462
848.01	26.728
850.903	32.8226
853.796	31.3419
856.688	36.5343
859.581	36.8494
862.474	38.8038
865.366	35.444
868.259	38.447
871.152	34.0821
874.044	34.3318
876.937	30.795
879.83	27.8784
882.723	24.8185
885.615	20.6047
888.508	11.4128
891.401	10.034
894.293	4.88986
897.186	2.76072
900.079	0.369743
902.971	3.34089
905.864	1.11992
908.757	0.897308
911.65	3.61631
914.542	0.570808
917.435	2.48065
920.328	3.58485
923.22	4.60902
926.113	6.92297
929.006	6.01652
931.899	9.39251
934.791	8.12209
937.684	11.4222
940.577	9.95872
943.469	13.0268
946.362	12.6916
949.255	12.5942
952.147	15.7029
955.04	16.2058
957.933	15.5684
960.825	11.7397
963.718	14.8796
966.611	15.203
969.504	11.2978
972.396	9.14057
975.289	9.03398
978.182	9.24796
981.074	10.3762
983.967	9.55016
986.86	9.37744
989.752	9.15397
992.645	4.5016
995.538	7.77777
998.431	6.16202
1001.32	6.38386
1004.22	7.18493
1007.11	4.28245
1010	5.56285
1012.89	5.1707
1015.79	6.46248
1018.68	4.35807
1021.57	3.3559
1024.46	4.00955
1027.36	5.18408
1030.25	9.41346
1033.14	0.320267
1036.04	6.32374
1038.93	5.36498
1041.82	3.17029
1044.71	2.80326
1047.61	5.19201
1050.5	2.01191
1053.39	1.06576
1056.29	2.85243
1059.18	4.73
1062.07	1.46175
1064.96	1.20538
1067.86	3.01927
1070.75	0.790665
1073.64	3.10262
1076.53	0.093208
1079.43	2.84979
1082.32	2.79582
1085.21	5.26722
1088.1	0.530987
1091	1.93237
1093.89	1.79177
1096.78	1.56432
1099.67	2.38541
1102.57	2.61426
1105.46	1.98808
1108.35	5.22223
1111.25	1.65809
1114.14	4.30515
1117.03	0.107597
1119.92	3.50337
1122.82	2.41266
1125.71	3.81202
1128.6	6.71006
1131.49	1.86187
1134.39	0.55291
1137.28	3.25292
1140.17	2.85011
1143.07	4.08089
1145.96	4.19271
1148.85	2.31017
1151.74	2.85929
1154.64	1.30851
1157.53	3.36343
1160.42	3.47799
1163.31	1.19902
1166.21	2.78373
1169.1	2.02669
1171.99	1.67747
1174.88	4.67238
1177.78	1.90898
1180.67	4.06025
1183.56	0.650043
1186.46	3.73384
1189.35	6.46619
1192.24	4.26506
1195.13	1.69588
1198.03	6.02808
1200.92	6.29602
1203.81	1.8654
1206.7	3.49714
1209.6	4.18122
1212.49	3.83052
1215.38	2.66919
1218.28	3.08869
1221.17	1.7226
1224.06	4.86397
1226.95	2.34665
1229.85	6.61216
1232.74	3.27485
1235.63	4.78648
1238.53	0.508297
1241.42	4.04275
1244.31	1.63796
1247.2	2.55103
1250.1	4.06601
1252.99	4.98241
1255.88	1.22519
1258.77	2.18363
1261.67	4.93679
1264.56	3.32991
1267.45	3.73172
1270.34	0.71212
1273.24	0.096085
1276.13	2.89881
1279.02	0.164818
1281.91	3.27256
1284.81	0
