Measurement: Raman, 514 nm, unoriented, Raman Data Processed
Mineral: Tapiolite-(Fe)
Rruff sample: R050358
Ideal chemistry: Fe^2+^Ta_2_O_6_
Locality: Musgrave Ranges, South Australia, Australia
Source: University of Arizona Mineral Museum
Description: Brown fragments
Measured chemistry: (Fe^2+^_0.79_Mn^2+^_0.18_Fe^3+^_0.03_)_Σ=1_(Ta_1.89_Nb_0.08_Ti_0.03_)_Σ=2_O_6_ ; Fe^2+^ and Fe^3+^ estimated by charge balance
Raman shift (cm-1)	intensity
154.48	0
158.63	33.325
162.779	246.12
166.926	111.136
171.07	446.856
175.213	637.862
179.354	946.477
183.493	805.834
187.63	492.03
191.765	217.469
195.898	146.938
200.029	392.655
204.158	587.597
208.285	800.597
212.41	773.517
216.533	1522.02
220.654	2455.75
224.773	2553.61
228.891	2427.61
233.006	2052.98
237.119	1335.83
241.231	700.725
245.34	473.633
249.448	331.183
253.553	296.256
257.657	281.61
261.758	791.999
265.858	817.156
269.956	813.111
274.052	1029.95
278.146	1501.64
282.237	2136.14
286.327	2859.2
290.416	3040.5
294.502	2855.21
298.586	2362.39
302.668	1976.11
306.749	1818.42
310.827	1558.36
314.903	1161.98
318.978	510.571
323.051	217.393
327.121	78.315
331.19	95.396
335.257	109.9
339.322	166.388
343.385	105.015
347.446	179.856
351.505	108.992
355.563	26.315
359.618	84.687
363.672	58.015
367.723	62.487
371.773	116.684
375.821	130.822
379.866	91.102
383.91	270.668
387.952	327.628
391.992	593.062
396.031	664.037
400.067	1026.61
404.101	1216.71
408.134	1066.47
412.165	855.139
416.193	780.002
420.22	673.432
424.245	614.91
428.268	719.557
432.289	708.775
436.309	1005.02
440.326	1666.31
444.342	2455.67
448.355	3155.1
452.367	3735.62
456.377	4022.25
460.385	3523.99
464.391	3178.87
468.395	2672.9
472.398	1988.08
476.398	1658.19
480.397	1360.92
484.394	1262.54
488.389	1093.3
492.382	1098.74
496.373	1044.63
500.362	1054.55
504.349	918.243
508.335	892.122
512.319	868.555
516.3	785.811
520.28	610.237
524.259	607.3
528.235	570.334
532.209	483.826
536.182	442.091
540.152	586.394
544.121	226.133
548.088	904.271
552.053	477.756
556.017	387.657
559.978	405.453
563.938	231.752
567.895	217.883
571.851	313.651
575.805	172.991
579.758	182.047
583.708	419.739
587.657	342.106
591.603	447.207
595.548	642.988
599.491	805.416
603.432	1068.4
607.372	1239.96
611.309	1526.02
615.245	1906.62
619.179	2424.72
623.111	3116.3
627.041	3502.35
630.97	4279.9
634.896	4942.94
638.821	4808.48
642.744	5075.51
646.665	5148.1
650.584	5568.46
654.502	6489.7
658.418	8290.92
662.331	10915.2
666.244	13824.5
670.154	17380.7
674.062	19153.9
677.969	19466.9
681.874	17842.6
685.777	14903.8
689.678	12384.8
693.577	9660.32
697.475	7945.3
701.371	6277.74
705.265	5072.16
709.157	3773.3
713.047	3249.28
716.936	2637.55
720.823	2044.9
724.708	1639.54
728.591	1274.02
732.472	1163.45
736.352	947.528
740.23	818.031
744.106	711.759
747.98	467.027
751.853	592.624
755.723	451.666
759.592	346.31
763.459	528.562
767.325	224.975
771.188	263.167
775.05	225.227
778.91	251.336
782.768	146.479
786.625	351.835
790.479	223.156
794.332	137.615
798.183	271.972
802.033	207.773
805.88	158.787
809.726	327.919
813.57	328.656
817.413	331.989
821.253	424.314
825.092	336.731
828.929	200.591
832.764	189.823
836.598	203.737
840.429	207.579
844.259	137.964
848.088	183.361
851.914	77.682
855.739	15.903
859.562	48.011
863.383	80.186
867.203	35.756
871.02	29.219
874.836	25.856
878.65	102.452
882.463	9.283
886.274	28.46
890.083	115.853
893.89	142.923
897.695	75.773
901.499	152.365
905.301	163.694
909.102	25.293
912.9	63.836
916.697	151.896
920.492	71.512
924.285	138.673
928.077	171.452
931.867	215.859
935.655	300.879
939.442	140.461
943.226	120.618
947.009	134.351
950.791	124.662
954.57	78.649
958.348	279.67
962.124	167.362
965.899	153.937
969.671	200.93
973.442	224.877
977.211	349.264
980.979	283.29
984.745	200.623
988.509	210.844
992.271	399.944
996.032	525.829
999.791	572.476
1003.55	427.065
1007.3	504.039
1011.06	519.521
1014.81	483.461
1018.56	462.566
1022.31	504.689
1026.06	485.554
1029.8	650.393
1033.55	515.706
1037.29	546.336
1041.03	688.134
1044.77	767.006
1048.5	592.847
1052.24	642.844
1055.97	569.185
1059.7	661.858
1063.43	610.256
1067.16	553.094
1070.89	605.091
1074.61	548.568
1078.34	514.439
1082.06	604.096
1085.78	456.384
1089.5	458.745
1093.21	421.244
1096.93	328.692
1100.64	373.579
1104.35	351.606
1108.06	532.968
1111.77	246.14
1115.48	164.64
1119.18	260.159
1122.89	125.533
1126.59	172.293
1130.29	101.796
1133.99	54
1137.68	72.522
1141.38	81.041
1145.07	115.858
1148.76	24.561
1152.45	1.597
1156.14	119.132
1159.83	61.423
1163.51	130.655
1167.19	58.432
1170.88	9.797
1174.56	60.54
1178.23	56.172
1181.91	39.023
1185.59	142.045
1189.26	72.127
1192.93	165.263
1196.6	29.498
1200.27	210.799
1203.94	8.833
1207.6	151.537
1211.27	81.248
1214.93	146.175
1218.59	206.385
1222.25	264.77
1225.9	347.968
1229.56	470.046
1233.21	276.021
1236.86	471.92
1240.51	431.728
1244.16	582.45
1247.81	681.088
1251.45	488.676
1255.1	556.205
1258.74	834.684
1262.38	809.245
1266.02	827.926
1269.66	955.558
1273.29	938.876
1276.93	1000.62
1280.56	1214.54
1284.19	1259.3
1287.82	1387.54
1291.45	1531.01
1295.07	1765.58
1298.7	1653.53
1302.32	1884.66
1305.94	1856.69
1309.56	1804.22
1313.18	2006.21
1316.8	2028.95
1320.41	1902.1
1324.02	1968.94
1327.63	1904.78
1331.24	1743.02
1334.85	1706.58
1338.46	1728.19
1342.06	1512.52
1345.67	1491.91
1349.27	1589.01
1352.87	1328.19
1356.47	1187.63
1360.07	1002.87
1363.66	994.393
1367.25	1006.25
1370.85	937.549
1374.44	806.992
1378.03	753.428
1381.61	638.863
1385.2	636.309
1388.78	561.816
1392.37	448.447
1395.95	486.346
1399.53	383.576
1403.1	484.547
1406.68	355.479
1410.26	354.945
1413.83	232.494
1417.4	348.611
1420.97	156.24
1424.54	200.174
1428.1	205.393
1431.67	130.854
1435.23	193.746
1438.8	133.055
1442.36	127.984
1445.91	32.527
1449.47	142.793
1453.03	170.885
1456.58	63.109
1460.13	75.834
1463.68	205.893
1467.23	318.666
1470.78	188.734
1474.33	252.209
1477.87	89.471
1481.42	241.869
1484.96	168.709
1488.5	300.68
1492.04	72.227
1495.57	122.375
1499.11	260.488
1502.64	15.74
1506.17	167.801
