Measurement: Raman, 780 nm, unoriented, Raman Data Processed
Mineral: Tapiaite
Rruff sample: R150032
Ideal chemistry: Ca_5_Al_2_(As^5+^O_4_)_4_(OH)_4_12H_2_O
Locality: Jote mine, Pampa Larga district, Tierra Amarilla, CopiapoÂ´ Province, Atacama Region, Chile
Source: Bob Jenkins
Description: Pale yellow or pale blue to clear bladed crystals.
Raman shift (cm-1)	intensity
93.9705	0
97.3453	23.1636
100.72	23.3544
104.095	14.1249
107.47	22.8165
110.845	9.8205
114.219	1.71887
117.594	1.0351
120.969	0.065735
124.344	9.19867
127.719	16.0055
131.094	13.3807
134.468	13.3993
137.843	12.8771
141.218	11.4705
144.593	5.71375
147.968	4.52698
151.342	0.525818
154.717	3.8125
158.092	4.85883
161.467	6.06189
164.842	2.06384
168.216	1.54492
171.591	1.25385
174.966	0.509186
178.341	0.206909
181.716	1.97903
185.09	0.278473
188.465	3.05203
191.84	4.89835
195.215	6.32962
198.59	8.50067
201.965	6.30987
205.339	8.77862
208.714	5.66083
212.089	3.56
215.464	4.78183
218.839	3.26532
222.214	4.52945
225.588	3.66409
228.963	2.14499
232.338	4.90268
235.713	3.10461
239.088	0.448395
242.462	1.12717
245.837	1.98752
249.212	3.28711
252.587	4.46268
255.962	4.27771
259.336	5.92352
262.711	4.96808
266.086	5.23975
269.461	7.20145
272.836	9.25031
276.211	7.94385
279.585	8.08801
282.96	6.99152
286.335	3.78415
289.71	4.07355
293.085	0.749817
296.459	1.59744
299.834	0.809631
303.209	0.671753
306.584	0.324188
309.959	1.76993
313.334	5.66675
316.708	16.217
320.083	25.4284
323.458	25.3003
326.833	15.923
330.207	6.84457
333.582	2.97079
336.957	4.02246
340.332	4.69617
343.707	6.31488
347.082	4.2392
350.456	5.31497
353.831	7.48349
357.206	10.4015
360.581	10.3092
363.956	7.34293
367.33	5.72018
370.705	3.56311
374.08	0.993317
377.455	0.053284
380.83	0.600189
384.205	2.32297
387.579	5.15335
390.954	8.28397
394.329	12.624
397.704	15.6053
401.079	20.1982
404.453	18.0164
407.828	17.0643
411.203	19.4855
414.578	21.2354
417.953	19.1948
421.327	15.6957
424.702	10.3336
428.077	6.81125
431.452	4.08496
434.827	1.84033
438.202	0.768738
441.576	0.367462
444.951	0.509003
448.326	2.03915
451.701	2.39746
455.076	1.91086
458.45	1.38852
461.825	2.68192
465.2	1.06311
468.575	0.449707
471.95	1.10989
475.325	0.011017
478.699	0.711731
482.074	2.77121
485.449	3.93616
488.824	4.65655
492.199	4.99017
495.573	4.50433
498.948	4.15997
502.323	6.11481
505.698	9.59253
509.073	14.3891
512.447	18.3581
515.822	25.1421
519.197	31.2702
522.572	28.5708
525.947	19.3186
529.322	9.82504
532.696	6.6535
536.071	1.96793
539.446	2.35522
542.821	0.399384
546.196	0.366028
549.57	0.043213
552.945	0.401428
556.32	0.856323
559.695	1.17337
563.07	0.962616
566.444	1.26492
569.819	1.60529
573.194	2.19321
576.569	2.98459
579.944	3.83453
583.319	5.22812
586.693	7.23073
590.068	10.4903
593.443	11.7663
596.818	8.50423
600.193	5.57504
603.567	4.32719
606.942	3.18404
610.317	1.894
613.692	1.24521
617.067	1.97652
620.442	1.39644
623.816	1.30917
627.191	0.517975
630.566	1.47023
633.941	2.55631
637.316	0.648163
640.69	1.50066
644.065	0.417709
647.44	0.197708
650.815	1.24355
654.19	0.438675
657.564	0.971802
660.939	2.19089
664.314	0.480103
667.689	2.14565
671.064	0.333588
674.439	0.861115
677.813	0.790375
681.188	1.25668
684.563	1.74864
687.938	1.03069
691.313	2.51378
694.688	0.503952
698.062	0.681351
701.437	1.52472
704.812	0.954391
708.187	3.42033
711.562	1.46732
714.936	1.67522
718.311	1.40527
721.686	1.33771
725.061	0.695145
728.436	0.042755
731.81	1.2863
735.185	1.72458
738.56	1.31059
741.935	0.178543
745.31	0.727112
748.684	0.133438
752.059	0.051102
755.434	0.33284
758.809	0.655426
762.184	0.416885
765.559	0.17897
768.933	1.08518
772.308	0.535049
775.683	0.603256
779.058	1.97623
782.433	1.26193
785.808	3.38255
789.182	3.91356
792.557	6.46756
795.932	10.4098
799.307	15.9082
802.682	23.0888
806.056	35.1923
809.431	44.4477
812.806	51.0991
816.181	50.8419
819.556	44.9934
822.93	42.8458
826.305	36.1262
829.68	33.7137
833.055	34.5191
836.43	39.2449
839.804	47.2512
843.179	62.4132
846.554	83.6056
849.929	100.816
853.304	101.9
856.679	88.1416
860.053	74.4694
863.428	63.0845
866.803	48.1768
870.178	32.9732
873.553	21.9283
876.927	17.048
880.302	13.9409
883.677	11.2506
887.052	9.21788
890.427	6.39896
893.802	5.69751
897.176	2.62048
900.551	2.49937
903.926	1.30609
907.301	2.56575
910.676	0.476807
914.05	1.41127
917.425	0.614334
920.8	0.398911
924.175	1.55348
927.55	1.00609
930.924	1.04868
934.299	0.736801
937.674	0.006653
941.049	1.39973
944.424	1.95775
947.799	1.43857
951.173	0.807449
954.548	1.68306
957.923	0.78624
961.298	2.60751
964.673	0.982681
968.047	2.06155
971.422	1.07985
974.797	0.508743
978.172	0.968674
981.547	0.786789
984.922	0.604965
988.296	1.62013
991.671	0.933014
995.046	3.33946
998.421	1.58981
1001.8	2.302
1005.17	2.21851
1008.54	2.11858
1011.92	1.11102
1015.29	3.41641
1018.67	1.19406
1022.04	1.24202
1025.42	2.23471
1028.79	1.87497
1032.17	2.71614
1035.54	1.13774
1038.92	2.85313
1042.29	2.24976
1045.67	0.782501
1049.04	0.348038
1052.42	1.20207
1055.79	1.62808
1059.17	1.33691
1062.54	2.50429
1065.92	2.43178
1069.29	2.0016
1072.67	0.995956
1076.04	3.3069
1079.42	1.25523
1082.79	2.87613
1086.17	3.14624
1089.54	2.11044
1092.92	1.75964
1096.29	2.48868
1099.66	1.78932
1103.04	2.04538
1106.41	0.743103
1109.79	1.81346
1113.16	0.456192
1116.54	0.838913
1119.91	0.75885
1123.29	2.60957
1126.66	0.897873
1130.04	1.2386
1133.41	0.017822
1136.79	2.31599
1140.16	1.78473
1143.54	0.117264
1146.91	1.72096
1150.29	1.70874
1153.66	2.48964
1157.04	1.3013
1160.41	0.262695
1163.79	1.37181
1167.16	0.813339
1170.54	2.50818
1173.91	2.93272
1177.29	1.89329
1180.66	1.95325
1184.04	0.818588
1187.41	1.47345
1190.79	2.19615
1194.16	2.26794
1197.54	2.33136
1200.91	1.87974
1204.28	1.50287
1207.66	1.4238
1211.03	1.85124
1214.41	1.03528
1217.78	1.48122
1221.16	0.472153
1224.53	0.977264
1227.91	1.43181
1231.28	3.0629
1234.66	2.04806
1238.03	1.79753
1241.41	2.05489
1244.78	0.636948
1248.16	1.18291
1251.53	0.474121
1254.91	0.580734
1258.28	1.20551
1261.66	0.685745
1265.03	1.58281
1268.41	1.00333
1271.78	0.846634
1275.16	0.929321
1278.53	0.731827
1281.9	1.53999
