Measurement: Raman, 532 nm, unoriented, Raman Data Processed
Mineral: Tapiaite
Rruff sample: R150032
Ideal chemistry: Ca_5_Al_2_(As^5+^O_4_)_4_(OH)_4_12H_2_O
Locality: Jote mine, Pampa Larga district, Tierra Amarilla, CopiapoÂ´ Province, Atacama Region, Chile
Source: Bob Jenkins
Description: Pale yellow or pale blue to clear bladed crystals.
Raman shift (cm-1)	intensity
90.2653	0
93.6401	15.2677
97.0149	9.11029
100.39	13.0678
103.765	2.9378
107.139	13.0051
110.514	29.0632
113.889	56.0169
117.264	81.2778
120.639	94.2425
124.013	122.761
127.388	137.52
130.763	122.498
134.138	109.609
137.513	112.133
140.888	110.4
144.262	93.6387
147.637	86.7657
151.012	86.0838
154.387	95.4111
157.762	103.084
161.137	90.9209
164.511	63.0081
167.886	40.174
171.261	27.3225
174.636	24.7226
178.011	23.0947
181.385	6.5351
184.76	5.1759
188.135	12.8381
191.51	21.4096
194.885	29.3917
198.26	34.1411
201.634	35.771
205.009	32.4338
208.384	24.5504
211.759	17.2607
215.133	11.3813
218.508	6.91394
221.883	3.22363
225.258	1.07019
228.633	3.39325
232.008	3.57165
235.382	0.934692
238.757	2.28113
242.132	6.56549
245.507	8.2019
248.882	7.354
252.256	11.9858
255.631	9.39258
259.006	6.21936
262.381	5.70221
265.756	5.41913
269.131	3.95813
272.505	4.82202
275.88	5.04321
279.255	4.65411
282.63	2.24603
286.005	1.5636
289.38	1.6933
292.754	5.04303
296.129	4.55853
299.504	1.30426
302.879	4.98743
306.254	12.0298
309.628	28.1875
313.003	46.7133
316.378	87.0275
319.753	137.754
323.128	156.083
326.502	118.549
329.877	76.3663
333.252	61.563
336.627	60.8831
340.002	64.5373
343.377	59.7581
346.751	49.3004
350.126	48.7893
353.501	52.3273
356.876	61.9522
360.251	67.8527
363.625	65.4927
367	47.8064
370.375	33.3751
373.75	26.0826
377.125	27.4179
380.5	31.2333
383.874	41.8051
387.249	55.709
390.624	72.449
393.999	96.6405
397.374	128.184
400.748	164.191
404.123	192.76
407.498	222.819
410.873	274.882
414.248	325.286
417.623	339.02
420.997	290.449
424.372	203.841
427.747	138.134
431.122	88.0045
434.497	53.5023
437.872	31.7309
441.246	18.379
444.621	10.9155
447.996	7.45599
451.371	4.05212
454.745	5.46979
458.12	0.663391
461.495	4.76971
464.87	3.30945
468.245	5.2193
471.62	2.30743
474.994	2.32349
478.369	9.28992
481.744	24.1115
485.119	43.9068
488.494	59.4397
491.868	53.1209
495.243	42.3824
498.618	34.4163
501.993	38.5825
505.368	52.0725
508.743	72.9155
512.117	95.6587
515.492	130.299
518.867	159.444
522.242	156.572
525.617	107.334
528.991	56.5899
532.366	31.7266
535.741	16.1863
539.116	8.75342
542.491	3.23535
545.866	2.69177
549.24	3.6759
552.615	0.37146
555.99	0.398621
559.365	0.465881
562.74	1.22827
566.115	0.715149
569.489	2.76794
572.864	4.02167
576.239	9.68604
579.614	17.5865
582.989	26.3226
586.363	40.1741
589.738	54.2773
593.113	54.8508
596.488	39.4813
599.863	19.5999
603.237	9.51959
606.612	7.62183
609.987	5.49652
613.362	2.00617
616.737	3.04346
620.112	3.20929
623.486	3.01575
626.861	3.18591
630.236	2.69
633.611	2.89099
636.986	1.93701
640.361	5.02069
643.735	3.80981
647.11	8.27643
650.485	7.39813
653.86	11.3003
657.235	5.65442
660.609	7.41327
663.984	7.20508
667.359	8.53644
670.734	6.15888
674.109	8.9231
677.484	4.86981
680.858	11.2117
684.233	9.23309
687.608	11.8525
690.983	4.95795
694.357	2.99231
697.732	4.84393
701.107	6.65064
704.482	2.82703
707.857	7.35455
711.232	6.49603
714.606	3.44031
717.981	3.68976
721.356	3.92432
724.731	2.32562
728.106	3.40057
731.481	2.0274
734.855	1.54486
738.23	0.230103
741.605	0.311707
744.98	5.95111
748.355	1.50891
751.729	2.52405
755.104	0.832397
758.479	1.87573
761.854	3.6253
765.229	0.859131
768.604	0.576416
771.978	3.9151
775.353	6.40979
778.728	14.369
782.103	22.4718
785.478	36.7751
788.852	52.3284
792.227	85.4736
795.602	129.12
798.977	199.949
802.352	301.445
805.726	424.848
809.101	545.732
812.476	591.937
815.851	530.956
819.226	435.178
822.601	353.636
825.975	291.977
829.35	259.009
832.725	247.589
836.1	266.042
839.475	327.015
842.85	427.71
846.224	570.836
849.599	704.439
852.974	755.471
856.349	703.976
859.724	631.638
863.098	573.75
866.473	447.745
869.848	274.347
873.223	167.842
876.598	118.108
879.972	99.7744
883.347	83.8833
886.722	54.6352
890.097	36.2011
893.472	24.3038
896.847	13.2173
900.221	9.17432
903.596	6.39093
906.971	0.954956
910.346	5.21558
913.721	4.07922
917.096	1.06653
920.47	2.92194
923.845	1.00971
927.22	2.99689
930.595	3.91864
933.97	1.33691
937.344	5.95264
940.719	5.63849
944.094	8.73199
947.469	7.7453
950.844	6.73712
954.218	10.5934
957.593	5.71924
960.968	6.92755
964.343	10.5081
967.718	14.3005
971.092	9.36707
974.467	10.8095
977.842	21.9136
981.217	13.0154
984.592	12.2923
987.967	14.9902
991.341	16.1796
994.716	9.63422
998.091	9.07581
1001.47	11.4691
1004.84	9.98651
1008.22	9.03278
1011.59	7.63507
1014.97	8.76868
1018.34	6.7561
1021.72	3.45532
1025.09	2.30103
1028.46	5.39276
1031.84	5.40265
1035.21	2.73358
1038.59	4.40784
1041.96	2.90192
1045.34	3.28027
1048.71	4.51843
1052.09	6.67139
1055.46	5.28864
1058.84	2.23767
1062.21	2.12225
1065.59	0.481201
1068.96	5.69598
1072.34	2.91943
1075.71	0.736389
1079.09	4.06232
1082.46	4.47986
1085.84	6.74182
1089.21	3.66345
1092.59	5.79205
1095.96	5.37079
1099.34	7.2644
1102.71	5.86768
1106.09	8.10217
1109.46	2.49164
1112.84	4.7616
1116.21	2.58746
1119.58	5.65851
1122.96	3.698
1126.33	3.49023
1129.71	0.952637
1133.08	0.717773
1136.46	0.196472
1139.83	0.520203
1143.21	2.73578
1146.58	3.13544
1149.96	1.40265
1153.33	4.87256
1156.71	4.73706
1160.08	1.20038
1163.46	1.41602
1166.83	2.16998
1170.21	2.27795
1173.58	4.54675
1176.96	3.13287
1180.33	3.50098
1183.71	1.69891
1187.08	4.9646
1190.46	4.15027
1193.83	4.54932
1197.2	2.84228
1200.58	0.395996
1203.95	2.77283
1207.33	3.83582
1210.7	4.36633
1214.08	4.69617
1217.45	0.841797
1220.83	4.99561
1224.2	1.80017
1227.58	0.620605
1230.95	1.4115
1234.33	0.794312
1237.7	2.11743
1241.08	1.7428
1244.45	4.69495
1247.83	5.41052
1251.2	6.37817
1254.58	6.43372
1257.95	7.11353
1261.33	6.87293
1264.7	2.09595
1268.08	4.19067
1271.45	1.6897
1274.83	3.00024
1278.2	6.01172
1281.58	5.2887
1284.95	3.05457
1288.33	4.04797
1291.7	2.69958
1295.08	2.74048
1298.45	3.94482
1301.83	0
