Measurement: Raman, 532 nm, unoriented, Raman Data Processed
Mineral: Tarbuttite
Rruff sample: R050621
Ideal chemistry: Zn_2_(PO_4_)(OH)
Locality: Broken Hill, Rhodesia
Source: University of Arizona Mineral Museum
Description: Colorless prismatic crystals
Measured chemistry: Zn_2.00_(P_1.00_O_4_)(OH)
Raman shift (cm-1)	intensity
149.934	0
152.826	206.611
155.719	294.584
158.612	1.77161
161.504	9.70215
164.397	67.6077
167.29	142.754
170.183	258.044
173.075	441.046
175.968	719.841
178.861	1060.64
181.753	984.567
184.646	533.865
187.539	357.548
190.431	354.656
193.324	420.448
196.217	468.24
199.109	373.37
202.002	231.523
204.895	140.242
207.788	106.396
210.68	117.024
213.573	79.847
216.466	13.7724
219.358	21.8276
222.251	22.7742
225.144	28.3898
228.036	22.3279
230.929	5.8125
233.822	24.799
236.715	84.3475
239.607	175.244
242.5	287.974
245.393	441.191
248.286	695.277
251.178	1125.92
254.071	1617.42
256.964	1668.88
259.856	1461.45
262.749	1669.98
265.642	2329.93
268.534	2807.96
271.427	1975.76
274.32	1020.1
277.212	570.228
280.105	358.637
282.998	257.31
285.891	235.287
288.783	248.814
291.676	293.487
294.569	382.447
297.461	525.161
300.354	668.128
303.247	691.376
306.14	515.932
309.032	300.352
311.925	175.389
314.818	124.93
317.71	136.192
320.603	206.128
323.496	328.976
326.389	493.079
329.281	721.866
332.174	1037.51
335.067	1399.9
337.959	1597.93
340.852	1364.73
343.745	948.988
346.637	625.746
349.53	409.117
352.423	253.647
355.315	142.649
358.208	68.3922
361.101	32.2359
363.994	17.4568
366.886	25.3918
369.779	44.7929
372.672	79.1632
375.565	141.93
378.457	225.76
381.35	310.33
384.243	266.95
387.135	133.82
390.028	46.4863
392.921	9.79956
395.813	5.03235
398.706	11.3623
401.599	16.8748
404.491	14.0692
407.384	11.4304
410.277	10.9078
413.17	8.03485
416.062	3.85358
418.955	2.6665
421.848	7.57391
424.74	16.0573
427.633	16.4962
430.526	21.5997
433.418	33.3018
436.311	33.6257
439.204	45.2505
442.097	58.3721
444.989	68.9139
447.882	91.5917
450.775	121.377
453.667	159.021
456.56	204.165
459.453	262.121
462.346	284.73
465.238	237.394
468.131	166.548
471.024	109.26
473.916	73.0226
476.809	53.6561
479.702	41.5801
482.594	33.3416
485.487	28.9898
488.38	32.1026
491.273	34.1941
494.165	45.1673
497.058	60.5973
499.951	83.0357
502.843	117.123
505.736	153.911
508.629	198.828
511.522	252.303
514.414	282.425
517.307	265.677
520.2	215.652
523.092	154.998
525.985	102.631
528.878	72.8341
531.77	47.5128
534.663	35.6879
537.556	22.5522
540.448	16.3296
543.341	10.4586
546.234	10.362
549.127	3.53729
552.019	2.50757
554.912	3.86957
557.805	1.75287
560.697	0.157349
563.59	3.42078
566.483	1.07971
569.376	3.15576
572.268	5.19031
575.161	11.5078
578.054	21.6808
580.946	45.202
583.839	85.4337
586.732	133.802
589.625	216.855
592.517	336.012
595.41	496.082
598.303	557.607
601.195	437.587
604.088	366.987
606.981	336.305
609.874	268.036
612.766	180.452
615.659	121.067
618.552	83.2036
621.444	58.7002
624.337	46.493
627.23	37.6217
630.122	27.8033
633.015	21.9497
635.908	15.2501
638.801	14.972
641.693	10.5137
644.586	17.2766
647.479	7.04266
650.371	7.76562
653.264	3.11316
656.157	0.295776
659.049	2.7005
661.942	3.93756
664.835	0.796265
667.727	0.455139
670.62	0.730835
673.513	0.860901
676.406	0.348206
679.298	0.065552
682.191	1.13818
685.084	3.79065
687.976	0.439331
690.869	1.14331
693.762	1.03442
696.654	1.4765
699.547	2.84033
702.44	1.67694
705.333	4.1731
708.225	3.64984
711.118	1.37598
714.011	1.92383
716.904	3.4292
719.796	0.511292
722.689	5.25757
725.582	1.01324
728.474	2.9812
731.367	3.44556
734.26	1.45154
737.152	2.27826
740.045	4.28815
742.938	2.54565
745.831	6.16772
748.723	7.16998
751.616	5.0835
754.509	6.41089
757.401	8.16669
760.294	5.39691
763.187	8.62866
766.08	10.2276
768.972	11.3253
771.865	18.2496
774.758	23.6321
777.65	29.564
780.543	37.5426
783.436	53.6543
786.328	82.4382
789.221	123.191
792.114	180.814
795.006	248.569
797.899	325.713
800.792	361.351
803.685	291.334
806.577	181.874
809.47	107.251
812.363	61.4728
815.255	39.1604
818.148	23.7704
821.041	18.3268
823.933	8.10266
826.826	6.47638
829.719	6.81415
832.612	7.47803
835.504	12.9755
838.397	18.618
841.29	10.6837
844.182	0.059814
847.075	1.66113
849.968	2.10138
852.861	2.5874
855.753	5.49725
858.646	15.8101
861.539	24.9102
864.431	36.3117
867.324	54.8428
870.217	90.9339
873.11	133.758
876.002	205.791
878.895	298.043
881.788	392.034
884.68	458.699
887.573	415.598
890.466	301.839
893.358	188.158
896.251	120.946
899.144	74.2698
902.037	39.853
904.929	21.7277
907.822	0.506287
910.715	1.65295
913.607	5.81671
916.5	8.21051
919.393	7.2486
922.285	0.955078
925.178	5.89532
928.071	23.8235
930.964	38.5739
933.856	64.1168
936.749	92.532
939.642	143.543
942.534	212.631
945.427	326.707
948.32	490.662
951.212	804.48
954.105	1378.41
956.998	2219.65
959.891	3432.6
962.783	5144.29
965.676	6325.15
968.569	4853.33
971.461	2553.97
974.354	1309.22
977.247	726.536
980.139	429.122
983.032	252.086
985.925	153.737
988.818	103.633
991.71	80.6118
994.603	81.0143
997.496	132.997
1000.39	331.139
1003.28	674.813
1006.17	1158.96
1009.07	2317.96
1011.96	4254.97
1014.85	2140.91
1017.75	532.966
1020.64	179.733
1023.53	60.4758
1026.42	12.8408
1029.32	5.39447
1032.21	12.3329
1035.1	6.45972
1037.99	19.7158
1040.89	78.9468
1043.78	170.542
1046.67	310.959
1049.56	561.379
1052.46	647.08
1055.35	335.487
1058.24	237.32
1061.13	283.344
1064.03	430.241
1066.92	671.832
1069.81	762.015
1072.71	426.67
1075.6	185.873
1078.49	90.5071
1081.38	45.3931
1084.28	27.682
1087.17	13.202
1090.06	4.72302
1092.95	1.26538
1095.85	2.3609
1098.74	4.19519
1101.63	1.7196
1104.53	2.17566
1107.42	0.739685
1110.31	1.5105
1113.2	0.982666
1116.1	0.744934
1118.99	2.16779
1121.88	0.735901
1124.78	3.01324
1127.67	4.77081
1130.56	4.83734
1133.45	4.07959
1136.35	5.25665
1139.24	7.62433
1142.13	9.66113
1145.02	13.1296
1147.92	13.1047
1150.81	16.5953
1153.7	22.9398
1156.59	23.9655
1159.49	30.8577
1162.38	39.5977
1165.27	40.7797
1168.16	39.871
1171.06	42.1345
1173.95	32.256
1176.84	35.0363
1179.74	31.6946
1182.63	33.5806
1185.52	31.2122
1188.41	22.3434
1191.31	20.2842
1194.2	20.5567
1197.09	20.4842
1199.98	18.1158
1202.88	19.1506
1205.77	22.8249
1208.66	22.0679
1211.56	21.0461
1214.45	23.0937
1217.34	28.6749
1220.23	32.1788
1223.13	19.0424
1226.02	27.8013
1228.91	21.2445
1231.81	21.8989
1234.7	21.248
1237.59	15.7222
1240.48	18.5001
1243.38	15.1363
1246.27	15.2423
1249.16	13.335
1252.05	14.2611
1254.95	11.8256
1257.84	11.6237
1260.73	18.2703
1263.62	7.79919
1266.52	4.22815
1269.41	5.5332
1272.3	3.76941
1275.19	0.296875
1278.09	2.37158
1280.98	4.56549
1283.87	1.32025
1286.77	0.127075
1289.66	2.96277
1292.55	2.12244
1295.44	0.816223
1298.34	0.583435
1301.23	0.004639
