Measurement: Raman, 780 nm, unoriented, Raman Data Processed
Mineral: Tarbuttite
Rruff sample: R050621
Ideal chemistry: Zn_2_(PO_4_)(OH)
Locality: Broken Hill, Rhodesia
Source: University of Arizona Mineral Museum
Description: Colorless prismatic crystals
Measured chemistry: Zn_2.00_(P_1.00_O_4_)(OH)
Raman shift (cm-1)	intensity
149.919	0
152.812	69.8109
155.705	68.4106
158.597	1.41156
161.49	0.105865
164.383	12.7439
167.276	32.5872
170.168	68.7349
173.061	130.03
175.954	227.345
178.846	335.564
181.739	297.27
184.632	208.484
187.524	227.696
190.417	314.267
193.31	435.372
196.203	490.358
199.095	369.338
201.988	222.551
204.881	143.239
207.773	109.522
210.666	104.338
213.559	59.467
216.451	14.6681
219.344	3.69778
222.237	8.32056
225.13	5.06915
228.022	7.76389
230.915	5.32944
233.808	0.68399
236.7	9.90274
239.593	26.33
242.486	52.5509
245.378	100.262
248.271	178.741
251.164	277.395
254.056	387.38
256.949	488.48
259.842	639.318
262.735	980.044
265.627	1573.93
268.52	1888.81
271.413	1235
274.305	625.976
277.198	344.767
280.091	213.76
282.983	152.174
285.876	117.45
288.769	104.433
291.662	109.307
294.554	135.936
297.447	179.706
300.34	228.452
303.232	229.136
306.125	166.145
309.018	98.6428
311.911	53.1961
314.803	38.358
317.696	39.7257
320.589	52.6388
323.481	77.286
326.374	119.713
329.267	177.675
332.159	255.11
335.052	349.479
337.945	401.703
340.837	322.982
343.73	215.091
346.623	131.683
349.516	79.6972
352.408	44.1084
355.301	16.6002
358.194	2.32538
361.086	0.007843
363.979	4.53769
366.872	11.4767
369.764	28.3504
372.657	51.1823
375.55	86.7306
378.442	142.925
381.335	198.672
384.228	174.085
387.121	93.4196
390.013	40.8277
392.906	17.5794
395.799	3.58231
398.691	0.352264
401.584	2.86865
404.477	0.152252
407.37	5.50507
410.262	5.53075
413.155	5.36581
416.048	1.87978
418.94	0.391266
421.833	2.23505
424.726	1.27043
427.618	5.3038
430.511	10.9033
433.404	12.9555
436.296	15.4085
439.189	19.434
442.082	27.5261
444.975	37.2092
447.867	50.3142
450.76	60.6721
453.653	82.5889
456.545	108.414
459.438	141.066
462.331	159.632
465.224	141.808
468.116	109.887
471.009	74.4642
473.902	50.5234
476.794	36.9962
479.687	27.2608
482.58	19.1353
485.472	15.7863
488.365	13.5173
491.258	13.7651
494.151	15.351
497.043	26.1707
499.936	35.4221
502.829	46.3849
505.721	61.7477
508.614	84.6623
511.507	108.694
514.399	128.469
517.292	124.823
520.185	98.5716
523.077	68.6827
525.97	45.6889
528.863	28.6839
531.756	19.6625
534.648	14.123
537.541	7.29488
540.434	6.10097
543.326	1.64372
546.219	1.79074
549.112	0.448563
552.004	0.799179
554.897	2.0603
557.79	0.599884
560.683	1.05252
563.575	0.290665
566.468	0.477859
569.361	4.37074
572.253	6.67798
575.146	14.3798
578.039	26.2162
580.931	45.7643
583.824	69.7708
586.717	100.593
589.61	159.611
592.502	260.55
595.395	407.103
598.288	457.663
601.18	321.372
604.073	224.657
606.966	174.837
609.858	131.77
612.751	86.3696
615.644	60.4751
618.537	40.6287
621.429	30.1672
624.322	23.4291
627.215	19.9847
630.107	16.7437
633	11.7205
635.893	10.7198
638.785	11.4292
641.678	6.03337
644.571	7.87572
647.463	7.10049
650.356	5.05797
653.249	4.8051
656.141	4.63689
659.034	0.643692
661.927	0.192032
664.82	0.856918
667.712	1.50423
670.605	0.298798
673.498	0.587692
676.39	1.53317
679.283	0.336212
682.176	1.49649
685.068	2.40372
687.961	1.91744
690.854	0.191269
693.747	0.867523
696.639	1.72502
699.532	1.28079
702.425	1.28435
705.317	0.406906
708.21	1.04237
711.103	2.43317
713.995	1.71408
716.888	2.51569
719.781	2.8047
722.674	0.04335
725.566	0.82515
728.459	1.48849
731.352	1.87903
734.244	3.65739
737.137	2.15187
740.03	1.14659
742.923	1.38931
745.815	3.29092
748.708	0.804321
751.601	1.49908
754.493	0.181168
757.386	2.13998
760.279	1.57668
763.171	2.92429
766.064	5.42026
768.957	3.06483
771.85	4.69887
774.742	10.7662
777.635	13.8489
780.528	23.5223
783.42	33.6406
786.313	51.7075
789.206	74.304
792.098	107.091
794.991	150.477
797.884	205.704
800.776	247.657
803.669	209.119
806.562	133.534
809.455	77.9184
812.347	45.454
815.24	26.3679
818.133	15.0607
821.025	10.8467
823.918	4.94318
826.811	3.5235
829.703	2.02773
832.596	2.60138
835.489	1.23227
838.381	2.48563
841.274	1.34996
844.167	0.3909
847.06	2.07457
849.952	1.09966
852.845	4.34807
855.738	8.69437
858.63	12.711
861.523	21.6868
864.416	24.1873
867.308	31.7918
870.201	45.938
873.094	68.8624
875.987	95.5006
878.879	135.751
881.772	184.441
884.665	217.108
887.557	198.026
890.45	145.28
893.343	96.5858
896.236	61.608
899.128	39.4941
902.021	24.6945
904.914	13.4001
907.806	5.8434
910.699	4.31989
913.592	0.203049
916.484	4.42552
919.377	1.99945
922.27	1.18842
925.163	0.992661
928.055	2.14789
930.948	4.8128
933.841	13.4344
936.733	20.4341
939.626	31.8688
942.519	49.8275
945.411	73.6215
948.304	117.678
951.197	199.91
954.09	323.369
956.982	492.054
959.875	766.03
962.768	1188.9
965.66	1578.72
968.553	1286.08
971.446	680.545
974.338	343.967
977.231	185
980.124	104.014
983.016	63.3413
985.909	36.3641
988.802	21.5235
991.694	15.2678
994.587	18.1098
997.48	38.5888
1000.37	92.0119
1003.26	143.004
1006.16	252.696
1009.05	511.289
1011.94	1104.13
1014.84	631.385
1017.73	155.619
1020.62	53.0701
1023.51	17.2816
1026.41	4.09784
1029.3	1.45042
1032.19	1.94006
1035.09	1.61816
1037.98	3.97398
1040.87	14.9877
1043.76	31.5937
1046.66	60.2266
1049.55	129.711
1052.44	190.26
1055.33	153.103
1058.23	158.967
1061.12	209.678
1064.01	316.093
1066.9	486.877
1069.8	555.624
1072.69	323.208
1075.58	142.469
1078.47	71.9238
1081.37	42.3443
1084.26	24.4026
1087.15	16.5917
1090.05	11.0654
1092.94	5.81503
1095.83	3.49763
1098.72	1.4043
1101.62	2.7975
1104.51	0.168625
1107.4	0.446594
1110.3	0.369232
1113.19	0.128296
1116.08	1.00836
1118.97	0.075775
1121.87	0.911362
1124.76	0.736237
1127.65	4.16971
1130.54	2.13414
1133.44	1.93475
1136.33	1.81868
1139.22	2.81094
1142.12	4.95273
1145.01	0.778015
1147.9	2.25789
1150.79	3.61494
1153.69	7.42284
1156.58	8.11163
1159.47	10.3802
1162.36	14.3632
1165.26	14.6876
1168.15	13.8584
1171.04	14.2916
1173.93	13.367
1176.83	11.8161
1179.72	11.9925
1182.61	10.9186
1185.51	9.93492
1188.4	13.2743
1191.29	10.7259
1194.18	9.12387
1197.08	8.13553
1199.97	6.10084
1202.86	5.99931
1205.75	6.647
1208.65	6.51056
1211.54	5.95302
1214.43	5.12729
1217.33	7.08798
1220.22	5.52725
1223.11	7.58034
1226	7.10063
1228.9	5.33321
1231.79	4.32578
1234.68	2.67851
1237.57	4.25975
1240.47	2.61609
1243.36	2.8826
1246.25	4.33522
1249.14	1.79912
1252.04	1.20924
1254.93	1.51309
1257.82	1.37653
1260.71	0.593567
1263.61	2.25095
1266.5	1.22476
1269.39	2.35492
1272.29	0.065155
1275.18	0.35051
1278.07	0.100113
1280.96	0.284714
1283.86	4.83458
