Measurement: Raman, 532 nm, unoriented, Raman Data Processed
Mineral: Tausonite
Rruff sample: X090004
Ideal chemistry: SrTiO_3_
Locality: Synthetic
Source: Gemological Institute of America
Description: Faceted colorless stone, cell parameters indicate a disordered structure
Raman shift (cm-1)	intensity
155.53	0
158.422	42.6016
161.315	83.6982
164.208	199.504
167.101	342.782
169.993	392.136
172.886	388.652
175.779	359.307
178.671	487.718
181.564	652.196
184.457	770.074
187.349	672.611
190.242	568.052
193.135	424.288
196.028	279.042
198.92	140.888
201.813	41.2969
204.706	75.8428
207.598	114.976
210.491	69.9502
213.384	24.3896
216.276	153.561
219.169	378.669
222.062	736.168
224.954	1160.21
227.847	1671.04
230.74	2243.62
233.633	2669.29
236.525	2994.74
239.418	3197.82
242.311	3413.83
245.203	3452.94
248.096	3295.43
250.989	2833.99
253.881	2278.99
256.774	1818.31
259.667	1456.36
262.56	1230.06
265.452	1160.94
268.345	1223.38
271.238	1214.59
274.13	1293.65
277.023	1416.83
279.916	1510.53
282.808	1568.44
285.701	1490.5
288.594	1425.45
291.487	1411.11
294.379	1305.54
297.272	1191.92
300.165	1129.99
303.057	1126.17
305.95	1013.16
308.843	863.959
311.736	703.643
314.628	548.438
317.521	329.377
320.414	98.5957
323.306	32.2793
326.199	47.4648
329.092	38.8496
331.984	11.9707
334.877	52.8438
337.77	132.969
340.662	250.783
343.555	250.685
346.448	262.902
349.341	305.115
352.233	343.463
355.126	464.582
358.019	624.078
360.911	766.65
363.804	825.254
366.697	889.703
369.589	905.877
372.482	1013.12
375.375	994.223
378.267	1026.88
381.16	965.344
384.053	912.326
386.946	906.721
389.838	930.004
392.731	932.324
395.624	889.156
398.516	862.566
401.409	843.344
404.302	844.281
407.195	915.221
410.087	871.869
412.98	829.479
415.873	729.029
418.765	661.668
421.658	611.262
424.551	572.234
427.443	495.677
430.336	464.374
433.229	363.082
436.122	336.857
439.014	322.646
441.907	221.597
444.8	219.438
447.692	174.41
450.585	180.523
453.478	141.746
456.37	81.3906
459.263	57.6055
462.156	7.65918
465.048	7.79004
467.941	37.6943
470.834	30.7646
473.727	19.1621
476.619	14.7842
479.512	34.1299
482.405	10.958
485.297	10.833
488.19	1.86279
491.083	33.2344
493.976	46.0659
496.868	62.9482
499.761	92.228
502.654	119.044
505.546	155.743
508.439	230.785
511.332	274.881
514.224	339.104
517.117	347.822
520.01	428.903
522.903	445.051
525.795	449.986
528.688	466.018
531.581	459.238
534.473	449.953
537.366	432.174
540.259	390.489
543.151	362.342
546.044	317.775
548.937	266.14
551.83	231.681
554.722	159.599
557.615	95.3879
560.508	37.8721
563.4	11.8667
566.293	61.5269
569.186	95.8257
572.078	112.512
574.971	128.011
577.864	114.126
580.756	60.9399
583.649	18.9273
586.542	177.31
589.435	387.649
592.327	660.707
595.22	1018.32
598.113	1433.64
601.005	1912.59
603.898	2399.08
606.791	2873.71
609.683	3298.14
612.576	3571.13
615.469	3657.57
618.362	3580.91
621.254	3386.56
624.147	3133.13
627.04	2834.45
629.932	2547.71
632.825	2285.24
635.718	2106.36
638.611	2022.57
641.503	1978.62
644.396	2012.21
647.289	2021.96
650.181	2042.73
653.074	2096.3
655.967	2173.82
658.859	2223.09
661.752	2223.59
664.645	2220.8
667.538	2241.24
670.43	2262.71
673.323	2259.34
676.216	2246.58
679.108	2172.85
682.001	2118.01
684.894	1979.32
687.786	1770.56
690.679	1603.83
693.572	1365.53
696.465	1183.09
699.357	1075.98
702.25	1050.68
705.143	1110.1
708.035	1145.39
710.928	1221.01
713.821	1253.1
716.713	1338.48
719.606	1375.54
722.499	1385.74
725.391	1348.32
728.284	1276.22
731.177	1196.94
734.07	1096.05
736.962	934.556
739.855	785.356
742.748	673.199
745.64	536.43
748.533	400.8
751.426	290.132
754.318	206.333
757.211	125.211
760.104	37.7647
762.997	9.03418
765.889	75.7383
768.782	98.0278
771.675	105.246
774.567	100.029
777.46	98.2676
780.353	68.6924
783.245	41.3096
786.138	5.67871
789.031	13.2861
791.923	47.7612
794.816	88.2515
797.709	86.4102
800.602	85.4917
803.494	112.062
806.387	137.87
809.28	159.683
812.172	156.754
815.065	188.491
817.958	189.208
820.851	215.152
823.743	232.204
826.636	223.463
829.529	234.99
832.421	228.709
835.314	201.152
838.207	196.844
841.099	193.044
843.992	188.369
846.885	181.716
849.778	179.795
852.67	200.866
855.563	208.099
858.456	205.439
861.348	186.5
864.241	199.875
867.134	200.285
870.026	195.907
872.919	189.359
875.812	190.604
878.705	184.346
881.597	175.323
884.49	174.366
887.383	171.84
890.275	177.889
893.168	165.883
896.061	158.29
898.953	172.825
901.846	158.36
904.739	169.774
907.631	152.503
910.524	154.481
913.417	154.894
916.31	160.603
919.202	161.86
922.095	151.509
924.988	140.101
927.88	119.683
930.773	101.988
933.666	78.7146
936.558	60.1694
939.451	35.501
942.344	25.8705
945.237	13.2261
948.129	7.49841
951.022	6.17017
953.915	12.8168
956.807	25.0627
959.7	7.4303
962.593	6.59399
965.486	14.1354
968.378	23.8976
971.271	40.7375
974.164	73.1681
977.056	96.364
979.949	117.2
982.842	164.583
985.734	204.926
988.627	243.498
991.52	266.208
994.413	314.259
997.305	337.123
1000.2	384.268
1003.09	425.459
1005.98	443.916
1008.88	488.973
1011.77	519.136
1014.66	551.977
1017.55	572.138
1020.45	599.304
1023.34	631.562
1026.23	649.847
1029.12	669.159
1032.02	688.457
1034.91	674.29
1037.8	669.403
1040.7	647.555
1043.59	630.197
1046.48	614.929
1049.37	583.134
1052.27	541.604
1055.16	514.591
1058.05	489.862
1060.94	455.175
1063.84	427.995
1066.73	398.728
1069.62	366.818
1072.52	342.261
1075.41	288.977
1078.3	276.418
1081.19	237.965
1084.09	204.007
1086.98	167.143
1089.87	129.238
1092.76	101.475
1095.66	72.9747
1098.55	47.3467
1101.44	32.3602
1104.34	16.3402
1107.23	5.88727
1110.12	9.64477
1113.01	8.83191
1115.91	11.1154
1118.8	12.5546
1121.69	7.13318
1124.58	3.64563
1127.48	4.19074
1130.37	0.226318
1133.26	0.983826
1136.15	9.89563
1139.05	11.6466
1141.94	17.3812
1144.83	22.0998
1147.73	23.2489
1150.62	30.5461
1153.51	31.2567
1156.4	40.4124
1159.3	42.6156
1162.19	44.2819
1165.08	44.0336
1167.97	47.2695
1170.87	51.4306
1173.76	47.4372
1176.65	45.2572
1179.55	41.002
1182.44	41.5084
1185.33	39.5956
1188.22	35.6497
1191.12	29.7039
1194.01	32.853
1196.9	32.7409
1199.79	32.1733
1202.69	28.8228
1205.58	26.7171
1208.47	26.6394
1211.37	23.6249
1214.26	22.7683
1217.15	22.0476
1220.04	22.4265
1222.94	15.3703
1225.83	13.284
1228.72	9.57471
1231.61	10.3262
1234.51	13.049
1237.4	4.70271
1240.29	0.482819
1243.18	2.23038
1246.08	2.09226
1248.97	1.64926
1251.86	4.10681
1254.76	7.05716
1257.65	9.39536
1260.54	12.6476
1263.43	15.9582
1266.33	22.8368
1269.22	27.1097
1272.11	29.5118
1275	33.8424
1277.9	27.2031
1280.79	31.7883
1283.68	29.875
1286.58	28.6825
1289.47	23.8409
1292.36	18.2548
1295.25	10.7786
1298.15	10.2173
1301.04	0.054443
