Measurement: Raman, 780 nm, unoriented, Raman Data Processed
Mineral: Tausonite
Rruff sample: X090004
Ideal chemistry: SrTiO_3_
Locality: Synthetic
Source: Gemological Institute of America
Description: Faceted colorless stone, cell parameters indicate a disordered structure
Raman shift (cm-1)	intensity
107.323	0
110.697	2.72046
114.072	3.73605
117.447	9.15192
120.822	8.6106
124.197	16.2989
127.572	14.5178
130.946	14.0452
134.321	13.8759
137.696	15.3877
141.071	16.4001
144.446	17.511
147.82	18.0117
151.195	16.5229
154.57	17.8746
157.945	17.1306
161.32	10.1276
164.694	4.43933
168.069	5.7312
171.444	5.1532
174.819	6.7904
178.194	2.97363
181.569	3.99133
184.943	6.09137
188.318	2.30969
191.693	0.391479
195.068	1.78223
198.443	2.60834
201.817	3.02447
205.192	1.5163
208.567	0.577698
211.942	7.60846
215.317	21.9592
218.691	35.9128
222.066	55.8453
225.441	87.2361
228.816	111.383
232.191	133.87
235.566	141.31
238.94	146.347
242.315	148.77
245.69	138.986
249.065	122.733
252.44	95.2017
255.815	72.7462
259.189	54.0148
262.564	50.1586
265.939	57.2253
269.314	60.8699
272.689	66.3084
276.063	67.1778
279.438	69.537
282.813	63.227
286.188	65.9272
289.563	63.769
292.938	60.6224
296.312	55.0475
299.687	50.6646
303.062	46.9888
306.437	35.6857
309.812	28.1736
313.186	15.2009
316.561	12.7064
319.936	1.59204
323.311	3.41602
326.686	4.36865
330.06	0.017334
333.435	0.310181
336.81	6.78662
340.185	10.2634
343.56	12.3255
346.935	19.3422
350.309	21.9396
353.684	28.9479
357.059	32.4192
360.434	38.1663
363.809	41.4722
367.183	45.4961
370.558	50.7123
373.933	48.7784
377.308	44.5341
380.683	42.8563
384.058	43.2988
387.432	44.0718
390.807	42.6237
394.182	37.6902
397.557	40.2165
400.932	38.2982
404.306	35.9909
407.681	36.6293
411.056	33.1998
414.431	33.1871
417.806	29.2474
421.18	23.7389
424.555	24.2703
427.93	18.5087
431.305	14.1788
434.68	12.7236
438.055	15.2015
441.429	5.66742
444.804	10.5242
448.179	7.89197
451.554	4.47253
454.929	4.37405
458.303	2.67188
461.678	1.56461
465.053	0.979156
468.428	0.853943
471.803	2.61542
475.178	0.467316
478.552	2.29633
481.927	0.779114
485.302	0.560211
488.677	1.44153
492.052	3.00964
495.426	4.33984
498.801	4.00617
502.176	6.60257
505.551	10.5316
508.926	13.319
512.301	14.6778
515.675	16.8283
519.05	17.4134
522.425	19.4629
525.8	21.203
529.175	21.0957
532.549	19.3845
535.924	18.1956
539.299	16.4941
542.674	14.7175
546.049	10.3448
549.423	10.1247
552.798	5.46724
556.173	3.38925
559.548	0.381866
562.923	1.23498
566.298	4.22928
569.672	4.35101
573.047	4.47546
576.422	5.66972
579.797	1.59067
583.172	4.3132
586.546	13.8195
589.921	23.0416
593.296	40.5275
596.671	57.5016
600.046	79.1615
603.42	99.1807
606.795	115.767
610.17	128.966
613.545	133.269
616.92	129.953
620.295	122.925
623.669	112.621
627.044	100.466
630.419	90.4646
633.794	81.3887
637.169	74.9803
640.543	76.9207
643.918	76.8662
647.293	78.3714
650.668	80.1014
654.043	83.3233
657.418	82.3752
660.792	86.7219
664.167	85.609
667.542	87.6017
670.917	88.1253
674.292	86.8477
677.667	84.1832
681.041	80.0806
684.416	70.8729
687.791	61.8091
691.166	55.995
694.541	49.0829
697.915	43.8503
701.29	41.1766
704.665	43.8313
708.04	44.7293
711.415	46.5317
714.789	50.6682
718.164	53.1132
721.539	50.7592
724.914	51.0406
728.289	47.5737
731.664	41.7764
735.038	36.0562
738.413	30.6998
741.788	24.8295
745.163	18.041
748.538	15.1147
751.913	8.58884
755.287	5.86735
758.662	2.63733
762.037	1.88536
765.412	1.41472
768.787	2.94517
772.161	5.11087
775.536	4.32027
778.911	1.9696
782.286	0.013626
785.661	0.044525
789.035	1.96912
792.41	2.72559
795.785	2.42471
799.16	4.57304
802.535	4.48399
805.909	5.63229
809.284	7.121
812.659	8.18156
816.034	8.75308
819.409	10.0736
822.784	9.41884
826.158	10.6822
829.533	10.1776
832.908	8.98304
836.283	7.78473
839.658	7.95956
843.033	8.58298
846.407	9.29096
849.782	8.78561
853.157	7.68246
856.532	8.01827
859.907	7.75611
863.281	7.88403
866.656	7.98434
870.031	8.6483
873.406	8.46078
876.781	8.08659
880.155	6.81693
883.53	8.43332
886.905	6.70217
890.28	7.26116
893.655	6.80656
897.03	6.36547
900.404	6.98804
903.779	6.12759
907.154	5.5869
910.529	5.89666
913.904	6.01292
917.278	5.37862
920.653	4.64577
924.028	3.43742
927.403	4.53011
930.778	3.29486
934.153	3.19581
937.527	1.21372
940.902	0.2957
944.277	1.0396
947.652	0.085541
951.027	0.114784
954.401	0.674992
957.776	1.12903
961.151	0.495041
964.526	0.245586
967.901	1.4764
971.275	2.42881
974.65	2.90723
978.025	3.71509
981.4	5.34323
984.775	6.52423
988.15	8.54764
991.524	10.2368
994.899	10.6861
998.274	11.6009
1001.65	13.056
1005.02	14.3596
1008.4	15.7453
1011.77	17.538
1015.15	18.6982
1018.52	18.8778
1021.9	20.7353
1025.27	20.791
1028.65	22.1113
1032.02	22.1891
1035.4	22.0925
1038.77	21.1495
1042.15	20.3775
1045.52	18.5195
1048.9	17.9101
1052.27	16.9492
1055.65	16.534
1059.02	13.9925
1062.4	13.6222
1065.77	12.3659
1069.14	10.8728
1072.52	9.48478
1075.89	9.36295
1079.27	7.47561
1082.64	6.29052
1086.02	4.5323
1089.39	3.36266
1092.77	2.59719
1096.14	2.22819
1099.52	0.72365
1102.89	0.0835413
1106.27	0.598005
1109.64	-0.312323
1113.02	0.672262
1116.39	-0.149959
1119.77	0.175423
1123.14	0.227669
1126.52	0.133379
1129.89	0.430929
1133.27	0.207069
1136.64	0.904535
1140.02	0.48081
1143.39	0.050533
1146.77	1.27716
1150.14	0.740231
1153.52	1.629
1156.89	1.52379
1160.27	1.05025
1163.64	1.96955
1167.02	2.15935
1170.39	1.30534
1173.77	2.49559
1177.14	1.72132
1180.51	1.99622
1183.89	1.84741
1187.26	1.49832
1190.64	1.2526
1194.01	1.98762
1197.39	1.20969
1200.76	1.23226
1204.14	1.35183
1207.51	0.82828
1210.89	1.05327
1214.26	1.04017
1217.64	0.980484
1221.01	0.062993
1224.39	0.627867
1227.76	0.284285
1231.14	1.08883
1234.51	0.435596
1237.89	0.711747
1241.26	0.348202
1244.64	0.323714
1248.01	0.620322
1251.38	0.069358
1254.76	0.506937
1258.13	0.366859
1261.51	0.746509
1264.88	0.627339
1268.26	0.899529
1271.63	0.53289
1275.01	0.189298
1278.38	0.82702
1281.76	0.192005
1285.13	0.064278
