Measurement: Raman, 532 nm, unoriented, Raman Data Processed
Mineral: Tavorite
Rruff sample: R070523
Ideal chemistry: LiFe^3+^PO_4_(OH)
Locality: Bull Moose mine, Custer District, Custer County, South Dakota, USA
Source: James Shigley
Description: Bright greenish-yellow vitreous crystals, associated with colorless triphylite, pale yellow hureaulite, and dark blue barbosalite.
Raman shift (cm-1)	intensity
153.048	0
155.941	321.188
158.833	502.387
161.726	662.495
164.619	755.038
167.512	858.501
170.404	1020.24
173.297	1245.7
176.19	1610.63
179.082	1645.12
181.975	1345.4
184.868	845.799
187.761	337.812
190.653	84.1055
193.546	49.3628
196.439	62.0923
199.331	76.771
202.224	34.9019
205.117	24.6431
208.009	73.6728
210.902	44.8887
213.795	105.286
216.688	205.847
219.58	225.208
222.473	269.603
225.366	410.361
228.258	600.937
231.151	833.755
234.044	1228.2
236.936	1908.02
239.829	2759.13
242.722	4074.6
245.614	5775.46
248.507	7343.52
251.4	6844.33
254.293	5874.57
257.185	6473.44
260.078	8405.36
262.971	10629.5
265.863	11874.3
268.756	9966.59
271.649	7091.78
274.541	5648.75
277.434	5287.64
280.327	5551.03
283.22	5801.15
286.112	4862.47
289.005	3979.41
291.898	4100.1
294.79	4309.2
297.683	3960.22
300.576	2588.71
303.469	1552.32
306.361	915.42
309.254	578.862
312.147	389.841
315.039	337.834
317.932	130.936
320.825	104.892
323.717	88.2539
326.61	31.5278
329.503	27.4629
332.396	50.5395
335.288	4.3457
338.181	10.5718
341.074	13.4751
343.966	43.0498
346.859	100.349
349.752	261.962
352.644	593.166
355.537	1005.69
358.43	1612.01
361.322	2425.39
364.215	3483.46
367.108	4317.73
370.001	4460.2
372.893	2954.24
375.786	1405.16
378.679	537.544
381.572	311.309
384.464	199.651
387.357	244.79
390.25	371.931
393.142	456.22
396.035	740.026
398.928	1414.9
401.82	1605.47
404.713	1919.1
407.606	1127.25
410.498	303.843
413.391	63.9883
416.284	78.2754
419.177	40.375
422.069	72.1728
424.962	18.4346
427.855	122.428
430.747	299.41
433.64	401.108
436.533	783.386
439.425	1172.43
442.318	1934.4
445.211	2914.72
448.104	4159.89
450.996	5520.57
453.889	6605.6
456.782	6778.02
459.674	5669.64
462.567	4193.95
465.46	3017.76
468.353	2120.96
471.245	1470.5
474.138	988.767
477.031	708.007
479.923	474.772
482.816	383.55
485.709	520.689
488.601	545.72
491.494	697.201
494.387	990.825
497.279	1546.2
500.172	2021.99
503.065	2694.78
505.958	3090.11
508.85	2955.94
511.743	2341.79
514.636	1580.27
517.528	830.294
520.421	523.01
523.314	300.706
526.207	176.418
529.099	144.578
531.992	134.819
534.885	58.043
537.777	1.95312
540.67	4.73242
543.563	3.93359
546.455	47.6406
549.348	31.3281
552.241	9.58496
555.134	40.1338
558.026	49.1328
560.919	64.9668
563.812	270.43
566.704	448.429
569.597	793.117
572.49	991.499
575.382	1271.72
578.275	1234.34
581.168	852.576
584.061	652.891
586.953	591.569
589.846	594.612
592.739	819.676
595.631	1113.05
598.524	1292.26
601.417	1589.64
604.309	1811.48
607.202	1778.44
610.095	1971.77
612.987	2620.23
615.88	3569.66
618.773	4453.44
621.666	5285.72
624.558	5163.13
627.451	3622.61
630.344	2130.36
633.236	1275.25
636.129	675.023
639.022	493.826
641.915	290.747
644.807	221.974
647.7	155.382
650.593	120.471
653.485	28.7646
656.378	3.02734
659.271	13.8945
662.163	49.8955
665.056	42.0742
667.949	47.4707
670.842	21.8145
673.734	0.960938
676.627	24.0303
679.52	55.8897
682.412	60.1426
685.305	7.23633
688.198	12.6592
691.091	10.4248
693.983	26.0312
696.876	48.7988
699.769	23.8105
702.661	55.9502
705.554	72.4492
708.447	83.3496
711.339	99.6953
714.232	18.4229
717.125	44.8965
720.018	3.96191
722.91	63.5059
725.803	8.82617
728.696	46.75
731.588	29.502
734.481	24.2969
737.374	24.7676
740.266	70.8691
743.159	91.0986
746.052	36.6016
748.944	88.4131
751.837	118.988
754.73	45.2031
757.623	96.5147
760.515	77.6582
763.408	76.8613
766.301	93.0703
769.193	87.1123
772.086	248.05
774.979	219.188
777.871	318.078
780.764	377.158
783.657	492.894
786.55	674.216
789.442	650.58
792.335	477.627
795.228	354.957
798.12	226.458
801.013	145.81
803.906	131.629
806.798	158.263
809.691	69.7334
812.584	55.168
815.477	47.0918
818.369	1.70898
821.262	10.2529
824.155	24.5391
827.047	26.6992
829.94	2.22949
832.833	34.9336
835.726	87.708
838.618	16.665
841.511	35.7656
844.404	128.553
847.296	58.1025
850.189	52.2393
853.082	59.6397
855.975	44.5605
858.867	70.6973
861.76	77.9522
864.653	176.668
867.545	139.712
870.438	109.909
873.331	71.4717
876.223	141.541
879.116	176.195
882.009	149.774
884.902	126.36
887.794	118.29
890.687	122.644
893.58	132.808
896.472	118.103
899.365	81.2578
902.258	110.394
905.15	106.843
908.043	161.631
910.936	146.863
913.828	98.4834
916.721	71.2744
919.614	85.2217
922.507	19.793
925.399	59.9395
928.292	82.2305
931.185	29.6377
934.077	8.17188
936.97	5.15625
939.863	40.4033
942.755	39.0742
945.648	20.1211
948.541	17.9062
951.434	76.0205
954.326	112.265
957.219	123.838
960.112	316.176
963.004	455.408
965.897	804.014
968.79	1390.38
971.683	2512.32
974.575	4295.49
977.468	6518.7
980.361	8404.17
983.253	8564.5
986.146	6163.8
989.039	3799.89
991.931	2572.23
994.824	1965.38
997.717	1793.1
1000.61	2092.97
1003.5	3235.94
1006.39	5772.34
1009.29	9866.31
1012.18	14740.2
1015.07	19679.6
1017.97	20439.2
1020.86	20636.1
1023.75	19850.5
1026.64	11696.1
1029.54	5107.38
1032.43	2385.8
1035.32	1142.68
1038.21	479.051
1041.11	232.857
1044	112.831
1046.89	14.8496
1049.79	68.6904
1052.68	212.174
1055.57	231.382
1058.46	654.134
1061.36	1399.03
1064.25	2549.47
1067.14	3524.9
1070.03	4095.87
1072.93	3359.24
1075.82	2026.41
1078.71	945.524
1081.61	441.079
1084.5	216.609
1087.39	37.0391
1090.28	65.3135
1093.18	46.082
1096.07	18.6152
1098.96	17.1553
1101.85	133.967
1104.75	309.419
1107.64	690.529
1110.53	1224.28
1113.42	1774.87
1116.32	1981.7
1119.21	1533.06
1122.1	917.968
1125	387.166
1127.89	147.511
1130.78	7.52441
1133.67	62.3935
1136.57	19.2158
1139.46	62.7353
1142.35	7.82519
1145.24	86.1533
1148.14	2.60352
1151.03	51.8027
1153.92	39.3887
1156.82	69.5469
1159.71	25.4512
1162.6	26.6689
1165.49	15.3154
1168.39	65.0127
1171.28	69.541
1174.17	99.9688
1177.06	121.487
1179.96	61.0889
1182.85	114.639
1185.74	188.991
1188.63	164.85
1191.53	85.5049
1194.42	157.494
1197.31	101.214
1200.21	149.815
1203.1	148.197
1205.99	118.724
1208.88	103.772
1211.78	27.6641
1214.67	128.282
1217.56	204.365
1220.45	177.27
1223.35	145.38
1226.24	117.527
1229.13	33.1182
1232.03	82.2402
1234.92	43.9346
1237.81	103.569
1240.7	44.9043
1243.6	51.7744
1246.49	41.9199
1249.38	62.4209
1252.28	2.68457
1255.17	121.199
1258.06	43.9209
1260.95	58.4609
1263.85	59.5498
1266.74	73.8662
1269.63	130.867
1272.52	120.7
1275.42	9.87012
1278.31	63.0967
1281.2	98.0606
1284.09	89.3945
1286.99	39.7158
1289.88	97.9785
1292.77	99.1514
