Measurement: Raman, 785 nm, unoriented, Raman Data Processed
Mineral: Tavorite
Rruff sample: R070523
Ideal chemistry: LiFe^3+^PO_4_(OH)
Locality: Bull Moose mine, Custer District, Custer County, South Dakota, USA
Source: James Shigley
Description: Bright greenish-yellow vitreous crystals, associated with colorless triphylite, pale yellow hureaulite, and dark blue barbosalite.
Raman shift (cm-1)	intensity
135.863	0
138.756	1.13501
141.649	119.01
144.542	386.26
147.434	922.181
150.327	1346.22
153.22	1798.53
156.112	1711.69
159.005	1702.42
161.898	1510.69
164.791	1314.49
167.683	1203.66
170.576	1070.85
173.469	1039.37
176.361	992.853
179.254	1011.35
182.147	876.731
185.039	689.118
187.932	371.182
190.825	217.33
193.718	155.131
196.61	62.5251
199.503	63.2424
202.396	94.3518
205.288	11.4121
208.181	37.8599
211.074	46.4587
213.966	18.249
216.859	25.4548
219.752	3.91431
222.644	15.5049
225.537	51.7031
228.43	189.209
231.322	465.34
234.215	834.432
237.108	1179.35
240.001	1616.21
242.893	2200.87
245.786	3244.44
248.679	4617.35
251.571	4784.57
254.464	4202.79
257.357	4280.53
260.25	5109.65
263.142	6537.86
266.035	7833.46
268.928	7280.97
271.82	5796.62
274.713	4471.85
277.606	4241.82
280.498	4601.52
283.391	5029.02
286.284	4307.36
289.176	3146.73
292.069	2870.33
294.962	3071.44
297.855	3050.37
300.747	2313.47
303.64	1479.72
306.533	887.112
309.425	538.358
312.318	378.583
315.211	216.62
318.103	147.535
320.996	39.7949
323.889	75.0339
326.782	17.0691
329.674	2.65356
332.567	0.682617
335.46	18.259
338.352	21.9954
341.245	42.4665
344.138	31.3406
347.031	66.5759
349.923	180.286
352.816	265.472
355.709	464.366
358.601	714.552
361.494	1034.63
364.387	1404.41
367.279	1929.53
370.172	2250.4
373.065	1725.82
375.957	946.007
378.85	422.126
381.743	228.794
384.636	75.1831
387.528	82.5776
390.421	198.131
393.314	300.669
396.206	351.709
399.099	491.844
401.992	805.596
404.885	1168.46
407.777	923.3
410.67	359.593
413.563	27.064
416.455	14.9443
419.348	47.166
422.241	13.2258
425.133	8.20044
428.026	93.8127
430.919	202.192
433.811	356.817
436.704	595.192
439.597	928.554
442.49	1427
445.382	2051.42
448.275	2812.5
451.168	3685.81
454.06	4668.4
456.953	5305.48
459.846	4897.13
462.738	3958.3
465.631	2880.52
468.524	2115.38
471.416	1476.04
474.309	1070.79
477.202	823.685
480.095	563.663
482.987	409.831
485.88	368.151
488.773	401.595
491.665	421.714
494.558	531.067
497.451	739.035
500.344	925.533
503.236	1166.43
506.129	1383.93
509.022	1506.29
511.914	1222.51
514.807	871.377
517.7	568.249
520.592	395.738
523.485	264.478
526.378	186.172
529.27	120.552
532.163	75.009
535.056	35.7585
537.949	1.88696
540.841	59.2107
543.734	56.1775
546.627	4.61792
549.519	1.58643
552.412	4.91577
555.305	44.136
558.197	64.676
561.09	145.51
563.983	254.25
566.875	418.873
569.768	554.7
572.661	798.128
575.554	1063.72
578.446	1168.7
581.339	1036.86
584.232	706.143
587.125	557.231
590.017	517.053
592.91	551.93
595.803	640.055
598.695	789.833
601.588	977.028
604.481	1171.19
607.373	1284.87
610.266	1432.45
613.159	1776.09
616.052	2335.72
618.944	3187.49
621.837	3980.65
624.73	4348.08
627.622	3380.99
630.515	2024.12
633.408	1172.06
636.3	766.915
639.193	514.174
642.086	344.268
644.978	231.519
647.871	140.403
650.764	85.2886
653.657	61.5896
656.549	30.4993
659.442	9.91235
662.335	33.02
665.227	29.4302
668.12	14.0708
671.013	10.4636
673.905	13.9138
676.798	13.8604
679.691	0.372559
682.583	24.54
685.476	1.15503
688.369	3.49219
691.262	9.01929
694.154	19.147
697.047	24.7585
699.94	2.31445
702.832	6.55469
705.725	16.9145
708.618	43.8027
711.51	72.5789
714.403	118.626
717.296	80.3613
720.189	83.8959
723.081	75.8782
725.974	19.3375
728.867	11.319
731.759	13.5822
734.652	7.13708
737.545	0.161255
740.437	14.943
743.33	10.5376
746.223	12.1925
749.115	1.57495
752.008	40.5607
754.901	22.036
757.794	31.2004
760.686	69.0978
763.579	31.5405
766.472	53.6139
769.364	47.9546
772.257	101.92
775.15	144.05
778.043	196.59
780.935	241.978
783.828	288.324
786.721	281.028
789.613	284.539
792.506	299.142
795.399	220.086
798.291	160.075
801.184	111.559
804.077	70.8519
806.97	76.5126
809.862	81.416
812.755	29.1599
815.648	29.6481
818.54	41.9309
821.433	47.1423
824.326	19.5494
827.218	20.344
830.111	47.6394
833.004	17.4224
835.896	45.9529
838.789	55.2839
841.682	48.3348
844.575	42.6633
847.467	36.8784
850.36	22.4111
853.253	31.5636
856.145	8.1803
859.038	52.771
861.931	5.99097
864.823	22.9152
867.716	42.6157
870.609	40.3612
873.502	37.0776
876.394	42.4948
879.287	63.042
882.18	45.8373
885.072	104.134
887.965	72.8176
890.858	87.6459
893.75	108.953
896.643	90.1544
899.536	93.1633
902.429	143.801
905.321	128.511
908.214	124.983
911.107	114.965
913.999	66.6278
916.892	77.4075
919.785	48.7914
922.678	28.4565
925.57	11.6538
928.463	28.8103
931.356	4.72803
934.248	13.6117
937.141	13.9731
940.034	9.40832
942.926	9.27136
945.819	40.1743
948.712	7.36047
951.604	18.8766
954.497	25.8314
957.39	54.6796
960.283	98.9255
963.175	180.333
966.068	368.52
968.961	600.619
971.853	1007.74
974.746	1672.17
977.639	2475.06
980.531	3410.97
983.424	4158.92
986.317	3509.37
989.21	2239.89
992.102	1574.92
994.995	1285.47
997.888	1215.37
1000.78	1419.19
1003.67	2072.61
1006.57	3238.15
1009.46	5051.19
1012.35	8199.03
1015.24	12023.2
1018.14	13506.4
1021.03	16287.3
1023.92	18919.5
1026.82	11944.1
1029.71	5325.39
1032.6	2583.79
1035.49	1363.69
1038.38	741.582
1041.28	392.335
1044.17	247.814
1047.06	110.911
1049.96	67.5476
1052.85	116.535
1055.74	172.774
1058.63	273.086
1061.53	530.705
1064.42	888.081
1067.31	1256.54
1070.2	1495.91
1073.1	1335.31
1075.99	811.534
1078.88	399.396
1081.78	170.625
1084.67	71.1332
1087.56	6.88147
1090.45	25.9114
1093.35	33.9852
1096.24	59.4233
1099.13	16.3815
1102.03	41.2672
1104.92	105.636
1107.81	234.045
1110.7	427.89
1113.6	653.87
1116.49	830.728
1119.38	768.503
1122.27	523.761
1125.17	221.758
1128.06	105.021
1130.95	45.996
1133.84	15.7891
1136.74	2.76062
1139.63	10.2687
1142.52	7.02319
1145.41	10.7581
1148.31	3.85364
1151.2	23.0284
1154.09	17.7815
1156.99	4.83752
1159.88	0.889893
1162.77	4.17261
1165.66	40.858
1168.56	27.4093
1171.45	38.7037
1174.34	24.1267
1177.23	21.5851
1180.13	64.9769
1183.02	13.8258
1185.91	29.5936
1188.81	62.2173
1191.7	60.2918
1194.59	40.7118
1197.48	30.3508
1200.38	41.8036
1203.27	46.8372
1206.16	42.4119
1209.06	0.987183
1211.95	23.9501
1214.84	42.7587
1217.73	33.8169
1220.62	27.6364
1223.52	41.905
1226.41	63.2029
1229.3	52.0205
1232.2	38.971
1235.09	47.4948
1237.98	14.3252
1240.87	17.6882
1243.77	24.9917
1246.66	18.6551
1249.55	37.13
1252.44	22.0623
1255.34	34.4584
1258.23	35.2761
1261.12	28.4728
1264.02	29.9044
1266.91	20.4535
1269.8	21.7335
