Measurement: Raman, 532 nm, unoriented, Raman Data Processed
Mineral: Tavorite
Rruff sample: R140258
Ideal chemistry: LiFe^3+^PO_4_(OH)
Locality: Sandamap, Namibia
Source: Michael Scott
Description: Druse of pale yellowish-green crystals, associated with giniite (R060765), triphylite, heterosite, and hureaulite.
Raman shift (cm-1)	intensity
97.9792	0
101.354	6.26923
104.729	161.392
108.104	517.173
111.478	886.546
114.853	1305.27
118.228	1971.85
121.603	2447.46
124.978	2785.01
128.352	2386.77
131.727	842.723
135.102	347.193
138.477	161.782
141.852	70.2993
145.227	58.2515
148.601	49.4001
151.976	39.3518
155.351	44.294
158.726	67.3002
162.101	110.617
165.476	168.128
168.85	225.675
172.225	267.685
175.6	258.782
178.975	180.066
182.35	73.1782
185.724	1.95731
189.099	34.8683
192.474	31.1891
195.849	12.7629
199.224	10.0459
202.599	28.5704
205.973	40.492
209.348	44.6404
212.723	42.4594
216.098	42.9786
219.473	42.0454
222.847	51.7479
226.222	73.4629
229.597	127.23
232.972	206.036
236.347	313.849
239.721	482.653
243.096	784.915
246.471	1137.83
249.846	1227.43
253.221	1321.24
256.596	1716.98
259.97	2357.86
263.345	2808.12
266.72	2399.42
270.095	1660.28
273.47	1291.04
276.844	1271.71
280.219	1410.56
283.594	1214.87
286.969	788.798
290.344	690.957
293.719	707.087
297.093	614.594
300.468	417.891
303.843	254.645
307.218	155.459
310.593	91.4605
313.967	51.172
317.342	24.6715
320.717	7.21686
324.092	4.21967
327.467	8.42566
330.842	12.4104
334.216	5.15195
337.591	3.27792
340.966	10.297
344.341	36.8449
347.716	84.564
351.091	172.286
354.465	310.228
357.84	492.018
361.215	740.467
364.59	1090.8
367.964	1389.44
371.339	1107.71
374.714	529.032
378.089	216.218
381.464	91.6234
384.839	43.1935
388.213	39.0579
391.588	63.2431
394.963	100.999
398.338	187.904
401.713	347.386
405.087	411.139
408.462	156.02
411.837	20.1172
415.212	13.0808
418.587	16.1932
421.962	5.14328
425.336	15.4479
428.711	52.7653
432.086	105.997
435.461	195.834
438.836	334.454
442.211	541.006
445.585	805.207
448.96	1152.57
452.335	1542.44
455.71	1748.7
459.085	1565.95
462.459	1197.6
465.834	881.482
469.209	636.922
472.584	461.455
475.959	340.885
479.334	262.571
482.708	226.936
486.083	230.914
489.458	276.595
492.833	369.524
496.208	503.588
499.582	675.018
502.957	876.923
506.332	978.643
509.707	793.295
513.082	480.684
516.457	267.517
519.831	151.262
523.206	89.1873
526.581	51.9879
529.956	26.4647
533.331	12.0586
536.705	0.772797
540.08	6.23398
543.455	9.74994
546.83	8.24463
550.205	6.53979
553.58	0.58371
556.954	10.3448
560.329	32.634
563.704	66.3637
567.079	118.194
570.454	194.408
573.828	295.649
577.203	368.287
580.578	320.774
583.953	228.305
587.328	193.381
590.702	205.109
594.077	254.986
597.452	332.137
600.827	434.135
604.202	510.182
607.577	560.125
610.951	692.486
614.326	972.279
617.701	1401.33
621.076	1798.31
624.451	1586.2
627.825	949.29
631.2	526.171
634.575	311.724
637.95	194.398
641.325	127.236
644.699	87.8977
648.074	60.2887
651.449	42.2231
654.824	29.5722
658.199	19.5596
661.574	12.1974
664.948	7.24432
668.323	4.11881
671.698	2.68665
675.073	1.77161
678.448	0.575653
681.822	0.704834
685.197	2.90277
688.572	1.83243
691.947	0.319153
695.322	1.96658
698.697	1.82696
702.071	0.293213
705.446	0.716949
708.821	0.495575
712.196	2.53064
715.571	3.94775
718.946	3.71951
722.32	5.06934
725.695	9.63675
729.07	9.89047
732.445	11.7366
735.82	13.0259
739.194	17.3311
742.569	18.4975
745.944	18.9647
749.319	21.1824
752.694	24.8257
756.068	25.0531
759.443	30.3482
762.818	33.2415
766.193	40.1754
769.568	48.3695
772.943	61.1519
776.317	76.7665
779.692	94.1494
783.067	113.485
786.442	124.826
789.817	116.251
793.192	88.7097
796.566	63.5666
799.941	42.5964
803.316	30.5377
806.691	20.1213
810.066	15.8435
813.44	9.30542
816.815	7.88391
820.19	6.8122
823.565	4.74719
826.94	2.11249
830.314	1.46475
833.689	0.621368
837.064	1.0766
840.439	0.775848
843.814	1.04996
847.188	1.31149
850.563	1.05331
853.938	0.415161
857.313	4.63901
860.688	1.5264
864.063	2.26337
867.437	4.33511
870.812	4.72104
874.187	6.68558
877.562	11.0286
880.937	10.0387
884.312	14.0676
887.686	13.205
891.061	13.865
894.436	14.6809
897.811	12.2601
901.186	10.9335
904.56	10.4525
907.935	9.84338
911.31	8.91986
914.685	5.29471
918.06	4.28204
921.434	1.15439
924.809	0.052856
928.184	1.78244
931.559	3.80008
934.934	4.71783
938.309	5.09802
941.683	5.12012
945.058	1.99042
948.433	10.5353
951.808	23.5981
955.183	43.4201
958.558	67.0811
961.932	112.744
965.307	189.586
968.682	332.869
972.057	595.889
975.432	1018.89
978.806	1675.52
982.181	2396.56
985.556	1960.77
988.931	963.546
992.306	513.259
995.681	369.698
999.055	392.347
1002.43	576.902
1005.8	941.835
1009.18	1690.89
1012.55	2792.69
1015.93	3284.5
1019.3	4749.48
1022.68	5497.2
1026.05	2079.66
1029.43	753.514
1032.8	329.336
1036.18	147.071
1039.55	59.3527
1042.93	12.4807
1046.3	5.79761
1049.68	0.616669
1053.05	38.4234
1056.43	122.981
1059.8	253.49
1063.18	421.733
1066.55	567.242
1069.93	542.409
1073.3	318.478
1076.68	146.407
1080.05	54.6821
1083.43	13.357
1086.8	4.81854
1090.17	11.3631
1093.55	4.28378
1096.92	13.2993
1100.3	42.9049
1103.67	96.1172
1107.05	182.249
1110.42	289.772
1113.8	396.255
1117.17	388.296
1120.55	235.616
1123.92	109.856
1127.3	48.2684
1130.67	20.7688
1134.05	5.69321
1137.42	1.83203
1140.8	0.223267
1144.17	0.409088
1147.55	1.4231
1150.92	3.25363
1154.3	1.11557
1157.67	2.07153
1161.05	3.78369
1164.42	5.92801
1167.8	8.47415
1171.17	9.51294
1174.55	12.0075
1177.92	12.1845
1181.3	13.5351
1184.67	16.6978
1188.05	17.2771
1191.42	18.1934
1194.8	19.468
1198.17	17.9737
1201.54	13.907
1204.92	17.0066
1208.29	15.2099
1211.67	14.0828
1215.04	15.3848
1218.42	15.769
1221.79	15.3266
1225.17	16.2975
1228.54	15.0711
1231.92	13.9747
1235.29	12.127
1238.67	12.1927
1242.04	12.5607
1245.42	11.4374
1248.79	11.687
1252.17	11.7447
1255.54	10.1852
1258.92	10.5421
1262.29	10.5131
1265.67	7.45242
1269.04	6.97498
1272.42	4.35489
1275.79	4.53247
1279.16	2.02795
1282.54	0.781219
