Measurement: Raman, 780 nm, unoriented, Raman Data Processed
Mineral: Tavorite
Rruff sample: R140258
Ideal chemistry: LiFe^3+^PO_4_(OH)
Locality: Sandamap, Namibia
Source: Michael Scott
Description: Druse of pale yellowish-green crystals, associated with giniite (R060765), triphylite, heterosite, and hureaulite.
Raman shift (cm-1)	intensity
95.899	0
99.2738	1.2233
102.649	2.31046
106.023	19.1876
109.398	52.1352
112.773	110.761
116.148	193.493
119.523	305.141
122.897	384.57
126.272	234.127
129.647	98.1235
133.022	44.7384
136.397	22.963
139.772	12.9681
143.146	12.8225
146.521	13.1613
149.896	15.1144
153.271	18.0888
156.646	25.652
160.02	36.3933
163.395	47.5945
166.77	57.2769
170.145	58.0493
173.52	47.0294
176.894	31.4781
180.269	13.6267
183.644	2.27444
187.019	3.61139
190.394	2.95794
193.769	1.48369
197.143	1.58351
200.518	2.4215
203.893	4.04742
207.268	4.02493
210.643	4.01024
214.018	3.79792
217.392	5.44842
220.767	7.05879
224.142	11.2633
227.517	18.9001
230.892	31.4665
234.266	52.6515
237.641	84.5982
241.016	121.282
244.391	155.094
247.766	163.361
251.14	191.232
254.515	251.161
257.89	325.499
261.265	365.524
264.64	317.547
268.014	238.346
271.389	192.015
274.764	180.167
278.139	180.692
281.514	152.302
284.889	110.91
288.263	99.5872
291.638	96.3112
295.013	84.1669
298.388	61.4886
301.763	41.649
305.137	25.7079
308.512	15.3817
311.887	10.8261
315.262	5.99958
318.637	1.60207
322.012	0.004272
325.386	2.15268
328.761	1.63258
332.136	1.52823
335.511	0.256172
338.886	3.24548
342.26	6.88863
345.635	14.1705
349.01	24.6841
352.385	43.6502
355.76	73.1905
359.135	114.518
362.509	164.056
365.884	199.425
369.259	175.189
372.634	97.2255
376.009	44.232
379.383	17.8315
382.758	6.74924
386.133	1.57851
389.508	2.84057
392.883	7.62043
396.257	17.1439
399.632	31.3876
403.007	42.3787
406.382	24.8548
409.757	5.90711
413.132	0.395981
416.506	1.73605
419.881	0.630173
423.256	1.15244
426.631	5.55595
430.006	10.6298
433.38	18.3239
436.755	31.2665
440.13	47.4651
443.505	72.404
446.88	108.934
450.255	146.657
453.629	170.55
457.004	161.889
460.379	131.685
463.754	100.24
467.129	75.3224
470.503	55.9466
473.878	42.6775
477.253	32.266
480.628	26.5719
484.003	25.4456
487.377	24.9583
490.752	27.7209
494.127	34.6866
497.502	45.654
500.877	55.8703
504.252	58.7372
507.626	48.5742
511.001	31.6927
514.376	20.0084
517.751	12.292
521.126	7.22373
524.5	3.76126
527.875	1.88989
531.25	0.837975
534.625	0.704315
538	0.141335
541.375	1.13575
544.749	0.093399
548.124	0.225815
551.499	0.207008
554.874	1.1395
558.249	3.26012
561.623	4.89526
564.998	7.73945
568.373	12.7312
571.748	20.9251
575.123	27.2828
578.497	27.4932
581.872	22.3444
585.247	19.1882
588.622	19.5961
591.997	23.0586
595.371	29.0417
598.746	38.6273
602.121	46.0643
605.496	50.8619
608.871	58.8782
612.246	81.4441
615.62	116.258
618.995	147.745
622.37	139.657
625.745	93.8093
629.12	54.8858
632.494	32.7605
635.869	21.3501
639.244	13.8981
642.619	9.82297
645.994	6.72251
649.369	4.05933
652.743	3.21486
656.118	1.67012
659.493	1.99721
662.868	1.73698
666.243	0.291046
669.617	0.652321
672.992	0.460281
676.367	0.054722
679.742	0.301888
683.117	0.775208
686.491	0.458603
689.866	0.076477
693.241	0.491714
696.616	0.560665
699.991	0.233665
703.366	0.221859
706.74	0.21463
710.115	0.704937
713.49	0.394608
716.865	0.642223
720.24	0.88028
723.614	1.29712
726.989	0.610065
730.364	1.79961
733.739	0.465969
737.114	1.39421
740.489	1.94303
743.863	1.61535
747.238	1.77108
750.613	1.75603
753.988	1.9438
757.363	2.12316
760.737	1.86422
764.112	2.12277
767.487	3.02552
770.862	4.20873
774.237	4.11575
777.611	5.50781
780.986	6.1259
784.361	5.50349
787.736	5.49931
791.111	5.25724
794.486	3.55688
797.86	2.6701
801.235	1.4324
804.61	1.56654
807.985	1.61055
811.36	0.525692
814.734	0.528587
818.109	0.577255
821.484	0.148415
824.859	0.193645
828.234	0.665958
831.609	0.82349
834.983	0.636047
838.358	0.351402
841.733	0.536648
845.108	0.62138
848.483	0.553467
851.857	0.732189
855.232	0.23505
858.607	1.03954
861.982	0.733921
865.357	0.614059
868.731	1.10001
872.106	0.640121
875.481	1.08028
878.856	1.20343
882.231	1.67054
885.606	1.88209
888.98	2.00324
892.355	1.55077
895.73	1.80058
899.105	1.22544
902.48	0.958874
905.854	0.936665
909.229	0.735435
912.604	0.398064
915.979	0.291664
919.354	0.10173
922.729	0.129848
926.103	0.920616
929.478	0.098213
932.853	0.674755
936.228	1.00979
939.603	0.374649
942.977	0.075668
946.352	0.084328
949.727	1.56814
953.102	2.48646
956.477	4.24561
959.851	6.53276
963.226	10.0097
966.601	17.8797
969.976	28.0432
973.351	48.6016
976.726	81.1285
980.1	118.12
983.475	120.958
986.85	78.4578
990.225	48.6103
993.6	39.877
996.974	46.8405
1000.35	69.5188
1003.72	118.789
1007.1	201.255
1010.47	269.678
1013.85	301.989
1017.22	414.098
1020.6	399.245
1023.97	178.752
1027.35	74.9524
1030.72	37.3597
1034.1	19.877
1037.47	11.4902
1040.85	5.8702
1044.22	2.98976
1047.6	3.09285
1050.97	4.09667
1054.35	8.1143
1057.72	15.302
1061.1	24.5371
1064.47	30.3878
1067.85	25.897
1071.22	16.321
1074.6	6.73235
1077.97	2.50631
1081.35	0.558792
1084.72	0.367416
1088.09	1.19975
1091.47	1.25056
1094.84	0.326344
1098.22	1.38055
1101.59	3.18463
1104.97	5.3367
1108.34	11.7608
1111.72	15.2912
1115.09	15.0316
1118.47	9.37265
1121.84	5.22472
1125.22	1.89226
1128.59	1.38258
1131.97	0.705719
1135.34	0.622856
1138.72	0.741131
1142.09	0.480583
1145.47	0.332737
1148.84	0.090305
1152.22	0.374878
1155.59	0.307224
1158.97	0.535805
1162.34	1.08638
1165.71	1.02435
1169.09	1.17228
1172.46	1.23069
1175.84	0.98447
1179.21	1.44423
1182.59	0.941368
1185.96	1.56855
1189.34	1.0454
1192.71	1.59095
1196.09	1.32823
1199.46	1.45257
1202.84	1.34462
1206.21	0.883511
1209.59	0.962227
1212.96	0.555199
1216.34	0.934341
1219.71	0.567123
1223.09	0.644505
1226.46	1.96392
1229.84	1.05627
1233.21	0.982361
1236.59	0.855946
1239.96	1.06319
1243.34	0.374306
1246.71	0.200985
1250.09	0.355961
1253.46	0.35062
1256.84	0.528873
1260.21	0.860878
1263.59	0.363125
1266.96	0.349377
1270.33	0.084572
1273.71	0.8116
1277.08	0.291157
1280.46	0.65876
1283.83	0.251888
