Measurement: Raman, 785 nm, unoriented, Raman Data Processed
Mineral: Teallite
Rruff sample: R050434
Ideal chemistry: PbSnS_2_
Locality: Carhuaycollo, Carguaicollo District, Potosi, Bolivia
Source: University of Arizona Mineral Museum
Description: Grayish black massive aggregate of thin folia with warped and bent crystals
Measured chemistry: (Pb_0.71_Sn_1.29_)_Î£=2_S_2.00_
Raman shift (cm-1)	intensity
118.003	0
120.896	29.092
123.788	997.089
126.681	3268.84
129.574	3928.39
132.466	2408.86
135.359	1212.37
138.252	983.883
141.144	1405.88
144.037	1782.85
146.93	1490.68
149.822	944.816
152.715	577.837
155.608	490.697
158.501	633.835
161.393	545.604
164.286	639
167.179	715.464
170.071	463.853
172.964	321.149
175.857	230.147
178.749	37.32
181.642	21.771
184.535	10.401
187.428	37.205
190.32	24.11
193.213	107.978
196.106	99.823
198.998	207.269
201.891	286.301
204.784	352.681
207.676	437.414
210.569	454.05
213.462	489.504
216.355	444.446
219.247	445.047
222.14	386.01
225.033	309.986
227.925	232.292
230.818	193.137
233.711	140.97
236.604	129.83
239.496	36.099
242.389	70.666
245.282	9.276
248.174	4.633
251.067	6.514
253.96	1.877
256.852	20.325
259.745	29.676
262.638	50.968
265.53	14.427
268.423	5.232
271.316	5.406
274.209	2.861
277.101	0.638
279.994	34.413
282.887	27.643
285.779	13.82
288.672	61.509
291.565	112.186
294.457	159.626
297.35	199.542
300.243	239.853
303.136	263.285
306.028	260.453
308.921	193.641
311.814	214.935
314.706	176.805
317.599	110.948
320.492	145.707
323.384	101.311
326.277	92.444
329.17	77.278
332.063	92.019
334.955	31.592
337.848	78.242
340.741	50.686
343.633	88.238
346.526	81.648
349.419	87.771
352.311	68.687
355.204	66.331
358.097	47.937
360.99	51.608
363.882	69.291
366.775	52.061
369.668	70.436
372.56	61.305
375.453	50.303
378.346	44.949
381.238	32.312
384.131	25.459
387.024	57.561
389.917	45.427
392.809	25.316
395.702	35.797
398.595	22.583
401.487	30.63
404.38	18.38
407.273	34.138
410.165	4.466
413.058	1.933
415.951	32.133
418.844	25.124
421.736	42.048
424.629	43.563
427.522	48.432
430.414	29.684
433.307	42.635
436.2	53.204
439.092	20.154
441.985	32.598
444.878	7.702
447.771	55.075
450.663	10.22
453.556	18.989
456.449	20.623
459.341	22.083
462.234	36.859
465.127	28.45
468.02	14.571
470.912	11.8
473.805	55.041
476.698	6.98
479.59	9.172
482.483	23.584
485.376	44.313
488.268	25.684
491.161	61.146
494.054	62.432
496.947	7.521
499.839	46.782
502.732	23.477
505.625	25.922
508.517	32.331
511.41	0.841
514.303	22.823
517.195	28.372
520.088	23.433
522.981	38.818
525.873	75.005
528.766	11.921
531.659	57.767
534.552	8.221
537.444	56.783
540.337	1.404
543.23	39.886
546.122	28.334
549.015	37.49
551.908	51.729
554.8	23.109
557.693	15.356
560.586	23.896
563.479	24.691
566.371	11.891
569.264	25.485
572.157	14.945
575.049	23.298
577.942	33.315
580.835	12.837
583.727	31.154
586.62	43.935
589.513	6.864
592.406	38.5
595.298	31.71
598.191	22.838
601.084	44.199
603.977	23.976
606.869	0.745
609.762	24.029
612.655	38.189
615.547	22.33
618.44	9.223
621.333	33.325
624.225	54.175
627.118	19.625
630.011	34.729
632.904	32.887
635.796	24.671
638.689	13.184
641.582	50.612
644.474	39.923
647.367	76.743
650.26	49.062
653.152	10.244
656.045	74.633
658.938	7.275
661.831	34.302
664.723	21.952
667.616	58.618
670.509	78.576
673.401	34.727
676.294	32.41
679.187	54.364
682.079	52.428
684.972	17.262
687.865	38.574
690.758	27.021
693.65	29.762
696.543	31.552
699.436	8.727
702.328	58.351
705.221	26.314
708.114	62.008
711.006	27.844
713.899	24.439
716.792	10.378
719.685	43.513
722.577	32.395
725.47	28.546
728.363	4.809
731.255	66.768
734.148	20.553
737.041	13.015
739.933	18.274
742.826	36.188
745.719	15.387
748.612	26.247
751.504	27.979
754.397	33.114
757.29	29.308
760.182	20.437
763.075	39.395
765.968	7.864
768.86	6.529
771.753	72.57
774.646	36.183
777.539	17.687
780.431	54.701
783.324	31.443
786.217	31.793
789.109	25.105
792.002	37.131
794.895	0.671
797.787	70.927
800.68	42.832
803.573	1.157
806.466	67.527
809.358	0.742
812.251	34.305
815.144	57.518
818.036	85.198
820.929	9.474
823.822	47.639
826.714	49.167
829.607	55.347
832.5	74.413
835.393	57.287
838.285	24.053
841.178	13.289
844.071	29.192
846.963	41.623
849.856	29.506
852.749	10.153
855.641	37.126
858.534	190.322
861.427	74.314
864.32	74.805
867.212	63.734
870.105	80.319
872.998	46.652
875.89	65.893
878.783	24.346
881.676	8.4
884.568	48.002
887.461	52.419
890.354	5.229
893.247	46.032
896.139	61.095
899.032	47.891
901.925	25.966
904.817	46.792
907.71	5.851
910.603	49.893
913.495	36.841
916.388	14.046
919.281	36.339
922.174	1.17
925.066	50.342
927.959	22.94
930.852	28.08
933.744	16.672
936.637	24.613
939.53	51.951
942.422	27.203
945.315	68.898
948.208	37.353
951.101	49.749
953.993	5.361
956.886	24.936
959.779	83.574
962.671	45.894
965.564	62.835
968.457	40.085
971.349	53.908
974.242	57.249
977.135	60.313
980.028	49.435
982.92	42.479
985.813	36.452
988.706	61.859
991.598	13.217
994.491	24.783
997.384	42.877
1000.28	5.923
1003.17	38.903
1006.06	69.246
1008.96	100.715
1011.85	120.29
1014.74	34.638
1017.63	69.688
1020.52	74.453
1023.42	82.224
1026.31	9.101
1029.2	72.241
1032.1	69.19
1034.99	97.188
1037.88	46.119
1040.77	57.453
1043.67	71.308
1046.56	5.091
1049.45	71.186
1052.35	67.836
1055.24	71.771
1058.13	27.96
1061.02	101.683
1063.92	10.75
1066.81	31.196
1069.7	21.429
1072.59	23.929
1075.49	42.814
1078.38	46.87
1081.27	49.938
1084.16	57.952
1087.06	42.064
1089.95	38.955
1092.84	7.132
1095.74	183.408
1098.63	47.875
1101.52	83.578
1104.41	32.342
1107.31	30.218
1110.2	25.644
1113.09	39.575
1115.98	33.539
1118.88	35.612
1121.77	31.523
1124.66	40.214
1127.56	49.68
1130.45	38.883
1133.34	50.65
1136.23	32.147
1139.13	41.747
1142.02	31.673
1144.91	44.867
1147.8	32.041
1150.7	26.528
1153.59	10.025
1156.48	48.707
1159.38	53.587
1162.27	78.388
1165.16	24.212
1168.05	12.695
1170.95	29.062
1173.84	54.85
1176.73	2.551
1179.62	11.836
1182.52	18.535
1185.41	63.354
1188.3	38.229
1191.19	21.075
1194.09	43.933
1196.98	79.102
1199.87	13.364
1202.77	81.11
1205.66	95.208
1208.55	99.238
1211.44	16.031
1214.34	32.304
1217.23	11.917
1220.12	60.82
1223.01	46.137
1225.91	24.872
1228.8	86.605
1231.69	84.432
1234.59	22.239
1237.48	36.19
1240.37	31.107
1243.26	67.442
1246.16	59.614
1249.05	21.737
1251.94	4.248
