Measurement: Raman, 532 nm, unoriented, Raman Data Processed
Mineral: Teineite
Rruff sample: R100206
Ideal chemistry: Cu^2+^Te^4+^O_3_2H_2_O
Locality: Cole shaft, Bisbee, Cochise County, Arizona, USA
Source: Rob Lavinsky/Evan Jones
Description: Blue prismatic, associated with graemite, R100207, and cuprite
Raman shift (cm-1)	intensity
153.228	0
156.121	0.726482
159.014	8.96698
161.906	20.7551
164.799	44.9446
167.692	84.4706
170.584	122.018
173.477	125.632
176.37	149.174
179.263	196.351
182.155	162.641
185.048	81.772
187.941	48.2823
190.833	27.9169
193.726	16.1004
196.619	12.3268
199.512	9.92924
202.404	2.88179
205.297	4.21654
208.19	3.61116
211.082	0.898071
213.975	2.47047
216.868	11.4225
219.761	34.1688
222.653	52.2133
225.546	76.2497
228.439	125.626
231.331	212.78
234.224	377.094
237.117	433.919
240.009	237.635
242.902	125.775
245.795	90.5717
248.688	83.618
251.58	65.848
254.473	63.2997
257.366	63.4764
260.258	55.5578
263.151	47.0392
266.044	42.5667
268.936	47.4007
271.829	42.3512
274.722	36.8728
277.615	40.8543
280.507	38.1068
283.4	40.6422
286.293	44.5581
289.185	33.166
292.078	12.3247
294.971	0.50824
297.863	0.825638
300.756	17.4245
303.649	38.6251
306.541	49.3977
309.434	48.9621
312.327	57.2915
315.22	83.6161
318.112	115.517
321.005	131.28
323.898	103.454
326.791	61.0003
329.683	41.6327
332.576	43.9898
335.469	51.9475
338.361	69.379
341.254	102.888
344.147	148.56
347.039	206.632
349.932	226.599
352.825	173.8
355.717	98.9473
358.61	54.5127
361.503	27.4875
364.396	18.4774
367.288	7.30838
370.181	4.01181
373.074	2.06702
375.966	0.919744
378.859	0.234524
381.752	2.59536
384.644	0.254177
387.537	1.54302
390.43	1.75522
393.323	1.50282
396.215	2.16014
399.108	0.373301
402.001	1.82024
404.894	1.2312
407.786	0.517973
410.679	0.963825
413.572	3.40713
416.464	3.08263
419.357	2.60621
422.25	3.72859
425.142	4.99582
428.035	4.86646
430.928	3.09671
433.82	3.06437
436.713	4.89811
439.606	4.85924
442.499	6.2805
445.391	6.9591
448.284	9.3224
451.177	12.1329
454.069	9.53296
456.962	6.75536
459.855	4.56145
462.748	6.099
465.64	3.44013
468.533	2.76866
471.426	4.78646
474.318	9.4565
477.211	11.9071
480.104	21.0834
482.996	31.753
485.889	45.6206
488.782	64.2005
491.675	94.0047
494.567	131.264
497.46	175.226
500.353	245.799
503.245	324.932
506.138	413.058
509.031	482.317
511.923	490.297
514.816	437.701
517.709	343.745
520.602	253.819
523.494	183.619
526.387	134.902
529.28	100.382
532.172	72.5749
535.065	57.3184
537.958	45.8417
540.851	32.7347
543.743	25.4139
546.636	17.5603
549.529	13.3008
552.421	8.42315
555.314	4.17046
558.207	2.03786
561.099	0.562931
563.992	1.5145
566.885	0.174561
569.778	0.11211
572.67	0.286808
575.563	4.71187
578.456	4.13232
581.348	7.42252
584.241	9.03207
587.134	9.50674
590.027	10.8014
592.919	13.4763
595.812	11.7288
598.705	14.4322
601.597	12.3649
604.49	11.7851
607.383	10.0877
610.275	7.34036
613.168	3.19615
616.061	2.15268
618.953	0.966801
621.846	1.28453
624.739	1.44172
627.632	1.1745
630.524	3.10371
633.417	1.30285
636.31	2.87655
639.202	1.81075
642.095	1.4897
644.988	1.48587
647.881	2.61772
650.773	5.54424
653.666	16.9782
656.559	25.8442
659.451	37.2084
662.344	43.6577
665.237	39.6527
668.13	31.8984
671.022	26.2743
673.915	19.9559
676.808	10.2203
679.7	7.45738
682.593	9.39356
685.486	21.5604
688.378	42.7547
691.271	71.5365
694.164	91.5665
697.057	95.4342
699.949	86.5241
702.842	86.7596
705.735	95.1506
708.627	97.6615
711.52	83.4439
714.413	74.9658
717.305	72.1607
720.198	87.5974
723.091	118.241
725.984	176.285
728.876	264.997
731.769	390.024
734.662	550.435
737.554	721.937
740.447	823.62
743.34	738.883
746.232	533.558
749.125	339.484
752.018	218.872
754.91	142.731
757.803	97.1088
760.696	69.9397
763.589	52.2841
766.481	42.0658
769.374	40.4451
772.267	43.2191
775.159	45.6231
778.052	53.0981
780.945	59.4911
783.838	63.9038
786.73	63.8715
789.623	53.1148
792.516	38.9227
795.408	25.9173
798.301	11.9752
801.194	5.19092
804.087	1.75964
806.979	1.95724
809.872	2.82886
812.765	2.75862
815.657	2.46731
818.55	1.15603
821.443	1.12494
824.335	1.00263
827.228	1.74039
830.121	0.684145
833.014	0.766163
835.906	0.433487
838.799	2.43641
841.692	0.128649
844.584	1.57315
847.477	1.60171
850.37	3.08877
853.263	3.62404
856.155	5.43415
859.048	7.43767
861.941	5.97075
864.833	6.25206
867.726	7.11515
870.619	7.70223
873.511	8.24599
876.404	7.11187
879.297	8.48474
882.189	6.90282
885.082	8.01141
887.975	7.4261
890.868	7.46034
893.76	7.42596
896.653	7.42561
899.546	6.72401
902.438	7.50409
905.331	5.78036
908.224	4.90466
911.116	4.54188
914.009	7.15229
916.902	5.65289
919.795	3.24778
922.687	5.89464
925.58	6.52864
928.473	5.45155
931.365	6.15361
934.258	7.77658
937.151	7.03479
940.044	6.10955
942.936	5.45309
945.829	4.7354
948.722	3.78125
951.614	4.87167
954.507	3.68565
957.4	1.99524
960.293	2.48368
963.185	1.5999
966.078	4.15099
968.971	3.22989
971.863	3.21227
974.756	2.14146
977.649	3.12628
980.541	2.20296
983.434	2.73043
986.327	2.59677
989.22	-0.229377
992.112	1.52554
995.005	0.394101
997.898	0.594407
1000.79	1.38972
1003.68	0.199509
1006.58	0.337773
1009.47	0.066978
1012.36	0.560275
1015.25	0.769217
1018.15	0.015967
1021.04	2.49231
1023.93	1.68177
1026.83	1.12032
1029.72	2.88916
1032.61	2.82074
1035.5	2.66916
1038.4	0.23158
1041.29	2.23583
1044.18	0.602576
1047.07	0.547327
1049.97	0.676957
1052.86	1.52818
1055.75	0.131406
1058.64	1.89776
1061.54	0.225572
1064.43	1.68958
1067.32	0.477962
1070.21	0.893549
1073.11	1.3207
1076	1.25945
1078.89	1.89741
1081.79	1.82713
1084.68	2.51712
1087.57	2.55994
1090.46	0.227966
1093.36	1.82735
1096.25	2.30495
1099.14	1.36563
1102.04	1.52396
1104.93	1.35219
1107.82	2.58311
1110.71	2.43271
1113.61	2.42499
1116.5	2.83274
1119.39	1.01271
1122.28	1.04096
1125.18	1.25604
1128.07	0.278699
1130.96	2.20557
1133.86	1.68269
1136.75	1.73504
1139.64	0.192106
1142.53	2.69797
1145.43	0.704805
1148.32	2.51181
1151.21	1.85518
1154.1	0.504591
1157	2.18588
1159.89	0.452252
1162.78	1.68174
1165.67	0.173584
1168.57	1.60608
1171.46	1.20749
1174.35	0.298357
1177.24	1.72588
1180.14	0.157112
1183.03	1.61868
1185.92	1.38463
1188.82	1.71682
1191.71	1.79545
1194.6	2.51647
1197.49	0.838785
1200.39	2.03017
1203.28	2.11457
1206.17	1.20415
1209.07	1.7027
1211.96	0.622796
1214.85	1.408
1217.74	1.90649
1220.64	0.522489
1223.53	1.12529
1226.42	1.35325
1229.31	1.50775
1232.21	1.64731
1235.1	1.29797
1237.99	1.86407
1240.88	1.19647
1243.78	1.15513
1246.67	0.600966
1249.56	0.882375
1252.45	0.347302
1255.35	1.77425
1258.24	1.67934
1261.13	0.984564
1264.03	1.22145
1266.92	2.18941
1269.81	2.19858
1272.7	1.55484
1275.6	1.40026
1278.49	2.30972
1281.38	1.80773
1284.28	0.171826
1287.17	1.0992
1290.06	1.10309
1292.95	0.391478
1295.85	1.60276
1298.74	1.08567
1301.63	0.797985
