Measurement: Raman, 780 nm, unoriented, Raman Data Processed
Mineral: Tellurite
Rruff sample: R070606
Ideal chemistry: TeO_2_
Locality: Moctezuma mine, Moctezuma, Sonora, Mexico
Source: James Shigley
Description: Colorless massive crystalline, associated with quartz and tellurium
Raman shift (cm-1)	intensity
141.427	0
144.32	85.6406
147.213	163.901
150.106	37.3357
152.998	31.0376
155.891	86.2495
158.784	349.34
161.676	951.705
164.569	2536.18
167.462	4819.2
170.354	7232.58
173.247	9334.82
176.14	13394.4
179.032	20433.4
181.925	16664.8
184.818	9650.07
187.711	4315.84
190.603	1859.13
193.496	873.297
196.389	493.587
199.281	442.188
202.174	711.045
205.067	1341.05
207.959	2314.77
210.852	3677.47
213.745	5554.54
216.638	7513.51
219.53	9550.92
222.423	10704.6
225.316	11246.7
228.208	8901.05
231.101	5198.47
233.994	2847.99
236.887	1558.59
239.779	880.946
242.672	483.706
245.565	285.888
248.457	196.196
251.35	125.667
254.243	123.483
257.135	119.196
260.028	139.558
262.921	150.334
265.813	144.936
268.706	112.324
271.599	43.8497
274.492	71.0869
277.384	3.04053
280.277	26.1352
283.17	8.57929
286.062	4.10791
288.955	6.77832
291.848	9.85376
294.74	30.2474
297.633	14.6388
300.526	19.7427
303.419	35.8389
306.311	15.2559
309.204	44.9302
312.097	81.8416
314.989	112.533
317.882	139.065
320.775	133.978
323.668	169.845
326.56	145.467
329.453	54.8341
332.346	9.3598
335.238	44.9391
338.131	55.6683
341.024	148.238
343.916	232.432
346.809	321.76
349.702	400.722
352.595	407.247
355.487	344.652
358.38	264.205
361.273	195.807
364.165	150.431
367.058	100.401
369.951	50.5481
372.844	41.9475
375.736	28.9811
378.629	19.4038
381.522	33.8989
384.414	14.6527
387.307	19.074
390.2	58.3585
393.092	41.3397
395.985	49.9464
398.878	43.604
401.771	76.9814
404.663	82.0955
407.556	91.3124
410.449	129.698
413.341	156.576
416.234	168.131
419.127	241.284
422.019	339.642
424.912	469.082
427.805	674.444
430.697	895.467
433.59	1112.62
436.483	1292.17
439.376	1406.32
442.268	1281.53
445.161	1026.51
448.054	716.746
450.946	526.807
453.839	381.479
456.732	258.285
459.625	197.65
462.517	175.49
465.41	139.987
468.303	188.558
471.195	164.298
474.088	198.496
476.981	209.355
479.873	179.656
482.766	111.675
485.659	96.0587
488.551	82.1006
491.444	63.6528
494.337	46.1745
497.23	29.8492
500.122	39.644
503.015	0.867371
505.908	0.081421
508.8	3.15045
511.693	3.96332
514.586	13.1254
517.479	12.1784
520.371	23.8075
523.264	20.0557
526.157	25.7318
529.049	12.7056
531.942	4.6059
534.835	3.42554
537.727	14.8273
540.62	40.9952
543.513	54.754
546.405	112.827
549.298	175.271
552.191	227.647
555.084	339.863
557.976	465.572
560.869	664.519
563.762	859.259
566.654	1115.11
569.547	1349.69
572.44	1582.49
575.332	1710.29
578.225	1684.9
581.118	1572.92
584.011	1287.11
586.903	957.708
589.796	696.612
592.689	469.515
595.581	300.332
598.474	158.357
601.367	62.6099
604.26	21.7506
607.152	17.9848
610.045	57.4295
612.938	115.138
615.83	204.232
618.723	319.575
621.616	564.755
624.508	872.063
627.401	1284.17
630.294	1947.55
633.187	2902.79
636.079	4023.77
638.972	5453.3
641.865	6917.98
644.757	8055.82
647.65	8791.86
650.543	9747.38
653.435	11446.9
656.328	13793.9
659.221	15905.4
662.114	15006.4
665.006	10672.1
667.899	6383.08
670.792	3728.26
673.684	2265.64
676.577	1463.88
679.47	911.552
682.362	572.655
685.255	354.505
688.148	234.157
691.04	111.887
693.933	51.4264
696.826	17.7508
699.719	17.4139
702.611	42.3293
705.504	30.1034
708.397	12.2257
711.289	15.642
714.182	67.9918
717.075	122.5
719.967	161.984
722.86	187.195
725.753	203.174
728.646	178.968
731.538	123.178
734.431	92.7225
737.324	63.93
740.216	34.4194
743.109	32.3309
746.002	45.0057
748.894	17.164
751.787	12.172
754.68	44.9947
757.573	45.4557
760.465	31.8688
763.358	17.1703
766.251	3.64282
769.143	1.74567
772.036	10.4477
774.929	11.5458
777.822	21.2206
780.714	14.7686
783.607	3.12891
786.5	35.3178
789.392	23.0649
792.285	17.9038
795.178	35.807
798.07	27.7968
800.963	31.7927
803.856	38.1339
806.749	35.1319
809.641	22.9342
812.534	26.2274
815.427	20.3356
818.319	31.1284
821.212	14.8773
824.105	15.8703
826.997	33.1136
829.89	19.3674
832.783	14.0602
835.676	9.75668
838.568	27.3279
841.461	57.9705
844.354	18.7794
847.246	30.6517
850.139	0.692093
853.032	16.0571
855.924	1.48904
858.817	16.1972
861.71	11.3884
864.602	13.238
867.495	19.1579
870.388	16.1648
873.281	44.2874
876.173	19.5329
879.066	20.1617
881.959	7.28256
884.851	14.1184
887.744	20.7786
890.637	22.4709
893.529	24.8539
896.422	8.49486
899.315	12.5855
902.208	11.921
905.1	21.6128
907.993	17.1326
910.886	12.9308
913.778	5.50833
916.671	24.8198
919.564	5.23282
922.457	15.2494
925.349	8.39578
928.242	11.9346
931.135	6.05307
934.027	0.970276
936.92	10.6921
939.813	4.4203
942.705	2.08575
945.598	7.44954
948.491	1.25401
951.384	6.20537
954.276	12.9539
957.169	9.90752
960.062	4.42114
962.954	12.1065
965.847	20.0286
968.74	20.5519
971.632	1.78937
974.525	25.5586
977.418	17.6868
980.311	2.52719
983.203	18.3348
986.096	5.48445
988.989	11.082
991.881	16.3884
994.774	10.8762
997.667	19.1161
1000.56	20.2985
1003.45	7.27759
1006.35	22.9107
1009.24	13.8766
1012.13	2.34108
1015.02	6.18068
1017.92	12.8919
1020.81	27.743
1023.7	27.415
1026.59	8.19505
1029.49	22.0263
1032.38	24.0485
1035.27	23.067
1038.16	5.85498
1041.06	11.4417
1043.95	11.4011
1046.84	18.5969
1049.73	15.5929
1052.63	7.76234
1055.52	12.4428
1058.41	20.142
1061.31	11.0301
1064.2	1.49941
1067.09	9.61334
1069.98	20.8395
1072.88	11.0983
1075.77	8.25949
1078.66	11.7897
1081.56	12.2601
1084.45	21.4806
1087.34	9.54863
1090.23	27.5086
1093.13	2.12756
1096.02	8.78999
1098.91	4.2153
1101.8	11.8516
1104.7	5.7733
1107.59	31.8186
1110.48	26.2486
1113.38	25.3823
1116.27	15.0217
1119.16	7.25505
1122.05	5.78947
1124.95	16.4717
1127.84	11.3953
1130.73	8.53743
1133.62	12.7617
1136.52	14.4069
1139.41	17.0128
1142.3	15.3497
1145.19	13.0381
1148.09	17.7077
1150.98	9.9063
1153.87	13.657
1156.77	19.1735
1159.66	4.76259
1162.55	1.40724
1165.44	5.62682
1168.34	22.0275
1171.23	9.17009
1174.12	27.1664
1177.01	20.9977
1179.91	11.1721
1182.8	1.33101
1185.69	16.7241
1188.59	18.9513
1191.48	6.41446
1194.37	3.24123
1197.26	9.90192
1200.16	23.2689
1203.05	30.8904
1205.94	17.5381
1208.83	3.23442
1211.73	5.86034
1214.62	18.079
1217.51	13.3643
1220.4	19.9045
1223.3	15.641
1226.19	15.4603
1229.08	9.10008
1231.97	8.17337
1234.87	24.6891
1237.76	20.5882
1240.65	14.1214
1243.55	18.9767
1246.44	4.74281
1249.33	5.42775
1252.22	11.5299
1255.12	4.03923
1258.01	16.824
1260.9	8.32002
1263.8	18.1299
1266.69	6.06428
1269.58	5.58682
1272.47	6.80331
1275.37	5.50456
1278.26	3.52986
1281.15	0
