Measurement: Raman, 780 nm, unoriented, Raman Data Processed
Mineral: Tellurite
Rruff sample: R050285
Ideal chemistry: TeO_2_
Locality: Mina Bambollita, Moctezuma, Sonora, Mexico
Source: Marcus Origlieri
Description: Orange acicular crystals filling a fracture
Measured chemistry: Te_1.00_O_2_
Raman shift (cm-1)	intensity
92.5234	0
95.8983	0.634491
99.2731	161.119
102.648	366.974
106.023	424
109.397	587.442
112.772	867.556
116.147	1266.76
119.522	1922.53
122.897	1830.4
126.272	926.88
129.646	657.616
133.021	706.669
136.396	931.804
139.771	1217.35
143.146	1615.38
146.52	2125.56
149.895	1857.49
153.27	1110.45
156.645	602.523
160.02	221.207
163.395	121.838
166.769	124.184
170.144	177.154
173.519	215.063
176.894	114.621
180.269	60.8451
183.643	19.9767
187.018	2.40428
190.393	6.25163
193.768	8.63251
197.143	12.5972
200.518	24.8884
203.892	9.62166
207.267	11.389
210.642	27.9571
214.017	40.9643
217.392	61.2961
220.766	81.5555
224.141	105.929
227.516	147.453
230.891	128.538
234.266	75.3985
237.641	40.0504
241.015	20.4726
244.39	14.0907
247.765	11.9043
251.14	11.4161
254.515	10.1008
257.889	4.78233
261.264	0.402779
264.639	3.35378
268.014	8.90605
271.389	14.3012
274.764	21.2986
278.138	30.4012
281.513	38.0961
284.888	45.7365
288.263	43.6948
291.638	35.3165
295.012	34.1807
298.387	30.4498
301.762	21.9849
305.137	15.247
308.512	10.8253
311.887	8.01314
315.261	6.87695
318.636	10.4561
322.011	11.6149
325.386	12.4573
328.761	17.6729
332.135	22.5203
335.51	26.803
338.885	19.0671
342.26	3.76489
345.635	2.48079
349.01	4.03154
352.384	1.93153
355.759	8.18939
359.134	18.6382
362.509	37.5304
365.884	65.394
369.258	111.231
372.633	166.878
376.008	228.284
379.383	298.62
382.758	361.481
386.132	411.556
389.507	422.116
392.882	382.922
396.257	309.729
399.632	228.629
403.007	163.154
406.381	122.036
409.756	85.7569
413.131	67.3228
416.506	48.2819
419.881	34.7095
423.255	22.6183
426.63	17.193
430.005	13.042
433.38	12.8386
436.755	12.1526
440.13	12.8576
443.504	11.8377
446.879	7.25131
450.254	2.59513
453.629	0.964451
457.004	0.566696
460.378	0.823105
463.753	1.88654
467.128	0.65097
470.503	0.445747
473.878	1.60668
477.252	3.8501
480.627	4.70087
484.002	6.69409
487.377	3.43897
490.752	2.44517
494.127	3.93983
497.501	3.41245
500.876	3.81469
504.251	3.25182
507.626	2.32104
511.001	2.52597
514.375	1.06571
517.75	0.695715
521.125	0.095877
524.5	1.19781
527.875	0.337965
531.25	0.091539
534.624	1.4968
537.999	1.56166
541.374	0.588993
544.749	0.056187
548.124	0.975868
551.498	0.462734
554.873	1.94115
558.248	4.31756
561.623	8.43872
564.998	12.0165
568.372	17.5242
571.747	29.9941
575.122	43.6295
578.497	56.2709
581.872	65.2583
585.247	75.6273
588.621	75.6221
591.996	61.6662
595.371	33.1247
598.746	13.5726
602.121	4.2863
605.495	3.67232
608.87	11.0709
612.245	20.9374
615.62	40.6916
618.995	69.7846
622.37	120.635
625.744	212.503
629.119	366.892
632.494	577.391
635.869	782.773
639.244	1041.58
642.619	1317.57
645.993	1396.23
649.368	1002.26
652.743	567.664
656.118	351.642
659.493	269.148
662.867	236.336
666.242	161.441
669.617	97.04
672.992	64.5399
676.367	47.6466
679.741	37.8526
683.116	28.2622
686.491	20.6603
689.866	12.1788
693.241	8.01273
696.615	2.08739
699.99	0.127762
703.365	0.87009
706.74	2.09634
710.115	1.10943
713.49	3.13147
716.864	9.04213
720.239	11.7105
723.614	10.1484
726.989	7.15756
730.364	5.07496
733.739	2.63149
737.113	0.098167
740.488	2.47008
743.863	0.967907
747.238	2.14441
750.612	9.5307
753.987	17.7401
757.362	27.3679
760.737	37.7925
764.112	46.837
767.487	41.8629
770.861	28.53
774.236	23.0964
777.611	21.1116
780.986	20.9008
784.361	18.0795
787.736	14.2148
791.11	11.2549
794.485	8.83335
797.86	7.38304
801.235	4.22972
804.61	4.71775
807.984	4.05163
811.359	1.64086
814.734	1.1807
818.109	0.738571
821.484	0.617963
824.859	0.359995
828.233	0.085176
831.608	0.644634
834.983	0.863077
838.358	1.85115
841.733	0.782574
845.107	1.1219
848.482	2.1345
851.857	1.39927
855.232	1.50132
858.607	0.767088
861.981	1.86575
865.356	1.12882
868.731	1.81492
872.106	1.5488
875.481	1.27877
878.856	1.26069
882.23	0.995749
885.605	1.17164
888.98	0.476774
892.355	0.4976
895.73	0.096415
899.105	0.597925
902.479	0.883807
905.854	0.27493
909.229	0.672788
912.604	0.689272
915.979	0.541656
919.353	0.227576
922.728	0.479919
926.103	0.632205
929.478	0.104179
932.853	0.341225
936.227	0.401786
939.602	0.478472
942.977	0.107111
946.352	0.778876
949.727	0.571931
953.102	0.112928
956.476	0.414839
959.851	0.263228
963.226	0.621845
966.601	0.263643
969.976	0.113055
973.35	0.113049
976.725	0.469546
980.1	0.24669
983.475	0.253329
986.85	0.146118
990.225	0.957261
993.599	0.661321
996.974	0.743338
1000.35	0.8531
1003.72	0.62866
1007.1	0.554081
1010.47	1.05616
1013.85	0.584071
1017.22	1.05351
1020.6	1.14166
1023.97	0.618733
1027.35	0.387683
1030.72	0.388743
1034.1	0.419949
1037.47	0.22949
1040.85	0.135755
1044.22	1.05826
1047.6	0.468409
1050.97	0.481562
1054.35	0.23555
1057.72	0.058787
1061.1	0.183156
1064.47	0.933267
1067.85	0.355908
1071.22	0.35517
1074.6	0.65928
1077.97	0.351507
1081.34	0.511269
1084.72	0.767466
1088.09	0.64115
1091.47	0.168312
1094.84	0.45624
1098.22	0.347174
1101.59	0.392883
1104.97	0.370566
1108.34	0.076452
1111.72	0.719527
1115.09	0.342182
1118.47	0.230597
1121.84	0.206626
1125.22	0.607734
1128.59	0.231888
1131.97	0.245614
1135.34	0.11299
1138.72	0.182735
1142.09	0.218152
1145.47	0.665647
1148.84	0.017601
1152.22	0.170471
1155.59	0.145548
1158.96	0.018573
1162.34	0.493448
1165.71	0.981242
1169.09	0.806016
1172.46	0.873794
1175.84	1.15759
1179.21	1.62097
1182.59	1.49947
1185.96	1.29949
1189.34	1.21635
1192.71	1.1722
1196.09	1.34403
1199.46	1.29831
1202.84	1.12198
1206.21	1.51839
1209.59	1.47183
1212.96	1.24492
1216.34	1.0733
1219.71	1.08184
1223.09	1.19929
1226.46	0.893826
1229.84	1.57591
1233.21	0.978224
1236.59	1.06735
1239.96	1.27795
1243.34	1.54043
1246.71	1.38586
1250.09	1.67429
1253.46	1.51574
1256.84	1.25759
1260.21	2.03405
1263.59	1.93896
1266.96	2.1984
1270.33	1.86164
1273.71	2.30453
1277.08	2.27316
1280.46	2.77144
1283.83	2.27
1287.21	0.112247
1290.58	0.070515
1293.96	0.267239
1297.33	0.189081
1300.71	0.092533
1304.08	0.005426
