Measurement: Raman, 532 nm, unoriented, Raman Data Processed
Mineral: Tellurite
Rruff sample: R050285
Ideal chemistry: TeO_2_
Locality: Mina Bambollita, Moctezuma, Sonora, Mexico
Source: Marcus Origlieri
Description: Orange acicular crystals filling a fracture
Measured chemistry: Te_1.00_O_2_
Raman shift (cm-1)	intensity
92.3535	0
95.7283	50.9896
99.1031	14.709
102.478	122.646
105.853	445.47
109.228	657.286
112.602	913.899
115.977	1570.41
119.352	3266.6
122.727	4868.46
126.102	3115.24
129.476	2063.51
132.851	2495.14
136.226	3316.71
139.601	4437.12
142.976	6115.93
146.351	9224.23
149.725	10354.4
153.1	7046.88
156.475	4787.52
159.85	2052.66
163.225	1030.06
166.6	740.156
169.974	798.707
173.349	1021.37
176.724	847.879
180.099	366.698
183.474	167.498
186.848	201.634
190.223	257.754
193.598	171.278
196.973	105.775
200.348	43.2672
203.722	87.4446
207.097	140.652
210.472	147.567
213.847	138.284
217.222	110.184
220.596	95.7129
223.971	101.405
227.346	166.328
230.721	230.662
234.096	203.653
237.471	96.7576
240.845	13.0499
244.22	17.3418
247.595	27.3422
250.97	29.4267
254.345	26.9063
257.719	19.4943
261.094	11.334
264.469	4.5135
267.844	11.0889
271.219	35.4138
274.594	57.2365
277.968	84.5352
281.343	121.358
284.718	173.875
288.093	176.699
291.468	110.129
294.842	96.2785
298.217	94.7546
301.592	86.1736
304.967	76.1719
308.342	62.3756
311.717	46.3517
315.091	35.3473
318.466	31.1119
321.841	33.5836
325.216	29.1233
328.591	43.8594
331.966	63.5633
335.34	98.9581
338.715	94.7732
342.09	38.2615
345.465	3.80275
348.84	5.69041
352.214	5.72199
355.589	8.4189
358.964	33.0736
362.339	75.9604
365.714	151.75
369.089	261.694
372.463	426.271
375.838	651.282
379.213	928.652
382.588	1238.84
385.963	1545.82
389.337	1701.46
392.712	1664.52
396.087	1441.52
399.462	1121.57
402.837	828.163
406.212	621.623
409.586	495.36
412.961	399.189
416.336	308.979
419.711	222.57
423.086	157.368
426.46	113.947
429.835	85.7665
433.21	68.0188
436.585	54.0925
439.96	42.9827
443.334	33.5602
446.709	22.6524
450.084	13.5208
453.459	9.02048
456.834	5.92964
460.209	2.53799
463.583	2.32677
466.958	6.8846
470.333	9.38802
473.708	17.6003
477.083	21.854
480.457	25.4637
483.832	30.9935
487.207	30.6727
490.582	29.1218
493.957	28.6803
497.332	23.5076
500.706	21.9656
504.081	18.4551
507.456	12.4645
510.831	9.11447
514.206	5.86233
517.58	0.916534
520.955	1.81407
524.33	3.87619
527.705	5.18428
531.08	7.70558
534.455	10.0139
537.829	7.34564
541.204	6.74817
544.579	6.3192
547.954	2.91951
551.329	1.44827
554.703	6.19328
558.078	9.40071
561.453	18.7014
564.828	33.2034
568.203	54.6142
571.577	100.191
574.952	161.256
578.327	244.459
581.702	344.772
585.077	468.284
588.452	544.485
591.826	497.745
595.201	306.129
598.576	137.697
601.951	46.9886
605.326	16.0881
608.7	21.5066
612.075	58.9912
615.45	127.815
618.825	235.409
622.2	414.736
625.574	703.802
628.949	1218.49
632.324	2083.09
635.699	3268.54
639.074	4874.86
642.449	6937.4
645.823	8162.79
649.198	6485.52
652.573	3619.77
655.948	1978.33
659.323	1236.31
662.697	853.601
666.072	597.638
669.447	430.537
672.822	338.322
676.197	274.722
679.572	223.534
682.946	178.543
686.321	139.153
689.696	101.089
693.071	71.9116
696.446	39.7038
699.821	16.3098
703.195	0.399109
706.57	12.3297
709.945	5.84393
713.32	7.6694
716.695	31.4933
720.069	49.4261
723.444	45.3219
726.819	49.0896
730.194	55.3338
733.569	54.0046
736.943	23.8009
740.318	5.06757
743.693	13.2316
747.068	6.47931
750.443	7.93861
753.818	33.8274
757.192	70.3983
760.567	126.482
763.942	177.444
767.317	183.418
770.692	153.975
774.067	137.503
777.441	152.746
780.816	163.99
784.191	156.482
787.566	119.582
790.941	92.1264
794.315	76.0173
797.69	64.7695
801.065	49.6582
804.44	31.3695
807.815	16.2844
811.189	10.4588
814.564	9.3119
817.939	4.36645
821.314	2.95133
824.689	3.34533
828.063	1.164
831.438	2.85755
834.813	3.67186
838.188	5.01827
841.563	5.22462
844.938	6.3342
848.312	5.6684
851.687	4.5589
855.062	5.70251
858.437	4.42208
861.812	4.97458
865.187	4.66016
868.561	4.32356
871.936	5.55032
875.311	4.6708
878.686	5.5448
882.061	4.24313
885.435	1.41246
888.81	0.468349
892.185	1.18918
895.56	0.144783
898.935	0.492008
902.309	0.23093
905.684	0.302212
909.059	0.394142
912.434	0.006676
915.809	0.690521
919.184	0.426971
922.558	2.2284
925.933	1.26082
929.308	1.86847
932.683	1.25645
936.058	1.63056
939.433	1.10064
942.807	0.431637
946.182	1.22464
949.557	0.36763
952.932	1.49218
956.307	0.007473
959.681	0.460941
963.056	0.372875
966.431	2.76545
969.806	0.596642
973.181	1.10726
976.556	0.559799
979.93	0.051701
983.305	2.05424
986.68	2.53616
990.055	3.27386
993.43	3.64444
996.804	4.76949
1000.18	4.0095
1003.55	3.85736
1006.93	3.77493
1010.3	4.64537
1013.68	4.22549
1017.05	4.88062
1020.43	4.2584
1023.8	4.34043
1027.18	3.14262
1030.55	3.28551
1033.93	1.30401
1037.3	0.796806
1040.68	1.33544
1044.05	1.02863
1047.43	0.290199
1050.8	0.190319
1054.18	0.026539
1057.55	1.03713
1060.93	1.06765
1064.3	1.92086
1067.68	1.07126
1071.05	2.20152
1074.42	2.86571
1077.8	1.40606
1081.17	2.11103
1084.55	2.09243
1087.92	1.70104
1091.3	2.16635
1094.67	1.6053
1098.05	2.64661
1101.42	2.49619
1104.8	1.67244
1108.17	0.971661
1111.55	0.264877
1114.92	2.09721
1118.3	0.721462
1121.67	0.653362
1125.05	0.278713
1128.42	1.29295
1131.8	1.69776
1135.17	0.024769
1138.55	0.768082
1141.92	1.27724
1145.3	0.05772
1148.67	2.54882
1152.05	1.64131
1155.42	0.53875
1158.8	3.14377
1162.17	2.35648
1165.55	5.0641
1168.92	6.51242
1172.3	5.83947
1175.67	7.27011
1179.04	7.94576
1182.42	9.67419
1185.79	9.2437
1189.17	9.45456
1192.54	8.22083
1195.92	7.77847
1199.29	7.12221
1202.67	7.88198
1206.04	6.85833
1209.42	6.90729
1212.79	6.3334
1216.17	4.58298
1219.54	4.41686
1222.92	3.91472
1226.29	3.78471
1229.67	1.57702
1233.04	2.01012
1236.42	2.69452
1239.79	0.855988
1243.17	0.987215
1246.54	0.406881
1249.92	1.81826
1253.29	0.141853
1256.66	0.135948
1260.04	0.254387
1263.41	0.637016
1266.79	2.07913
1270.16	0.038136
1273.54	0.499952
1276.91	0.613142
1280.29	0.208574
1283.66	1.18932
1287.04	1.97849
1290.41	1.55517
1293.79	1.52111
1297.16	2.13769
1300.54	1.36052
1303.91	0.271059
