Measurement: Raman, 532 nm, unoriented, Raman Data Processed
Mineral: Tellurium
Rruff sample: R060136
Ideal chemistry: Te
Locality: Good Hope mine, Vulcan District, Gunnison County, Colorado, USA
Source: University of Arizona Mineral Museum
Description: Steel gray metallic fragment
Measured chemistry: (Te_0.99_Sb_0.01_)_Î£=1_
Raman shift (cm-1)	intensity
120.637	0
124.012	10.6728
127.387	22.8893
130.762	32.1058
134.136	61.7267
137.511	136.668
140.886	190.035
144.261	47.745
147.636	13.9288
151.011	11.2218
154.385	8.38378
157.76	5.78626
161.135	8.24223
164.51	7.3817
167.885	7.26957
171.259	8.14128
174.634	7.71696
178.009	7.6597
181.384	4.84804
184.759	3.62177
188.133	0.36586
191.508	1.51977
194.883	1.59196
198.258	1.71356
201.633	1.04595
205.008	0.510582
208.382	1.38038
211.757	2.52158
215.132	5.04807
218.507	5.98217
221.882	7.31661
225.256	6.78542
228.631	7.18459
232.006	4.73238
235.381	4.40103
238.756	3.70589
242.131	4.48801
245.505	6.29855
248.88	9.5288
252.255	12.0703
255.63	16.3167
259.005	20.5831
262.38	24.632
265.754	24.1828
269.129	21.8652
272.504	19.5173
275.879	14.3375
279.254	11.3398
282.628	8.26004
286.003	5.69808
289.378	4.31099
292.753	3.54061
296.128	2.28423
299.503	2.06929
302.877	2.20452
306.252	1.44793
309.627	1.11349
313.002	0.566708
316.377	0.371258
319.752	1.10652
323.126	0.469664
326.501	0.067814
329.876	0.759398
333.251	0.329096
336.626	0.151761
340	0.13743
343.375	0.281145
346.75	0.194551
350.125	0.92859
353.5	1.13214
356.875	0.768913
360.249	0.758525
363.624	0.259367
366.999	0.167128
370.374	1.71349
373.749	0.787916
377.123	0.831417
380.498	0.430885
383.873	0.494297
387.248	1.07493
390.623	0.856772
393.998	1.80696
397.372	1.07764
400.747	0.999401
404.122	1.6873
407.497	1.02037
410.872	1.26484
414.247	1.0998
417.621	1.06086
420.996	0.862758
424.371	0.201544
427.746	0.356113
431.121	0.873006
434.495	0.62274
437.87	0.441607
441.245	0.920144
444.62	0.296911
447.995	0.911972
451.37	0.986656
454.744	0.227198
458.119	0.160235
461.494	0.600383
464.869	0.657278
468.244	0.814987
471.618	0.71868
474.993	0.906646
478.368	1.12931
481.743	0.830282
485.118	0.948296
488.493	0.77945
491.867	0.711409
495.242	0.029767
498.617	0.388844
501.992	0.837946
505.367	0.429429
508.741	0.756707
512.116	0.635361
515.491	0.037012
518.866	0.376161
522.241	0.388984
525.616	1.39183
528.99	0.234569
532.365	1.92626
535.74	0.827163
539.115	1.17593
542.49	0.477483
545.865	1.15546
549.239	0.203321
552.614	0.58741
555.989	1.49007
559.364	1.28812
562.739	1.1871
566.114	0.281715
569.488	0.966291
572.863	0.744506
576.238	0.548284
579.613	1.70449
582.987	0.735974
586.362	0.5434
589.737	1.07628
593.112	0.934505
596.487	0.311425
599.862	0.260035
603.236	0.488501
606.611	0.657008
609.986	0.415496
613.361	0.547296
616.736	0.004138
620.111	0.067022
623.485	0.514922
626.86	0.977567
630.235	0.449577
633.61	0.428491
636.985	1.57823
640.36	1.07031
643.734	1.19219
647.109	2.65608
650.484	2.10203
653.859	2.02689
657.234	3.167
660.609	2.26477
663.983	2.10799
667.358	1.97076
670.733	1.53002
674.108	0.863195
677.482	1.10345
680.857	0.477492
684.232	1.35239
687.607	0.032252
690.982	0.605891
694.357	0.206421
697.731	0.625228
701.106	0.038373
704.481	0.18873
707.856	0.512336
711.231	0.79025
714.606	0.180333
717.98	0.568892
721.355	0.885067
724.73	0.597073
728.105	0.150231
731.48	0.927724
734.855	0.360617
738.229	0.064301
741.604	1.08282
744.979	0.270177
748.354	0.985426
751.729	0.635117
755.103	0.498063
758.478	0.638308
761.853	0.512006
765.228	0.615711
768.603	0.428639
771.977	1.22038
775.352	0.219014
778.727	0.355764
782.102	1.34153
785.477	0.427255
788.852	0.613753
792.226	0.539498
795.601	1.49946
798.976	0.539936
802.351	0.798641
805.726	1.53765
809.101	0.157586
812.475	0.491029
815.85	1.38935
819.225	1.74054
822.6	0.722974
825.975	0.885611
829.35	1.45317
832.724	0.864908
836.099	0.592716
839.474	1.10505
842.849	1.23395
846.224	1.56554
849.598	1.50902
852.973	1.22302
856.348	1.41381
859.723	1.58419
863.098	1.74917
866.472	1.55925
869.847	1.06878
873.222	1.115
876.597	1.37204
879.972	1.35732
883.347	0.605206
886.721	0.448369
890.096	0.8569
893.471	0.693151
896.846	0.42268
900.221	0.493196
903.596	0.251898
906.97	0.259396
910.345	0.321718
913.72	0.08162
917.095	0.786913
920.47	0.337826
923.845	0.477345
927.219	0.308543
930.594	0.117365
933.969	0.368126
937.344	0.168564
940.719	0.547104
944.093	0.16352
947.468	0.493243
950.843	0.611294
954.218	0.319695
957.593	0.173994
960.967	0.367773
964.342	0.408273
967.717	0.855331
971.092	0.617949
974.467	0.025771
977.842	0.469973
981.216	0.593664
984.591	0.497382
987.966	1.48051
991.341	0.974527
994.716	0.443183
998.091	0.814514
1001.47	1.12677
1004.84	0.090348
1008.22	0.131612
1011.59	0.755965
1014.97	0.859961
1018.34	0.803228
1021.71	0.511749
1025.09	0.491653
1028.46	0.766553
1031.84	1.04179
1035.21	0.366187
1038.59	1.01075
1041.96	1.14102
1045.34	1.17876
1048.71	1.121
1052.09	0.955516
1055.46	0.700061
1058.84	0.588283
1062.21	0.885395
1065.59	0.607221
1068.96	1.21283
1072.34	0.024697
1075.71	0.527533
1079.09	0.61276
1082.46	0.366313
1085.84	0.763899
1089.21	0.146863
1092.59	0.239834
1095.96	0.967408
1099.34	0.110827
1102.71	0.292111
1106.09	0.057386
1109.46	0.76856
1112.83	0.547463
1116.21	1.18881
1119.58	1.20147
1122.96	0.560895
1126.33	0.157263
1129.71	0.579102
1133.08	0.550151
1136.46	0.380934
1139.83	1.48374
1143.21	0.906186
1146.58	0.507885
1149.96	1.2154
1153.33	0.863316
1156.71	0.474831
1160.08	1.45077
1163.46	0.127923
1166.83	0.389656
1170.21	0.597845
1173.58	0.512952
1176.96	0.206393
1180.33	0.704512
1183.71	0.551584
1187.08	0.876867
1190.45	0.956017
1193.83	1.02352
1197.2	0.662995
1200.58	0.331041
1203.95	0.462612
1207.33	0.444097
1210.7	0.358727
1214.08	0.499199
1217.45	0.795293
1220.83	1.47279
1224.2	0.477997
1227.58	0.696446
1230.95	0.495324
1234.33	0.646321
1237.7	0.935506
1241.08	0.937513
1244.45	0.985794
1247.83	0.550132
1251.2	0.362768
1254.58	0.803946
1257.95	1.1215
1261.33	0.475927
1264.7	0.683589
1268.08	1.02954
1271.45	1.29862
1274.83	0.610298
1278.2	0.072042
1281.58	0.389858
1284.95	1.22597
1288.33	0.685225
1291.7	0.951872
1295.08	0.186205
1298.45	0.718131
1301.82	0
