Measurement: Raman, 514 nm, unoriented, Raman Data Processed
Mineral: Tellurite
Rruff sample: R050285
Ideal chemistry: TeO_2_
Locality: Mina Bambollita, Moctezuma, Sonora, Mexico
Source: Marcus Origlieri
Description: Orange acicular crystals filling a fracture
Measured chemistry: Te_1.00_O_2_
Raman shift (cm-1)	intensity
52.866	0
57.065	280.027
61.262	970.92
65.458	206.633
69.651	157.849
73.842	31.094
78.031	0.174
82.218	72.653
86.404	209.189
90.587	709.592
94.768	2717.03
98.947	7591.62
103.124	10530.8
107.3	3730.1
111.473	1649.39
115.644	2084.96
119.813	3705.57
123.981	3809.27
128.146	1780.01
132.309	885.589
136.47	989.976
140.63	1830.05
144.787	3529.91
148.942	4917.57
153.096	3886.15
157.247	2543.81
161.396	1591.57
165.544	1716.46
169.689	2878.49
173.833	8233.35
177.974	23406.4
182.114	36522
186.251	21082.1
190.387	8007.46
194.52	3502.2
198.652	1959.63
202.782	1682.18
206.909	2127.11
211.035	3791.26
215.159	7298.52
219.281	12948.8
223.4	19910.4
227.518	27293.7
231.634	17247.3
235.748	7291.18
239.86	3458.29
243.97	1916.83
248.079	1169.22
252.185	779.965
256.289	544.989
260.391	429.252
264.492	261.719
268.59	178.367
272.687	127.177
276.781	117.136
280.874	76.23
284.964	93.416
289.053	20.66
293.14	19.947
297.225	9.748
301.308	29.473
305.389	61.286
309.468	70.232
313.545	41.314
317.62	44.539
321.693	242.441
325.765	536.413
329.834	280.453
333.902	41.438
337.967	60.068
342.031	95.652
346.093	556.847
350.153	1065.76
354.21	1170.29
358.267	1009.07
362.321	908.656
366.373	694.858
370.423	521.131
374.471	520.503
378.518	600.974
382.563	754.552
386.605	967.267
390.646	1091.11
394.685	1112.08
398.722	1007.26
402.757	859.383
406.79	778.751
410.821	757.234
414.851	732.645
418.878	811.511
422.904	981.302
426.927	1299.19
430.949	1905.18
434.969	3233.27
438.987	5312.46
443.003	6087.75
447.018	4698.14
451.03	2890.43
455.041	1643.71
459.049	1034.47
463.056	634.491
467.061	419.089
471.064	307.972
475.065	427.606
479.064	513.845
483.062	396.276
487.057	180.842
491.051	82.545
495.043	25.835
499.032	20.229
503.02	24.636
507.007	39.468
510.991	44.187
514.973	19.829
518.954	33.348
522.933	24.323
526.91	22.231
530.885	156.398
534.858	247.832
538.829	329.519
542.799	483.434
546.766	658.554
550.732	890.86
554.696	1258.34
558.658	1807.99
562.618	2745.3
566.576	4103.79
570.533	6207.93
574.488	9255.23
578.44	11844.7
582.391	12234.3
586.341	10021.1
590.288	7009.05
594.233	4737.15
598.177	3343.03
602.119	2453.85
606.059	1956.44
609.997	1701.19
613.933	1689.13
617.868	1898.27
621.801	2223.67
625.731	2897.39
629.66	3844.48
633.588	5877.93
637.513	9792.61
641.437	17643.5
645.358	27050.4
649.278	27568.6
653.196	25682.1
657.113	34257.4
661.027	57405.4
664.94	55107.4
668.851	26845.7
672.76	12779.9
676.667	7072.67
680.572	4533.92
684.476	3007.12
688.378	2141.27
692.278	1608.82
696.176	1220.59
700.072	1009.05
703.967	793.385
707.86	731.208
711.751	722.731
715.64	903.956
719.527	1202.24
723.413	1468.62
727.297	1340
731.179	1103.41
735.059	708.866
738.937	504.45
742.814	333.015
746.689	245.042
750.562	195.047
754.433	156.928
758.303	159.813
762.17	192.559
766.036	201.585
769.901	158.043
773.763	139.466
777.624	90.029
781.482	82.17
785.339	82.524
789.195	37.388
793.048	26.935
796.9	20.293
800.75	9.6
804.598	15.776
808.445	14.486
812.289	1.373
816.132	13.822
819.973	29.182
823.813	5.715
827.65	8.345
831.486	26.174
835.32	33.354
839.152	15.762
842.983	60.436
846.812	28.409
850.639	10.597
854.464	4.028
858.288	19.52
862.11	21.901
865.93	29.183
869.748	62.376
873.564	29.482
877.379	60.496
881.192	63.42
885.004	50.253
888.813	50.992
892.621	46.636
896.427	27.184
900.232	21.63
904.034	55.966
907.835	49.194
911.634	32.314
915.432	23.316
919.227	24.184
923.021	31.92
926.813	31.534
930.604	25.023
934.393	7.375
938.18	40.578
941.965	34.644
945.749	46.577
949.53	40.391
953.311	52.082
957.089	81.653
960.866	63.898
964.641	71.486
968.414	64.622
972.185	72.409
975.955	46.725
979.723	57.162
983.49	70.452
987.254	72.504
991.017	56.592
994.779	65.866
998.538	47.559
1002.3	54.143
1006.05	82.823
1009.81	68.144
1013.56	85.593
1017.31	71.393
1021.06	84.468
1024.81	73.325
1028.55	88.208
1032.3	74.993
1036.04	85.784
1039.78	77.559
1043.52	66.127
1047.26	71.732
1050.99	68.975
1054.73	72.272
1058.46	100.342
1062.19	104.445
1065.92	111.87
1069.65	97.832
1073.37	113.462
1077.1	89.928
1080.82	86.165
1084.54	82.433
1088.26	86.592
1091.97	100.014
1095.69	82.617
1099.4	78.525
1103.12	105.846
1106.83	93.326
1110.54	104.538
1114.24	112.235
1117.95	107.365
1121.65	117.465
1125.35	108.012
1129.06	94.638
1132.75	84.917
1136.45	98.019
1140.15	89.029
1143.84	76.636
1147.53	67.086
1151.22	56.716
1154.91	61.212
1158.6	63.068
1162.28	42.443
1165.97	48.741
1169.65	49.981
1173.33	42.124
1177.01	46.381
1180.69	28.624
1184.36	46.758
1188.04	34.774
1191.71	15.732
1195.38	17.569
1199.05	23.36
1202.71	42.016
1206.38	25.981
1210.04	4.386
1213.71	6.994
1217.37	14.371
1221.03	32.656
1224.68	17.851
1228.34	5.993
1231.99	7.092
1235.65	3.145
1239.3	12.154
1242.95	9.889
1246.59	10
1250.24	4.8
1253.88	3.496
1257.53	9.067
1261.17	4.534
1264.81	1.92
1268.45	17.767
1272.08	0.446
1275.72	7.577
1279.35	6.366
1282.98	5.386
1286.61	12.517
1290.24	15.348
1293.87	9.11
1297.49	13.794
1301.11	5.407
1304.73	20.949
1308.36	27.423
1311.97	17.824
1315.59	43.133
1319.2	15.396
1322.82	9.609
1326.43	15.698
1330.04	22.782
1333.65	19.655
1337.26	8.449
1340.86	10.023
1344.47	27.685
1348.07	31.39
1351.67	43.989
1355.27	0.288
1358.87	28.467
1362.46	21.9
1366.06	56.281
1369.65	45.517
1373.24	57.709
1376.83	62.847
1380.42	60.045
1384	71.508
1387.59	55.223
1391.17	65.582
1394.75	48.829
1398.33	53.822
1401.91	55.35
1405.49	33.825
1409.06	14.51
1412.64	54.286
1416.21	19.456
1419.78	27.114
1423.35	42.505
1426.91	46.437
1430.48	57.448
1434.05	32.467
1437.61	74.974
1441.17	52.955
1444.73	26.074
1448.29	54.294
1451.84	51.411
1455.4	45.41
1458.95	23.389
1462.5	32.623
1466.05	44.072
1469.6	45.513
1473.15	42.935
1476.69	22.376
1480.24	13.878
1483.78	62.51
1487.32	52.231
1490.86	17.081
1494.39	18.103
1497.93	13.271
1501.46	26.65
1505	20.311
1508.53	8.341
1512.06	17.878
1515.59	10.188
1519.11	16.572
1522.64	0
