Measurement: Raman, 532 nm, unoriented, Raman Data Processed
Mineral: Tellurite
Rruff sample: R070606
Ideal chemistry: TeO_2_
Locality: Moctezuma mine, Moctezuma, Sonora, Mexico
Source: James Shigley
Description: Colorless massive crystalline, associated with quartz and tellurium
Raman shift (cm-1)	intensity
142.534	0
145.426	142.837
148.319	201.768
151.212	54.2188
154.105	91.4522
156.997	514.761
159.89	1878.18
162.783	6423.99
165.675	10443.1
168.568	14152.6
171.461	16983.4
174.353	20179.6
177.246	28029.9
180.139	39344.5
183.031	27931.3
185.924	13933.4
188.817	5411.68
191.71	2351.79
194.602	1075.39
197.495	908.574
200.388	1477.08
203.28	2822.41
206.173	4739.02
209.066	7758.3
211.958	11371.3
214.851	14520.7
217.744	17742.1
220.637	20603.2
223.529	22996.2
226.422	24528.1
229.315	17186.3
232.207	8755.6
235.1	4516.27
237.993	2475.36
240.886	1393.93
243.778	866.854
246.671	462.113
249.564	317.446
252.456	173.054
255.349	120.978
258.242	88.8223
261.134	96.221
264.027	58.4529
266.92	80.2495
269.812	33.9907
272.705	39.334
275.598	27.761
278.49	27.6196
281.383	9.37793
284.276	23.2097
287.169	61.6521
290.061	52.7737
292.954	41.2798
295.847	42.0481
298.739	63.229
301.632	39.1072
304.525	6.90088
307.418	25.4006
310.31	161.041
313.203	196.987
316.096	269.982
318.988	300.09
321.881	370.681
324.774	474.006
327.666	374.09
330.559	285.293
333.452	191.328
336.344	292.229
339.237	462.543
342.13	672.445
345.023	892.713
347.915	1115.35
350.808	1191.15
353.701	1148.21
356.593	883.651
359.486	767.918
362.379	578.673
365.272	394.551
368.164	265.605
371.057	191.129
373.95	151.666
376.842	120.187
379.735	35.8455
382.628	49.0029
385.52	64.3545
388.413	71.5147
391.306	87.6211
394.199	156.568
397.091	129.617
399.984	172.711
402.877	188.754
405.769	195.974
408.662	321.481
411.555	370.743
414.447	508.106
417.34	684.135
420.233	923.014
423.125	1328.96
426.018	1766.5
428.911	2293.85
431.803	2867.22
434.696	3429.8
437.589	3909.8
440.482	4046.23
443.374	3459.54
446.267	2551.01
449.16	1836.07
452.052	1238.81
454.945	914.908
457.838	688.229
460.731	546.432
463.623	495.369
466.516	451.082
469.409	476.675
472.301	471.582
475.194	531.843
478.087	472.925
480.979	391.866
483.872	284.53
486.765	235.329
489.658	158.557
492.55	96.343
495.443	65.971
498.336	77.1882
501.228	27.9114
504.121	4.89429
507.014	17.9597
509.906	0.03418
512.799	25.5525
515.692	29.1375
518.585	28.6509
521.477	52.6006
524.37	35.5808
527.263	14.3044
530.155	40.8916
533.048	24.4595
535.941	97.9263
538.833	152.493
541.726	193.793
544.619	294.575
547.511	493.665
550.404	722.326
553.297	1069.45
556.19	1492.15
559.082	2126.6
561.975	2931.37
564.868	3807.94
567.76	4667.63
570.653	5684.75
573.546	6367.09
576.438	6781.61
579.331	6537.19
582.224	5747.9
585.116	4407.32
588.009	3163.55
590.902	2139.8
593.795	1391.51
596.687	825.54
599.58	475.916
602.473	206.548
605.365	82.7512
608.258	25.6816
611.151	96.8486
614.043	305.504
616.936	668.967
619.829	1106.59
622.722	1753.34
625.614	2840.37
628.507	4480.73
631.4	6697.98
634.292	9417.22
637.185	12666.4
640.078	16533.9
642.971	21142.8
645.863	25101.3
648.756	28507.2
651.649	31624.5
654.541	35775.9
657.434	42050.2
660.327	46743.8
663.219	39798.9
666.112	24834.8
669.005	13721.5
671.898	7969.5
674.79	4926.83
677.683	3124.67
680.576	1976.48
683.468	1265.18
686.361	722.435
689.254	367.548
692.146	147.948
695.039	1.29639
697.932	94.1658
700.824	104.798
703.717	110.895
706.61	43.8557
709.503	44.4966
712.395	178.922
715.288	389.068
718.181	544.722
721.073	664.596
723.966	712.465
726.859	682.291
729.751	529.229
732.644	380.596
735.537	278.701
738.43	208.408
741.322	103.202
744.215	95.2324
747.108	88.404
750	65.3481
752.893	101.436
755.786	113.061
758.678	54.0457
761.571	30.4175
764.464	2.68237
767.356	17.4656
770.249	6.93237
773.142	50.3291
776.035	25.6245
778.927	20.5204
781.82	60.706
784.713	29.5117
787.605	50.59
790.498	47.3409
793.391	84.8669
796.284	80.0719
799.176	97.5405
802.069	118.305
804.962	70.8594
807.854	60.3701
810.747	64.6074
813.64	66.7429
816.532	82.6754
819.425	47.0972
822.318	33.1642
825.211	51.3917
828.103	47.9134
830.996	34.4883
833.889	38.3528
836.781	22.7399
839.674	3.00488
842.567	42.783
845.459	18.1449
848.352	34.0487
851.245	10.3152
854.138	19.4901
857.03	61.8352
859.923	27.4064
862.816	47.3715
865.708	34.0427
868.601	53.1143
871.494	36.517
874.386	49.0544
877.279	81.7988
880.172	54.9397
883.064	54.7361
885.957	58.4296
888.85	45.3291
891.743	31.5165
894.635	29.1541
897.528	26.6033
900.421	24.1472
903.313	38.0884
906.206	35.4055
909.099	48.3535
911.991	6.91455
914.884	46.5172
917.777	5.98071
920.67	41.079
923.562	34.5562
926.455	31.8071
929.348	11.6785
932.24	13.5054
935.133	8.23145
938.026	40.5105
940.918	14.7026
943.811	1.07849
946.704	20.2592
949.596	35.5388
952.489	4.66138
955.382	16.111
958.275	21.7362
961.167	7.53296
964.06	23.9811
966.953	52.7679
969.845	20.6073
972.738	30.798
975.631	93.2566
978.524	12.5015
981.416	36.2996
984.309	11.3201
987.202	19.5848
990.094	10.2278
992.987	22.3524
995.88	2.32935
998.772	31.0746
1001.66	33.9297
1004.56	51.2386
1007.45	29.7672
1010.34	20.3335
1013.24	35.3473
1016.13	24.0521
1019.02	35.9746
1021.91	13.4425
1024.81	62.38
1027.7	45.2933
1030.59	10.4399
1033.48	32.4265
1036.38	12.1731
1039.27	52.2704
1042.16	44.3121
1045.06	6.51172
1047.95	24.6883
1050.84	45.8606
1053.73	8.82227
1056.63	17.7355
1059.52	17.6945
1062.41	16.8938
1065.3	59.0981
1068.2	8.14734
1071.09	9.30664
1073.98	18.7402
1076.88	27.7927
1079.77	3.34839
1082.66	31.4161
1085.55	36.2167
1088.45	34.1996
1091.34	7.05237
1094.23	58.7822
1097.12	26.8566
1100.02	65.9457
1102.91	5.9696
1105.8	17.3555
1108.69	36.9031
1111.59	34.7909
1114.48	68.8366
1117.37	38.2294
1120.27	48.8406
1123.16	37.3911
1126.05	13.0579
1128.94	53.8812
1131.84	55.5276
1134.73	52.5204
1137.62	33.1392
1140.52	51.5446
1143.41	40.8158
1146.3	14.3785
1149.19	42.1854
1152.09	26.0092
1154.98	22.9084
1157.87	11.5603
1160.76	18.198
1163.66	2.03455
1166.55	8.95093
1169.44	30.9111
1172.33	30.1555
1175.23	10.1782
1178.12	23.8901
1181.01	25.8574
1183.9	1.18066
1186.8	40.9246
1189.69	14.7246
1192.58	44.8674
1195.48	30.1592
1198.37	10.4819
1201.26	50.9194
1204.15	38.2012
1207.05	17.7559
1209.94	39.7991
1212.83	41.5725
1215.72	32.5303
1218.62	42.5249
1221.51	24.2983
1224.4	38.8904
1227.3	20.4487
1230.19	26.012
1233.08	36.989
1235.97	93.478
1238.87	33.8013
1241.76	41.2168
1244.65	3.16089
1247.54	42.2932
1250.44	27.3975
1253.33	15.6421
1256.22	16.0825
1259.12	16.8091
1262.01	127.689
1264.9	161.909
1267.79	48.2952
1270.69	25.772
1273.58	39.8328
1276.47	75.9502
1279.36	31.7869
1282.26	28.6763
1285.15	19.896
1288.04	0.660889
