Measurement: Raman, 780 nm, unoriented, Raman Data Processed
Mineral: Tennantite
Rruff sample: R050438
Ideal chemistry: Cu_12_As_4_S_13_
Locality: Conception del Oro, Zecatecas, Mexico
Source: University of Arizona Mineral Museum
Description: Grey-black crystals associated with white quartz. The crystals appear to vary in chemistry between tennantite and tetrahedrite.
Measured chemistry: dark phase: (Cu_9.94_Zn_1.51_Fe_0.55_)_Σ=12_(As_3.58_Sb_0.42_)_Σ=4_S_13.00_; gray phase: (Cu_10.03_Zn_1.70_Fe_0.27_)_Σ=12_(As_2.01_Sb_1.99_)_Σ=4_S_13.00_; light phase: (Cu_10.03_Zn_1.84_Fe_0.13_)_Σ=12_(Sb_3.18_As_0.82_)_Σ=4_S_13.00_
Raman shift (cm-1)	intensity
110.993	0
114.368	0.46687
117.743	0.160491
121.118	0.842966
124.493	1.40239
127.867	2.41765
131.242	3.72459
134.617	4.75247
137.992	6.63231
141.367	6.05367
144.741	2.79953
148.116	0.439525
151.491	0.009403
154.866	0.084891
158.241	0.048713
161.615	0.343812
164.99	0.480851
168.365	0.424787
171.74	0.253672
175.115	0.377847
178.49	0.488204
181.864	0.555668
185.239	0.957838
188.614	0.867789
191.989	0.510841
195.364	0.586274
198.738	0.242367
202.113	0.245225
205.488	0.084753
208.863	0.07387
212.238	0.146763
215.613	0.384422
218.987	0.010899
222.362	0.059149
225.737	0.169118
229.112	0.045285
232.487	0.086237
235.862	0.325273
239.236	0.061058
242.611	0.453195
245.986	0.559475
249.361	0.770283
252.736	0.676225
256.11	0.555271
259.485	0.808993
262.86	0.636344
266.235	0.272156
269.61	0.01651
272.985	0.011896
276.359	0.131447
279.734	0.086647
283.109	0.680089
286.484	1.01801
289.859	1.67173
293.233	2.24701
296.608	3.01981
299.983	3.9769
303.358	4.52108
306.733	5.04799
310.108	5.41405
313.482	5.4621
316.857	4.91412
320.232	4.43949
323.607	4.09685
326.981	4.28824
330.356	4.89546
333.731	4.97955
337.106	5.12793
340.481	5.16772
343.856	5.35192
347.23	5.6111
350.605	5.7035
353.98	6.20804
357.355	7.04961
360.73	8.96603
364.104	11.6845
367.479	15.7255
370.854	19.7094
374.229	21.6587
377.604	24.5474
380.979	28.6922
384.353	32.9143
387.728	30.2677
391.103	15.4767
394.478	6.21917
397.853	2.73129
401.228	0.916447
404.602	0.018055
407.977	0.1035
411.352	0.214794
414.727	0.158464
418.102	0.160452
421.476	0.049517
424.851	0.054666
428.226	0.077375
431.601	0.125851
434.976	0.187627
438.351	0.129222
441.725	0.385084
445.1	0.450809
448.475	0.466258
451.85	0.372338
455.224	0.610585
458.599	0.484257
461.974	0.465881
465.349	0.765443
468.724	0.829586
472.099	0.559247
475.473	0.420531
478.848	0.176025
482.223	0.600075
485.598	0.55331
488.973	0.400102
492.348	0.564431
495.722	0.41023
499.097	0.19767
502.472	0.337319
505.847	0.321906
509.222	0.126023
512.596	0.353198
515.971	0.316666
519.346	0.196692
522.721	0.006337
526.096	0.096103
529.471	0.363285
532.845	0.009828
536.22	0.16856
539.595	0.003682
542.97	0.060732
546.345	0.058356
549.719	0.098716
553.094	0.18172
556.469	0.185176
559.844	0.114009
563.219	0.217967
566.593	0.14953
569.968	0.075617
573.343	0.103205
576.718	0.235538
580.093	0.151625
583.468	0.189604
586.842	0.22443
590.217	0.120619
593.592	0.107893
596.967	0.124218
600.342	0.264484
603.716	0.06938
607.091	0.101344
610.466	0.377364
613.841	0.251019
617.216	0.233033
620.591	0.295746
623.965	0.097681
627.34	0.218624
630.715	0.330173
634.09	0.321308
637.465	0.118722
640.839	0.21205
644.214	0.188811
647.589	0.18596
650.964	0.123963
654.339	0.253374
657.713	0.389775
661.088	0.329844
664.463	0.36694
667.838	0.262484
671.213	0.350772
674.588	0.138102
677.962	0.174636
681.337	0.247054
684.712	0.208892
688.087	0.011617
691.462	0.292552
694.837	0.287511
698.211	0.277019
701.586	0.017206
704.961	0.210392
708.336	0.269322
711.711	0.256188
715.085	0.130251
718.46	0.218713
721.835	0.118664
725.21	0.076011
728.585	0.083559
731.96	0.288863
735.334	0.272034
738.709	0.086016
742.084	0.256681
745.459	0.137234
748.834	0.172698
752.208	0.132347
755.583	0.195732
758.958	0.084215
762.333	0.037783
765.708	0.169664
769.082	0.13821
772.457	0.175016
775.832	0.137734
779.207	0.075721
782.582	0.210741
785.957	0.204757
789.331	0.091923
792.706	0.105608
796.081	0.074649
799.456	0.071517
802.831	0.313142
806.205	0.268523
809.58	0.070879
812.955	0.198037
816.33	0.010233
819.705	0.202452
823.08	0.106495
826.454	0.196583
829.829	0.302867
833.204	0.31844
836.579	0.021683
839.954	0.259061
843.328	0.074434
846.703	0.26334
850.078	0.049489
853.453	0.143253
856.828	0.150914
860.202	0.115187
863.577	0.179866
866.952	0.276839
870.327	0.167632
873.702	0.113732
877.077	0.198974
880.451	0.125386
883.826	0.085426
887.201	0.066475
890.576	0.08948
893.951	0.056645
897.326	0.106486
900.7	0.059538
904.075	0.225424
907.45	0.108768
910.825	0.028274
914.2	0.047023
917.574	0.100192
920.949	0.180915
924.324	0.187184
927.699	0.075001
931.074	0.297168
934.448	0.039272
937.823	0.036605
941.198	0.026659
944.573	0.209369
947.948	0.065362
951.322	0.002754
954.697	0.124768
958.072	0.078535
961.447	0.089957
964.822	0.089472
968.197	0.076414
971.571	0.27273
974.946	0.20929
978.321	0.066921
981.696	0.048915
985.071	0.331784
988.446	0.190374
991.82	0.084869
995.195	0.039
998.57	0.280966
1001.95	0.270189
1005.32	0.10859
1008.69	0.073078
1012.07	0.081187
1015.44	0.164238
1018.82	0.005528
1022.19	0.181582
1025.57	0.277789
1028.94	0.020181
1032.32	0.121584
1035.69	0.2191
1039.07	0.170273
1042.44	0.0751
1045.82	0.237039
1049.19	0.110656
1052.57	0.068144
1055.94	0.258234
1059.32	0.399892
1062.69	0.107227
1066.07	0.168776
1069.44	0.29781
1072.82	0.332836
1076.19	0.201145
1079.57	0.212362
1082.94	0.264435
1086.32	0.010936
1089.69	0.190545
1093.07	0.138829
1096.44	0.280923
1099.81	0.218625
1103.19	0.015909
1106.56	0.29235
1109.94	0.036045
1113.31	0.254157
1116.69	0.295406
1120.06	0.163099
1123.44	0.055339
1126.81	0.349645
1130.19	0.468192
1133.56	0.221877
1136.94	0.197392
1140.31	0.015594
1143.69	0.167401
1147.06	0.125207
1150.44	0.12114
1153.81	0.195722
1157.19	0.217687
1160.56	0.315502
1163.94	0.041306
1167.31	0.111972
1170.69	0.154449
1174.06	0.142658
1177.43	0.36238
1180.81	0.104766
1184.18	0.328037
1187.56	0.17844
1190.93	0.36519
1194.31	0.327752
1197.68	0.040581
1201.06	0.082642
1204.43	0.053967
1207.81	0.003213
1211.18	0.255812
1214.56	0.090823
1217.93	0.145484
1221.31	0.248951
1224.68	0.21684
1228.06	0.164863
1231.43	0.201728
1234.81	0.333291
1238.18	0.216225
1241.56	0.159556
1244.93	0.012869
1248.31	0.033037
1251.68	0.214714
1255.06	0.415809
1258.43	0.240459
1261.81	0.213394
1265.18	0.231415
1268.56	0.172474
1271.93	0.018946
1275.31	0.050659
1278.68	0.127543
1282.06	0.002413
