Measurement: Raman, 780 nm, unoriented, Raman Data Processed
Mineral: Tennantite
Rruff sample: R050474
Ideal chemistry: Cu_12_As_4_S_13_
Locality: Daily Judge mine, Park City, Utah, USA
Source: California Institute of Technology
Description: Black crystals associated with pyrite
Measured chemistry: (Cu_10.01_Zn_1.66_Fe_0.33_)_Î£=12_As_4.00_S_13.00_
Raman shift (cm-1)	intensity
105.208	0
108.583	0.083799
111.957	0.264849
115.332	1.11426
118.707	1.38909
122.082	2.21353
125.457	3.27666
128.832	4.84114
132.206	6.78546
135.581	8.35774
138.956	9.86632
142.331	7.67072
145.706	3.04965
149.081	1.61363
152.455	1.23115
155.83	1.64614
159.205	1.51565
162.58	2.19242
165.955	2.21496
169.329	1.70014
172.704	1.49325
176.079	1.75648
179.454	1.48302
182.829	1.51135
186.203	1.90433
189.578	1.99387
192.953	1.06643
196.328	0.269719
199.703	0.220615
203.078	0.136057
206.452	0.115263
209.827	0.145102
213.202	0.091733
216.577	0.212948
219.952	0.343569
223.326	0.21818
226.701	0.237176
230.076	0.218393
233.451	0.154605
236.826	1.17685
240.201	1.05751
243.575	1.44673
246.95	1.42417
250.325	1.8114
253.7	1.70719
257.075	1.33792
260.449	1.72042
263.824	1.27663
267.199	0.0947
270.574	0.252919
273.949	0.12352
277.324	0.331786
280.698	0.155621
284.073	0.928654
287.448	1.60591
290.823	2.08859
294.198	2.99946
297.572	3.81372
300.947	4.61661
304.322	5.37936
307.697	5.95262
311.072	5.95663
314.447	5.91287
317.821	5.6159
321.196	5.67701
324.571	6.05135
327.946	7.58881
331.321	8.44581
334.695	9.16641
338.07	9.1132
341.445	8.72727
344.82	9.25098
348.195	8.5682
351.57	8.55329
354.944	8.75464
358.319	10.1091
361.694	12.1224
365.069	15.4027
368.443	20.7377
371.818	24.3812
375.193	26.3766
378.568	30.0289
381.943	34.0811
385.318	36.7781
388.692	27.8914
392.067	12.6362
395.442	5.17763
398.817	1.90822
402.192	1.02807
405.567	0.340495
408.941	0.249037
412.316	0.098674
415.691	0.338524
419.066	0.346508
422.441	0.215608
425.815	0.137978
429.19	0.44025
432.565	0.515036
435.94	0.19853
439.315	0.55441
442.69	0.770093
446.064	0.679106
449.439	0.875028
452.814	0.550406
456.189	0.901165
459.564	0.842538
462.938	1.10989
466.313	1.26013
469.688	0.66553
473.063	1.30749
476.438	0.919286
479.812	0.712728
483.187	0.666405
486.562	1.11041
489.937	1.37485
493.312	0.999167
496.687	0.208334
500.061	0.219958
503.436	0.449868
506.811	0.525107
510.186	0.23534
513.561	0.299101
516.936	0.709355
520.31	0.778699
523.685	0.426038
527.06	0.673827
530.435	0.627478
533.81	0.737675
537.184	0.075965
540.559	0.084943
543.934	0.671887
547.309	0.327299
550.684	0.198377
554.058	0.496448
557.433	0.283084
560.808	0.115147
564.183	0.446221
567.558	0.358736
570.933	0.466162
574.307	0.456803
577.682	0.523147
581.057	0.582737
584.432	0.37562
587.807	0.554356
591.181	0.355739
594.556	0.527957
597.931	0.118002
601.306	0.246421
604.681	0.365239
608.056	0.175656
611.43	0.630071
614.805	0.619889
618.18	0.833642
621.555	0.71174
624.93	0.359962
628.304	0.509325
631.679	0.683318
635.054	0.676868
638.429	0.376468
641.804	0.462585
645.178	0.656606
648.553	0.497102
651.928	0.3995
655.303	0.232001
658.678	0.116838
662.053	0.779083
665.427	0.908323
668.802	0.433087
672.177	0.300867
675.552	0.234818
678.927	0.622496
682.302	0.417924
685.676	0.429995
689.051	0.06961
692.426	0.640979
695.801	0.560928
699.176	0.658365
702.55	0.293743
705.925	0.408939
709.3	0.554308
712.675	0.392735
716.05	0.179587
719.424	0.578878
722.799	0.295237
726.174	0.448583
729.549	0.008622
732.924	0.424231
736.298	0.482047
739.673	0.309528
743.048	0.641773
746.423	0.229929
749.798	0.564814
753.173	0.454661
756.547	0.156684
759.922	0.42228
763.297	0.046635
766.672	0.489343
770.047	0.494042
773.422	0.059836
776.796	0.030228
780.171	0.012311
783.546	0.553124
786.921	0.197651
790.296	0.364034
793.67	0.014969
797.045	0.355958
800.42	0.33135
803.795	0.527502
807.17	0.536683
810.544	0.119264
813.919	0.402175
817.294	0.347888
820.669	0.296351
824.044	0.720089
827.419	0.508511
830.793	0.120098
834.168	0.335055
837.543	0.316165
840.918	0.101916
844.293	0.061439
847.668	0.162468
851.042	0.304901
854.417	0.370301
857.792	0.731281
861.167	0.023781
864.542	0.463874
867.916	0.321698
871.291	0.504839
874.666	0.219993
878.041	0.228226
881.416	0.117498
884.79	0.108482
888.165	0.272198
891.54	0.384303
894.915	0.028153
898.29	0.132946
901.665	0.396424
905.039	0.453861
908.414	0.254808
911.789	0.327516
915.164	0.145106
918.539	0.205638
921.913	0.301263
925.288	0.355564
928.663	0.083115
932.038	0.452239
935.413	0.391782
938.788	0.039591
942.162	0.519546
945.537	0.659393
948.912	0.927051
952.287	0.027122
955.662	0.617239
959.036	0.521014
962.411	0.747254
965.786	0.3553
969.161	0.17303
972.536	0.403945
975.91	0.452828
979.285	0.198282
982.66	0.087401
986.035	0.749472
989.41	0.387248
992.784	0.293068
996.159	0.719115
999.534	0.929995
1002.91	0.377019
1006.28	0.534159
1009.66	0.450298
1013.03	0.015644
1016.41	0.131948
1019.78	0.093017
1023.16	0.396717
1026.53	0.519933
1029.91	0.364473
1033.28	0.259946
1036.66	0.599716
1040.03	0.125338
1043.41	0.69226
1046.78	0.451007
1050.16	0.219602
1053.53	0.620475
1056.91	0.693865
1060.28	0.630842
1063.66	0.367525
1067.03	0.542591
1070.4	0.554643
1073.78	0.942116
1077.15	0.773323
1080.53	0.654113
1083.9	0.447324
1087.28	0.362884
1090.65	0.539022
1094.03	0.385823
1097.4	0.332056
1100.78	0.459661
1104.15	0.329556
1107.53	0.176767
1110.9	0.231571
1114.28	0.788729
1117.65	0.740912
1121.03	0.363597
1124.4	0.311107
1127.78	0.87826
1131.15	1.03526
1134.53	0.386265
1137.9	0.38837
1141.28	0.109704
1144.65	0.356744
1148.03	0.546626
1151.4	0.604483
1154.78	0.032814
1158.15	0.744953
1161.53	0.276201
1164.9	0.623469
1168.28	0.500703
1171.65	0.869479
1175.03	0.26681
1178.4	0.657563
1181.77	0.497115
1185.15	0.631276
1188.52	0.47962
1191.9	0.807906
1195.27	0.371748
1198.65	0.467102
1202.02	0.523895
1205.4	0.20805
1208.77	0.142178
1212.15	0.366809
1215.52	0.583722
1218.9	0.566048
1222.27	0.4521
1225.65	0.523549
1229.02	0.429708
1232.4	0.760304
1235.77	0.351691
1239.15	0.511994
1242.52	0.593046
1245.9	0.033409
1249.27	0.652863
1252.64	0.318003
1256.02	0.229882
1259.39	0.031131
1262.77	0.173265
1266.14	0.253314
1269.52	0.115128
1272.89	0.563732
1276.27	0.601682
1279.64	0.524624
1283.02	0.496075
1286.39	0
