Measurement: Raman, 780 nm, unoriented, Raman Data Processed
Mineral: Tennantite
Rruff sample: R050558
Ideal chemistry: Cu_12_As_4_S_13_
Locality: Casaplaca mine, Huarochiri Province, Lima Department, Peru
Source: Dave Bunk Minerals
Description: Group of black tetrahedra
Measured chemistry: light phase: (Cu_10.07_Zn_1.83_Fe_0.10_)_Σ=12_(As_2.97_Sb_1.03_)_Σ=4_S_13.00_ ; dark phase: (Cu_10.09_Zn_1.80_Fe_0.11_)_Σ=12_(As_2.85_Sb_1.15_)_Σ=4_S_13.00_
Raman shift (cm-1)	intensity
97.0119	0
100.387	0.158355
103.761	1.21931
107.136	2.84065
110.511	2.73007
113.886	2.738
117.261	2.62388
120.636	3.44322
124.01	4.59038
127.385	5.56201
130.76	5.81036
134.135	4.36052
137.51	2.90043
140.885	1.85382
144.259	0.745306
147.634	0.086715
151.009	0.239923
154.384	0.215628
157.759	0.279219
161.133	0.618754
164.508	0.707678
167.883	0.805493
171.258	0.612966
174.633	1.01202
178.007	1.66825
181.382	1.67851
184.757	1.56317
188.132	1.13758
191.507	0.595714
194.882	0.459721
198.256	0.505382
201.631	0.662438
205.006	0.231031
208.381	0.105164
211.756	0.134339
215.131	0.234052
218.505	0.165474
221.88	0.028779
225.255	0.07231
228.63	0.185671
232.005	0.248281
235.379	0.778101
238.754	0.255087
242.129	1.05545
245.504	1.27515
248.879	1.4693
252.253	1.26731
255.628	0.755177
259.003	0.827662
262.378	0.758474
265.753	0.143325
269.127	0.098138
272.502	0.070972
275.877	0.20558
279.252	0.259163
282.627	1.07986
286.002	1.85272
289.376	2.26444
292.751	3.07932
296.126	3.75075
299.501	4.10301
302.876	4.54299
306.25	4.92279
309.625	4.7661
313	4.74707
316.375	4.97899
319.75	5.63828
323.125	6.15604
326.499	7.41386
329.874	8.59875
333.249	9.5106
336.624	10.289
339.999	10.9131
343.373	12.5811
346.748	13.6721
350.123	14.4342
353.498	15.8976
356.873	17.7392
360.248	19.8375
363.622	22.0461
366.997	23.1509
370.372	23.3986
373.747	23.9571
377.122	24.5256
380.497	26.4788
383.871	25.7621
387.246	17.329
390.621	7.34952
393.996	3.01779
397.37	0.740152
400.745	0.206716
404.12	0.159693
407.495	0.096203
410.87	0.315099
414.245	0.024784
417.619	0.140252
420.994	0.121232
424.369	0.154484
427.744	0.482623
431.119	0.631519
434.493	0.320815
437.868	0.283564
441.243	0.823703
444.618	0.681258
447.993	0.71575
451.368	0.656314
454.742	0.914737
458.117	0.612575
461.492	0.773943
464.867	0.781351
468.242	0.913436
471.616	0.56822
474.991	0.839815
478.366	0.396257
481.741	0.660152
485.116	0.619533
488.491	0.4856
491.865	0.548259
495.24	0.546573
498.615	0.219489
501.99	0.385578
505.365	0.345945
508.74	0.206888
512.114	0.375579
515.489	0.186301
518.864	0.260646
522.239	0.010708
525.614	0.129773
528.988	0.390753
532.363	0.036659
535.738	0.262301
539.113	0.073908
542.488	0.025872
545.862	0.016342
549.237	0.140001
552.612	0.159485
555.987	0.392098
559.362	0.149287
562.737	0.150574
566.111	0.161795
569.486	0.262907
572.861	0.121608
576.236	0.126097
579.611	0.166892
582.986	0.03399
586.36	0.020183
589.735	0.118564
593.11	0.003674
596.485	0.19849
599.86	0.227616
603.234	0.173092
606.609	0.039749
609.984	0.11175
613.359	0.042063
616.734	0.118429
620.108	0.301961
623.483	0.219821
626.858	0.09957
630.233	0.191014
633.608	0.538221
636.982	0.07013
640.357	0.069925
643.732	0.180323
647.107	0.015879
650.482	0.031239
653.857	0.207023
657.231	0.096877
660.606	0.210671
663.981	0.294903
667.356	0.22415
670.731	0.407301
674.106	0.126629
677.48	0.246023
680.855	0.282444
684.23	0.16018
687.605	0.008303
690.98	0.237269
694.354	0.225955
697.729	0.370948
701.104	0.184432
704.479	0.363998
707.854	0.312845
711.229	0.422036
714.603	0.060624
717.978	0.284229
721.353	0.08121
724.728	0.11305
728.102	0.080027
731.477	0.34984
734.852	0.392161
738.227	0.058387
741.602	0.342297
744.977	0.042053
748.351	0.036159
751.726	0.144632
755.101	0.502417
758.476	0.158157
761.851	0.007118
765.226	0.129891
768.6	0.260884
771.975	0.274774
775.35	0.145715
778.725	0.207903
782.1	0.41279
785.474	0.317824
788.849	0.089975
792.224	0.334465
795.599	0.044381
798.974	0.070742
802.348	0.35817
805.723	0.195936
809.098	0.152196
812.473	0.244542
815.848	0.0498
819.223	0.263845
822.597	0.084041
825.972	0.097163
829.347	0.112481
832.722	0.121192
836.097	0.014648
839.471	0.32801
842.846	0.22445
846.221	0.257435
849.596	0.175517
852.971	0.247258
856.346	0.109602
859.72	0.118928
863.095	0.139395
866.47	0.214323
869.845	0.107468
873.22	0.014894
876.595	0.271528
879.969	0.462807
883.344	0.224909
886.719	0.115933
890.094	0.204419
893.469	0.119316
896.843	0.334008
900.218	0.121527
903.593	0.258186
906.968	0.143356
910.343	0.113477
913.717	0.060479
917.092	0.244052
920.467	0.042092
923.842	0.193373
927.217	0.159177
930.591	0.276374
933.966	0.257183
937.341	0.260963
940.716	0.131462
944.091	0.281624
947.466	0.134435
950.84	0.143106
954.215	0.029588
957.59	0.21407
960.965	0.097421
964.34	0.35023
967.715	0.021899
971.089	0.29313
974.464	0.315412
977.839	0.041749
981.214	0.053354
984.589	0.443539
987.963	0.217751
991.338	0.042802
994.713	0.685885
998.088	0.411871
1001.46	0.397398
1004.84	0.216603
1008.21	0.153832
1011.59	0.080625
1014.96	0.290602
1018.34	0.10665
1021.71	0.286201
1025.09	0.184089
1028.46	0.066267
1031.84	0.165211
1035.21	0.336398
1038.59	0.245829
1041.96	0.121412
1045.34	0.287943
1048.71	0.24094
1052.09	0.15945
1055.46	0.260964
1058.84	0.545197
1062.21	0.04743
1065.58	0.399674
1068.96	0.402954
1072.33	0.552254
1075.71	0.214174
1079.08	0.23199
1082.46	0.294119
1085.83	0.053152
1089.21	0.386743
1092.58	0.089172
1095.96	0.217009
1099.33	0.230556
1102.71	0.011216
1106.08	0.41917
1109.46	0.184705
1112.83	0.31568
1116.21	0.352618
1119.58	0.232419
1122.96	0.261411
1126.33	0.288494
1129.71	0.23901
1133.08	0.299081
1136.45	0.213867
1139.83	0.215245
1143.2	0.306467
1146.58	0.08477
1149.95	0.234444
1153.33	0.345059
1156.7	0.53782
1160.08	0.305834
1163.45	0.019006
1166.83	0.218675
1170.2	0.303214
1173.58	0.341226
1176.95	0.584382
1180.33	0.101033
1183.7	0.217387
1187.08	0.175161
1190.45	0.451847
1193.83	0.329922
1197.2	0.006488
1200.58	0.277635
1203.95	0.226655
1207.33	0.068881
1210.7	0.01749
1214.08	0.160222
1217.45	0.124846
1220.83	0.392169
1224.2	0.118822
1227.58	0.106736
1230.95	0.300437
1234.33	0.491602
1237.7	0.330651
1241.08	0.27219
1244.45	0.135319
1247.82	0.148727
1251.2	0.395861
1254.57	0.323645
1257.95	0.358724
1261.32	0.342871
1264.7	0.427318
1268.07	0.400498
1271.45	0.201134
1274.82	0.050564
1278.2	0.121252
1281.57	0.196222
