Measurement: Raman, 785 nm, unoriented, Raman Data Processed
Mineral: Tenorite
Rruff sample: R060978
Ideal chemistry: CuO
Locality: Algomah, Michigan, USA
Source: Michael Scott
Description: Black massive with some prismatic faces, associated with malachite and chrysocolla
Raman shift (cm-1)	intensity
147.562	0
150.455	306.081
153.348	228.344
156.24	71.7822
159.133	14.0142
162.026	34.8767
164.918	140.778
167.811	216.94
170.704	293.158
173.597	244.352
176.489	145.666
179.382	124.09
182.275	81.0759
185.167	66.686
188.06	108.129
190.953	48.0466
193.845	21.7488
196.738	115.111
199.631	40.4143
202.524	90.449
205.416	50.9626
208.309	4.06494
211.202	20.6443
214.094	26.8535
216.987	6.26904
219.88	0.363281
222.773	7.63037
225.665	11.4617
228.558	2.01685
231.451	19.5029
234.343	6.50488
237.236	33.1082
240.129	2.69531
243.021	37.9495
245.914	39.6172
248.807	54.8889
251.7	90.0034
254.592	114.893
257.485	157.948
260.378	175.089
263.27	240.859
266.163	286.843
269.056	307.985
271.948	389.033
274.841	454.731
277.734	561.054
280.627	699.434
283.519	921.017
286.412	1318.82
289.305	2037.53
292.197	3426.89
295.09	5113.79
297.983	6516.99
300.875	4935.15
303.768	2138.46
306.661	996.268
309.553	533.679
312.446	401.31
315.339	245.702
318.231	122.975
321.124	92.3467
324.017	141.22
326.91	97.2041
329.802	130.102
332.695	162.725
335.588	208.382
338.48	276.63
341.373	366.655
344.266	474.531
347.159	501.764
350.051	342.253
352.944	230.817
355.837	175.502
358.729	136.56
361.622	93.5596
364.515	60.9214
367.407	62.2602
370.3	94.2647
373.193	80.8198
376.086	50.2573
378.978	22.8579
381.871	63.9121
384.764	10.9268
387.656	6.11035
390.549	10.3618
393.442	35.8872
396.334	17.4111
399.227	63.5371
402.12	122.843
405.012	45.48
407.905	144.712
410.798	156.718
413.691	160.889
416.583	208.974
419.476	208.185
422.369	220.017
425.261	220.44
428.154	225.285
431.047	210.273
433.94	178.945
436.832	168.217
439.725	207.818
442.618	168.724
445.51	198.243
448.403	146.49
451.296	156.766
454.188	141.039
457.081	142.72
459.974	152.428
462.866	141.134
465.759	146.6
468.652	125.775
471.545	154.181
474.437	171.117
477.33	94.0918
480.223	120.046
483.115	70.3379
486.008	96.9541
488.901	98.2764
491.793	156.91
494.686	106.329
497.579	135.853
500.471	16.4932
503.364	3.91211
506.257	12.0723
509.15	31.7217
512.042	8.41065
514.935	4.34521
517.828	17.6738
520.72	35.9653
523.613	3.64453
526.506	28.8159
529.399	38.4819
532.291	28.0405
535.184	12.6479
538.077	36.2734
540.969	81.9346
543.862	78.9014
546.755	83.7256
549.647	93.7627
552.54	184.228
555.433	232.689
558.326	252.461
561.218	334.327
564.111	427.66
567.004	456.714
569.896	478.543
572.789	589.704
575.682	697.823
578.574	817.806
581.467	879.029
584.36	1008.97
587.252	1127.35
590.145	1203.98
593.038	1269.11
595.931	1283.82
598.823	1430.51
601.716	1421.83
604.609	1433.83
607.501	1422.05
610.394	1497.48
613.287	1467.38
616.179	1359.02
619.072	1282.76
621.965	1195.69
624.857	1100.42
627.75	1108.72
630.643	954.493
633.536	824.308
636.428	571.619
639.321	381.731
642.214	248.638
645.106	136.74
647.999	82.4287
650.892	147.12
653.784	89.5933
656.677	66.7363
659.57	104.907
662.463	30.6465
665.355	8.70996
668.248	14.8276
671.141	9.77588
674.033	3.69238
676.926	21.9766
679.819	53.0527
682.712	14.0322
685.604	20.9321
688.497	37.2554
691.39	15.9429
694.282	9.57422
697.175	40.9785
700.068	31.6953
702.96	27.3271
705.853	12.8677
708.746	49.0332
711.639	46.6699
714.531	73.2163
717.424	60.7773
720.317	162.134
723.209	183.766
726.102	134.674
728.995	234.14
731.887	218.652
734.78	262.022
737.673	334.48
740.566	406.971
743.458	364.455
746.351	344.746
749.244	393.649
752.136	395.023
755.029	382.896
757.922	316.636
760.814	288.916
763.707	306.743
766.6	191.614
769.492	188.889
772.385	218.144
775.278	97.8945
778.17	91.9067
781.063	3.95557
783.956	63.7339
786.849	56.5732
789.741	23.0581
792.634	19.4526
795.527	10.8794
798.419	70.7163
801.312	81.9956
804.205	33.9731
807.097	21.0737
809.99	65.4512
812.883	52.501
815.776	21.373
818.668	64.1006
821.561	26.0801
824.454	67.5796
827.346	27.9404
830.239	148.855
833.132	68.8716
836.024	73.1006
838.917	4.82422
841.81	33.8105
844.703	44.4473
847.595	31.6133
850.488	90.7983
853.381	68.9492
856.273	19.896
859.166	55.8252
862.059	20.5767
864.952	1.34766
867.844	32.3579
870.737	31.8271
873.63	50.4292
876.522	89.897
879.415	117.538
882.308	129.477
885.2	159.619
888.093	153.169
890.986	251.453
893.879	254.493
896.771	210.662
899.664	232.686
902.557	227.034
905.449	272.113
908.342	296.134
911.235	288.666
914.127	306.334
917.02	187.774
919.913	149.693
922.806	185.749
925.698	125.848
928.591	107.201
931.484	67.1421
934.376	75.5127
937.269	87.625
940.162	54.1362
943.054	6.57715
945.947	33.0425
948.84	8.8374
951.732	50.896
954.625	48.0278
957.518	21.189
960.41	2.42969
963.303	86.3745
966.196	109.53
969.089	44.5225
971.981	83.1758
974.874	91.1514
977.767	116.34
980.659	117.043
983.552	21.4141
986.445	111.242
989.337	38.0195
992.23	8.81543
995.123	67.5088
998.016	96.293
1000.91	66.2481
1003.8	72.8701
1006.69	71.9707
1009.59	98.9541
1012.48	84.1025
1015.37	59.5879
1018.26	104.28
1021.16	37.877
1024.05	39.9756
1026.94	68.8203
1029.84	141.731
1032.73	67
1035.62	109.157
1038.51	66.5361
1041.41	70.4082
1044.3	39.3545
1047.19	58.5508
1050.08	0.363281
1052.98	1.77148
1055.87	30.5254
1058.76	16.9102
1061.65	36.1904
1064.55	10.294
1067.44	52.6025
1070.33	68.5996
1073.23	159.394
1076.12	196.869
1079.01	279.381
1081.9	280.627
1084.8	316.279
1087.69	419.854
1090.58	421.644
1093.47	572.205
1096.37	650.48
1099.26	667.8
1102.15	594.255
1105.05	560.115
1107.94	583.33
1110.83	552.508
1113.72	408.179
1116.62	392.86
1119.51	380.467
1122.4	326.702
1125.29	284.827
1128.19	226.94
1131.08	238.967
1133.97	275.653
1136.87	257.037
1139.76	238.232
1142.65	281.47
1145.54	263.172
1148.44	258.384
1151.33	360.75
1154.22	250.468
1157.11	313.454
1160.01	337.065
1162.9	238.033
1165.79	274.644
1168.68	293.68
1171.58	291.178
1174.47	194.294
1177.36	225.448
1180.26	189.823
1183.15	135.06
1186.04	141.089
1188.93	183.985
1191.83	93.6826
1194.72	121.575
1197.61	117.639
1200.51	101.398
1203.4	11.1699
1206.29	25.5596
1209.18	45.4111
1212.08	22.3428
