Measurement: Raman, 532 nm, unoriented, Raman Data Processed
Mineral: Tenorite
Rruff sample: R120076
Ideal chemistry: CuO
Locality: Synthetic
Source: Deng-Shiu Yang
Description: Dark red crystals, some are triply twinned, platy ones are doubly twinned, and elongated prismatic crystals are untwinned.
Raman shift (cm-1)	intensity
171.97	0
174.863	2.65758
177.755	5.96085
180.648	2.17787
183.541	6.32134
186.433	4.41499
189.326	3.45007
192.219	7.07201
195.112	6.79218
198.004	2.2655
200.897	4.13435
203.79	2.3744
206.682	2.50571
209.575	8.16235
212.468	2.46362
215.36	0.460861
218.253	2.32574
221.146	1.33835
224.038	0.571472
226.931	1.61238
229.824	0.123901
232.717	1.11574
235.609	2.06192
238.502	0.685394
241.395	0.28598
244.287	0.905731
247.18	2.37097
250.073	0.822784
252.965	2.28064
255.858	5.55849
258.751	6.89697
261.644	3.03453
264.536	8.08186
267.429	7.74422
270.322	12.4441
273.214	15.0119
276.107	23.3546
279	33.1177
281.892	54.0383
284.785	78.1319
287.678	102.147
290.571	141.568
293.463	202.874
296.356	261.255
299.249	231.247
302.141	117.79
305.034	50.7233
307.927	25.7655
310.82	14.6707
313.712	10.8582
316.605	9.81717
319.498	5.76524
322.39	6.22745
325.283	7.70765
328.176	9.96958
331.068	17.2207
333.961	23.8794
336.854	34.3184
339.747	48.9793
342.639	61.1147
345.532	66.4518
348.425	46.4289
351.317	28.9442
354.21	17.3413
357.103	8.79907
359.995	6.19399
362.888	4.00235
365.781	4.23747
368.673	2.79253
371.566	2.28698
374.459	1.42179
377.352	2.4266
380.244	1.03799
383.137	0.325455
386.03	0.233376
388.922	1.16674
391.815	0.941757
394.708	0.311478
397.601	0.608612
400.493	0.993332
403.386	2.34081
406.279	1.14646
409.171	3.18983
412.064	2.71526
414.957	2.16725
417.849	1.88733
420.742	2.95268
423.635	0.695992
426.527	2.46825
429.42	5.78765
432.313	4.58937
435.206	3.51801
438.098	3.5091
440.991	5.02342
443.884	5.53629
446.776	3.69009
449.669	4.73275
452.562	4.10027
455.454	2.07204
458.347	4.39352
461.24	3.35404
464.133	4.11644
467.025	3.40334
469.918	3.58371
472.811	3.99026
475.703	3.28237
478.596	2.92959
481.489	4.6853
484.382	4.78265
487.274	2.96036
490.167	3.57789
493.06	5.05403
495.952	3.65762
498.845	2.81908
501.738	3.14097
504.63	0.271576
507.523	0.962547
510.416	0.924522
513.308	4.14187
516.201	1.55099
519.094	1.90341
521.987	1.03954
524.879	0.42379
527.772	3.18503
530.665	1.99057
533.557	3.386
536.45	2.94781
539.343	1.87736
542.236	2.09425
545.128	0.567238
548.021	0.121994
550.914	3.08366
553.806	2.52054
556.699	1.80185
559.592	3.12006
562.484	2.85107
565.377	2.19616
568.27	0.918037
571.163	0.570335
574.055	1.81544
576.948	0.343513
579.841	0.035774
582.733	0.751511
585.626	0.403435
588.519	0.490242
591.411	3.4972
594.304	0.577606
597.197	3.12778
600.09	3.75831
602.982	1.72623
605.875	5.12444
608.768	8.53559
611.66	11.9032
614.553	22.6204
617.446	35.1996
620.338	53.9284
623.231	71.9511
626.124	93.0355
629.016	104.061
631.909	99.5275
634.802	77.5453
637.695	53.5333
640.587	36.0104
643.48	24.594
646.373	18.6173
649.265	11.4707
652.158	9.79595
655.051	7.70573
657.943	5.09876
660.836	4.8243
663.729	3.34119
666.622	2.54504
669.514	0.450928
672.407	3.29456
675.3	2.02795
678.192	2.38808
681.085	1.70907
683.978	2.05795
686.87	1.36987
689.763	2.77484
692.656	1.14189
695.549	0.253372
698.441	1.1843
701.334	1.20349
704.227	0.398064
707.119	1.93877
710.012	0.983315
712.905	1.75107
715.798	3.37995
718.69	1.61247
721.583	0.619156
724.476	3.48373
727.368	2.29082
730.261	3.59259
733.154	4.99486
736.046	2.1238
738.939	3.50346
741.832	3.07336
744.725	3.3917
747.617	2.05173
750.51	0.436714
753.403	1.02826
756.295	1.75072
759.188	1.36064
762.081	2.61543
764.973	1.42773
767.866	2.3653
770.759	0.671097
773.652	1.54787
776.544	0.669601
779.437	0.275383
782.33	0.066643
785.222	2.02745
788.115	1.5801
791.008	0.575859
793.9	3.02208
796.793	2.1951
799.686	2.06212
802.578	3.00837
805.471	1.54485
808.364	1.35287
811.257	1.61081
814.149	2.49211
817.042	0.942345
819.935	1.6512
822.827	0.491676
825.72	2.5316
828.613	1.10182
831.505	2.2643
834.398	0.028198
837.291	3.50862
840.184	2.96778
843.076	2.26162
845.969	1.48894
848.862	0.849258
851.754	1.36957
854.647	2.90652
857.54	2.61566
860.433	2.00189
863.325	3.71625
866.218	1.42271
869.111	0.44558
872.003	0.245087
874.896	2.87772
877.789	0.277939
880.681	0.297577
883.574	1.76931
886.467	2.03435
889.36	4.0274
892.252	1.52615
895.145	0.95591
898.038	0.180679
900.93	3.75999
903.823	2.89674
906.716	2.05272
909.608	3.22309
912.501	0.931358
915.394	0.510681
918.287	4.33527
921.179	2.82777
924.072	3.92412
926.965	1.10745
929.857	4.28087
932.75	1.35912
935.643	4.69612
938.535	0.929451
941.428	2.73718
944.321	1.36292
947.213	0.228035
950.106	1.57278
952.999	3.89008
955.892	1.95924
958.784	0.163696
961.677	2.48692
964.57	2.50363
967.462	3.28801
970.355	2.53679
973.248	2.67664
976.14	3.19952
979.033	3.73771
981.926	2.20903
984.819	1.20385
987.711	4.26063
990.604	2.07527
993.497	3.22617
996.389	1.74794
999.282	1.73174
1002.17	1.84751
1005.07	2.27018
1007.96	0.805023
1010.85	2.78806
1013.75	0.399773
1016.64	0.092224
1019.53	1.16106
1022.42	1.2712
1025.32	1.79399
1028.21	0.091988
1031.1	0.270248
1033.99	0.760048
1036.89	0.133255
1039.78	1.75122
1042.67	0.076759
1045.57	0.089859
1048.46	0.164383
1051.35	1.26941
1054.24	1.38243
1057.14	1.32786
1060.03	1.12782
1062.92	1.47781
1065.81	2.28831
1068.71	0.882301
1071.6	2.23378
1074.49	1.10448
1077.38	4.72922
1080.28	2.90015
1083.17	6.10558
1086.06	6.51283
1088.96	8.72893
1091.85	8.66276
1094.74	11.052
1097.63	11.1513
1100.53	13.0014
1103.42	11.8951
1106.31	11.0637
1109.2	13.1302
1112.1	11.6585
1114.99	12.8886
1117.88	10.6332
1120.78	8.68239
1123.67	7.62418
1126.56	9.02581
1129.45	6.28531
1132.35	9.13311
1135.24	8.47747
1138.13	8.74986
1141.02	8.77136
1143.92	6.33227
1146.81	7.15952
1149.7	8.01137
1152.6	6.00976
1155.49	4.32172
1158.38	4.48501
1161.27	4.88509
1164.17	3.70023
1167.06	4.67865
1169.95	0.810722
1172.84	3.29878
1175.74	2.69175
1178.63	2.29824
1181.52	1.75103
1184.41	1.00401
1187.31	1.67109
1190.2	1.87768
1193.09	0.49456
1195.99	1.12939
1198.88	2.10511
1201.77	0.730301
1204.66	1.79728
1207.56	1.86579
1210.45	1.34093
1213.34	2.20524
1216.23	4.73536
1219.13	3.20776
1222.02	3.82559
1224.91	5.28191
1227.81	5.62302
1230.7	6.13959
1233.59	5.51156
1236.48	5.61748
1239.38	6.22029
1242.27	3.68072
1245.16	5.41239
1248.05	4.07806
1250.95	3.86414
1253.84	2.1951
1256.73	1.95984
1259.62	1.75871
1262.52	2.93049
1265.41	1.31612
1268.3	0.415627
1271.2	0.974686
1274.09	0.064644
1276.98	0.387886
1279.87	3.00114
1282.77	1.30801
1285.66	4.12222
1288.55	1.88142
1291.44	3.87427
1294.34	1.1421
1297.23	1.28092
1300.12	0.061951
1303.02	0
