Measurement: Raman, 532 nm, unoriented, Raman Data Processed
Mineral: Tephroite
Rruff sample: R060141
Ideal chemistry: Mn^2+^_2_SiO_4_
Locality: Franklin, New Jersey, USA
Source: Marcus Origlieri
Description: Tan colored massive
Measured chemistry: (Mn^2+^_0.81_Zn_0.12_Mg_0.08_Ca_0.01_)_2_Si_1.00_O_4_
Raman shift (cm-1)	intensity
145.225	0
148.118	25.5035
151.011	82.5566
153.903	64.0919
156.796	25.6933
159.689	20.4461
162.581	32.62
165.474	42.8622
168.367	16.5252
171.259	3.47555
174.152	0.492493
177.045	1.84293
179.938	1.95254
182.83	1.38031
185.723	0.659454
188.616	0.021667
191.508	2.02411
194.401	1.599
197.294	2.59451
200.186	0.97644
203.079	0.5867
205.972	2.1471
208.864	1.43308
211.757	1.70612
214.65	1.61591
217.543	1.36514
220.435	4.44128
223.328	7.82309
226.221	18.997
229.113	23.2939
232.006	30.5841
234.899	39.8635
237.792	51.5069
240.684	67.1564
243.577	72.7638
246.47	57.9345
249.362	29.7243
252.255	20.8971
255.148	16.2232
258.041	13.1195
260.933	11.2598
263.826	13.0656
266.719	17.026
269.611	21.2358
272.504	26.4979
275.397	33.5913
278.289	34.7104
281.182	34.3321
284.075	34.5367
286.967	36.2652
289.86	29.3877
292.753	25.5735
295.646	25.6075
298.538	28.951
301.431	30.5944
304.324	33.1178
307.216	32.3477
310.109	26.7958
313.002	24.9076
315.895	23.4061
318.787	20.2099
321.68	14.4628
324.573	7.31628
327.465	4.8139
330.358	3.52524
333.251	0.944305
336.144	0.205017
339.036	0.759003
341.929	0.426361
344.822	1.03644
347.714	2.0466
350.607	1.87384
353.5	0.583801
356.392	1.06763
359.285	3.27319
362.178	7.91913
365.07	10.4011
367.963	16.7923
370.856	23.3814
373.749	32.8084
376.641	43.5382
379.534	55.4259
382.427	69.3041
385.32	80.0017
388.212	86.8194
391.105	85.0306
393.998	78.1118
396.89	68.7103
399.783	61.2989
402.676	54.8823
405.568	44.7687
408.461	32.1258
411.354	23.4234
414.247	17.0935
417.139	13.1598
420.032	11.1718
422.925	5.98187
425.817	6.70367
428.71	4.72723
431.603	4.31711
434.495	1.86758
437.388	0.771454
440.281	1.40048
443.173	1.62613
446.066	0.524475
448.959	0.353241
451.852	2.07681
454.744	3.68118
457.637	0.962585
460.53	2.37457
463.423	0.460541
466.315	0.658783
469.208	0.09903
472.101	1.07269
474.993	0.669952
477.886	1.34491
480.779	1.17172
483.671	0.031006
486.564	0.826904
489.457	1.60281
492.349	2.10028
495.242	3.19763
498.135	5.82419
501.028	7.63153
503.92	8.82367
506.813	12.5149
509.706	17.7293
512.598	21.9421
515.491	23.5182
518.384	18.2152
521.277	9.11731
524.169	5.57507
527.062	3.36807
529.955	3.68991
532.847	3.20789
535.74	4.25028
538.633	7.94421
541.525	8.66968
544.418	10.891
547.311	13.1133
550.204	14.7242
553.096	14.601
555.989	17.1524
558.882	19.8135
561.774	21.1855
564.667	23.2449
567.56	28.2425
570.452	33.3813
573.345	38.6933
576.238	42.2249
579.131	37.0565
582.023	27.9301
584.916	18.7857
587.809	12.9949
590.701	10.7839
593.594	5.0542
596.487	4.08353
599.38	4.27716
602.272	1.81329
605.165	1.86722
608.058	0.775024
610.95	1.13861
613.843	0.745209
616.736	0.958954
619.629	1.07947
622.521	0.16214
625.414	0.922668
628.307	0.423401
631.199	1.65472
634.092	0.908539
636.985	1.37717
639.877	2.07599
642.77	2.01031
645.663	1.35638
648.556	0.246918
651.448	1.52481
654.341	2.28842
657.234	1.66449
660.126	1.62335
663.019	1.24945
665.912	2.24957
668.804	2.29712
671.697	1.39584
674.59	2.74158
677.482	2.34372
680.375	2.08804
683.268	2.38724
686.161	1.116
689.053	2.4036
691.946	2.20667
694.839	1.44989
697.731	5.35879
700.624	4.10623
703.517	5.11942
706.409	3.89331
709.302	3.93979
712.195	3.07669
715.088	3.46933
717.98	0.857788
720.873	1.48105
723.766	2.00906
726.659	1.09375
729.551	2.15851
732.444	1.15805
735.337	0.518463
738.229	1.90042
741.122	0.882355
744.015	0.254059
746.907	0.249756
749.8	0.399994
752.693	2.01959
755.586	1.59189
758.478	0.31015
761.371	1.09106
764.264	1.14664
767.156	1.4252
770.049	2.96143
772.942	4.76007
775.835	10.2812
778.727	9.60251
781.62	17.7281
784.513	27.8219
787.405	50.0249
790.298	81.9216
793.191	148.98
796.083	235.906
798.976	360.917
801.869	545.836
804.761	726.179
807.654	684.269
810.547	459.713
813.44	277.812
816.332	182.108
819.225	141.32
822.118	145.919
825.01	199.702
827.903	313.704
830.796	468.119
833.688	688.541
836.581	1004.6
839.474	1219.03
842.367	957.482
845.259	480.318
848.152	233.567
851.045	126.381
853.937	75.4757
856.83	48.709
859.723	29.5688
862.616	18.3864
865.508	11.2475
868.401	6.42718
871.294	3.90054
874.186	0.346161
877.079	2.62235
879.972	7.34866
882.865	15.1336
885.757	23.4758
888.65	37.7786
891.543	43.6671
894.435	27.3649
897.328	10.4401
900.221	2.87624
903.113	1.66833
906.006	2.01202
908.899	2.42979
911.792	1.66852
914.684	1.04485
917.577	2.95253
920.47	10.1396
923.362	22.9182
926.255	39.0423
929.148	61.1393
932.04	94.1196
934.933	105.24
937.826	77.0434
940.719	46.4685
943.611	25.2129
946.504	14.9825
949.397	8.97018
952.289	7.09502
955.182	4.78752
958.075	3.50751
960.967	2.7735
963.86	2.12985
966.753	0.310303
969.646	0.706375
972.538	1.15846
975.431	0.003952
978.324	0.865387
981.216	1.57303
984.109	2.23906
987.002	2.36197
989.894	1.67671
992.787	1.58836
995.68	1.19507
998.573	1.84898
1001.47	2.32269
1004.36	1.49223
1007.25	1.11321
1010.14	1.55528
1013.04	1.01349
1015.93	2.4723
1018.82	1.22693
1021.71	2.2628
1024.61	1.80679
1027.5	0.534042
1030.39	1.37863
1033.29	2.41443
1036.18	1.15643
1039.07	0.865234
1041.96	0.854446
1044.86	0.933441
1047.75	0.027405
1050.64	1.15001
1053.53	1.00606
1056.43	0.120132
1059.32	0.065689
1062.21	1.49428
1065.11	1.69649
1068	1.90561
1070.89	2.57251
1073.78	0.170685
1076.68	0.183029
1079.57	1.65855
1082.46	0.748703
1085.35	1.16951
1088.25	2.44456
1091.14	1.48607
1094.03	1.32465
1096.92	2.09639
1099.82	0.766937
1102.71	0.254837
1105.6	1.08591
1108.49	1.29831
1111.39	1.32596
1114.28	0.230392
1117.17	0.621887
1120.07	2.49989
1122.96	0.062424
1125.85	4.35561
1128.74	2.33275
1131.64	3.8024
1134.53	2.27271
1137.42	4.6293
1140.32	3.50978
1143.21	4.38301
1146.1	4.24448
1148.99	5.78787
1151.89	3.98973
1154.78	3.71671
1157.67	2.58171
1160.56	4.74132
1163.46	3.1416
1166.35	3.02545
1169.24	3.17638
1172.13	3.09299
1175.03	2.59598
1177.92	1.32765
1180.81	2.62412
1183.71	2.5309
1186.6	1.81278
1189.49	1.32626
1192.38	0.422363
1195.28	0.031433
1198.17	1.28538
1201.06	0.477936
1203.95	0.908493
1206.85	0.534088
1209.74	0.145096
1212.63	0.464478
1215.53	1.98421
1218.42	2.01797
1221.31	0.984207
1224.2	1.61301
1227.1	1.40793
1229.99	2.3205
1232.88	0.547577
1235.77	0.328491
1238.67	1.02304
1241.56	0.605911
1244.45	0.698181
1247.35	1.47481
1250.24	2.05151
1253.13	1.35176
1256.02	0.028732
1258.92	0.09996
1261.81	0.69313
1264.7	1.00549
1267.59	2.63194
1270.49	1.56963
1273.38	1.35178
1276.27	0.764557
1279.16	1.27855
1282.06	0.727127
1284.95	0.889313
1287.84	1.63116
1290.74	2.38692
1293.63	0.807922
1296.52	0.193527
1299.41	0.930908
