Measurement: Raman, 780 nm, unoriented, Raman Data Processed
Mineral: Tephroite
Rruff sample: R060141
Ideal chemistry: Mn^2+^_2_SiO_4_
Locality: Franklin, New Jersey, USA
Source: Marcus Origlieri
Description: Tan colored massive
Measured chemistry: (Mn^2+^_0.81_Zn_0.12_Mg_0.08_Ca_0.01_)_2_Si_1.00_O_4_
Raman shift (cm-1)	intensity
145.058	0
147.951	4.33993
150.844	16.1906
153.736	19.2182
156.629	4.32723
159.522	4.42718
162.414	15.1459
165.307	31.1051
168.2	19.8065
171.093	3.61213
173.985	0.05439
176.878	0.250683
179.771	0.857342
182.663	0.2491
185.556	0.543297
188.449	0.166126
191.341	0.157906
194.234	0.008125
197.127	0.093697
200.019	0.723755
202.912	1.03101
205.805	0.587658
208.697	0.63813
211.59	0.694551
214.483	1.53219
217.376	3.17069
220.268	4.97544
223.161	8.20773
226.054	10.4086
228.946	13.4645
231.839	16.5013
234.732	20.1116
237.625	25.6741
240.517	31.9579
243.41	36.7079
246.303	31.3601
249.195	21.4344
252.088	14.1845
254.981	10.4213
257.873	8.99076
260.766	7.31322
263.659	8.00919
266.551	8.11968
269.444	9.46013
272.337	11.8163
275.23	13.1561
278.122	15.5835
281.015	14.3085
283.908	12.65
286.8	11.6749
289.693	11.2259
292.586	10.4855
295.478	12.0847
298.371	12.7366
301.264	14.9893
304.157	16.6665
307.049	16.5379
309.942	12.8444
312.835	11.1616
315.727	8.94242
318.62	7.51603
321.513	5.29861
324.406	3.61464
327.298	2.44974
330.191	0.762318
333.084	0.11232
335.976	0.366961
338.869	0.570724
341.762	0.398376
344.654	0.275328
347.547	0.558157
350.44	0.679255
353.332	1.0913
356.225	0.92519
359.118	1.45348
362.01	2.39738
364.903	4.61362
367.796	6.59858
370.689	10.8697
373.581	13.9627
376.474	18.3156
379.367	23.6511
382.259	30.2641
385.152	35.1923
388.045	38.4733
390.938	36.8777
393.83	32.8491
396.723	28.6213
399.616	25.4384
402.508	21.8431
405.401	17.813
408.294	13.8628
411.186	9.90962
414.079	7.73027
416.972	5.9284
419.865	4.78372
422.757	3.65776
425.65	2.7655
428.543	3.28508
431.435	1.86027
434.328	1.4734
437.221	2.25093
440.113	1.24197
443.006	1.42137
445.899	0.375793
448.791	0.817978
451.684	0.754494
454.577	0.182592
457.47	0.52142
460.362	0.09754
463.255	0.847757
466.148	0.260681
469.04	0.248404
471.933	0.496761
474.826	0.154413
477.719	0.143126
480.611	0.060509
483.504	0.491499
486.397	0.421385
489.289	0.396532
492.182	1.00311
495.075	2.41849
497.967	2.20737
500.86	4.121
503.753	5.92387
506.645	7.07139
509.538	10.4478
512.431	14.9106
515.323	17.9125
518.216	14.1194
521.109	8.64477
524.002	4.86208
526.894	3.68889
529.787	2.3894
532.68	2.14318
535.572	2.12482
538.465	2.69394
541.358	3.51808
544.25	4.5864
547.143	4.45419
550.036	5.54767
552.929	5.98508
555.821	6.353
558.714	6.34853
561.607	6.98952
564.499	6.12464
567.392	6.08924
570.285	6.91045
573.178	7.93794
576.07	8.55582
578.963	7.97671
581.856	5.50931
584.748	4.46621
587.641	2.81813
590.534	2.35134
593.426	1.18636
596.319	1.34234
599.212	0.583639
602.105	0.138361
604.997	0.054621
607.89	0.180614
610.783	0.234961
613.675	0.437561
616.568	0.081055
619.461	0.271324
622.353	0.129921
625.246	0.71666
628.139	0.684057
631.031	0.202936
633.924	0.260817
636.817	0.504164
639.71	0.283838
642.602	0.376337
645.495	0.545746
648.388	0.348169
651.28	0.374945
654.173	0.241478
657.066	1.11918
659.958	0.897398
662.851	1.30275
665.744	0.968061
668.636	0.703819
671.529	1.30119
674.422	0.527338
677.315	0.687971
680.207	1.15609
683.1	0.949099
685.993	1.44818
688.885	1.21994
691.778	1.5102
694.671	1.23097
697.563	1.27254
700.456	1.02311
703.349	1.17501
706.242	1.22269
709.134	1.14372
712.027	0.818047
714.92	1.08112
717.812	1.66825
720.705	0.293444
723.598	0.909657
726.49	0.508976
729.383	0.187651
732.276	0.670008
735.169	0.098305
738.061	0.467438
740.954	0.170006
743.847	0.006248
746.739	0.099689
749.632	0.177742
752.525	0.177017
755.418	0.101187
758.31	0.268372
761.203	0.020279
764.096	0.062473
766.988	0.228481
769.881	0.754559
772.774	0.519518
775.666	1.21066
778.559	2.60553
781.452	3.84311
784.345	7.295
787.237	12.0514
790.13	22.5933
793.023	38.9815
795.915	58.6649
798.808	83.9869
801.701	127.44
804.593	178.654
807.486	193.669
810.379	139.254
813.271	85.8525
816.164	54.9839
819.057	40.9685
821.949	40.2802
824.842	53.4745
827.735	79.2384
830.628	112.523
833.52	164.132
836.413	245.123
839.306	334.253
842.198	310.813
845.091	172.077
847.984	80.876
850.876	41.262
853.769	23.6941
856.662	14.9376
859.555	8.90463
862.447	6.05513
865.34	3.48858
868.233	2.00522
871.125	1.33004
874.018	1.10765
876.911	1.80266
879.803	4.40974
882.696	6.29918
885.589	9.66228
888.482	15.4907
891.374	20.4863
894.267	16.5845
897.16	7.62251
900.052	2.64574
902.945	0.492353
905.838	0.737734
908.731	0.415808
911.623	0.642832
914.516	0.05402
917.409	0.615564
920.301	2.64769
923.194	6.01189
926.087	9.60185
928.979	14.7829
931.872	24.4045
934.765	30.9949
937.658	25.2509
940.55	14.9096
943.443	6.76552
946.336	4.13737
949.228	1.92664
952.121	1.25485
955.014	0.835567
957.906	0.132432
960.799	0.949385
963.692	0.253126
966.584	0.619243
969.477	0.03645
972.37	0.04295
975.263	0.212011
978.155	0.140285
981.048	0.351329
983.941	0.386694
986.833	1.04838
989.726	0.632702
992.619	0.07558
995.511	0.600593
998.404	0.75016
1001.3	0.554369
1004.19	0.752772
1007.08	1.07553
1009.98	0.635864
1012.87	1.07407
1015.76	1.11522
1018.65	0.969762
1021.55	0.59481
1024.44	0.481166
1027.33	0.648526
1030.22	0.279712
1033.12	0.654895
1036.01	0.158476
1038.9	0.130281
1041.8	0.03769
1044.69	0.833129
1047.58	0.126425
1050.47	0.300876
1053.37	0.648617
1056.26	0.60656
1059.15	0.613995
1062.04	0.804142
1064.94	0.002381
1067.83	0.641958
1070.72	0.339616
1073.61	0.124576
1076.51	0.436134
1079.4	0.315629
1082.29	0.344635
1085.18	0.869323
1088.08	0.620879
1090.97	0.198903
1093.86	0.711963
1096.76	0.099199
1099.65	0.166301
1102.54	0.170852
1105.43	0.406713
1108.33	0.85397
1111.22	0.008348
1114.11	0.604223
1117.01	0.227379
1119.9	0.382157
1122.79	0.46529
1125.68	0.517914
1128.58	0.880828
1131.47	0.950422
1134.36	0.729469
1137.25	0.691153
1140.15	0.391112
1143.04	0.770658
1145.93	0.860133
1148.82	1.14737
1151.72	1.10825
1154.61	0.914198
1157.5	1.22142
1160.39	0.768021
1163.29	1.1854
1166.18	2.27347
1169.07	1.23555
1171.97	0.629528
1174.86	1.07103
1177.75	1.00761
1180.64	0.49328
1183.54	0.552776
1186.43	0.472959
1189.32	0.475198
1192.21	9.5e-05
1195.11	0.797479
1198	0.651749
1200.89	0.318244
1203.79	0.88631
1206.68	0.591853
1209.57	0.483874
1212.46	0.813003
1215.36	0.518112
1218.25	0.18312
1221.14	0.61494
1224.04	0.400906
1226.93	0.172535
1229.82	0.394645
1232.71	0.722262
1235.61	0.825087
1238.5	0.664112
1241.39	0.56477
1244.28	0.26389
1247.18	0.906539
1250.07	0.5648
1252.96	1.00659
1255.85	0.769716
1258.75	0.348865
1261.64	0.490067
1264.53	0.202175
1267.42	0.036078
1270.32	0.673992
1273.21	0.700721
1276.1	0.042862
1279	0.063258
1281.89	0.432971
1284.78	0.732526
