Measurement: Raman, 780 nm, unoriented, Raman Data Processed
Mineral: Tephroite
Rruff sample: R100105
Ideal chemistry: Mn^2+^_2_SiO_4_
Locality: Franklin, Sussex County, New Jersey, USA
Source: American Museum of Natural History
Description: Translucent gray massives
Measured chemistry: (Mn^+2^_1.716_Zn_0.124_Mg_0.080_Ca_0.078_Fe^+2^_0.003_Al_0.001_)_Î£=2.002_Si_0.998_O_4_
Raman shift (cm-1)	intensity
128.656	0
132.031	1.88078
135.406	9.61017
138.781	16.8663
142.155	24.5794
145.53	36.4167
148.905	58.658
152.28	77.3128
155.655	68.4846
159.03	66.3893
162.404	81.2222
165.779	95.7486
169.154	92.8518
172.529	89.6489
175.904	84.0924
179.278	76.059
182.653	59.8986
186.028	44.9791
189.403	28.2733
192.778	19.6141
196.153	12.391
199.527	3.52605
202.902	0.170486
206.277	0.291077
209.652	2.33876
213.027	1.34915
216.401	0.245308
219.776	3.45713
223.151	7.68533
226.526	11.546
229.901	13.2735
233.275	21.0281
236.65	24.3897
240.025	30.6919
243.4	32.7041
246.775	27.1553
250.15	22.5072
253.524	18.9695
256.899	18.4247
260.274	16.5853
263.649	17.8881
267.024	17.3497
270.399	19.0884
273.773	19.7606
277.148	22.386
280.523	14.7783
283.898	13.3986
287.273	13.9503
290.647	12.4913
294.022	12.3076
297.397	16.4391
300.772	17.1883
304.147	17.6325
307.522	11.9278
310.896	7.66987
314.271	6.23834
317.646	6.40368
321.021	3.59558
324.396	0.5383
327.77	0.293198
331.145	1.09528
334.52	0.046249
337.895	0.637543
341.27	3.02454
344.644	2.00801
348.019	4.03862
351.394	6.86179
354.769	11.8507
358.144	14.1114
361.519	17.6234
364.893	24.4131
368.268	29.6346
371.643	37.0816
375.018	45.8716
378.393	58.1145
381.767	68.6082
385.142	76.1186
388.517	82.3687
391.892	78.7224
395.267	76.881
398.642	65.6744
402.016	57.7829
405.391	52.9598
408.766	46.0166
412.141	43.6239
415.516	37.2781
418.89	36.5091
422.265	30.668
425.64	29.5305
429.015	26.5995
432.39	22.0117
435.765	19.136
439.139	16.0615
442.514	13.5442
445.889	11.3409
449.264	10.2495
452.639	4.41972
456.014	6.3416
459.388	1.14195
462.763	0.164276
466.138	1.05131
469.513	0.747238
472.887	0.674805
476.262	0.396652
479.637	2.42773
483.012	0.864334
486.387	1.24953
489.762	3.96957
493.136	7.69194
496.511	8.56073
499.886	12.1553
503.261	18.8475
506.636	25.895
510.01	31.1487
513.385	40.8005
516.76	47.5251
520.135	42.3624
523.51	38.2226
526.885	40.2254
530.259	40.4441
533.634	40.7201
537.009	38.5366
540.384	43.1952
543.759	42.6202
547.134	41.9721
550.508	43.0224
553.883	40.7472
557.258	38.1961
560.633	38.376
564.008	32.6953
567.382	32.5115
570.757	30.9209
574.132	28.1945
577.507	24.9326
580.882	21.3559
584.256	16.2027
587.631	14.1069
591.006	13.2713
594.381	10.9371
597.756	8.39705
601.131	7.22901
604.505	5.18406
607.88	5.58512
611.255	3.19495
614.63	3.92664
618.005	3.90366
621.38	1.08103
624.754	0.637825
628.129	1.47772
631.504	0.058395
634.879	1.09161
638.254	0.349159
641.628	1.85098
645.003	0.358536
648.378	0.745789
651.753	0.199036
655.128	2.90504
658.503	3.04759
661.877	2.72749
665.252	3.17283
668.627	4.13988
672.002	3.58028
675.377	5.29222
678.751	3.9011
682.126	5.01188
685.501	4.04749
688.876	4.00734
692.251	6.15734
695.625	4.15092
699	5.53686
702.375	3.73229
705.75	3.7863
709.125	3.83062
712.5	3.7936
715.874	3.18375
719.249	1.91723
722.624	2.19703
725.999	2.38397
729.374	3.02479
732.749	0.320827
736.123	0.067696
739.498	1.62197
742.873	0.31197
746.248	0.456635
749.623	0.801521
752.997	1.70462
756.372	0.476994
759.747	0.029533
763.122	1.3981
766.497	0.819393
769.871	0.107151
773.246	2.03811
776.621	4.82622
779.996	5.38481
783.371	14.4663
786.745	25.0787
790.12	55.4838
793.495	98.595
796.87	153.812
800.245	240.447
803.62	354.72
806.994	374.139
810.369	254.779
813.744	151.785
817.119	98.2195
820.494	79.9306
823.869	94.8232
827.243	130.316
830.618	169.377
833.993	245.15
837.368	350.254
840.743	357.212
844.117	191.442
847.492	90.4952
850.867	45.2873
854.242	27.8337
857.617	14.3946
860.991	7.42987
864.366	4.7657
867.741	2.31998
871.116	3.66548
874.491	6.11076
877.866	5.26397
881.24	10.0833
884.615	13.6654
887.99	21.4595
891.365	27.9332
894.74	19.031
898.115	6.60806
901.489	2.20903
904.864	0.651226
908.239	0.707603
911.614	2.34353
914.989	2.11774
918.363	1.4675
921.738	8.30385
925.113	13.1015
928.488	23.3944
931.863	36.8307
935.237	27.9291
938.612	15.3248
941.987	7.59727
945.362	3.05794
948.737	3.65834
952.112	1.94472
955.486	1.69013
958.861	0.356941
962.236	2.42235
965.611	1.75481
968.986	1.1686
972.361	0.486725
975.735	0.734451
979.11	3.78344
982.485	1.94826
985.86	1.83167
989.235	2.02983
992.609	0.659927
995.984	2.7324
999.359	2.34914
1002.73	5.14964
1006.11	4.49422
1009.48	3.8488
1012.86	4.83341
1016.23	5.22546
1019.61	2.31302
1022.98	1.09514
1026.36	1.64604
1029.73	2.42008
1033.11	1.23774
1036.48	0.603718
1039.86	1.31541
1043.23	2.00336
1046.61	1.55206
1049.98	1.62965
1053.36	1.45267
1056.73	1.29198
1060.11	0.295706
1063.48	0.374872
1066.86	0.510113
1070.23	0.671078
1073.61	1.11133
1076.98	1.10102
1080.36	1.75306
1083.73	1.3437
1087.1	0.165922
1090.48	0.647875
1093.85	0.672783
1097.23	2.6088
1100.6	1.97247
1103.98	1.86289
1107.35	0.300613
1110.73	0.617111
1114.1	0.568859
1117.48	0.389107
1120.85	2.83759
1124.23	1.91396
1127.6	3.1493
1130.98	2.56358
1134.35	2.3783
1137.73	2.88491
1141.1	2.19146
1144.48	2.00291
1147.85	1.57823
1151.23	2.69803
1154.6	2.56754
1157.97	3.19774
1161.35	2.87524
1164.72	1.6258
1168.1	2.31143
1171.47	1.57531
1174.85	3.01422
1178.22	1.36048
1181.6	2.85123
1184.97	2.48066
1188.35	1.22959
1191.72	2.74343
1195.1	3.82584
1198.47	2.19675
1201.85	1.17924
1205.22	0.97332
1208.6	0.966328
1211.97	1.33716
1215.35	2.3015
1218.72	2.57787
1222.1	1.69902
1225.47	0.178221
1228.85	1.02649
1232.22	2.60127
1235.6	0.088415
1238.97	1.889
1242.35	0.135628
1245.72	2.72691
1249.1	0.637018
1252.47	2.43882
1255.85	3.16402
1259.22	3.01038
1262.6	2.21722
1265.97	3.0468
1269.34	2.73455
1272.72	1.42229
1276.09	2.35823
1279.47	2.56824
1282.84	0.020763
