Measurement: Raman, 785 nm, unoriented, Raman Data Processed
Mineral: Tephroite
Rruff sample: X050162
Ideal chemistry: Mn^2+^_2_SiO_4_
Source: RD Shannon 56163-
Raman shift (cm-1)	intensity
206	0
210	3.133
214	8.578
218	1.474
222	1.664
226	5.371
230	28.089
234	98.616
238	294.997
242	471.561
246	261.957
250	91.413
254	40.738
258	8.612
262	3.523
266	8.103
270	46.08
274	51.508
278	16.619
282	32.074
286	73.105
290	41.392
294	5.888
298	1.601
302	2.984
306	16.476
310	53.507
314	116.191
318	124.06
322	61.12
326	21.778
330	6.863
334	0.326
338	0.06
342	0.998
346	7.252
350	10.279
354	13.245
358	15.176
362	9.212
366	2.189
370	1.405
374	0.218
378	13.028
382	42.144
386	61.591
390	65.311
394	86.001
398	109.567
402	94.394
406	49.805
410	20.076
414	4.774
418	0.153
422	1.338
426	0.554
430	1.721
434	3.518
438	5.394
442	4.415
446	5.602
450	9.248
454	11.448
458	13.738
462	13.65
466	10.137
470	4.332
474	0.825
478	0.117
482	0.299
486	1.73
490	1.755
494	0.781
498	1.135
502	3.573
506	11.769
510	34.98
514	57.91
518	30.567
522	9.746
526	3.759
530	0.551
534	0.715
538	0.871
542	0.594
546	3.089
550	8.714
554	7.112
558	1.65
562	4.457
566	25.988
570	70.079
574	93.948
578	55.373
582	17.342
586	2.964
590	0.019
594	0.345
598	0.305
602	1.125
606	1.586
610	1.694
614	1.29
618	2.249
622	2.097
626	1.63
630	1.678
634	0.109
638	0.711
642	0.107
646	0.75
650	0.393
654	1.086
658	1.661
662	0.355
666	0.182
670	1.649
674	0.802
678	0.182
682	0.451
686	1.08
690	0.27
694	1.941
698	0.598
702	1.303
706	0.095
710	0.104
714	1.102
718	0.166
722	0.314
726	0.19
730	0.025
734	0.173
738	0.229
742	0.801
746	1.742
750	2.674
754	3.775
758	6.078
762	7.498
766	8.196
770	10.053
774	9.18
778	4.276
782	0.477
786	2.137
790	2.19
794	22.106
798	125.045
802	587.893
806	1701.67
810	1212.4
814	293.38
818	31.452
822	13.264
826	50.46
830	347.714
834	1579.68
838	4084.1
842	2281.16
846	595.173
850	157.975
854	38.277
858	2.756
862	3.832
866	0.585
870	7.809
874	14.032
878	16.385
882	13.959
886	13.018
890	13.303
894	7.678
898	4.177
902	2.235
906	0.948
910	0.416
914	0.357
918	4.005
922	28.661
926	159.655
930	405.504
934	236.084
938	66.826
942	18.784
946	4.636
950	0.86
954	0.783
958	0.319
962	0.587
966	1.99
970	2.314
974	2.741
978	2.715
982	1.853
986	1.538
990	0.323
994	0.661
998	0.034
1002	0.009
1006	0.164
1010	1.2
1014	1.342
1018	1.258
1022	1.265
1026	0.438
1030	0.545
1034	0.678
1038	0.986
1042	0.381
1046	0.041
1050	0.345
1054	0.591
1058	0.326
1062	0.029
1066	0.449
1070	0.197
1074	0.983
1078	0.829
1082	0.813
1086	0.849
1090	1.521
1094	1.755
1098	0.976
1102	0.75
1106	0.391
1110	0.269
1114	0.035
1118	0.217
1122	0.544
1126	0.518
1130	2.293
1134	2.041
1138	1.366
1142	1.067
1146	1.711
1150	0.777
1154	0.309
1158	1.122
1162	0.723
1166	1.288
1170	1.167
1174	0.11
1178	0.445
1182	0.761
1186	1.134
1190	0.317
1194	0.708
1198	1.497
1202	1.156
1206	1.317
1210	1.304
1214	1.34
1218	0.141
1222	0.252
1226	0.05
1230	0.302
1234	1.857
1238	3.403
1242	4.526
1246	7.17
1250	7.846
1254	6.233
1258	3.682
1262	1.21
1266	2.724
1270	1.747
1274	2.329
1278	0.049
1282	0.24
1286	0.901
1290	0.985
1294	1.121
1298	0.974
1302	3.162
1306	5.38
1310	9.369
1314	12.311
1318	12.649
1322	11.906
1326	9.152
1330	5.799
1334	3.721
1338	3.056
1342	0.569
1346	0.094
1350	0.5
1354	1.726
1358	2.543
1362	2.718
1366	2.144
1370	2.647
1374	0.134
1378	0.389
1382	0.529
1386	4.978
1390	13.707
1394	27.675
1398	41.304
1402	49.163
1406	44.51
1410	28.537
1414	8.351
1418	0.208
1422	2.017
1426	0.7
1430	14.624
1434	48.745
1438	126.966
1442	247.676
1446	339.939
1450	299.961
1454	180.491
1458	82.379
1462	32.003
1466	8.589
1470	1.296
1474	0.938
1478	0.559
1482	4.756
1486	8.623
1490	12.657
1494	8.079
1498	3.654
