Measurement: Raman, 532 nm, unoriented, Raman Data Processed
Mineral: Tephroite
Rruff sample: R100105
Ideal chemistry: Mn^2+^_2_SiO_4_
Locality: Franklin, Sussex County, New Jersey, USA
Source: American Museum of Natural History
Description: Translucent gray massives
Measured chemistry: (Mn^+2^_1.716_Zn_0.124_Mg_0.080_Ca_0.078_Fe^+2^_0.003_Al_0.001_)_Î£=2.002_Si_0.998_O_4_
Raman shift (cm-1)	intensity
180.648	0
183.541	3.1994
186.433	4.56024
189.326	3.59973
192.219	3.60919
195.112	7.96472
198.004	7.77942
200.897	4.47241
203.79	6.75378
206.682	9.58911
209.575	8.46399
212.468	4.90112
215.36	4.67017
218.253	7.2644
221.146	5.28748
224.038	9.82428
226.931	11.2986
229.824	16.8528
232.717	17.8537
235.609	26.4667
238.502	29.1107
241.395	33.0806
244.287	29.4812
247.18	27.1373
250.073	18.336
252.965	9.32776
255.858	10.7388
258.751	7.06848
261.644	4.23962
264.536	8.14685
267.429	9.19293
270.322	10.7505
273.214	12.0375
276.107	19.4376
279	17.0127
281.892	20.3732
284.785	18.1681
287.678	17.2841
290.571	22.9553
293.463	21.0692
296.356	21.7564
299.249	22.8932
302.141	25.0764
305.034	19.9639
307.927	16.3788
310.82	18.1269
313.712	12.8008
316.605	17.4234
319.498	11.231
322.39	9.5094
325.283	4.39093
328.176	5.89197
331.068	0.462036
333.961	1.2981
336.854	0.009521
339.747	2.92114
342.639	0.166748
345.532	3.26502
348.425	1.55835
351.317	0.795715
354.21	1.18347
357.103	4.0943
359.995	4.05084
362.888	10.9836
365.781	10.7889
368.673	17.377
371.566	17.0416
374.459	28.694
377.352	42.8177
380.244	53.9352
383.137	64.0296
386.03	76.436
388.922	86.2756
391.815	81.7028
394.708	74.9489
397.601	64.9191
400.493	51.6417
403.386	42.334
406.279	34.9094
409.171	26.4959
412.064	20.415
414.957	14.1114
417.849	14.1557
420.742	5.68146
423.635	6.93921
426.527	6.63019
429.42	2.0376
432.313	3.37689
435.206	5.30353
438.098	5.9176
440.991	6.02801
443.884	0.263062
446.776	3.5885
449.669	1.88849
452.562	1.36511
455.454	4.46033
458.347	3.99603
461.24	1.43866
464.133	0.59021
467.025	1.72424
469.918	1.5852
472.811	0.947144
475.703	2.08685
478.596	2.8783
481.489	1.16919
484.382	2.40814
487.274	2.55542
490.167	1.3576
493.06	4.09314
495.952	0.638611
498.845	7.0155
501.738	6.84149
504.63	7.63599
507.523	9.84112
510.416	13.9653
513.308	19.1473
516.201	21.8563
519.094	15.0484
521.987	8.33118
524.879	10.1367
527.772	7.44672
530.665	1.10638
533.557	3.38019
536.45	4.70337
539.343	6.48773
542.236	8.39972
545.128	11.8096
548.021	11.7973
550.914	13.741
553.806	15.8199
556.699	12.9481
559.592	14.0259
562.484	18.5701
565.377	22.7987
568.27	26.9159
571.163	30.0835
574.055	31.8773
576.948	29.1154
579.841	21.9735
582.733	14.7658
585.626	12.7115
588.519	10.6696
591.411	7.32202
594.304	4.88666
597.197	1.1687
600.09	0.425598
602.982	0.465881
605.875	2.0639
608.768	0.259949
611.66	2.77899
614.553	0.555481
617.446	0.524963
620.338	1.94092
623.231	0.082947
626.124	2.31513
629.016	2.01074
631.909	5.86755
634.802	0.765869
637.695	1.65613
640.587	0.937317
643.48	3.05835
646.373	3.77948
649.265	1.58533
652.158	5.15768
655.051	8.57303
657.943	10.0918
660.836	9.2287
663.729	8.36227
666.622	5.36139
669.514	4.48721
672.407	4.69943
675.3	5.28891
678.192	6.24609
681.085	4.36185
683.978	6.11145
686.87	3.4469
689.763	0.132751
692.656	7.19553
695.549	4.64731
698.441	5.61389
701.334	2.85123
704.227	4.53082
707.119	4.55716
710.012	5.2771
712.905	2.66748
715.798	5.45761
718.69	9.31949
721.583	0.140198
724.476	3.54425
727.368	0.278198
730.261	0.354858
733.154	2.91013
736.046	1.27212
738.939	0.220612
741.832	0.720825
744.725	0.462555
747.617	1.81546
750.51	1.13913
753.403	0.733551
756.295	0.554474
759.188	0.400421
762.081	1.5874
764.973	0.273682
767.866	0.009552
770.759	4.28769
773.652	2.26608
776.544	7.03171
779.437	10.3263
782.33	15.4204
785.222	26.5307
788.115	40.85
791.008	78.6633
793.9	141.561
796.793	216.504
799.686	338.554
802.578	513.158
805.471	649.861
808.364	589.384
811.257	412.237
814.149	278.548
817.042	195.355
819.935	154.565
822.827	147.611
825.72	180.618
828.613	249.527
831.505	341.929
834.398	486.992
837.291	682.489
840.184	768.531
843.076	536.638
845.969	284.334
848.862	156.339
851.754	91.1338
854.647	59.3452
857.54	36.2399
860.433	25.4431
863.325	13.9256
866.218	7.17035
869.111	3.60382
872.003	1.37979
874.896	1.71936
877.789	2.79645
880.681	5.8753
883.574	7.353
886.467	15.4299
889.36	26.9174
892.252	28.4105
895.145	22.557
898.038	7.43027
900.93	4.52347
903.823	1.06082
906.716	0.370209
909.608	3.48657
912.501	2.74066
915.394	2.10812
918.287	0.180603
921.179	10.5833
924.072	18.805
926.965	32.0962
929.857	54.5438
932.75	67.5617
935.643	54.8143
938.535	33.6509
941.428	17.5003
944.321	9.1835
947.213	4.94818
950.106	4.37073
952.999	2.46338
955.892	3.32019
958.784	4.15454
961.677	0.36908
964.57	0.273773
967.462	0.240295
970.355	1.87332
973.248	0.175537
976.14	1.20392
979.033	1.88007
981.926	1.2897
984.819	2.20041
987.711	5.49191
990.604	4.56061
993.497	1.87668
996.389	1.88016
999.282	3.86777
1002.17	4.81854
1005.07	4.38455
1007.96	9.72952
1010.85	12.1311
1013.75	12.5174
1016.64	11.4539
1019.53	5.27823
1022.42	6.86441
1025.32	5.0824
1028.21	4.6821
1031.1	3.24051
1033.99	3.17572
1036.89	3.76974
1039.78	4.54715
1042.67	0.318756
1045.57	1.99866
1048.46	0.534088
1051.35	4.19849
1054.24	1.87106
1057.14	2.68536
1060.03	0.91629
1062.92	2.07489
1065.81	0.561249
1068.71	0.657043
1071.6	0.617218
1074.49	1.3884
1077.38	2.72913
1080.28	4.85867
1083.17	1.2103
1086.06	3.65463
1088.96	0.156586
1091.85	2.8786
1094.74	3.94528
1097.63	1.40715
1100.53	0.371811
1103.42	0.815689
1106.31	1.4088
1109.2	2.88396
1112.1	2.44031
1114.99	0.504379
1117.88	0.058746
1120.78	1.852
1123.67	2.05415
1126.56	1.90553
1129.45	0.835541
1132.35	5.0271
1135.24	2.50047
1138.13	4.69096
1141.02	4.28006
1143.92	6.06961
1146.81	4.01396
1149.7	3.31973
1152.6	5.98796
1155.49	3.61862
1158.38	4.16714
1161.27	2.34486
1164.17	3.42333
1167.06	1.60996
1169.95	3.19661
1172.84	2.73615
1175.74	3.66623
1178.63	0.982071
1181.52	2.07904
1184.41	1.54684
1187.31	1.34756
1190.2	0.120987
1193.09	0.768829
1195.99	0.927689
1198.88	1.5289
1201.77	2.80247
1204.66	2.67862
1207.56	4.00044
1210.45	5.25723
1213.34	3.20901
1216.23	3.0636
1219.13	0.049149
1222.02	0.311111
1224.91	2.86598
1227.81	2.7525
1230.7	0.964081
1233.59	4.45738
1236.48	1.84358
1239.38	0.010773
1242.27	2.85805
1245.16	1.6863
1248.05	3.10616
1250.95	4.12846
1253.84	4.66562
1256.73	0.316696
1259.62	2.48961
1262.52	4.15051
1265.41	2.19171
1268.3	3.57907
1271.2	3.4722
1274.09	0.983673
1276.98	2.23019
1279.87	4.91374
1282.77	4.0316
1285.66	0.327209
1288.55	1.44666
1291.44	0.714325
1294.34	0.803726
1297.23	2.85027
1300.12	0.103531
1303.02	0
