Measurement: Raman, 532 nm, unoriented, Raman Data Processed
Mineral: Tephroite
Rruff sample: R070511
Ideal chemistry: Mn^2+^_2_SiO_4_
Locality: Langban, Filipstad, Varmland, Sweden
Source: Michael Scott
Description: Light gray vitreous massive
Measured chemistry: (Mn^2+^_1.47_Mg_0.49_Ca_0.04_)_Î£=2_Si_1.00_O_4_
Raman shift (cm-1)	intensity
150.887	0
153.78	18.2295
156.672	62.5276
159.565	107.165
162.458	173.46
165.351	230.722
168.243	170.861
171.136	65.8574
174.029	60.3816
176.921	74.6562
179.814	45.4546
182.707	18.8743
185.6	6.12646
188.492	13.5017
191.385	40.0117
194.278	47.7136
197.17	32.2656
200.063	76.7651
202.956	53.9382
205.848	66.5425
208.741	32.1506
211.634	31.3557
214.526	14.2612
217.419	49.7095
220.312	33.8337
223.205	50.6038
226.097	41.0049
228.99	98.3835
231.883	111.249
234.775	109.265
237.668	167.561
240.561	275.424
243.453	344.642
246.346	337.834
249.239	271.069
252.132	166.812
255.024	117.486
257.917	68.7141
260.81	14.2129
263.702	7.0415
266.595	8.16919
269.488	2.72412
272.38	35.5317
275.273	19.5173
278.166	11.5063
281.059	4.61963
283.951	2.32056
286.844	19.334
289.737	51.5828
292.629	29.1706
295.522	48.4006
298.415	71.2595
301.308	18.2856
304.2	29.6692
307.093	72.7568
309.986	89.6382
312.878	62.0142
315.771	91.7246
318.664	92.3103
321.556	80.6746
324.449	114.591
327.342	74.073
330.235	66.2358
333.127	59.6658
336.02	1.5
338.913	24.3176
341.805	21.3489
344.698	55.344
347.591	62.6152
350.483	45.7407
353.376	14.9839
356.269	40.04
359.162	54.3579
362.054	15.5322
364.947	23.1895
367.84	52.3804
370.732	21.6802
373.625	11.0396
376.518	80.582
379.411	173.202
382.303	213.746
385.196	260.282
388.089	360.189
390.981	363.464
393.874	426.195
396.767	485.855
399.659	497.008
402.552	526.549
405.445	498.47
408.337	479.989
411.23	372.168
414.123	341.345
417.016	225.486
419.908	165.219
422.801	69.8481
425.694	157.409
428.586	54.3252
431.479	111.537
434.372	73.0361
437.264	49.9429
440.157	27.3013
443.05	11.498
445.943	82.0024
448.835	18.7959
451.728	57.7158
454.621	30.4507
457.513	63.5117
460.406	31.6133
463.299	38.7051
466.192	22.394
469.084	37.3911
471.977	23.998
474.87	1.19385
477.762	25.7564
480.655	27.0508
483.548	38.6211
486.44	21.8359
489.333	94.3115
492.226	158.028
495.118	169.36
498.011	188.502
500.904	171.625
503.797	107.344
506.689	162.392
509.582	209.49
512.475	222.465
515.367	246.08
518.26	256.14
521.153	215.465
524.045	125.503
526.938	54.4468
529.831	43.023
532.724	19.812
535.616	60.1431
538.509	26.3892
541.402	22.4697
544.294	48.772
547.187	29.2739
550.08	6.51172
552.972	43.1719
555.865	34.9312
558.758	28.4575
561.651	84.6987
564.543	117.744
567.436	61.5332
570.329	120.757
573.221	167.218
576.114	208.348
579.007	227.974
581.899	240.891
584.792	254.579
587.685	260.392
590.578	142.056
593.47	85.6655
596.363	75.5801
599.256	43.9585
602.149	45.4829
605.041	61.2788
607.934	59.1807
610.827	110.754
613.719	53.7739
616.612	101.071
619.505	33.9868
622.397	104.851
625.29	135.238
628.183	67.8027
631.076	70.167
633.968	105.722
636.861	83.6943
639.754	98.9273
642.646	56.835
645.539	95.5942
648.432	69.5298
651.324	73.5269
654.217	66.5698
657.11	58.3389
660.003	31.8452
662.895	41.208
665.788	93.5405
668.681	29.9736
671.573	64.4756
674.466	58.103
677.359	91.5371
680.251	128.015
683.144	24.1084
686.037	141.253
688.929	80.8398
691.822	35.1099
694.715	57.23
697.608	61.6592
700.5	48.3794
703.393	43.5664
706.286	43.0864
709.178	51.2676
712.071	21.439
714.964	29.2778
717.856	38.1562
720.749	2.80762
723.642	38.3955
726.535	30.3369
729.427	1.93897
732.32	31.4106
735.213	14.665
738.105	3.80615
740.998	27.146
743.891	7.20117
746.784	76.1084
749.676	11.5986
752.569	40.7261
755.462	1.13281
758.354	18.1748
761.247	15.438
764.14	8.79297
767.033	27.354
769.925	54.1367
772.818	27.4072
775.711	63.4273
778.603	1.31689
781.496	73.8096
784.389	127.195
787.281	184.367
790.174	252.346
793.067	369.631
795.96	685.018
798.852	1358.67
801.745	2162.12
804.638	3046.99
807.53	3608.22
810.423	3261.18
813.316	2096.99
816.208	1393.36
819.101	1069.15
821.994	1090.27
824.886	1242.69
827.779	1678.61
830.672	2700.08
833.565	4436.1
836.457	6686.62
839.35	8718.52
842.243	9214.19
845.135	6528.28
848.028	3519.91
850.921	1918.26
853.813	1133.26
856.706	764.413
859.599	437.248
862.492	342.805
865.384	178.243
868.277	107.485
871.17	37.7827
874.062	22.3452
876.955	42.6934
879.848	16.0083
882.74	19.0684
885.633	59.9839
888.526	96.0435
891.419	141.206
894.311	170.438
897.204	80.2856
900.097	92.3447
902.989	57.6714
905.882	11.04
908.775	6.98877
911.668	7.88672
914.56	65.4512
917.453	12.2602
920.346	43.6523
923.238	59.9004
926.131	116.018
929.024	126.837
931.916	190.767
934.809	519.796
937.702	808.457
940.595	1208.19
943.487	1281.6
946.38	808.243
949.273	402.231
952.165	208.748
955.058	137.517
957.951	53.7759
960.843	96.2837
963.736	47.2666
966.629	8.18555
969.521	44.8281
972.414	82.5815
975.307	47.8599
978.2	18.6035
981.092	40.1435
983.985	33.127
986.878	43.4043
989.77	39.6738
992.663	88.7178
995.556	11.9653
998.448	86.1875
1001.34	17.2393
1004.23	33.4512
1007.13	48.3081
1010.02	39.4336
1012.91	62.3838
1015.8	174.713
1018.7	95.8364
1021.59	101.676
1024.48	133.103
1027.38	104.127
1030.27	137.172
1033.16	138.159
1036.05	98.3023
1038.95	71.0474
1041.84	50.6655
1044.73	78.8569
1047.62	107.622
1050.52	44.3809
1053.41	27.751
1056.3	35.397
1059.19	44.812
1062.09	11.0615
1064.98	33.5659
1067.87	65.8428
1070.77	45.5679
1073.66	4.87598
1076.55	20.1352
1079.44	12.4521
1082.34	22.4951
1085.23	52.3916
1088.12	23.9883
1091.02	72.2539
1093.91	81.0576
1096.8	97.9912
1099.69	1.56787
1102.59	40.8325
1105.48	15.4214
1108.37	13.1865
1111.26	5.41113
1114.16	63.7959
1117.05	31.1558
1119.94	59.5859
1122.84	3.17871
1125.73	35.3965
1128.62	97.5732
1131.51	23.7051
1134.41	98.6894
1137.3	30.4248
1140.19	73.3516
1143.08	43.709
1145.98	53.0117
1148.87	104.329
1151.76	83.6064
1154.65	46.2461
1157.55	28.3838
1160.44	89.1445
1163.33	86.6865
1166.22	116.373
1169.12	100.182
1172.01	78.7607
1174.9	130.357
1177.8	83.916
1180.69	16.6582
1183.58	137.811
1186.47	115.105
1189.37	63.206
1192.26	44.4277
1195.15	12.5635
1198.05	2.74902
1200.94	8.15527
1203.83	32.1084
1206.72	70.8975
1209.62	34.4297
1212.51	65.7588
1215.4	73.1856
1218.29	71.459
1221.19	67.6523
1224.08	89.8086
1226.97	73.9033
1229.87	70.6397
1232.76	30.9805
1235.65	4.92871
1238.54	53.7129
1241.44	19.4473
1244.33	37.917
1247.22	61.1465
1250.11	27.0723
1253.01	48.5772
1255.9	59.4287
1258.79	0.362305
1261.68	68.2002
1264.58	95.4434
1267.47	97.4648
1270.36	59.6055
1273.26	73.3779
1276.15	73.4814
1279.04	51.6865
1281.93	102.586
1284.83	107.202
1287.72	40.5869
1290.61	52.5967
1293.5	27.5586
1296.4	23.5156
1299.29	10.8105
1302.18	47.6582
1305.08	43.6221
