Measurement: Raman, 785 nm, unoriented, Raman Data Processed
Mineral: Tephroite
Rruff sample: X050162
Ideal chemistry: Mn^2+^_2_SiO_4_
Source: RD Shannon 56163-
Raman shift (cm-1)	intensity
206	0
210	1.676
214	6.24
218	0.179
222	0.73
226	2.357
230	20.593
234	74.361
238	231.251
242	361.271
246	196.111
250	67.7
254	30.349
258	5.767
262	1.32
266	5.684
270	47.953
274	130.945
278	71.341
282	4.98
286	0.611
290	0.887
294	20.16
298	95.617
302	186.44
306	122.383
310	43.732
314	12.801
318	3.602
322	0.179
326	0.252
330	3.805
334	2.963
338	1.961
342	0.287
346	0.048
350	0.993
354	3.314
358	4.826
362	0.874
366	0.919
370	4.236
374	21.75
378	51.072
382	74.112
386	75.457
390	48.658
394	23.364
398	8.733
402	3.943
406	0.902
410	1.402
414	2.586
418	2.811
422	1.569
426	0.955
430	0.019
434	1.034
438	1.222
442	1.224
446	1.43
450	2.243
454	4.523
458	4.859
462	6.713
466	3.749
470	1.855
474	0.017
478	0.648
482	1.996
486	2.24
490	2.169
494	0.209
498	1.626
502	6.919
506	23.834
510	72.607
514	118.522
518	64.863
522	19.395
526	4.318
530	0.171
534	0.535
538	0.722
542	6.292
546	19.293
550	37.41
554	43.89
558	27.303
562	9.327
566	2.704
570	4.218
574	6.301
578	3.892
582	0.714
586	0.16
590	0.139
594	1.007
598	1.69
602	0.215
606	0.707
610	1.328
614	1.652
618	1.085
622	2.719
626	1.395
630	1.049
634	0.799
638	0.341
642	0.951
646	0.885
650	1.773
654	1.765
658	1.116
662	0.398
666	0.532
670	0.4
674	0.864
678	0.472
682	0.855
686	0.228
690	0.053
694	2.101
698	0.922
702	0.941
706	0.12
710	0.883
714	0.644
718	0.774
722	1.385
726	0.99
730	0.285
734	0.23
738	0.081
742	0.882
746	1.868
750	3.142
754	4.807
758	6.791
762	7.907
766	9.197
770	12.405
774	9.659
778	3.169
782	0.874
786	2.078
790	5.521
794	27.979
798	146.161
802	674.713
806	1918.52
810	1356.62
814	339.342
818	48.697
822	12.179
826	27.81
830	254.529
834	1206.56
838	3087.88
842	1713.92
846	448.223
850	119.415
854	30.414
858	3.477
862	3.266
866	1.237
870	4.865
874	13.081
878	25.498
882	56.998
886	166.209
890	283.088
894	153.99
898	42.573
902	10.312
906	0.788
910	1.201
914	0.329
918	5.979
922	28.238
926	133.275
930	303.526
934	164.686
938	43.438
942	10.677
946	2.171
950	0.781
954	1.747
958	0.621
962	0.692
966	1.064
970	1.606
974	1.466
978	1.19
982	0.903
986	1.434
990	0.069
994	0.732
998	0.068
1002	0.002
1006	0.946
1010	0.88
1014	0.472
1018	0.087
1022	0.743
1026	0.575
1030	0.352
1034	0.936
1038	1.064
1042	0.938
1046	1.962
1050	0.917
1054	1.07
1058	0.002
1062	0.647
1066	0.727
1070	0.409
1074	2.164
1078	1.669
1082	0.593
1086	0.385
1090	0.473
1094	1.581
1098	1.024
1102	1.515
1106	2.382
1110	0.026
1114	0.233
1118	0.363
1122	0.663
1126	1.004
1130	2.663
1134	2.272
1138	2.285
1142	0.766
1146	1.098
1150	0.188
1154	0.204
1158	0.01
1162	0.376
1166	0.007
1170	0.274
1174	0.552
1178	0.151
1182	0.799
1186	1.378
1190	3.222
1194	3.654
1198	4.272
1202	5.008
1206	6.194
1210	3.875
1214	1.974
1218	0.657
1222	1.419
1226	0.177
1230	5.73
1234	17.731
1238	44.405
1242	88.715
1246	133.685
1250	133.608
1254	88.511
1258	46.413
1262	17.154
1266	5.461
1270	0.084
1274	1.696
1278	0.023
1282	0.639
1286	1.304
1290	1.147
1294	1.636
1298	3.371
1302	7.519
1306	20.094
1310	35.761
1314	39.28
1318	23.915
1322	11.923
1326	5.063
1330	2.97
1334	1.678
1338	0.797
1342	0.864
1346	3.093
1350	9.632
1354	17.154
1358	25.697
1362	29.536
1366	23.69
1370	15.439
1374	11.324
1378	6.995
1382	3.009
1386	2.15
1390	0.202
1394	5.614
1398	8.509
1402	4.615
1406	0.529
1410	2.19
1414	3.757
1418	24.44
1422	52.787
1426	73.653
1430	69.718
1434	54.317
1438	43.956
1442	56.574
1446	81.042
1450	68.849
1454	34.897
1458	9.269
1462	0.82
1466	1.466
1470	1.025
1474	3.698
1478	7.54
1482	8.924
1486	14.329
1490	19.411
1494	14.997
1498	6.068
