Measurement: Raman, 785 nm, unoriented, Raman Data Processed
Mineral: Tephroite
Rruff sample: R070511
Ideal chemistry: Mn^2+^_2_SiO_4_
Locality: Langban, Filipstad, Varmland, Sweden
Source: Michael Scott
Description: Light gray vitreous massive
Measured chemistry: (Mn^2+^_1.47_Mg_0.49_Ca_0.04_)_Î£=2_Si_1.00_O_4_
Raman shift (cm-1)	intensity
160.563	0
163.455	232.759
166.348	384.014
169.241	255.579
172.133	88.8589
175.026	65.7666
177.919	55.0605
180.812	88.8994
183.704	187.109
186.597	199.503
189.49	211.742
192.382	254.299
195.275	253.654
198.168	260.543
201.06	281.902
203.953	238.284
206.846	236.666
209.739	168.499
212.631	146.949
215.524	184.092
218.417	219.415
221.309	173.828
224.202	221.244
227.095	229.829
229.988	275.726
232.88	301.774
235.773	301.565
238.666	397.791
241.558	512.91
244.451	562.946
247.344	568.84
250.236	348.161
253.129	257.261
256.022	196.142
258.915	184.823
261.807	103.617
264.7	15.4336
267.593	30.0933
270.485	23.2974
273.378	18.5986
276.271	22.1533
279.163	11.5781
282.056	0.601074
284.949	9.42627
287.842	20.8227
290.734	42.8818
293.627	10.0171
296.52	6.79688
299.412	10.5605
302.305	54.8086
305.198	130.005
308.09	187.108
310.983	193.722
313.876	202.469
316.769	205.992
319.661	211.891
322.554	252.636
325.447	233.985
328.339	285.48
331.232	248.056
334.125	330.999
337.017	374.438
339.91	493.43
342.803	372.641
345.695	267.765
348.588	152.627
351.481	226.824
354.374	88.9712
357.266	106.188
360.159	47.9233
363.052	14.8677
365.944	37.1016
368.837	121.984
371.73	56.1831
374.623	131.856
377.515	155.478
380.408	201.274
383.301	220.129
386.193	310.356
389.086	310.631
391.979	376.87
394.871	359.064
397.764	435.58
400.657	407.09
403.55	328.919
406.442	360.498
409.335	340.891
412.228	328.065
415.12	176.677
418.013	182.191
420.906	113.744
423.798	70.6431
426.691	122.399
429.584	8.08057
432.476	4.32715
435.369	50.1528
438.262	55.6006
441.155	2.97363
444.047	5.77246
446.94	27.1108
449.833	26.7661
452.725	36.0269
455.618	40.3003
458.511	59.1265
461.404	49.8355
464.296	33.9546
467.189	108.956
470.082	134.026
472.974	118.053
475.867	16.3667
478.76	12.2983
481.652	51.2349
484.545	94.458
487.438	110.423
490.33	57.3433
493.223	108.928
496.116	110.938
499.009	126.994
501.901	78.1538
504.794	149.429
507.687	148.494
510.579	167.194
513.472	212.421
516.365	171.076
519.258	193.333
522.15	150.24
525.043	98.0747
527.936	74.3867
530.828	77.2617
533.721	1.6333
536.614	13.6279
539.506	25.8335
542.399	9.06055
545.292	8.22852
548.185	32.4277
551.077	8.19385
553.97	34.8223
556.863	31.2573
559.755	76.0542
562.648	85.5059
565.541	96.3809
568.433	80.5986
571.326	86.645
574.219	121.196
577.111	77.4546
580.004	137.952
582.897	131.401
585.79	49.8188
588.682	121.086
591.575	121.059
594.468	115.134
597.36	58.7993
600.253	75.1733
603.146	20.1206
606.038	63.9712
608.931	78.5908
611.824	51.1128
614.717	86.0811
617.609	129.57
620.502	114.465
623.395	62.7617
626.287	94.6304
629.18	125.574
632.073	100.588
634.966	16.6528
637.858	56.02
640.751	57.022
643.644	73.1865
646.536	52.3696
649.429	44.2852
652.322	23.3618
655.214	36.2915
658.107	30.4531
661	29.0664
663.893	20.0938
666.785	7.91748
669.678	54.5772
672.571	34.4853
675.463	19.5498
678.356	26.6392
681.249	91.6768
684.141	86.6943
687.034	5.36621
689.927	47.1201
692.819	95.1841
695.712	54.7656
698.605	67.6567
701.498	80.1621
704.39	37.8198
707.283	11.8818
710.176	8.77685
713.068	0.464844
715.961	55.8052
718.854	23.0112
721.746	83.9438
724.639	18.0205
727.532	36.5727
730.425	51.354
733.317	19.3032
736.21	2.29346
739.103	23.231
741.995	4.44287
744.888	19.8555
747.781	4.38623
750.673	37.4009
753.566	18.5415
756.459	0.885254
759.352	19.6875
762.244	6.82178
765.137	25.2363
768.03	13.8462
770.922	78.4595
773.815	3.7876
776.708	11.2466
779.601	49.2393
782.493	56.938
785.386	41.0376
788.279	137.411
791.171	217.662
794.064	316.765
796.957	611.473
799.849	1022.24
802.742	1700.76
805.635	2399.92
808.528	2645.69
811.42	2005.65
814.313	1261.05
817.206	937.07
820.098	795.897
822.991	834.04
825.884	987.032
828.776	1474.73
831.669	2523.69
834.562	4101.05
837.455	6295.91
840.347	8038.06
843.24	7424.04
846.133	4681.99
849.025	2463.32
851.918	1364.2
854.811	816.466
857.703	523.238
860.596	362.551
863.489	262.06
866.381	87.7593
869.274	91.9688
872.167	111.994
875.06	4.7793
877.952	75.0093
880.845	16.3081
883.738	43.3428
886.63	35.7856
889.523	111.721
892.416	145.621
895.308	86.1685
898.201	90.4614
901.094	92.0254
903.987	43.644
906.879	3.61426
909.772	4.37012
912.665	30.5181
915.557	8.63184
918.45	22.3643
921.343	51.562
924.236	1.5459
927.128	92.7139
930.021	169.394
932.914	284.433
935.806	433.827
938.699	750.538
941.592	1021.57
944.484	890.184
947.377	499.151
950.27	261.934
953.163	133.616
956.055	68.7495
958.948	82.355
961.841	13.7681
964.733	39.3066
967.626	19.2983
970.519	48.2456
973.411	15.2217
976.304	53.1274
979.197	58.5493
982.09	7.20996
984.982	17.3667
987.875	6.62793
990.768	21.3286
993.66	28.0366
996.553	11.4766
999.446	26.2051
1002.34	73.3496
1005.23	103.474
1008.12	52.0645
1011.02	37.1958
1013.91	106.419
1016.8	96.7256
1019.7	75.0908
1022.59	120.981
1025.48	119.627
1028.37	90.3135
1031.27	73.5513
1034.16	61.1982
1037.05	53.1304
1039.94	62.1148
1042.84	75.2925
1045.73	43.3643
1048.62	47.1377
1051.51	102.267
1054.41	27.8921
1057.3	19.647
1060.19	38.979
1063.09	21.4888
1065.98	23.1104
1068.87	38.1338
1071.76	57.394
1074.66	43.3696
1077.55	49.6553
1080.44	85.9575
1083.33	23.5923
1086.23	18.2417
1089.12	30.8081
1092.01	17.7427
1094.9	49.4575
1097.8	23.9302
1100.69	63.2105
1103.58	29.3755
1106.48	11.0727
1109.37	0.019531
1112.26	56.3071
1115.15	25.4727
1118.05	57.5444
1120.94	55.2744
1123.83	0.754395
1126.72	11.8091
1129.62	39.3569
1132.51	62.0156
1135.4	24.6538
1138.3	19.8389
1141.19	83.5825
1144.08	62.4619
1146.97	42.0518
1149.87	76.8501
1152.76	41.1914
1155.65	76.4497
1158.54	69.0396
1161.44	32.5352
1164.33	39.9292
1167.22	24.1431
1170.12	84.6592
1173.01	55.8926
1175.9	44.7925
1178.79	37.9898
1181.69	25.0137
1184.58	4.35059
1187.47	29.5732
1190.36	67.7437
1193.26	79.2627
1196.15	2.35596
1199.04	44.4019
1201.93	47.9844
1204.83	52.7407
1207.72	59.5879
1210.61	105.783
1213.51	68.1514
1216.4	50.5527
1219.29	27.1294
1222.18	40.9614
1225.08	38.8008
1227.97	8.29785
1230.86	32.8452
1233.75	0
