Measurement: Raman, 785 nm, unoriented, Raman Data Processed
Mineral: Tephroite
Rruff sample: X050162
Ideal chemistry: Mn^2+^_2_SiO_4_
Source: RD Shannon 56163-
Raman shift (cm-1)	intensity
206	0
210	6.356
214	3.936
218	3.032
222	0.307
226	0.734
230	1.529
234	9.204
238	36.35
242	62.283
246	39.258
250	20.73
254	13.508
258	2.292
262	1.379
266	2.4
270	0.867
274	0.467
278	5.37
282	27.824
286	59.448
290	35.17
294	12.032
298	21.571
302	34.659
306	18.545
310	4.651
314	0.254
318	0.085
322	0.036
326	0.096
330	1.925
334	3.674
338	5.244
342	2.937
346	2.928
350	2.642
354	3.37
358	2.084
362	0.338
366	0.992
370	0.073
374	8.083
378	29.14
382	77.805
386	133.507
390	143.821
394	98.916
398	49.713
402	22.02
406	6.852
410	1.765
414	1.519
418	0.636
422	1.727
426	2.806
430	2.593
434	0.794
438	2.147
442	1.586
446	2.008
450	2.197
454	3.427
458	3.137
462	4.35
466	2.159
470	1.148
474	0.106
478	0.928
482	1.214
486	0.717
490	1.78
494	0.148
498	0.147
502	1.323
506	9.271
510	31.332
514	55.095
518	29.916
522	10.079
526	1.969
530	0.034
534	0.37
538	1.488
542	6.522
546	7.401
550	4.008
554	0.228
558	0.163
562	6.074
566	20.954
570	53.745
574	70.023
578	40.693
582	12.895
586	4.569
590	1.031
594	0.359
598	0.449
602	0.261
606	1.111
610	1.351
614	1.759
618	0.657
622	0.978
626	0.345
630	0.637
634	0.236
638	0.001
642	0.211
646	1.117
650	1.357
654	1.592
658	0.556
662	0.786
666	0.026
670	0.759
674	1.247
678	1.312
682	0.466
686	0.876
690	0.021
694	0.762
698	0.81
702	1.141
706	1.128
710	0.016
714	0.528
718	0.523
722	1.003
726	0.876
730	0.819
734	0.04
738	0.116
742	1.553
746	2.436
750	3.428
754	4.333
758	6.147
762	6.786
766	7.765
770	9.566
774	5.852
778	1.166
782	1.894
786	1.249
790	7.782
794	31.544
798	142.697
802	630.476
806	1757.42
810	1207.07
814	303.037
818	59.048
822	3.167
826	2.722
830	105.716
834	564.696
838	1419.07
842	746.158
846	190.182
850	49.033
854	9.868
858	0.571
862	1.122
866	1.067
870	5.056
874	6.409
878	5.16
882	4.154
886	5.751
890	7.616
894	3.482
898	1.867
902	0.943
906	1.332
910	0.255
914	0.448
918	1.385
922	9.872
926	57.213
930	151.985
934	87.622
938	25.295
942	7.356
946	3.004
950	1.1
954	0.787
958	0.052
962	0.061
966	2.142
970	2.175
974	2.699
978	1.868
982	1.5
986	1.036
990	1.04
994	0.84
998	0.043
1002	0.012
1006	0.168
1010	0.08
1014	1.964
1018	0.897
1022	0.099
1026	0.118
1030	0.882
1034	1.42
1038	0.949
1042	1.611
1046	1.72
1050	1.273
1054	0.852
1058	0.243
1062	0.025
1066	0.009
1070	0.123
1074	0.071
1078	0.104
1082	1.052
1086	0.815
1090	0.121
1094	1.288
1098	1.013
1102	1.296
1106	0.92
1110	0.201
1114	1.291
1118	0.165
1122	1.063
1126	0.754
1130	2.377
1134	1.716
1138	2.242
1142	1.744
1146	0.691
1150	0.564
1154	0.145
1158	0.731
1162	0.493
1166	1.285
1170	0.781
1174	0.098
1178	0.43
1182	0.17
1186	0.981
1190	1.939
1194	0.836
1198	1.749
1202	1.226
1206	2.115
1210	1.624
1214	0.293
1218	0.322
1222	1.494
1226	1.383
1230	2.253
1234	8.969
1238	17.792
1242	30.954
1246	43.183
1250	41.089
1254	27.498
1258	12.766
1262	4.558
1266	0.968
1270	0.049
1274	0.669
1278	0.021
1282	1.563
1286	0.871
1290	0.183
1294	0.399
1298	2.449
1302	2.601
1306	6.348
1310	11.695
1314	12.52
1318	9.142
1322	5.56
1326	3.094
1330	2.252
1334	1.495
1338	0.272
1342	0.182
1346	1.843
1350	3.934
1354	6.455
1358	9.329
1362	8.732
1366	7.866
1370	5.308
1374	4.104
1378	2.36
1382	0.13
1386	0.206
1390	2.322
1394	5.045
1398	12.006
1402	13.289
1406	5.841
1410	0.951
1414	1.636
1418	0.199
1422	5.395
1426	11.194
1430	10.923
1434	17.332
1438	42.645
1442	88.209
1446	125.537
1450	109.181
1454	61.632
1458	25.176
1462	5.995
1466	1.29
1470	1.287
1474	0.188
1478	4.011
1482	6.121
1486	7.447
1490	7.844
1494	5.053
1498	2.333
