Measurement: Raman, 780 nm, unoriented, Raman Data Processed
Mineral: Terlinguaite
Rruff sample: R140878
Ideal chemistry: Hg_2_OCl
Locality: Terlingua, Texas, USA
Source: Tom Loomis
Description: Yellow crystals, associated with red montroydite (R140877)
Raman shift (cm-1)	intensity
91.5599	0
94.9347	6.29039
98.3096	17.2461
101.684	47.9146
105.059	24.4221
108.434	16.4326
111.809	14.1961
115.184	9.75887
118.558	1.44374
121.933	1.05162
125.308	0.87859
128.683	0.341703
132.058	2.68031
135.433	7.15933
138.807	11.8915
142.182	16.4651
145.557	22.7327
148.932	32.3006
152.307	48.5818
155.681	60.3184
159.056	49.4408
162.431	28.5962
165.806	16.8206
169.181	12.2239
172.555	10.347
175.93	10.3257
179.305	9.16165
182.68	10.2305
186.055	10.1122
189.43	10.3078
192.804	14.0751
196.179	18.7569
199.554	25.116
202.929	24.4113
206.304	11.6624
209.678	5.41781
213.053	3.37481
216.428	2.7396
219.803	2.50721
223.178	2.16625
226.553	1.91213
229.927	1.46231
233.302	0.778192
236.677	0.40228
240.052	0.191998
243.427	0.26907
246.801	0.410638
250.176	0.171957
253.551	0.277687
256.926	0.118091
260.301	0.132156
263.675	0.497957
267.05	1.01422
270.425	2.01759
273.8	2.99668
277.175	4.13735
280.55	6.30958
283.924	8.21779
287.299	9.99843
290.674	8.10417
294.049	4.16613
297.424	2.10602
300.798	1.07436
304.173	0.511819
307.548	0.247004
310.923	0.072782
314.298	0.073856
317.673	0.00625
321.047	0.011963
324.422	0.000544
327.797	0.139729
331.172	0.060358
334.547	0.036988
337.921	0.044439
341.296	0.02417
344.671	0.069513
348.046	0.087648
351.421	0.109824
354.796	0.204966
358.17	0.492918
361.545	0.537894
364.92	0.87497
368.295	1.84831
371.67	2.33168
375.044	2.74995
378.419	3.40674
381.794	3.71539
385.169	3.83914
388.544	3.6814
391.918	3.18693
395.293	2.38756
398.668	2.32691
402.043	2.32262
405.418	2.40622
408.793	2.93681
412.167	3.65565
415.542	4.31167
418.917	5.33682
422.292	6.90688
425.667	8.31322
429.041	9.4323
432.416	10.3947
435.791	10.9486
439.166	9.79199
442.541	8.57259
445.915	5.97547
449.29	4.535
452.665	3.42009
456.04	2.79267
459.415	2.36704
462.789	1.6302
466.164	1.48765
469.539	1.33018
472.914	0.768148
476.289	0.890387
479.664	0.563122
483.038	0.420645
486.413	0.177209
489.788	0.115609
493.163	0.050234
496.538	0.065207
499.913	0.194559
503.287	0.101369
506.662	0.017639
510.037	0.214287
513.412	0.512746
516.787	0.730712
520.161	1.41222
523.536	2.0205
526.911	2.63698
530.286	2.38694
533.661	1.24372
537.035	0.447092
540.41	0.32102
543.785	0.168535
547.16	0.31929
550.535	0.338137
553.909	0.136818
557.284	0.200545
560.659	0.070941
564.034	0.270747
567.409	0.164425
570.784	0.074639
574.158	0.252548
577.533	0.067109
580.908	0.132304
584.283	0.043997
587.658	0.046438
591.033	0.110547
594.407	0.000497
597.782	0.073169
601.157	0.150165
604.532	0.070156
607.907	0.229004
611.281	0.089919
614.656	0.027816
618.031	0.10952
621.406	0.335276
624.781	0.284283
628.155	0.490371
631.53	0.602685
634.905	0.670578
638.28	0.822779
641.655	0.580009
645.029	0.177615
648.404	0.124571
651.779	0.196154
655.154	0.306043
658.529	0.186493
661.904	0.093863
665.278	0.083091
668.653	0.234965
672.028	0.094167
675.403	0.098866
678.778	0.17001
682.153	0.16356
685.527	0.012886
688.902	0.136598
692.277	0.000298
695.652	0.079733
699.027	0.025803
702.401	0.02612
705.776	0.121201
709.151	0.090933
712.526	0.206615
715.901	0.043339
719.275	0.210972
722.65	0.268278
726.025	0.1602
729.4	0.238191
732.775	0.24768
736.149	0.099286
739.524	0.088102
742.899	0.104814
746.274	0.235264
749.649	0.194639
753.024	0.13438
756.398	0.16607
759.773	0.190066
763.148	0.056141
766.523	0.009847
769.898	0.016446
773.273	0.133307
776.647	0.116219
780.022	0.176662
783.397	0.072249
786.772	0.069879
790.146	0.031277
793.521	0.005136
796.896	0.100124
800.271	0.069013
803.646	0.216575
807.021	0.102512
810.395	0.011565
813.77	0.034358
817.145	0.050063
820.52	0.091977
823.895	0.114513
827.269	0.236546
830.644	0.406932
834.019	0.298562
837.394	0.527173
840.769	0.345233
844.144	0.260212
847.518	0.32933
850.893	0.012743
854.268	0.014621
857.643	0.131937
861.018	0.105555
864.393	0.034248
867.767	0.090828
871.142	0.234322
874.517	0.217893
877.892	0.246313
881.266	0.172217
884.641	0.411665
888.016	0.444849
891.391	0.5108
894.766	0.460751
898.141	0.624501
901.515	0.68377
904.89	0.734323
908.265	0.548721
911.64	0.415933
915.015	0.218336
918.389	0.042544
921.764	0.053017
925.139	0.088529
928.514	0.080539
931.889	0.064885
935.264	0.034441
938.638	0.051391
942.013	0.031109
945.388	0.135864
948.763	0.000113
952.138	0.091305
955.512	0.012539
958.887	0.053831
962.262	0.166981
965.637	0.174853
969.012	0.118884
972.386	0.147861
975.761	0.145074
979.136	0.120818
982.511	0.084557
985.886	0.010873
989.261	0.169367
992.635	0.100605
996.01	0.074099
999.385	0.139445
1002.76	0.035444
1006.13	0.042199
1009.51	0.108465
1012.88	0.174562
1016.26	0.252916
1019.63	0.094844
1023.01	0.13061
1026.38	0.011574
1029.76	0.167059
1033.13	0.19968
1036.51	0.268801
1039.88	0.204561
1043.26	0.066718
1046.63	0.21188
1050.01	0.107989
1053.38	0.174804
1056.76	0.145508
1060.13	0.136161
1063.51	0.121356
1066.88	0.042933
1070.26	0.113548
1073.63	0.077059
1077.01	0.112801
1080.38	0.054392
1083.76	0.143532
1087.13	0.168954
1090.51	0.128913
1093.88	0.075836
1097.26	0.119744
1100.63	0.077241
1104	0.118763
1107.38	0.116548
1110.75	0.010989
1114.13	0.150028
1117.5	0.134086
1120.88	0.190772
1124.25	0.137253
1127.63	0.123119
1131	0.172855
1134.38	0.060997
1137.75	0.228205
1141.13	0.219927
1144.5	0.205508
1147.88	0.123752
1151.25	0.013554
1154.63	0.139683
1158	0.149454
1161.38	0.104363
1164.75	0.058417
1168.13	0.129072
1171.5	0.109722
1174.88	0.169455
1178.25	0.141082
1181.62	0.057781
1185	0.190967
1188.38	0.035695
1191.75	0.141748
1195.12	0.029627
1198.5	0.165306
1201.87	0.245178
1205.25	0.036899
1208.62	0.218552
1212	0.126312
1215.37	0.022603
1218.75	0.065369
1222.12	0.040321
1225.5	0.111505
1228.87	0.028511
1232.25	0.177771
1235.62	0.105717
1239	0.275749
1242.37	0.052079
1245.75	0.078106
1249.12	0.097146
1252.5	0.188493
1255.87	0.174914
1259.25	0.027933
1262.62	0.084409
1265.99	0.156052
1269.37	0.179596
1272.74	0.237977
1276.12	0.15495
1279.49	0.054259
1282.87	0.247322
