Measurement: Raman, 785 nm, unoriented, Raman Data Processed
Mineral: Terlinguacreekite
Rruff sample: R060731
Ideal chemistry: Hg^2+^_3_O_2_Cl_2_
Locality: Mariposa mine, Terlingua, Brewster County, Texas, USA
Source: Michael Scott
Description: Dark orange bladed crystals on lighter orange incrustation, both terlinguacreekite, associated with calcite
Measured chemistry: Hg^2+^_3.00_O_2_Cl_2.00_ ; O estimated by difference and stoichiometry
Raman shift (cm-1)	intensity
157.95	0
160.843	107.319
163.736	554.34
166.628	773.381
169.521	288.166
172.414	112.953
175.306	4.79394
178.199	44.7217
181.092	9.20801
183.985	1.979
186.877	36.9355
189.77	44.6909
192.663	9.47021
195.555	24.6123
198.448	55.1333
201.341	52.1143
204.233	64.3955
207.126	31.9326
210.019	32.8984
212.912	16.7788
215.804	33.0918
218.697	59.9233
221.59	104.552
224.482	59.3145
227.375	69.1899
230.268	4.42627
233.161	12.919
236.053	15.5942
238.946	10.1274
241.839	7.70947
244.731	20.6177
247.624	73.7437
250.517	186.133
253.409	251.742
256.302	378.742
259.195	599.843
262.087	749.63
264.98	976.764
267.873	1122.95
270.766	1418.89
273.658	1552.72
276.551	1781.81
279.444	2076.86
282.336	2358.23
285.229	2665.56
288.122	3051.65
291.014	3353.05
293.907	3674.45
296.8	4136.32
299.693	4432.48
302.585	4735.1
305.478	4919.37
308.371	4898.21
311.263	4717.79
314.156	4385.89
317.049	3993.26
319.942	3704.52
322.834	3330.34
325.727	3139.02
328.62	2859.91
331.512	2476.23
334.405	2051.49
337.298	1653.24
340.19	1240.75
343.083	878.818
345.976	611.303
348.868	423.088
351.761	306.457
354.654	179.486
357.547	120.532
360.439	67.4644
363.332	52.2578
366.225	12.3276
369.117	3.05176
372.01	18.0586
374.903	11.5547
377.796	38.8784
380.688	4.28467
383.581	14.9653
386.474	36.228
389.366	13.498
392.259	0.67627
395.152	24.8555
398.044	56.0649
400.937	34.376
403.83	66.3267
406.723	46.3603
409.615	39.9727
412.508	88.2983
415.401	57.5547
418.293	110.778
421.186	111.657
424.079	71.2285
426.971	99.8457
429.864	93.7856
432.757	82.2661
435.649	51.4351
438.542	68.2573
441.435	24.7148
444.328	10.0322
447.22	21.7354
450.113	25.3423
453.006	25.8276
455.898	3.74023
458.791	21.7241
461.684	69.4775
464.577	105.131
467.469	161.156
470.362	159.896
473.255	165.285
476.147	193.562
479.04	169.47
481.933	218.216
484.825	189.209
487.718	134.334
490.611	107.089
493.503	62.7441
496.396	91.9199
499.289	65.8652
502.182	19.4898
505.074	8.19727
507.967	36.9473
510.86	63.6309
513.752	71.9834
516.645	49.1675
519.538	132.613
522.431	298.448
525.323	427.312
528.216	694.977
531.109	996.125
534.001	1344.09
536.894	1814.87
539.787	2250.5
542.679	2735.37
545.572	3355.37
548.465	3696.03
551.357	4117.22
554.25	4322.06
557.143	4510.56
560.036	4706.55
562.928	4749.55
565.821	4851.12
568.714	4747.44
571.606	4605.2
574.499	4289.83
577.392	3855.63
580.284	3349.01
583.177	2695.59
586.07	2056.75
588.963	1509.49
591.855	1009.16
594.748	690.71
597.641	487.576
600.533	321.252
603.426	231.482
606.319	167.615
609.212	96.5594
612.104	74.3833
614.997	48.5391
617.89	74.3965
620.782	116.126
623.675	110.369
626.568	113.484
629.46	153.859
632.353	181.456
635.246	180.208
638.139	203.955
641.031	120.029
643.924	98.3354
646.817	53.1636
649.709	41.3394
652.602	23.791
655.495	2.47754
658.387	4.42383
661.28	46.9111
664.173	14.3784
667.066	34.1167
669.958	1.03516
672.851	9.93848
675.744	2.70361
678.636	49.3657
681.529	19.6099
684.422	52.9121
687.314	106.552
690.207	45.7861
693.1	110.422
695.992	149.464
698.885	108.861
701.778	147.659
704.671	182.494
707.563	173.126
710.456	147.667
713.349	138.158
716.241	197.202
719.134	138.654
722.027	148.473
724.919	153.482
727.812	113.096
730.705	129.566
733.598	102.068
736.49	128.162
739.383	104.223
742.276	121.786
745.168	58.1025
748.061	87.3975
750.954	46.7949
753.846	105.247
756.739	90.7012
759.632	87.6812
762.525	65.7993
765.417	47.686
768.31	75.6387
771.203	54.2114
774.095	63.4351
776.988	106.496
779.881	53.5122
782.774	32.7759
785.666	17.1895
788.559	54.0288
791.452	6.91064
794.344	1.65186
797.237	68.0312
800.13	31.2339
803.022	16.2261
805.915	22.3594
808.808	59.5562
811.701	43.5425
814.593	27.6108
817.486	56.0288
820.379	11.0493
823.271	41.6914
826.164	5.78271
829.057	6.97217
831.949	14.8281
834.842	45.9424
837.735	21.043
840.628	1.25439
843.52	26.6953
846.413	36.4805
849.306	50.1997
852.198	33.0727
855.091	34.3726
857.984	31.937
860.876	37.1514
863.769	76.4722
866.662	75.7944
869.554	33.3813
872.447	51.1572
875.34	38.0273
878.233	44.2466
881.125	38.2144
884.018	27.4128
886.911	43.0859
889.803	26.8589
892.696	54.8796
895.589	49.0796
898.481	30.5071
901.374	26.521
904.267	63.3154
907.16	57.313
910.052	47.9868
912.945	47.7627
915.838	40.7002
918.73	11.5139
921.623	7.41919
924.516	46.7903
927.409	57.8352
930.301	65.6162
933.194	29.7322
936.087	30.489
938.979	9.7605
941.872	32.5142
944.765	44.2
947.657	61.4529
950.55	45.001
953.443	64.5071
956.336	74.3269
959.228	3.26318
962.121	54.1377
965.014	39.1187
967.906	47.3188
970.799	79.7219
973.692	78.5037
976.584	47.3611
979.477	45.3489
982.37	47.2185
985.263	40.5144
988.155	69.8208
991.048	37.8926
993.941	39.8767
996.833	51.4001
999.726	25.5156
1002.62	46.1331
1005.51	33.988
1008.4	25.2788
1011.3	19.0322
1014.19	51.1299
1017.08	68.9607
1019.98	32.2546
1022.87	68.3032
1025.76	40.2512
1028.65	1.34058
1031.55	8.88135
1034.44	53.7156
1037.33	79.4114
1040.22	60.9085
1043.12	2.18897
1046.01	44.604
1048.9	22.373
1051.8	7.69141
1054.69	20.387
1057.58	39.0627
1060.47	75.1575
1063.37	4.71509
1066.26	51.918
1069.15	42.1208
1072.04	25.2131
1074.94	28.6018
1077.83	54.3857
1080.72	45.2578
1083.61	40.896
1086.51	30.6877
1089.4	51.3428
1092.29	2.87158
1095.18	1.66089
1098.08	48.4085
1100.97	44.3384
1103.86	61.3052
1106.76	36.294
1109.65	38.2065
1112.54	61.0752
1115.43	40.0217
1118.33	10.0764
1121.22	44.0686
1124.11	78.6702
1127.01	55.0188
1129.9	38.1357
1132.79	39.4468
1135.68	55.4949
1138.58	76.8569
1141.47	48.3423
1144.36	64.5552
1147.25	61.6196
1150.15	48.4866
1153.04	44.708
1155.93	31.6655
1158.82	13.9641
1161.72	76.0879
1164.61	6.62329
1167.5	79.7051
1170.39	17.4426
1173.29	13.4138
1176.18	82.8252
1179.07	58.6145
1181.97	6.31787
1184.86	26.01
1187.75	33.9194
1190.64	42.9827
1193.54	20.1472
1196.43	49.5869
1199.32	4.94019
1202.21	26.4204
1205.11	62.5583
1208	46.468
1210.89	60.334
1213.79	21.8882
1216.68	67.1982
1219.57	15.3298
1222.46	47.6748
1225.36	61.8127
1228.25	52.154
1231.14	4.83106
1234.04	0.259033
1236.93	22.4072
