Measurement: Raman, 780 nm, unoriented, Raman Data Processed
Mineral: Terlinguaite
Rruff sample: R060492
Ideal chemistry: Hg_2_OCl
Locality: Mariposa mine, Terlingua Mining District, Brewster County, Texas, USA
Source: Michael Scott
Description: Pale green colored mass showing perfect cleavage
Raman shift (cm-1)	intensity
94.9347	0
98.3096	944.662
101.684	3162.53
105.059	1366.91
108.434	838.894
111.809	801.556
115.184	473.014
118.558	59.3768
121.933	55.7229
125.308	50.7162
128.683	35.4829
132.058	213.488
135.433	495.742
138.807	817.053
142.182	1162.36
145.557	1687.75
148.932	2491.32
152.307	3478.14
155.681	3893.26
159.056	3003.79
162.431	1774.57
165.806	1182.71
169.181	882.85
172.555	790.726
175.93	675.995
179.305	475.019
182.68	319.372
186.055	248.429
189.43	253.05
192.804	318.58
196.179	408.641
199.554	441.56
202.929	367.346
206.304	272.15
209.678	207.899
213.053	176.073
216.428	161.045
219.803	152.999
223.178	146.978
226.553	127.315
229.927	100.83
233.302	62.1079
236.677	31.4859
240.052	7.47907
243.427	6.92142
246.801	14.8932
250.176	15.9696
253.551	13.2811
256.926	4.88004
260.301	11.5057
263.675	31.5405
267.05	62.0309
270.425	103.65
273.8	153.909
277.175	209.673
280.55	283.341
283.924	362.624
287.299	391.701
290.674	297.512
294.049	163.444
297.424	80.974
300.798	39.7963
304.173	18.6768
307.548	6.72386
310.923	0.246689
314.298	2.71182
317.673	3.00737
321.047	0.270493
324.422	2.43044
327.797	3.71651
331.172	4.0345
334.547	5.47321
337.921	7.68401
341.296	8.97577
344.671	12.9795
348.046	18.0726
351.421	23.0363
354.796	31.5275
358.17	44.0374
361.545	58.5295
364.92	76.4158
368.295	101.788
371.67	124.398
375.044	146.323
378.419	165.511
381.794	173.583
385.169	162.819
388.544	130.099
391.918	93.7023
395.293	63.01
398.668	41.7144
402.043	28.1806
405.418	18.5462
408.793	13.9616
412.167	8.85567
415.542	6.64146
418.917	4.02351
422.292	4.2182
425.667	2.14139
429.041	1.60794
432.416	1.96706
435.791	1.534
439.166	0.424591
442.541	0.485138
445.915	0.101349
449.29	1.1149
452.665	1.02872
456.04	0.550018
459.415	0.830414
462.789	1.00957
466.164	2.41817
469.539	4.13003
472.914	4.76492
476.289	5.18091
479.664	6.20734
483.038	5.83701
486.413	5.60609
489.788	5.53524
493.163	6.24175
496.538	5.71571
499.913	10.147
503.287	12.5447
506.662	21.8109
510.037	36.9506
513.412	58.5731
516.787	86.6658
520.161	131.54
523.536	196.355
526.911	241.434
530.286	181.038
533.661	86.7756
537.035	41.6766
540.41	25.4195
543.785	17.6647
547.16	14.1608
550.535	13.0558
553.909	11.7441
557.284	11.4382
560.659	10.0373
564.034	10.163
567.409	7.46882
570.784	6.66146
574.158	4.39703
577.533	4.17116
580.908	2.8047
584.283	0.726128
587.658	0.551888
591.033	0.794067
594.407	1.04014
597.782	0.069389
601.157	0.005775
604.532	0.915642
607.907	1.8942
611.281	2.36625
614.656	2.25932
618.031	3.78859
621.406	3.94068
624.781	4.04043
628.155	5.11251
631.53	3.54104
634.905	3.2711
638.28	2.2922
641.655	3.40006
645.029	2.4207
648.404	2.13852
651.779	1.83906
655.154	0.73185
658.529	1.19047
661.904	0.010872
665.278	0.002556
668.653	0.529312
672.028	0.417061
675.403	1.09536
678.778	0.293083
682.153	0.381348
685.527	0.742424
688.902	0.179375
692.277	0.801636
695.652	1.83984
699.027	1.32056
702.401	1.87662
705.776	3.22482
709.151	6.15234
712.526	6.27383
715.901	2.84978
719.275	1.95961
722.65	1.46272
726.025	0.743462
729.4	0.202408
732.775	1.29284
736.149	0.683617
739.524	0.806572
742.899	0.268539
746.274	0.346008
749.649	0.38105
753.024	0.569687
756.398	0.366539
759.773	0.442734
763.148	0.159676
766.523	0.854568
769.898	0.013161
773.273	0.052322
776.647	0.099068
780.022	0.02375
783.397	0.15976
786.772	0.286568
790.146	0.228439
793.521	0.393227
796.896	1.19041
800.271	0.677071
803.646	0.56559
807.021	1.64375
810.395	1.79552
813.77	1.12708
817.145	1.82893
820.52	1.64443
823.895	2.15491
827.269	1.44827
830.644	1.55812
834.019	2.12633
837.394	2.39987
840.769	3.19778
844.144	1.93239
847.518	3.01631
850.893	3.19836
854.268	2.90447
857.643	2.54613
861.018	27.7935
864.393	2.74987
867.767	2.47235
871.142	2.40431
874.517	1.90408
877.892	1.58034
881.266	2.27982
884.641	1.88607
888.016	4.31043
891.391	9.38037
894.766	1.61116
898.141	1.87313
901.515	1.05636
904.89	0.889812
908.265	0.505402
911.64	0.833199
915.015	0.199173
918.389	1.06914
921.764	0.163948
925.139	0.110054
928.514	0.238453
931.889	0.21389
935.264	0.273037
938.638	0.240234
942.013	0.479603
945.388	0.087887
948.763	0.234585
952.138	0.840179
955.512	0.005539
958.887	0.757462
962.262	0.065365
965.637	0.315357
969.012	0.897896
972.386	0.162045
975.761	0.645935
979.136	0.406857
982.511	0.000618
985.886	0.732197
989.261	0.84082
992.635	0.60849
996.01	0.140579
999.385	0.942932
1002.76	0.706547
1006.13	0.859798
1009.51	0.686752
1012.88	0.574787
1016.26	1.39613
1019.63	0.758739
1023.01	0.920815
1026.38	1.55231
1029.76	3.01407
1033.13	3.27531
1036.51	4.17516
1039.88	4.18898
1043.26	3.75392
1046.63	3.37971
1050.01	3.52387
1053.38	2.2416
1056.76	1.90753
1060.13	1.75412
1063.51	1.06371
1066.88	0.582218
1070.26	2.57227
1073.63	3.36098
1077.01	6.61799
1080.38	10.4935
1083.76	25.3263
1087.13	40.6718
1090.51	4.96818
1093.88	0.730698
1097.26	1.32855
1100.63	0.035347
1104	0.956799
1107.38	0.32832
1110.75	0.449047
1114.13	0.347645
1117.5	0.502819
1120.88	0.058819
1124.25	0.103027
1127.63	0.2244
1131	0.457661
1134.38	0.241905
1137.75	0.812901
1141.13	0.553913
1144.5	0.446075
1147.88	0.814156
1151.25	0.634441
1154.63	0.516621
1158	0.762424
1161.38	0.774231
1164.75	1.00106
1168.13	0.727036
1171.5	0.683472
1174.88	0.909691
1178.25	0.469913
1181.62	0.913857
1185	0.801235
1188.38	1.34265
1191.75	0.847198
1195.12	0.962177
1198.5	0.607388
1201.87	0.516869
1205.25	0.744335
1208.62	0.448452
1212	1.18525
1215.37	1.13784
1218.75	0.205437
1222.12	0.190697
1225.5	0.511478
1228.87	0.371014
1232.25	0.601879
1235.62	0.402546
1239	0.334522
1242.37	0.695332
1245.75	0.629974
1249.12	0.834038
1252.5	0.573902
1255.87	0.963497
1259.25	0.703545
1262.62	0.576672
1265.99	0.936634
1269.37	0.178391
1272.74	0.917423
1276.12	0.877857
1279.49	0.028435
1282.87	0.609035
