Measurement: Raman, 785 nm, unoriented, Raman Data Processed
Mineral: Terlinguaite
Rruff sample: R060492
Ideal chemistry: Hg_2_OCl
Locality: Mariposa mine, Terlingua Mining District, Brewster County, Texas, USA
Source: Michael Scott
Description: Pale green colored mass showing perfect cleavage
Raman shift (cm-1)	intensity
90.19	0
93.565	172.218
96.939	286.195
100.314	598.327
103.689	626.784
107.064	1516.97
110.439	1611.57
113.813	1363.84
117.188	635.08
120.563	86.178
123.938	492.986
127.313	54.582
130.688	1195.04
134.062	3211
137.437	4830.55
140.812	8465.1
144.187	21430.3
147.562	49540.8
150.936	92373.1
154.311	132312
157.686	119896
161.061	70235.5
164.436	38809
167.811	27476.6
171.185	23719.3
174.56	21527.8
177.935	15993.5
181.31	11724.1
184.685	10959.4
188.059	14191.9
191.434	20817.5
194.809	29663
198.184	37671.1
201.559	36484.9
204.934	26545.8
208.308	17881.4
211.683	12743.6
215.058	10211.8
218.433	9089.59
221.808	8417.39
225.182	7827.19
228.557	6455.42
231.932	4616.74
235.307	2759.3
238.682	1208.12
242.057	318.345
245.432	212.449
248.806	311.495
252.181	280.941
255.556	322.306
258.931	821.21
262.306	1763.85
265.68	3068.44
269.055	5454.6
272.43	9525.36
275.805	16839
279.18	28355.5
282.555	43516.4
285.929	56454.3
289.304	52289.4
292.679	30536.7
296.054	14285.5
299.429	6364.36
302.803	2975.73
306.178	1192.6
309.553	395.511
312.928	32.32
316.303	67.646
319.677	127.459
323.052	207.72
326.427	114.32
329.802	28.451
333.177	95.085
336.552	98.395
339.926	172.215
343.301	265.181
346.676	458.099
350.051	548.685
353.426	790.153
356.801	1037.53
360.175	1343.74
363.55	1834.61
366.925	2413.26
370.3	3131.15
373.675	3972.64
377.049	4617.66
380.424	4927.91
383.799	4618.72
387.174	3878.96
390.549	2938.27
393.923	1977.25
397.298	1400.95
400.673	926.028
404.048	623.062
407.423	492.313
410.798	305.556
414.172	344.556
417.547	250.144
420.922	288.925
424.297	254.231
427.672	210.007
431.047	101.268
434.421	104.435
437.796	56.284
441.171	39.571
444.546	42.65
447.921	20.86
451.295	0.893
454.67	53.871
458.045	33.622
461.42	40.97
464.795	63.269
468.169	17.833
471.544	81.035
474.919	121.477
478.294	107.228
481.669	151.638
485.044	82.471
488.418	164.571
491.793	144.335
495.168	150.884
498.543	196.043
501.918	314.871
505.293	493.777
508.667	749.376
512.042	1391.1
515.417	2565.03
518.792	5206.61
522.167	9714.27
525.541	14524.9
528.916	15968.2
532.291	8806.91
535.666	3679.95
539.041	1984.95
542.416	1260.26
545.79	986.965
549.165	776.779
552.54	721.012
555.915	756.378
559.29	697.465
562.664	779.891
566.039	642.534
569.414	529.383
572.789	582.305
576.164	468.294
579.539	322.772
582.913	174.366
586.288	100.388
589.663	54.522
593.038	40.461
596.413	46.857
599.787	7.755
603.162	2.366
606.537	39.074
609.912	78.164
613.287	103.751
616.662	134.529
620.036	224.749
623.411	266.211
626.786	289.645
630.161	238.965
633.536	213.241
636.911	199.324
640.285	184.41
643.66	165.853
647.035	185.718
650.41	137.082
653.785	97.289
657.159	103.785
660.534	93.034
663.909	62.469
667.284	9.439
670.659	30.768
674.034	89.627
677.408	5.672
680.783	63.02
684.158	16.11
687.533	50.973
690.908	38.461
694.282	10.242
697.657	64.377
701.032	217.88
704.407	48.285
707.782	73.798
711.157	69.273
714.531	31.423
717.906	12.9
721.281	50.667
724.656	60.758
728.031	102.497
731.406	71.991
734.78	108.693
738.155	54.703
741.53	94.29
744.905	56.431
748.279	56.727
751.654	37.964
755.029	113.988
758.404	38.456
761.779	19.923
765.154	39.01
768.528	168.152
771.903	51.804
775.278	16.922
778.653	31.659
782.028	23.007
785.403	73.947
788.777	23.67
792.152	57.726
795.527	73.155
798.902	2.737
802.277	60.925
805.651	138.32
809.026	121.937
812.401	82.877
815.776	47.574
819.151	102.117
822.526	30.679
825.9	85.209
829.275	113.309
832.65	113.972
836.025	414.533
839.4	54.301
842.774	112.004
846.149	106.605
849.524	80.459
852.899	88.375
856.274	95.794
859.649	127.968
863.023	125.267
866.398	136.139
869.773	120.873
873.148	85.695
876.523	143.585
879.898	110.518
883.272	58.99
886.647	130.564
890.022	109.305
893.397	122.536
896.772	113.157
900.146	48.142
903.521	37.139
906.896	695.397
910.271	175.631
913.646	119.62
917.021	13.148
920.395	29.368
923.77	44.744
927.145	62.412
930.52	90.896
933.895	72.908
937.269	53.976
940.644	97.067
944.019	123.746
947.394	16.401
950.769	16.422
954.144	4.937
957.518	39.719
960.893	43.341
964.268	43.899
967.643	105.649
971.018	91.964
974.393	846.564
977.767	23.768
981.142	66.86
984.517	39.183
987.892	24.947
991.266	10.713
994.641	4.893
998.016	50.766
1001.39	29.848
1004.77	58.989
1008.14	36.019
1011.51	51.247
1014.89	38.269
1018.26	83.11
1021.64	55.345
1025.02	0.143
1028.39	51.054
1031.76	105.553
1035.14	129.145
1038.51	235.508
1041.89	237.65
1045.26	214.927
1048.64	223.658
1052.01	145.113
1055.39	173.433
1058.76	40.646
1062.14	67.472
1065.51	98.361
1068.89	100.956
1072.26	45.954
1075.64	129.302
1079.01	40.703
1082.39	49.174
1085.76	101.834
1089.14	64.08
1092.51	4.242
1095.89	103.705
1099.26	46.092
1102.64	14.559
1106.01	66.868
1109.38	15.287
1112.76	32.023
1116.13	55.648
1119.51	142.724
1122.88	24.411
1126.26	7.802
1129.63	94.553
1133.01	64.719
1136.38	84.808
1139.76	1.373
1143.13	19.963
1146.51	54.223
1149.88	80.521
1153.26	8.491
1156.63	1.06
1160.01	225.029
1163.38	58.68
1166.76	81.407
1170.13	108.122
1173.51	40.874
1176.88	79.714
1180.26	66.788
1183.63	84.936
1187.01	148.626
1190.38	90.337
1193.76	65.435
1197.13	151.52
1200.51	86.985
1203.88	90.537
1207.26	49.805
1210.63	28.543
1214.01	752.4
1217.38	128.481
1220.75	79.545
1224.13	85.37
1227.5	65.999
1230.88	60.604
1234.25	72.769
1237.63	84.759
1241	43.708
1244.38	55.883
1247.75	39.818
1251.13	81.881
1254.5	361.724
1257.88	95.787
1261.25	31.204
1264.63	36.134
1268	5.791
1271.38	1.244
