Measurement: Raman, 532 nm, unoriented, Raman Data Processed
Mineral: Terlinguaite
Rruff sample: R140878
Ideal chemistry: Hg_2_OCl
Locality: Terlingua, Texas, USA
Source: Tom Loomis
Description: Yellow crystals, associated with red montroydite (R140877)
Raman shift (cm-1)	intensity
103.282	0
106.657	5.82611
110.032	11.5744
113.407	62.7431
116.782	57.6983
120.157	9.93392
123.531	1.5364
126.906	0.454933
130.281	8.84435
133.656	29.107
137.031	66.6413
140.405	120.097
143.78	167.03
147.155	220.124
150.53	307.459
153.905	435.062
157.28	496.834
160.654	357.824
164.029	186.591
167.404	96.2887
170.779	61.3841
174.154	48.6502
177.528	43.6585
180.903	46.9183
184.278	66.6178
187.653	56.7928
191.028	62.0984
194.403	85.6161
197.777	132.534
201.152	183.645
204.527	154.192
207.902	57.8474
211.277	21.7608
214.651	11.9748
218.026	10.0938
221.401	9.046
224.776	8.38151
228.151	7.39136
231.525	5.94565
234.9	3.38349
238.275	1.93571
241.65	0.356369
245.025	0.99641
248.4	0.678947
251.774	0.854832
255.149	0.509445
258.524	0.274639
261.899	1.43517
265.274	3.56777
268.649	8.77636
272.023	17.4951
275.398	26.7524
278.773	37.3043
282.148	50.3291
285.523	67.709
288.897	74.2763
292.272	54.4468
295.647	28.8243
299.022	14.8341
302.397	8.35354
305.772	4.3902
309.146	2.48123
312.521	1.45488
315.896	0.818384
319.271	0.265837
322.646	0.059851
326.02	0.540249
329.395	0.577427
332.77	0.986561
336.145	0.608791
339.52	0.451021
342.894	0.028797
346.269	0.602894
349.644	2.21387
353.019	4.42194
356.394	7.49242
359.769	11.8292
363.143	18.8447
366.518	25.4945
369.893	34.1328
373.268	43.5836
376.643	51.2313
380.017	57.1071
383.392	58.3621
386.767	54.0989
390.142	43.5651
393.517	32.1145
396.892	23.7187
400.266	20.024
403.641	19.8928
407.016	22.81
410.391	27.0288
413.766	33.1233
417.14	41.484
420.515	52.4049
423.89	67.0804
427.265	82.202
430.64	96.5582
434.014	107.675
437.389	111.147
440.764	98.7128
444.139	78.4363
447.514	59.896
450.889	45.5079
454.263	35.2103
457.638	27.152
461.013	21.7204
464.388	16.5
467.763	13.3047
471.137	10.2994
474.512	8.2739
477.887	7.75249
481.262	7.14205
484.637	4.96327
488.012	1.82457
491.386	0.200165
494.761	0.912796
498.136	1.24312
501.511	1.07074
504.886	0.969252
508.26	0.016617
511.635	1.27246
515.01	4.06607
518.385	6.37282
521.76	10.4385
525.135	14.3318
528.509	14.9702
531.884	10.75
535.259	4.57185
538.634	2.65158
542.009	1.7569
545.384	1.90911
548.758	2.16437
552.133	3.75663
555.508	2.24857
558.883	1.84634
562.258	1.72682
565.632	1.15802
569.007	1.1954
572.382	0.897842
575.757	0.154495
579.132	0.254728
582.506	0.141716
585.881	0.367168
589.256	0.137451
592.631	0.196272
596.006	0.019951
599.381	0.468994
602.755	0.222761
606.13	0.255459
609.505	0.586412
612.88	0.838831
616.255	0.700609
619.63	0.987923
623.004	1.46036
626.379	2.24298
629.754	2.79948
633.129	4.1415
636.504	5.53842
639.878	6.74983
643.253	2.9895
646.628	1.16133
650.003	0.608418
653.378	0.939518
656.752	0.844915
660.127	0.603725
663.502	0.127824
666.877	0.453878
670.252	0.48133
673.626	0.027052
677.001	0.291633
680.376	0.356487
683.751	0.172599
687.126	0.333639
690.501	0.005727
693.875	0.076779
697.25	0.435466
700.625	0.629294
704	0.143459
707.375	0.430207
710.75	0.161915
714.124	0.245611
717.499	0.10906
720.874	0.217873
724.249	0.462942
727.624	0.533899
730.998	0.316304
734.373	0.535287
737.748	0.521674
741.123	0.337831
744.498	0.308572
747.872	0.669136
751.247	0.690634
754.622	0.133387
757.997	0.592414
761.372	0.487551
764.747	0.11731
768.121	0.114713
771.496	0.230548
774.871	0.060061
778.246	0.07769
781.621	0.074148
784.995	0.30851
788.37	0.1299
791.745	0.136967
795.12	0.04955
798.495	0.568757
801.87	0.034396
805.244	0.26942
808.619	0.514625
811.994	0.50753
815.369	0.468837
818.744	0.82304
822.119	0.887673
825.493	1.04837
828.868	2.03186
832.243	2.994
835.618	3.99531
838.993	4.72541
842.367	3.91485
845.742	2.52204
849.117	1.64891
852.492	1.6654
855.867	1.31711
859.241	1.19951
862.616	1.3125
865.991	1.35217
869.366	1.82241
872.741	1.71611
876.115	1.80559
879.49	2.39547
882.865	3.15083
886.24	4.13809
889.615	4.98696
892.99	5.38156
896.364	5.74046
899.739	5.59479
903.114	6.37334
906.489	6.56556
909.864	4.33275
913.239	2.47147
916.613	1.72198
919.988	0.424517
923.363	0.576583
926.738	0.407362
930.113	0.250457
933.487	0.292728
936.862	0.274017
940.237	0.111517
943.612	0.153357
946.987	0.086864
950.361	0.262114
953.736	0.125973
957.111	0.07283
960.486	0.189593
963.861	0.127338
967.236	0.01438
970.61	0.083904
973.985	0.135188
977.36	0.282508
980.735	0.468778
984.11	0.274051
987.485	0.386043
990.859	0.267378
994.234	0.486064
997.609	0.352546
1000.98	0.280082
1004.36	0.093654
1007.73	0.16245
1011.11	0.030368
1014.48	0.254501
1017.86	0.549109
1021.23	0.33256
1024.61	0.830217
1027.98	0.585946
1031.36	0.984015
1034.73	1.30587
1038.11	1.24785
1041.48	1.47966
1044.86	1.41364
1048.23	1.64132
1051.61	1.22821
1054.98	1.07312
1058.36	0.933776
1061.73	0.822789
1065.11	0.480956
1068.48	0.311834
1071.86	0.553216
1075.23	0.718148
1078.6	0.363513
1081.98	0.0929
1085.35	0.366411
1088.73	0.290056
1092.1	0.002313
1095.48	0.274791
1098.85	0.007726
1102.23	0.209513
1105.6	0.151937
1108.98	0.164621
1112.35	0.368343
1115.73	0.085891
1119.1	0.129842
1122.48	0.014061
1125.85	0.425957
1129.23	0.575401
1132.6	0.020783
1135.98	0.160234
1139.35	0.471193
1142.73	0.143433
1146.1	0.335427
1149.48	0.434302
1152.85	0.423253
1156.22	0.475833
1159.6	0.185021
1162.97	0.071649
1166.35	0.03816
1169.72	0.23562
1173.1	0.327069
1176.47	0.25967
1179.85	0.057753
1183.22	0.366325
1186.6	0.41247
1189.97	0.211671
1193.35	0.125065
1196.72	0.45856
1200.1	0.088984
1203.47	0.030602
1206.85	0.471223
1210.22	0.184268
1213.6	0.459276
1216.97	0.245771
1220.35	0.302162
1223.72	0.301133
1227.1	0.220728
1230.47	0.25672
1233.85	0.228807
1237.22	0.227062
1240.6	0.304961
1243.97	0.16339
1247.35	0.362206
1250.72	0.268671
1254.1	0.484849
1257.47	0.693326
1260.85	0.433986
1264.22	0.3088
1267.59	0.541782
1270.97	0.574129
1274.34	0.583652
1277.72	0.244692
1281.09	0.377214
1284.47	0.361131
1287.84	0.202701
1291.22	0.38118
1294.59	0.097268
1297.97	0.026479
1301.34	0.16185
