Measurement: Raman, 532 nm, unoriented, Raman Data Processed
Mineral: Terlinguaite
Rruff sample: R060492
Ideal chemistry: Hg_2_OCl
Locality: Mariposa mine, Terlingua Mining District, Brewster County, Texas, USA
Source: Michael Scott
Description: Pale green colored mass showing perfect cleavage
Raman shift (cm-1)	intensity
97.9792	0
101.354	55.6014
104.729	71.0128
108.104	20.2307
111.478	35.2733
114.853	47.1591
118.228	14.5016
121.603	1.15806
124.978	3.08281
128.352	0.962944
131.727	7.4016
135.102	20.9574
138.477	45.859
141.852	76.9649
145.227	107.824
148.601	146.229
151.976	207.565
155.351	279.188
158.726	266.12
162.101	162.528
165.476	83.7522
168.85	49.2713
172.225	35.591
175.6	29.9811
178.975	22.2456
182.35	14.882
185.724	10.2743
189.099	10.0475
192.474	13.042
195.849	17.8208
199.224	22.9589
202.599	21.4103
205.973	15.4058
209.348	9.49205
212.723	7.19693
216.098	6.40832
219.473	5.66444
222.847	6.00398
226.222	5.0437
229.597	4.45338
232.972	3.06083
236.347	1.5308
239.721	0.469643
243.096	0.101023
246.471	0.432188
249.846	1.25486
253.221	0.535992
256.596	0.431835
259.97	0.35957
263.345	1.587
266.72	3.57543
270.095	6.72597
273.47	11.6814
276.844	17.0097
280.219	23.2848
283.594	31.3346
286.969	39.8282
290.344	37.2261
293.719	23.2834
297.093	11.2731
300.468	6.16412
303.843	3.41661
307.218	1.62413
310.593	0.768621
313.967	0.540798
317.342	0.099121
320.717	0.163504
324.092	0.250666
327.467	0.029713
330.842	0.212934
334.216	0.489536
337.591	0.665689
340.966	1.12202
344.341	1.79257
347.716	2.56362
351.091	3.6955
354.465	5.57785
357.84	7.68628
361.215	10.9404
364.59	14.4008
367.964	19.5254
371.339	24.6302
374.714	29.1497
378.089	32.3766
381.464	33.7313
384.839	32.4527
388.213	26.4305
391.588	18.749
394.963	12.3216
398.338	8.00801
401.713	4.86607
405.087	3.53794
408.462	2.31344
411.837	2.42369
415.212	1.13973
418.587	0.829071
421.962	0.356772
425.336	0.51507
428.711	0.106302
432.086	0.256727
435.461	0.151426
438.836	0.434106
442.211	0.035612
445.585	0.030676
448.96	0.110597
452.335	0.197227
455.71	0.362013
459.085	0.410009
462.459	0.218284
465.834	0.270193
469.209	0.643938
472.584	0.593478
475.959	0.588326
479.334	0.7098
482.708	0.921439
486.083	0.715698
489.458	0.656085
492.833	0.918177
496.208	0.364535
499.582	0.634589
502.957	0.719804
506.332	1.0158
509.707	1.54595
513.082	2.75257
516.457	4.64379
519.831	6.81458
523.206	9.35231
526.581	12.055
529.956	11.8306
533.331	6.35589
536.705	2.72277
540.08	1.25827
543.455	0.834837
546.83	0.186596
550.205	1.01512
553.58	0.912556
556.954	1.02517
560.329	0.542665
563.704	0.53973
567.079	0.684518
570.454	0.76696
573.828	0.661524
577.203	0.424669
580.578	0.237776
583.953	0.187791
587.328	0.027316
590.702	0.201577
594.077	0.405325
597.452	0.042177
600.827	0.141385
604.202	0.048153
607.577	0.1147
610.951	0.140651
614.326	0.410689
617.701	0.085364
621.076	0.570298
624.451	0.655217
627.825	0.361092
631.2	0.664165
634.575	0.631899
637.95	0.286301
641.325	0.612547
644.699	0.622869
648.074	1.01861
651.449	0.508773
654.824	0.339209
658.199	0.425853
661.574	0.441225
664.948	0.241503
668.323	0.283396
671.698	0.005142
675.073	0.203054
678.448	0.405404
681.822	0.193536
685.197	0.304498
688.572	0.235005
691.947	0.163293
695.322	0.486902
698.697	0.512508
702.071	0.21583
705.446	0.446387
708.821	0.222542
712.196	0.48493
715.571	0.93923
718.946	0.498014
722.32	0.337065
725.695	0.584023
729.07	0.706322
732.445	0.497627
735.82	0.391599
739.194	0.021685
742.569	0.307162
745.944	0.321822
749.319	0.610556
752.694	0.350491
756.068	0.33223
759.443	0.239166
762.818	0.11777
766.193	0.296486
769.568	0.36522
772.943	0.049477
776.317	0.165656
779.692	0.361045
783.067	0.241538
786.442	0.202636
789.817	0.004516
793.192	0.218635
796.566	0.116463
799.941	0.447466
803.316	0.081545
806.691	0.14406
810.066	0.165377
813.44	0.849346
816.815	0.403426
820.19	0.329661
823.565	0.56022
826.94	0.426332
830.314	0.317575
833.689	0.246771
837.064	0.292164
840.439	0.282176
843.814	0.347709
847.188	0.264173
850.563	0.444107
853.938	0.487313
857.313	0.485943
860.688	0.631996
864.063	0.942926
867.437	0.803861
870.812	0.44648
874.187	0.824844
877.562	0.759427
880.937	0.727144
884.312	0.652277
887.686	0.353138
891.061	0.786936
894.436	0.447089
897.811	0.485333
901.186	0.647549
904.56	0.184423
907.935	0.200777
911.31	0.018611
914.685	0.079649
918.06	0.326309
921.434	0.207165
924.809	0.290963
928.184	0.54194
931.559	0.078545
934.934	0.18294
938.309	0.191982
941.683	0.200143
945.058	0.234917
948.433	0.201392
951.808	0.254218
955.183	0.191688
958.558	0.331827
961.932	0.058064
965.307	0.035893
968.682	0.242752
972.057	0.104307
975.432	0.788405
978.806	0.166912
982.181	0.552041
985.556	0.534666
988.931	0.338792
992.306	0.520724
995.681	0.343354
999.055	0.543233
1002.43	0.28769
1005.8	0.187314
1009.18	0.475432
1012.55	0.002304
1015.93	0.458604
1019.3	0.542464
1022.68	0.299519
1026.05	0.241211
1029.43	0.603563
1032.8	0.409308
1036.18	1.21742
1039.55	0.568419
1042.93	0.929869
1046.3	0.71185
1049.68	0.860686
1053.05	0.67155
1056.43	0.44827
1059.8	0.307446
1063.18	0.489363
1066.55	0.089296
1069.93	0.008083
1073.3	0.287174
1076.68	0.793344
1080.05	0.378793
1083.43	1.14593
1086.8	2.9679
1090.17	0.482441
1093.55	0.606346
1096.92	0.299794
1100.3	0.262805
1103.67	0.060882
1107.05	0.103983
1110.42	0.162296
1113.8	0.03978
1117.17	0.003316
1120.55	0.625677
1123.92	0.204991
1127.3	0.106001
1130.67	0.227546
1134.05	0.183879
1137.42	0.506411
1140.8	0.05063
1144.17	0.180936
1147.55	0.00995
1150.92	0.01695
1154.3	0.180762
1157.67	0.222017
1161.05	0.129798
1164.42	0.556158
1167.8	0.09059
1171.17	0.313362
1174.55	0.150283
1177.92	0.430834
1181.3	0.841268
1184.67	0.105017
1188.05	0.433046
1191.42	0.353255
1194.8	0.446671
1198.17	0.329461
1201.54	0.345011
1204.92	0.46468
1208.29	0.379322
1211.67	0.137877
1215.04	0.613136
1218.42	0.336658
1221.79	0.029096
1225.17	0.388589
1228.54	0.538071
1231.92	0.333324
1235.29	0.437942
1238.67	0.054299
1242.04	0.402677
1245.42	0.482968
1248.79	0.353823
1252.17	0.100686
1255.54	0.329425
1258.92	0.530988
1262.29	0.370589
1265.67	0.555284
1269.04	0.571846
1272.42	0.509185
1275.79	0.488747
1279.16	0.66559
1282.54	0.486806
1285.91	0.187014
1289.29	0.28301
1292.66	0.240278
1296.04	0.408719
1299.41	0.003931
