Measurement: Raman, 532 nm, unoriented, Raman Data Processed
Mineral: Terlinguacreekite
Rruff sample: R060731
Ideal chemistry: Hg^2+^_3_O_2_Cl_2_
Locality: Mariposa mine, Terlingua, Brewster County, Texas, USA
Source: Michael Scott
Description: Dark orange bladed crystals on lighter orange incrustation, both terlinguacreekite, associated with calcite
Measured chemistry: Hg^2+^_3.00_O_2_Cl_2.00_ ; O estimated by difference and stoichiometry
Raman shift (cm-1)	intensity
151.146	0
154.039	196.148
156.931	645.553
159.824	1667.72
162.717	2980.89
165.609	3029.03
168.502	761.408
171.395	412.08
174.287	231.477
177.18	216.19
180.073	151
182.966	116.545
185.858	64.9814
188.751	39.0879
191.644	11.5078
194.536	61.9087
197.429	6.28613
200.322	16.2793
203.214	61.0264
206.107	60.9546
209	88.6602
211.893	53.4751
214.785	46.3804
217.678	99.9448
220.571	192.468
223.463	264.248
226.356	382.476
229.249	305.166
232.142	237.515
235.034	227.532
237.927	163.074
240.82	225.012
243.712	334.762
246.605	549.44
249.498	752.665
252.39	1006.49
255.283	1369.48
258.176	1739.96
261.068	2149.36
263.961	2628.87
266.854	3058.37
269.747	3575.09
272.639	4155.36
275.532	4742.45
278.425	5399.69
281.317	6124.18
284.21	6894.63
287.103	7801.94
289.995	8657.07
292.888	9696.2
295.781	10554.6
298.674	11309.3
301.566	11975.6
304.459	12036.7
307.352	11804.5
310.244	11318.9
313.137	10579.6
316.03	9744.35
318.923	9104.39
321.815	8426.56
324.708	7753.84
327.601	6957.49
330.493	6051.89
333.386	4940.11
336.279	4066.46
339.171	3146.59
342.064	2335.29
344.957	1644.02
347.849	1099.61
350.742	707.312
353.635	479.877
356.528	256.554
359.42	156.321
362.313	63.1719
365.206	5.04297
368.098	59
370.991	39.8018
373.884	26.979
376.776	61.3179
379.669	49.2778
382.562	38.2451
385.455	40.1987
388.347	27.2827
391.24	12.9473
394.133	69.3667
397.025	128.005
399.918	69.8403
402.811	140.899
405.704	132.437
408.596	189.921
411.489	226.979
414.382	256.051
417.274	219.097
420.167	258.967
423.06	260.552
425.952	169.72
428.845	117.457
431.738	76.375
434.63	45.4619
437.523	50.0093
440.416	28.9268
443.309	4.41602
446.201	27.9722
449.094	56.1543
451.987	44.1611
454.879	15.7285
457.772	26.2222
460.665	102.327
463.558	98.5102
466.45	191.859
469.343	236.967
472.236	310.679
475.128	369.759
478.021	396.06
480.914	409.703
483.807	394.709
486.699	293.219
489.592	208.191
492.485	135.386
495.377	61.0767
498.27	13.9028
501.163	61.1284
504.055	98.709
506.948	3.45947
509.841	78.7402
512.734	257.082
515.626	540.03
518.519	900.359
521.412	1432.93
524.304	1946.48
527.197	2708.07
530.09	3434.6
532.982	4361.77
535.875	5388.95
538.768	6522.63
541.66	7711.66
544.553	8940.04
547.446	10170.9
550.339	11126.7
553.231	12014.5
556.124	12696.5
559.017	13156.4
561.909	13286.5
564.802	13122.2
567.695	12393.8
570.587	11292
573.48	9783.75
576.373	8277.81
579.266	6565.78
582.158	5023.66
585.051	3680.51
587.944	2562.47
590.836	1790.62
593.729	1187.85
596.622	843.946
599.514	610.457
602.407	463.122
605.3	371.084
608.193	402.79
611.085	464.022
613.978	411.825
616.871	462.624
619.763	563.483
622.656	641.545
625.549	650.84
628.442	720.516
631.334	691.049
634.227	596.769
637.12	478.986
640.012	366.07
642.905	268.935
645.798	148.726
648.69	36.6699
651.583	2.86328
654.476	47.0659
657.369	95.6934
660.261	65.3096
663.154	58.8374
666.047	58.394
668.939	22.9268
671.832	17.0093
674.725	72.7607
677.617	85.7647
680.51	160.434
683.403	152.094
686.295	232.435
689.188	233.864
692.081	309.145
694.974	362.257
697.866	408.5
700.759	414.858
703.652	450.578
706.544	494.014
709.437	564.187
712.33	495.703
715.222	489.61
718.115	514.098
721.008	435.915
723.901	404.977
726.793	455.253
729.686	421.341
732.579	401.088
735.471	420.85
738.364	374.6
741.257	339.813
744.149	329.197
747.042	318.968
749.935	322.787
752.828	299.083
755.72	303.383
758.613	258.932
761.506	251.815
764.398	213.163
767.291	171.477
770.184	180.447
773.077	168.982
775.969	149.904
778.862	133.142
781.755	123.772
784.647	113.932
787.54	44.5185
790.433	81.9326
793.325	51.7432
796.218	37.1641
799.111	70.1372
802.004	51.8897
804.896	2.45752
807.789	16.1504
810.682	75.1665
813.574	41.2495
816.467	38.3721
819.36	56.8403
822.252	31.708
825.145	37.438
828.038	3.17383
830.931	1.03857
833.823	65.5068
836.716	1.3125
839.609	6.69727
842.501	65.917
845.394	50.5273
848.287	46.8462
851.179	5.71436
854.072	14.5527
856.965	62.8003
859.857	93.1958
862.75	62.853
865.643	49.4688
868.536	28.002
871.428	84.4712
874.321	50.3584
877.214	5.63184
880.106	52.7891
882.999	59.8071
885.892	82.1992
888.784	34.1328
891.677	107.717
894.57	155.099
897.463	26.207
900.355	59.1387
903.248	51.292
906.141	39.0356
909.033	48.8652
911.926	11.3809
914.819	57.668
917.712	58.4683
920.604	39.6836
923.497	17.0649
926.39	24.8154
929.282	38.5395
932.175	1.48096
935.068	15.8867
937.96	2.6875
940.853	43.0581
943.746	50.4204
946.639	7.40088
949.531	5.83106
952.424	46.2236
955.317	15.0171
958.209	50.7114
961.102	43.6372
963.995	85.4404
966.888	84.3672
969.78	81.9028
972.673	65.813
975.566	132.596
978.458	56.3652
981.351	83.2773
984.244	92.4546
987.136	28.7651
990.029	98.6133
992.922	43.4473
995.814	20.5527
998.707	35.2935
1001.6	37.0762
1004.49	54.9028
1007.38	1.10498
1010.28	42.9199
1013.17	33.1738
1016.06	25.7124
1018.96	15.6431
1021.85	48.0649
1024.74	10.2188
1027.63	4.88281
1030.53	8.14258
1033.42	7.25488
1036.31	75.4141
1039.2	44.8169
1042.1	53.5225
1044.99	72.9443
1047.88	39.8809
1050.78	6.87061
1053.67	20.0659
1056.56	100.585
1059.45	47.2778
1062.35	54.3687
1065.24	75.7861
1068.13	87.3086
1071.03	86.4644
1073.92	65.2173
1076.81	79.689
1079.7	57.2607
1082.6	94.4507
1085.49	83.5488
1088.38	68.8765
1091.27	59.6885
1094.17	82.978
1097.06	82.4058
1099.95	103.201
1102.84	162.369
1105.74	111.381
1108.63	30.9448
1111.52	47.9053
1114.41	100.503
1117.31	60.8818
1120.2	106.239
1123.09	70.3955
1125.99	137.654
1128.88	63.4653
1131.77	175.076
1134.66	137.585
1137.56	115.616
1140.45	67.1348
1143.34	101.74
1146.23	128.876
1149.13	131.624
1152.02	112.44
1154.91	97.9526
1157.81	55.7661
1160.7	100.443
1163.59	66.0376
1166.48	89.6958
1169.38	60.5259
1172.27	89.7905
1175.16	22.5308
1178.06	41.688
1180.95	33.8852
1183.84	29.0962
1186.73	45.0474
1189.62	13.521
1192.52	58.834
1195.41	26.7988
1198.3	12.0566
1201.2	55.292
1204.09	13.1157
1206.98	72.5737
1209.87	10.1108
1212.77	50.6201
1215.66	7.0459
1218.55	26.7744
1221.44	66.1001
1224.34	19.4517
1227.23	64.0391
1230.12	67.4712
1233.02	3.44678
1235.91	85.5513
1238.8	49.4473
1241.69	47.5083
1244.59	75.2271
1247.48	91.9907
1250.37	5.19482
1253.27	13.7749
1256.16	56.6338
1259.05	32.916
1261.94	18.4043
1264.84	59.6738
1267.73	10.1953
1270.62	76.2964
1273.51	31.6362
1276.41	80.4067
1279.3	81.374
1282.19	87.0444
1285.08	70.1802
1287.98	35.1284
1290.87	32.667
