Measurement: Raman, 780 nm, unoriented, Raman Data Processed
Mineral: Tetrahedrite
Rruff sample: R100204
Ideal chemistry: Cu_12_Sb_4_S_13_
Locality: Level 390, Vein 14, Mina Herminia, Julcani District, Huancavelica, Peru
Source: William W Pinch
Description: Metallic gray massive, associated with gustavite, R100203
Raman shift (cm-1)	intensity
184.618	0
187.511	0.576408
190.404	2.04914
193.296	2.74315
196.189	2.37124
199.082	3.87576
201.974	3.24872
204.867	2.41317
207.76	2.38839
210.652	0.950872
213.545	0.663357
216.438	1.4904
219.331	0.299927
222.223	0.01833
225.116	0.416618
228.009	1.69007
230.901	1.8629
233.794	2.55308
236.687	3.65708
239.579	3.40282
242.472	3.29125
245.365	2.25938
248.257	1.97496
251.15	0.388351
254.043	0.480198
256.936	2.12886
259.828	3.51759
262.721	6.11165
265.614	10.4187
268.506	14.5072
271.399	20.9248
274.292	26.6994
277.185	33.3795
280.077	38.953
282.97	42.4031
285.863	44.3094
288.755	48.4489
291.648	49.8886
294.541	52.6167
297.433	55.1311
300.326	59.8939
303.219	65.0436
306.111	67.7314
309.004	71.5234
311.897	72.4614
314.79	74.8837
317.682	76.8265
320.575	80.516
323.468	89.3082
326.36	107.253
329.253	136.705
332.146	174.818
335.038	213.342
337.931	255.036
340.824	303.799
343.717	341.368
346.609	349.04
349.502	334.827
352.395	301.159
355.287	262.685
358.18	223.338
361.073	174.678
363.965	118.501
366.858	76.0298
369.751	47.8104
372.644	32.2073
375.536	19.1815
378.429	10.8974
381.322	3.45552
384.214	0.40246
387.107	1.95456
390	2.76685
392.892	1.75034
395.785	1.78342
398.678	1.00084
401.57	0.558582
404.463	0.378233
407.356	1.13358
410.249	1.07742
413.141	2.1646
416.034	1.79524
418.927	4.013
421.819	3.91339
424.712	4.02432
427.605	4.29498
430.498	5.52179
433.39	5.40524
436.283	5.86569
439.176	6.86157
442.068	6.47846
444.961	6.95573
447.854	6.40024
450.746	6.03718
453.639	4.95291
456.532	5.03123
459.425	4.06281
462.317	3.6411
465.21	3.25007
468.103	3.08033
470.995	3.35825
473.888	2.71729
476.781	1.91626
479.673	2.53978
482.566	2.32899
485.459	2.18709
488.351	1.88058
491.244	1.64077
494.137	1.64206
497.029	1.70644
499.922	1.00624
502.815	0.93511
505.708	0.569385
508.6	0.754708
511.493	0.657364
514.386	0.861762
517.278	0.028044
520.171	0.111946
523.064	0.665277
525.957	0.594559
528.849	0.207744
531.742	0.900931
534.635	0.546671
537.527	0.203437
540.42	0.264954
543.313	0.381277
546.205	0.504457
549.098	0.154714
551.991	0.476863
554.884	0.023685
557.776	0.115199
560.669	0.001754
563.562	0.343355
566.454	0.253557
569.347	0.11838
572.24	0.238509
575.132	0.249967
578.025	0.133287
580.918	0.269895
583.811	0.079837
586.703	0.1617
589.596	0.844523
592.489	0.021874
595.381	0.834788
598.274	0.072653
601.167	0.053373
604.059	0.35092
606.952	0.628774
609.845	0.564313
612.737	0.254416
615.63	0.164786
618.523	0.892717
621.416	0.06788
624.308	0.568256
627.201	0.58847
630.094	0.900045
632.986	0.061126
635.879	0.767392
638.772	0.51065
641.664	0.576441
644.557	0.535125
647.45	1.07929
650.342	0.763521
653.235	1.03982
656.128	0.915519
659.021	0.473954
661.913	0.934519
664.806	0.434237
667.699	0.381755
670.591	0.848317
673.484	1.064
676.377	0.689375
679.269	0.6949
682.162	0.592138
685.055	1.14235
687.948	1.14223
690.84	1.07581
693.733	0.713851
696.626	0.969215
699.518	0.845918
702.411	0.607133
705.304	0.740845
708.197	0.704224
711.089	1.36349
713.982	0.901081
716.875	0.655103
719.767	0.202101
722.66	0.881896
725.553	0.380382
728.445	0.529241
731.338	0.240527
734.231	0.022361
737.124	0.014332
740.016	0.275983
742.909	0.243378
745.802	0.060037
748.694	0.297998
751.587	0.527019
754.48	0.29778
757.372	0.40168
760.265	0.035456
763.158	0.319044
766.051	0.074356
768.943	0.099275
771.836	0.417106
774.729	0.305956
777.621	0.0277
780.514	0.755528
783.407	0.278965
786.299	0.861115
789.192	0.778336
792.085	0.163561
794.977	0.310382
797.87	0.685991
800.763	0.286241
803.655	0.440463
806.548	0.363846
809.441	1.03867
812.334	0.602211
815.226	0.510805
818.119	0.788307
821.012	0.511579
823.904	0.334349
826.797	0.651931
829.69	0.039026
832.582	1.05381
835.475	1.09063
838.368	0.293229
841.261	0.524072
844.153	0.414674
847.046	0.674842
849.939	0.636132
852.831	0.921101
855.724	0.853822
858.617	0.646604
861.51	0.21858
864.402	0.435287
867.295	0.314985
870.188	0.769392
873.08	0.762057
875.973	0.433001
878.866	0.734985
881.758	0.488961
884.651	0.625322
887.544	0.51169
890.437	0.263643
893.329	0.170833
896.222	0.29407
899.115	0.41244
902.007	0.129343
904.9	0.0754
907.793	0.083086
910.685	0.016139
913.578	0.091685
916.471	0.291024
919.364	0.417713
922.256	0.265012
925.149	0.599895
928.042	0.556863
930.934	0.847071
933.827	0.208019
936.72	0.318288
939.612	0.130846
942.505	0.661968
945.398	0.161745
948.29	0.831704
951.183	0.7821
954.076	0.642642
956.968	0.356017
959.861	0.37033
962.754	0.213848
965.647	0.082683
968.539	0.259564
971.432	0.054791
974.325	0.625839
977.217	0.420264
980.11	0.118737
983.003	0.270969
985.895	0.61011
988.788	0.358471
991.681	0.320368
994.574	0.50914
997.466	0.43367
1000.36	0.249306
1003.25	0.170293
1006.14	0.032773
1009.04	0.441805
1011.93	0.004795
1014.82	0.569361
1017.72	0.540067
1020.61	0.942318
1023.5	0.397084
1026.39	0.973719
1029.29	0.810501
1032.18	0.099732
1035.07	0.671669
1037.96	0.501058
1040.86	0.279756
1043.75	0.262464
1046.64	0.192051
1049.54	0.513237
1052.43	0.133282
1055.32	0.292405
1058.21	0.298087
1061.11	0.241167
1064	0.085856
1066.89	0.56934
1069.78	0.415604
1072.68	0.574575
1075.57	0.651885
1078.46	0.598036
1081.35	0.803726
1084.25	0.349975
1087.14	0.525345
1090.03	0.503083
1092.92	0.167607
1095.82	0.401682
1098.71	0.579194
1101.6	0.427543
1104.5	0.399387
1107.39	0.089641
1110.28	0.329219
1113.17	0.112316
1116.07	0.371706
1118.96	0.314523
1121.85	0.255808
1124.74	0.249172
1127.64	0.35798
1130.53	0.54537
1133.42	0.10006
1136.32	0.187897
1139.21	0.403806
1142.1	0.615633
1144.99	0.371324
1147.89	0.255037
1150.78	0.320636
1153.67	0.164027
1156.57	0.336211
1159.46	0.109772
1162.35	1.0346
1165.24	0.548664
1168.13	0.617243
1171.03	0.501848
1173.92	0.109879
1176.81	0.621966
1179.71	0.808464
1182.6	0.752007
1185.49	0.554618
1188.38	0.893653
1191.28	0.352371
1194.17	0.186576
1197.06	0.667757
1199.95	0.490132
1202.85	0.556986
1205.74	0.77979
1208.63	0.292845
1211.53	0.556371
1214.42	0.737413
1217.31	0.483577
1220.2	0.539293
1223.1	2.17793
1225.99	1.187
1228.88	0.241
1231.78	0.023965
1234.67	0.509131
1237.56	0.397122
1240.45	0.151045
1243.35	0.376172
1246.24	0.842352
1249.13	0.761102
1252.02	0.419743
1254.92	0.253052
1257.81	0.243523
1260.7	0.093095
1263.59	0.156007
1266.49	0.286789
1269.38	0.699615
1272.27	0.54067
1275.16	0.06874
1278.06	0.389889
1280.95	0.331188
1283.84	0.230002
