Measurement: Raman, 780 nm, unoriented, Raman Data Processed
Mineral: Tetradymite
Rruff sample: R110138
Ideal chemistry: Bi_2_Te_2_S
Locality: Schubkau, Schemnitz, Hungary
Source: William W. Pinch
Description: Aggregate of grey crystals with a dull surface but bright silver grey on fresh cleavage
Raman shift (cm-1)	intensity
91.6035	0
94.9783	12.5275
98.3531	39.6512
101.728	97.5149
105.103	75.4004
108.478	11.5665
111.852	1.01421
115.227	5.61042
118.602	4.73535
121.977	1.5073
125.352	0.655594
128.726	4.03637
132.101	12.8607
135.476	30.6623
138.851	55.3283
142.226	79.3076
145.601	88.6891
148.975	58.0085
152.35	25.2859
155.725	8.58446
159.1	1.45375
162.475	0.382248
165.85	1.898
169.224	0.390808
172.599	0.533398
175.974	0.279804
179.349	1.23085
182.724	0.873602
186.098	1.41082
189.473	1.45233
192.848	2.86009
196.223	3.45999
199.598	4.85816
202.972	5.61688
206.347	5.59588
209.722	7.05383
213.097	6.87752
216.472	7.99292
219.847	7.38227
223.221	6.82535
226.596	6.92084
229.971	6.63603
233.346	6.61815
236.721	5.39336
240.095	5.79612
243.47	6.62885
246.845	5.41742
250.22	5.26431
253.595	5.03211
256.969	4.54302
260.344	4.01309
263.719	3.24647
267.094	2.94595
270.469	2.76778
273.844	2.66385
277.218	2.16646
280.593	2.10476
283.968	0.795951
287.343	0.125678
290.718	1.05311
294.092	0.673751
297.467	1.40059
300.842	0.005137
304.217	1.51219
307.592	0.707111
310.967	0.460711
314.341	0.648108
317.716	0.015433
321.091	0.467381
324.466	0.517284
327.841	0.311824
331.216	0.680079
334.59	0.110761
337.965	0.005746
341.34	1.01799
344.715	0.161029
348.09	0.337843
351.464	0.72203
354.839	1.77748
358.214	0.807281
361.589	0.946831
364.964	0.93967
368.339	0.346718
371.713	0.420559
375.088	0.550984
378.463	0.963211
381.838	1.07041
385.213	0.100801
388.587	0.890086
391.962	0.142747
395.337	0.53993
398.712	0.188699
402.087	1.10094
405.462	0.710994
408.836	0.981396
412.211	1.16627
415.586	1.22355
418.961	0.301962
422.336	0.955342
425.71	0.422954
429.085	0.747026
432.46	1.14454
435.835	1.22473
439.21	1.36238
442.584	1.31436
445.959	0.940457
449.334	2.04118
452.709	1.08386
456.084	1.00521
459.459	0.137692
462.833	1.4423
466.208	1.79732
469.583	1.07984
472.958	1.25812
476.333	0.507401
479.707	0.63829
483.082	0.497361
486.457	1.21694
489.832	0.983066
493.207	0.595639
496.582	0.943798
499.956	0.750466
503.331	1.57498
506.706	0.747667
510.081	0.973561
513.456	0.48972
516.83	2.01958
520.205	0.663598
523.58	0.226561
526.955	0.058751
530.33	0.682597
533.705	0.227035
537.079	1.42205
540.454	1.39636
543.829	1.02941
547.204	0.487096
550.579	1.40425
553.953	0.832108
557.328	1.47948
560.703	1.95772
564.078	1.26424
567.453	1.59764
570.827	0.979036
574.202	0.675983
577.577	0.667217
580.952	0.277514
584.327	0.875405
587.702	1.10939
591.076	1.39102
594.451	1.33367
597.826	0.500644
601.201	1.20732
604.576	1.05817
607.951	1.47793
611.325	0.945469
614.7	1.05407
618.075	0.08468
621.45	2.1748
624.825	1.07052
628.199	1.70478
631.574	0.183629
634.949	0.81886
638.324	0.363908
641.699	1.79622
645.073	1.11511
648.448	0.845872
651.823	0.745489
655.198	1.47761
658.573	0.481036
661.948	0.176171
665.322	0.762778
668.697	1.59735
672.072	1.11499
675.447	0.836879
678.822	1.14962
682.197	0.290163
685.571	0.925524
688.946	1.16935
692.321	0.53814
695.696	1.00859
699.071	1.014
702.445	1.74111
705.82	1.41611
709.195	0.605213
712.57	0.906545
715.945	1.24211
719.319	0.650133
722.694	0.737798
726.069	0.403146
729.444	0.116926
732.819	0.031758
736.193	0.694745
739.568	0.461026
742.943	0.3571
746.318	0.184187
749.693	0.502858
753.068	1.55235
756.442	0.403561
759.817	0.433503
763.192	1.19608
766.567	0.896729
769.942	0.111768
773.317	0.939685
776.691	1.29924
780.066	1.31625
783.441	0.09232
786.816	2.0364
790.191	1.25721
793.565	0.087856
796.94	0.967219
800.315	0.660332
803.69	0.911397
807.065	0.242865
810.439	1.66159
813.814	1.97141
817.189	1.84784
820.564	1.93749
823.939	2.17323
827.314	2.2041
830.688	1.27906
834.063	1.64969
837.438	2.40863
840.813	2.84655
844.188	2.29536
847.562	2.24292
850.937	1.32691
854.312	1.64596
857.687	2.0632
861.062	2.08748
864.437	1.88827
867.811	1.76288
871.186	1.71304
874.561	1.77954
877.936	1.91271
881.311	2.31195
884.686	1.08646
888.06	0.733501
891.435	1.20976
894.81	0.204808
898.185	1.10402
901.56	1.1544
904.934	0.151916
908.309	0.274539
911.684	0.922209
915.059	1.0078
918.434	0.787399
921.808	0.636655
925.183	0.088044
928.558	0.373746
931.933	0.258462
935.308	0.688858
938.683	0.399143
942.057	0.72541
945.432	0.804714
948.807	0.556229
952.182	0.328572
955.557	1.3559
958.932	0.861622
962.306	0.794007
965.681	0.796624
969.056	0.680285
972.431	1.02411
975.806	0.593218
979.18	1.52473
982.555	0.983703
985.93	0.487576
989.305	0.453649
992.68	1.46617
996.054	0.372254
999.429	0.382963
1002.8	0.995831
1006.18	0.348233
1009.55	1.27336
1012.93	1.19644
1016.3	0.985176
1019.68	0.84586
1023.05	0.616565
1026.43	1.03444
1029.8	1.23421
1033.18	0.737541
1036.55	1.13144
1039.93	1.34659
1043.3	0.331755
1046.68	1.49096
1050.05	0.907288
1053.43	1.55096
1056.8	0.990505
1060.18	1.57475
1063.55	0.331722
1066.93	0.283283
1070.3	0.876133
1073.67	0.438256
1077.05	0.802814
1080.42	0.981576
1083.8	0.176752
1087.17	0.951407
1090.55	0.038874
1093.92	0.308719
1097.3	0.628335
1100.67	1.27838
1104.05	0.772863
1107.42	0.838159
1110.8	0.63664
1114.17	1.24309
1117.55	1.09998
1120.92	0.876908
1124.3	0.906959
1127.67	0.936659
1131.05	1.28009
1134.42	0.612731
1137.8	0.832804
1141.17	0.554225
1144.55	0.111817
1147.92	0.290375
1151.3	0.688186
1154.67	0.260555
1158.05	1.49993
1161.42	1.73888
1164.8	1.29773
1168.17	1.04861
1171.55	1.2882
1174.92	0.503599
1178.3	1.44109
1181.67	1.44145
1185.04	1.3057
1188.42	0.51834
1191.79	1.16076
1195.17	0.823925
1198.54	1.52209
1201.92	1.02818
1205.29	1.35829
1208.67	1.65121
1212.04	0.393637
1215.42	1.98024
1218.79	1.24611
1222.17	1.07254
1225.54	0.562293
1228.92	1.72585
1232.29	0.804481
1235.67	0.996241
1239.04	0.904018
1242.42	1.94538
1245.79	1.28138
1249.17	1.71027
1252.54	1.34423
1255.91	1.07303
1259.29	1.62062
1262.66	0.125713
1266.04	1.59281
1269.41	0.608797
1272.79	1.76932
1276.16	0.750918
1279.54	1.39082
1282.91	0.127662
