Measurement: Raman, 780 nm, unoriented, Raman Data Processed
Mineral: Tetradymite
Rruff sample: R130067
Ideal chemistry: Bi_2_Te_2_S
Locality: Oravica, Transylvania, Romania
Source: William W. Pinch
Description: Mass of platy dark gray crystals
Raman shift (cm-1)	intensity
91.1996	0
94.5744	10.0537
97.9492	28.3249
101.324	55.1732
104.699	34.7107
108.074	5.52502
111.448	0.750343
114.823	2.12439
118.198	1.91916
121.573	0.115067
124.948	1.08298
128.322	4.94809
131.697	14.2588
135.072	29.5372
138.447	46.9298
141.822	57.4547
145.197	52.0915
148.571	32.2917
151.946	15.2427
155.321	5.91267
158.696	1.40711
162.071	0.410643
165.446	0.204508
168.82	0.254248
172.195	0.804174
175.57	0.644876
178.945	0.787273
182.32	0.333636
185.694	0.592787
189.069	1.2503
192.444	2.32486
195.819	2.84689
199.194	3.29005
202.569	4.31483
205.943	4.79662
209.318	5.2877
212.693	5.75244
216.068	5.84469
219.442	5.93794
222.817	4.74514
226.192	4.95769
229.567	4.54125
232.942	4.75637
236.317	4.39885
239.691	4.50584
243.066	4.11831
246.441	4.07873
249.816	3.84368
253.191	3.04028
256.565	3.06915
259.94	2.6505
263.315	2.51737
266.69	2.49836
270.065	1.32077
273.44	0.852198
276.814	0.800176
280.189	0.525084
283.564	0.679387
286.939	0.753298
290.314	0.458056
293.688	0.416279
297.063	0.008382
300.438	0.085233
303.813	0.072064
307.188	0.189028
310.562	0.879381
313.937	0.286309
317.312	0.348151
320.687	0.23888
324.062	0.50897
327.437	0.462337
330.811	0.273292
334.186	0.224459
337.561	0.182872
340.936	0.4556
344.311	0.058062
347.685	0.252774
351.06	0.193975
354.435	0.339867
357.81	0.440475
361.185	0.41537
364.56	0.179848
367.934	0.176542
371.309	0.463665
374.684	0.133409
378.059	0.112379
381.434	0.163954
384.808	0.024336
388.183	0.401484
391.558	0.690461
394.933	0.552554
398.308	0.469458
401.683	0.069303
405.057	0.131787
408.432	0.631024
411.807	0.430628
415.182	0.587547
418.557	0.318639
421.931	0.010398
425.306	0.54541
428.681	0.306223
432.056	0.684641
435.431	0.514195
438.805	0.244174
442.18	0.514569
445.555	0.565085
448.93	0.067433
452.305	0.35616
455.68	0.691338
459.054	0.724202
462.429	0.743854
465.804	0.273139
469.179	0.694014
472.554	0.454966
475.928	0.515604
479.303	0.158747
482.678	0.410506
486.053	0.316294
489.428	0.140974
492.803	0.390278
496.177	0.42557
499.552	0.503543
502.927	0.200998
506.302	0.122961
509.677	0.011105
513.051	0.248599
516.426	0.254571
519.801	0.51721
523.176	0.489213
526.551	0.595935
529.926	0.469638
533.3	0.131546
536.675	0.065208
540.05	0.400213
543.425	0.527528
546.799	0.282336
550.174	0.025457
553.549	0.330073
556.924	0.457931
560.299	0.628148
563.674	0.469722
567.048	0.153957
570.423	0.148313
573.798	0.389809
577.173	0.102207
580.548	0.491508
583.923	0.112892
587.297	0.122885
590.672	0.222544
594.047	0.241093
597.422	0.263108
600.797	0.31195
604.171	0.254865
607.546	0.223112
610.921	0.370359
614.296	0.130858
617.671	0.429802
621.045	0.745756
624.42	0.068135
627.795	0.32903
631.17	0.198911
634.545	0.294406
637.919	0.014922
641.294	0.380028
644.669	0.313264
648.044	0.48487
651.419	0.262028
654.794	0.459518
658.168	0.032315
661.543	0.222473
664.918	0.616724
668.293	0.592701
671.668	0.950727
675.043	0.293597
678.417	0.565637
681.792	0.505774
685.167	0.035322
688.542	0.048466
691.917	0.169
695.291	0.55342
698.666	0.050251
702.041	0.277105
705.416	0.462049
708.791	0.077981
712.165	0.019012
715.54	0.212727
718.915	0.101133
722.29	0.082574
725.665	0.182854
729.039	0.099815
732.414	0.309163
735.789	0.448112
739.164	0.020473
742.539	0.275228
745.914	0.233238
749.288	0.344117
752.663	0.383147
756.038	0.167186
759.413	0.077475
762.788	0.173651
766.163	0.270562
769.537	0.171399
772.912	0.174465
776.287	0.085907
779.662	0.352491
783.037	0.345006
786.411	0.692079
789.786	0.468024
793.161	0.140853
796.536	0.092049
799.911	0.318732
803.285	0.550639
806.66	0.25542
810.035	0.247621
813.41	0.485229
816.785	0.224256
820.159	0.429933
823.534	0.403908
826.909	0.466502
830.284	0.16535
833.659	0.067863
837.034	0.345679
840.408	0.49694
843.783	0.112211
847.158	0.319652
850.533	0.543269
853.908	0.400013
857.283	0.503614
860.657	0.550386
864.032	0.41929
867.407	0.239906
870.782	0.235318
874.157	0.535539
877.531	0.370664
880.906	0.558077
884.281	0.417627
887.656	0.417897
891.031	0.212052
894.405	0.648011
897.78	0.275593
901.155	0.219669
904.53	0.4247
907.905	0.143654
911.279	0.285749
914.654	0.53871
918.029	0.314814
921.404	0.321696
924.779	0.307959
928.154	0.09545
931.528	0.096895
934.903	0.697832
938.278	0.270963
941.653	0.712164
945.028	0.340834
948.403	0.441232
951.777	0.265881
955.152	0.299827
958.527	0.439014
961.902	0.432145
965.277	0.334234
968.651	0.424804
972.026	0.035822
975.401	0.178059
978.776	0.457626
982.151	0.285317
985.525	0.412934
988.9	0.180946
992.275	0.295862
995.65	0.824987
999.025	0.256233
1002.4	0.399577
1005.77	0.291782
1009.15	0.276718
1012.52	0.319474
1015.9	0.389302
1019.27	0.645842
1022.65	0.615354
1026.02	0.186235
1029.4	0.361395
1032.77	0.387682
1036.15	0.093432
1039.52	0.325158
1042.9	0.421275
1046.27	0.500676
1049.65	0.682682
1053.02	0.310395
1056.4	0.10799
1059.77	0.603973
1063.15	0.2705
1066.52	0.523463
1069.9	0.363017
1073.27	0.400587
1076.64	0.483473
1080.02	0.418718
1083.39	0.629182
1086.77	0.540707
1090.14	0.610792
1093.52	0.208781
1096.89	0.088908
1100.27	0.643364
1103.64	0.009839
1107.02	0.547962
1110.39	0.23312
1113.77	0.660132
1117.14	0.382064
1120.52	0.286782
1123.89	0.324334
1127.27	0.239907
1130.64	0.481411
1134.02	0.365999
1137.39	0.180971
1140.77	0.441338
1144.14	0.659846
1147.52	0.455472
1150.89	0.421762
1154.27	0.451354
1157.64	0.042477
1161.02	0.020392
1164.39	0.029887
1167.77	0.468794
1171.14	0.640678
1174.52	0.300636
1177.89	0.436363
1181.27	0.379241
1184.64	0.215793
1188.01	0.204565
1191.39	0.11579
1194.76	0.641629
1198.14	0.572016
1201.51	0.351794
1204.89	0.250537
1208.26	0.224706
1211.64	0.213669
1215.01	0.474051
1218.39	0.394367
1221.76	0.424276
1225.14	0.282597
1228.51	0.601917
1231.89	0.251822
1235.26	0.010533
1238.64	0.303003
1242.01	0.237367
1245.39	0.325045
1248.76	0.187457
1252.14	1.05498
1255.51	0.375336
1258.88	0.369559
1262.26	0.052171
1265.63	0.453438
1269.01	0.088072
1272.38	0.058035
1275.76	0.23771
1279.13	0.271752
1282.51	0.175005
