Measurement: Raman, 532 nm, unoriented, Raman Data Processed
Mineral: Tetrahedrite
Rruff sample: R100204
Ideal chemistry: Cu_12_Sb_4_S_13_
Locality: Level 390, Vein 14, Mina Herminia, Julcani District, Huancavelica, Peru
Source: William W Pinch
Description: Metallic gray massive, associated with gustavite, R100203
Raman shift (cm-1)	intensity
164.799	0
167.692	3.05021
170.584	6.04136
173.477	5.03194
176.37	9.37594
179.263	4.99834
182.155	5.90938
185.048	4.61156
187.941	7.00391
190.833	5.88083
193.726	3.76105
196.619	3.97704
199.512	5.01212
202.404	2.52472
205.297	1.23548
208.19	3.69259
211.082	0.968925
213.975	1.11725
216.868	1.89182
219.761	1.42192
222.653	3.21178
225.546	1.41535
228.439	1.41357
231.331	0.649345
234.224	0.565704
237.117	3.64474
240.009	1.31032
242.902	3.58578
245.795	8.13351
248.688	3.30835
251.58	4.31105
254.473	3.57014
257.366	5.05205
260.258	3.21183
263.151	5.27808
266.044	5.96553
268.936	9.17343
271.829	9.82373
274.722	12.328
277.615	15.254
280.507	15.4809
283.4	21.8038
286.293	23.304
289.185	28.8439
292.078	30.9499
294.971	35.2377
297.863	35.1337
300.756	38.1097
303.649	41.0815
306.541	41.3929
309.434	49.3718
312.327	49.5963
315.22	53.6611
318.112	56.0472
321.005	55.3116
323.898	54.2438
326.791	53.6929
329.683	52.1522
332.576	53.3141
335.469	56.5978
338.361	63.3671
341.254	78.6682
344.147	93.8817
347.039	110.156
349.932	113.388
352.825	109.978
355.717	105.765
358.61	96.0213
361.503	78.9279
364.396	53.6237
367.288	30.605
370.181	22.9276
373.074	13.1488
375.966	10.7941
378.859	4.86589
381.752	1.21359
384.644	1.05926
387.537	2.09574
390.43	2.62221
393.323	2.06476
396.215	0.648247
399.108	1.93961
402.001	0.107349
404.894	0.733284
407.786	1.81654
410.679	0.881001
413.572	0.752579
416.464	0.259594
419.357	3.81605
422.25	1.36396
425.142	1.61651
428.035	0.641697
430.928	2.43708
433.82	1.32179
436.713	1.67764
439.606	4.42759
442.499	2.82638
445.391	3.65498
448.284	4.85838
451.177	3.56404
454.069	1.68336
456.962	3.18747
459.855	4.23069
462.748	2.15433
465.64	1.61212
468.533	3.62027
471.426	4.51506
474.318	2.15049
477.211	2.05477
480.104	4.84978
482.996	2.79713
485.889	0.947945
488.782	0.441185
491.675	2.80428
494.567	1.74614
497.46	2.09137
500.353	0.717613
503.245	1.46573
506.138	1.45838
509.031	1.1701
511.923	0.400928
514.816	1.04646
517.709	0.958015
520.602	1.11104
523.494	3.79516
526.387	2.2662
529.28	2.22949
532.172	0.908978
535.065	2.33372
537.958	2.27522
540.851	3.35293
543.743	0.846882
546.636	2.42327
549.529	1.02018
552.421	1.9929
555.314	1.88105
558.207	2.4861
561.099	1.44619
563.992	1.82259
566.885	0.973053
569.778	0.553738
572.67	0.066132
575.563	0.187752
578.456	2.63767
581.348	0.557255
584.241	0.793793
587.134	0.415787
590.027	2.76249
592.919	2.60349
595.812	2.68109
598.705	2.14265
601.597	1.82698
604.49	1.60224
607.383	0.635361
610.275	0.844887
613.168	2.55153
616.061	2.47855
618.953	2.00562
621.846	3.35877
624.739	2.08916
627.632	2.64405
630.524	2.63064
633.417	3.92207
636.31	1.52007
639.202	2.5072
642.095	0.378468
644.988	2.31802
647.881	1.67163
650.773	4.67361
653.666	3.52908
656.559	2.75585
659.451	3.55856
662.344	1.87777
665.237	2.78142
668.13	1.23011
671.022	0.875977
673.915	2.88897
676.808	2.50343
679.7	0.687458
682.593	2.30111
685.486	1.53316
688.378	2.9908
691.271	3.08585
694.164	2.79137
697.057	1.43311
699.949	1.7594
702.842	0.775967
705.735	0.85519
708.627	2.08818
711.52	0.16732
714.413	2.67554
717.305	2.4092
720.198	1.95081
723.091	0.716217
725.984	1.83262
728.876	0.955357
731.769	1.70586
734.662	1.29023
737.554	0.978359
740.447	1.86562
743.34	0.693237
746.232	0.983112
749.125	1.54226
752.018	1.56649
754.91	1.73422
757.803	0.702448
760.696	3.51232
763.589	1.97887
766.481	2.05295
769.374	0.422178
772.267	2.36802
775.159	1.31819
778.052	2.12866
780.945	1.74656
783.838	1.36541
786.73	1.91389
789.623	0.087099
792.516	0.731646
795.408	0.760431
798.301	0.823708
801.194	0.953886
804.087	2.54307
806.979	0.707634
809.872	1.34063
812.765	2.54314
815.657	1.32745
818.55	2.31538
821.443	1.35705
824.335	1.14438
827.228	0.528214
830.121	1.64829
833.014	2.41341
835.906	0.010498
838.799	3.67142
841.692	2.79643
844.584	0.634378
847.477	2.01846
850.37	2.21473
853.263	2.51632
856.155	0.987053
859.048	1.94591
861.941	2.59572
864.833	1.2238
867.726	1.71455
870.619	2.51374
873.511	0.583965
876.404	1.95065
879.297	2.37155
882.189	2.17108
885.082	2.81597
887.975	1.15262
890.868	3.13066
893.76	1.41347
896.653	4.15386
899.546	1.07869
902.438	1.44081
905.331	0.855169
908.224	2.01103
911.116	0.92539
914.009	1.91379
916.902	0.350536
919.795	0.804861
922.687	0.128393
925.58	2.37966
928.473	1.37912
931.365	0.366558
934.258	0.627407
937.151	3.22974
940.044	2.86597
942.936	1.16602
945.829	2.69728
948.722	0.999817
951.614	2.57562
954.507	2.43879
957.4	3.00219
960.293	2.89669
963.185	2.3783
966.078	2.9316
968.971	2.25967
971.863	0.637077
974.756	1.15606
977.649	1.34001
980.541	0.432405
983.434	1.21934
986.327	1.60708
989.22	0.225792
992.112	1.09595
995.005	2.47897
997.898	0.358515
1000.79	1.19637
1003.68	1.76666
1006.58	1.87902
1009.47	1.38916
1012.36	2.4958
1015.25	1.43781
1018.15	0.868828
1021.04	1.81356
1023.93	1.24523
1026.83	1.17591
1029.72	1.11468
1032.61	2.07296
1035.5	2.70732
1038.4	1.45816
1041.29	4.01918
1044.18	1.95289
1047.07	1.85005
1049.97	0.419224
1052.86	1.20225
1055.75	2.3131
1058.64	1.79237
1061.54	0.564226
1064.43	0.882959
1067.32	0.768488
1070.21	2.53719
1073.11	1.68178
1076	0.270882
1078.89	2.66825
1081.79	0.918255
1084.68	1.97919
1087.57	1.90322
1090.46	2.08096
1093.36	2.98872
1096.25	1.22136
1099.14	1.76303
1102.04	1.77486
1104.93	0.773878
1107.82	2.10144
1110.71	1.51375
1113.61	0.938946
1116.5	1.59417
1119.39	0.881636
1122.28	3.87129
1125.18	1.11532
1128.07	2.4764
1130.96	0.149313
1133.86	0.543379
1136.75	0.515409
1139.64	0.476871
1142.53	1.8086
1145.43	2.73123
1148.32	0.424759
1151.21	0.79389
1154.1	0.067177
1157	1.43893
1159.89	2.43002
1162.78	2.09293
1165.67	1.55235
1168.57	0.238091
1171.46	0.880886
1174.35	0.61236
1177.24	1.99405
1180.14	0.590733
1183.03	2.44812
1185.92	0.531033
1188.82	0.696516
1191.71	1.01252
1194.6	2.97917
1197.49	1.89448
1200.39	0.512926
1203.28	2.32107
1206.17	0.061008
1209.07	0.769541
1211.96	0.994259
1214.85	0.08144
1217.74	1.35194
1220.64	0.596191
1223.53	2.10507
1226.42	1.40215
1229.31	2.62147
1232.21	3.80013
1235.1	2.75448
1237.99	0.112017
1240.88	0.19511
1243.78	0.586824
1246.67	1.15171
1249.56	1.73519
1252.45	2.26776
1255.35	1.93553
1258.24	0.736223
1261.13	0.267069
1264.03	2.74845
1266.92	1.51047
1269.81	2.99391
1272.7	1.66684
1275.6	1.00197
1278.49	0.941889
1281.38	0.485956
1284.28	0.857122
1287.17	2.60088
1290.06	1.57262
1292.95	0.156357
1295.85	2.07701
1298.74	2.19236
1301.63	0.685997
