Measurement: Raman, 780 nm, unoriented, Raman Data Processed
Mineral: Tetrawickmanite
Rruff sample: R100003
Ideal chemistry: Mn^2+^Sn^4+^(OH)_6_
Locality: Langban, Filipstad, Varmland, Sweden
Source: William Pinch
Description: Yellowish-orange pseudocubic crystals
Raman shift (cm-1)	intensity
106.609	0
109.984	6.73303
113.358	6.13477
116.733	13.1731
120.108	11.7996
123.483	16.1193
126.858	5.80701
130.232	16.8571
133.607	14.4348
136.982	31.0178
140.357	35.8726
143.732	42.2025
147.107	52.0712
150.481	50.4695
153.856	55.4534
157.231	44.7239
160.606	31.5844
163.981	34.0228
167.355	37.0289
170.73	30.6681
174.105	38.7327
177.48	51.1002
180.855	46.8337
184.23	49.5586
187.604	53.5951
190.979	42.7067
194.354	32.9358
197.729	27.5094
201.104	17.8357
204.478	11.2709
207.853	2.12476
211.228	0.140259
214.603	2.10266
217.978	0.238098
221.352	3.07812
224.727	2.26758
228.102	10.8003
231.477	5.05859
234.852	8.15039
238.227	13.4834
241.601	14.3976
244.976	19.5087
248.351	16.7123
251.726	23.2204
255.101	29.0945
258.476	49.9487
261.85	79.7084
265.225	132.156
268.6	197.884
271.975	258.064
275.349	321.522
278.724	378.61
282.099	407.611
285.474	346.798
288.849	230.31
292.224	157.96
295.598	106.98
298.973	86.2383
302.348	54.8257
305.723	38.4819
309.098	19.5579
312.473	10.6772
315.847	0.082642
319.222	0.255371
322.597	0.851257
325.972	5.61407
329.347	13.6063
332.721	22.5492
336.096	49.7722
339.471	82.9028
342.846	107.254
346.221	151.458
349.596	190.781
352.97	214.091
356.345	232.356
359.72	255.316
363.095	260.406
366.47	251.103
369.844	228.631
373.219	212.578
376.594	191.974
379.969	166.116
383.344	147.781
386.719	124.133
390.093	116.304
393.468	87.9771
396.843	69.9587
400.218	55.6795
403.593	40.2293
406.967	23.9818
410.342	11.0067
413.717	5.40533
417.092	2.01025
420.467	1.15955
423.841	1.41235
427.216	0.122925
430.591	2.37341
433.966	6.2572
437.341	6.53503
440.716	13.1252
444.09	15.3464
447.465	18.2377
450.84	20.6141
454.215	17.0441
457.59	8.21399
460.964	11.7581
464.339	14.0861
467.714	8.82489
471.089	10.213
474.464	5.599
477.839	8.40173
481.213	3.51556
484.588	4.44873
487.963	2.50989
491.338	1.47809
494.713	3.48334
498.087	1.49676
501.462	8.66779
504.837	0.6026
508.212	4.69763
511.587	5.03046
514.962	5.22846
518.336	8.05017
521.711	18.1554
525.086	12.5835
528.461	22.1799
531.836	31.6492
535.21	31.0758
538.585	43.3321
541.96	47.233
545.335	67.492
548.71	69.9416
552.085	79.4871
555.459	99.5584
558.834	124.717
562.209	157.355
565.584	204.137
568.959	288.36
572.333	414.172
575.708	609.041
579.083	863.018
582.458	1132.14
585.833	1388.37
589.207	1558.69
592.582	1527.25
595.957	1191.47
599.332	785.644
602.707	511.182
606.082	323.637
609.456	210.99
612.831	146.28
616.206	96.7169
619.581	64.8156
622.956	48.8885
626.331	34.0337
629.705	26.9238
633.08	9.70044
636.455	6.35602
639.83	4.14917
643.205	2.82239
646.579	2.30731
649.954	0.322205
653.329	0.62854
656.704	0.293396
660.079	2.52148
663.453	1.41437
666.828	1.61493
670.203	3.11987
673.578	1.97351
676.953	1.04486
680.328	2.82227
683.702	4.43311
687.077	2.83331
690.452	1.98431
693.827	1.26355
697.202	0.178345
700.577	6.34528
703.951	10.1504
707.326	8.53326
710.701	14.9604
714.076	5.99561
717.451	14.2933
720.825	16.4055
724.2	13.2713
727.575	15.0624
730.95	13.4766
734.325	11.6142
737.699	11.3366
741.074	16.4633
744.449	11.9459
747.824	12.7352
751.199	14.4891
754.573	11.1642
757.948	4.95862
761.323	13.2705
764.698	11.6304
768.073	13.6248
771.448	13.8422
774.822	11.0034
778.197	7.63293
781.572	4.94263
784.947	4.92401
788.322	0.775513
791.697	8.67767
795.071	7.69135
798.446	0.120117
801.821	0.122742
805.196	3.13129
808.571	2.77747
811.945	3.10602
815.32	0.276123
818.695	0.830017
822.07	10.3204
825.445	2.64319
828.819	9.48212
832.194	12.9688
835.569	19.6282
838.944	24.0554
842.319	40.9297
845.694	50.47
849.068	75.1198
852.443	103.629
855.818	135.594
859.193	159.473
862.568	176.831
865.942	186.833
869.317	174.994
872.692	165.039
876.067	143.984
879.442	118.009
882.817	87.8607
886.191	67.8459
889.566	44.1967
892.941	38.9605
896.316	26.2697
899.691	24.0659
903.066	15.7088
906.44	7.09103
909.815	9.19427
913.19	7.77631
916.565	0.022339
919.94	5.65832
923.314	0.069672
926.689	2.56805
930.064	2.64096
933.439	3.88724
936.814	3.68491
940.188	1.54617
943.563	3.40674
946.938	1.34152
950.313	2.25345
953.688	1.89847
957.063	2.87115
960.437	0.279388
963.812	0.230743
967.187	3.54489
970.562	2.88907
973.937	4.4006
977.312	2.0686
980.686	4.20322
984.061	7.83057
987.436	3.85605
990.811	2.11322
994.186	1.54794
997.56	0.421051
1000.93	5.54388
1004.31	7.13171
1007.68	3.73694
1011.06	1.70352
1014.43	2.92963
1017.81	7.51938
1021.18	3.5574
1024.56	2.48792
1027.93	2.92944
1031.31	9.2544
1034.68	2.25635
1038.06	4.59479
1041.43	0.852448
1044.81	8.92529
1048.18	4.91141
1051.56	0.145294
1054.93	2.22061
1058.31	4.71515
1061.68	4.6069
1065.06	7.64127
1068.43	0.704834
1071.81	3.01175
1075.18	5.31775
1078.56	7.20371
1081.93	9.69171
1085.31	7.53653
1088.68	12.3909
1092.06	14.1425
1095.43	15.5129
1098.81	5.02786
1102.18	11.0419
1105.55	6.77936
1108.93	8.89026
1112.3	8.9545
1115.68	2.71857
1119.05	2.25793
1122.43	3.9545
1125.8	4.57165
1129.18	2.98987
1132.55	1.39709
1135.93	5.31763
1139.3	4.86029
1142.68	1.56424
1146.05	1.2294
1149.43	2.74164
1152.8	4.15762
1156.18	0.746246
1159.55	0.401306
1162.93	4.1618
1166.3	1.21133
1169.68	6.75778
1173.05	3.51535
1176.43	5.96835
1179.8	6.70917
1183.17	3.03497
1186.55	8.08685
1189.92	7.60486
1193.3	2.90701
1196.67	2.82529
1200.05	6.00586
1203.42	0.01062
1206.8	4.49014
1210.17	1.32147
1213.55	1.25552
1216.92	1.84442
1220.3	5.72537
1223.67	3.70105
1227.05	14.5292
1230.42	5.67441
1233.8	2.31653
1237.17	6.82752
1240.55	5.814
1243.92	5.28696
1247.3	7.54221
1250.67	7.41324
1254.05	2.26068
1257.42	7.20108
1260.8	5.18359
1264.17	5.26712
1267.55	5.78238
1270.92	2.78073
1274.3	5.08389
1277.67	0.783722
1281.05	1.47266
1284.42	0.370636
