Measurement: Raman, 532 nm, unoriented, Raman Data Processed
Mineral: Tetrahedrite
Rruff sample: R040164
Ideal chemistry: Cu_12_Sb_4_S_13_
Locality: Sunshine mine, Kellog, Idaho, USA
Source: University of Arizona Mineral Museum
Description: A fragment of massive ore
Measured chemistry: (Cu_0.75_Fe_0.11_Ag_0.08_Zn_0.05_)_12_(Sb_0.97_As_0.06_)_4_S_13_
Raman shift (cm-1)	intensity
121.45	0
124.825	1.38452
128.2	1.12485
131.575	1.13527
134.95	0.465523
138.325	1.09694
141.699	1.23168
145.074	1.35996
148.449	1.51063
151.824	1.24059
155.199	0.354873
158.573	0.803761
161.948	0.821913
165.323	0.607889
168.698	0.010584
172.073	0.320014
175.447	0.390362
178.822	0.260051
182.197	0.317907
185.572	0.459617
188.947	0.696626
192.322	0.694586
195.696	0.536899
199.071	0.050106
202.446	0.969232
205.821	0.232942
209.196	1.13214
212.571	0.192332
215.945	0.639059
219.32	0.07431
222.695	0.228413
226.07	0.181358
229.445	0.767182
232.819	0.352032
236.194	0.515206
239.569	0.970696
242.944	0.729616
246.319	0.451176
249.694	0.217296
253.068	0.477299
256.443	0.316459
259.818	0.809617
263.193	1.12323
266.567	1.05233
269.942	1.19369
273.317	1.8231
276.692	3.58032
280.067	2.81098
283.442	3.7614
286.816	3.74047
290.191	4.01789
293.566	3.12944
296.941	4.29365
300.316	4.50912
303.69	4.61844
307.065	5.26989
310.44	5.49518
313.815	5.42969
317.19	6.08138
320.565	6.96634
323.939	7.88263
327.314	9.42087
330.689	10.6291
334.064	12.8522
337.439	15.7583
340.813	18.8541
344.188	22.3174
347.563	21.6559
350.938	21.0832
354.313	20.2186
357.688	15.8169
361.062	11.9979
364.437	7.22795
367.812	4.10006
371.187	2.41884
374.562	1.02257
377.937	0.525778
381.311	0.325846
384.686	0.194669
388.061	0.274261
391.436	0.184124
394.81	0.366848
398.185	0.087562
401.56	0.088442
404.935	0.333109
408.31	0.254373
411.685	0.242285
415.059	0.489351
418.434	0.114692
421.809	0.665657
425.184	0.173751
428.559	0.455837
431.933	0.910382
435.308	1.25473
438.683	0.566782
442.058	1.10544
445.433	0.652709
448.808	0.569175
452.182	0.464496
455.557	0.812534
458.932	0.83177
462.307	0.268702
465.682	0.654795
469.057	0.705813
472.431	0.408709
475.806	0.023973
479.181	0.331389
482.556	0.522117
485.931	0.478134
489.305	0.60553
492.68	0.922124
496.055	0.606905
499.43	0.65024
502.805	0.505476
506.18	0.322667
509.554	0.657579
512.929	0.314001
516.304	0.655094
519.679	1.09681
523.054	0.43912
526.428	0.557046
529.803	0.182791
533.178	0.333204
536.553	0.372461
539.928	0.862501
543.303	0.543595
546.677	0.412403
550.052	0.188732
553.427	0.626042
556.802	0.126089
560.177	0.134298
563.551	0.58879
566.926	0.293619
570.301	0.282768
573.676	0.694048
577.051	0.309364
580.426	0.664038
583.8	0.664631
587.175	0.874247
590.55	0.841377
593.925	0.185638
597.299	0.291976
600.674	0.277259
604.049	0.572152
607.424	0.371977
610.799	0.013597
614.174	0.715137
617.548	0.916159
620.923	0.371646
624.298	0.490341
627.673	0.655227
631.048	0.523903
634.423	0.575903
637.797	0.421554
641.172	0.444834
644.547	0.75428
647.922	0.838906
651.297	0.47482
654.671	0.62572
658.046	0.579393
661.421	0.829575
664.796	0.447667
668.171	0.697054
671.545	0.554946
674.92	0.067673
678.295	0.309233
681.67	0.512181
685.045	0.009156
688.42	0.281557
691.794	0.90824
695.169	0.466791
698.544	0.25788
701.919	0.454931
705.294	0.2926
708.668	0.186575
712.043	0.531297
715.418	0.410279
718.793	0.327639
722.168	0.387956
725.543	0.196626
728.917	0.661484
732.292	0.506771
735.667	0.451129
739.042	0.044915
742.417	0.22526
745.791	0.132254
749.166	1.06455
752.541	0.072853
755.916	0.016587
759.291	0.573334
762.665	0.202238
766.04	0.607995
769.415	0.334391
772.79	0.358167
776.165	0.253174
779.54	0.270875
782.914	0.280292
786.289	0.451857
789.664	0.303041
793.039	0.097739
796.414	0.456289
799.788	0.827983
803.163	0.204126
806.538	0.561252
809.913	0.632096
813.288	1.05842
816.663	0.057386
820.037	0.0436
823.412	0.616035
826.787	0.465596
830.162	1.06538
833.537	0.855219
836.912	0.456933
840.286	0.829666
843.661	0.424779
847.036	0.417461
850.411	0.337413
853.786	0.626972
857.16	0.73099
860.535	0.622643
863.91	0.469797
867.285	0.168827
870.66	0.200938
874.034	0.075199
877.409	0.296706
880.784	0.742595
884.159	0.425866
887.534	0.77264
890.909	0.775113
894.283	0.402691
897.658	0.67508
901.033	1.00596
904.408	0.785968
907.783	0.468778
911.158	0.130832
914.532	0.139907
917.907	0.541855
921.282	0.479127
924.657	0.472132
928.032	0.45705
931.406	0.333456
934.781	0.335889
938.156	0.585127
941.531	0.25379
944.906	0.217058
948.28	0.665954
951.655	0.93889
955.03	0.851895
958.405	0.685335
961.78	0.847277
965.154	0.20932
968.529	0.239764
971.904	0.230294
975.279	0.462101
978.654	0.757103
982.029	0.230475
985.403	0.392369
988.778	0.48492
992.153	0.079571
995.528	0.920984
998.903	0.209322
1002.28	0.748447
1005.65	0.434568
1009.03	0.3762
1012.4	0.53158
1015.78	0.275504
1019.15	0.696291
1022.53	0.023594
1025.9	0.774115
1029.28	0.310337
1032.65	0.693267
1036.03	0.054398
1039.4	0.23395
1042.78	0.444225
1046.15	0.160683
1049.53	0.845325
1052.9	0.671713
1056.28	0.339892
1059.65	0.275742
1063.02	0.498863
1066.4	0.57309
1069.77	0.919739
1073.15	0.911196
1076.52	0.521484
1079.9	0.185909
1083.27	0.429585
1086.65	0.514377
1090.02	0.35079
1093.4	0.241078
1096.77	0.572856
1100.15	0.553885
1103.52	0.385643
1106.9	0.082051
1110.27	0.047673
1113.65	0.53615
1117.02	0.158393
1120.4	0.791021
1123.77	0.496473
1127.15	0.785221
1130.52	0.191495
1133.89	0.950084
1137.27	0.589031
1140.64	0.542377
1144.02	0.45459
1147.39	0.61035
1150.77	0.49243
1154.14	0.38035
1157.52	0.465177
1160.89	0.754622
1164.27	0.309655
1167.64	0.804617
1171.02	0.364564
1174.39	0.31392
1177.77	0.712475
1181.14	0.195185
1184.52	0.641228
1187.89	0.416306
1191.27	0.770202
1194.64	0.417899
1198.02	0.630166
1201.39	0.298132
1204.77	0.784492
1208.14	0.262501
1211.52	0.426933
1214.89	0.217281
1218.27	0.874607
1221.64	1.17808
1225.02	0.204964
1228.39	0.351074
1231.77	0.255023
1235.14	0.268212
1238.52	0.315865
1241.89	1.10242
1245.26	0.496467
1248.64	0.387383
1252.01	0.052244
1255.39	0.645895
1258.76	0.313206
1262.14	0.035457
1265.51	0.474281
1268.89	0.60767
1272.26	0.664462
1275.64	0.506295
1279.01	0.025832
1282.39	0.491003
1285.76	0.266949
