Measurement: Raman, 532 nm, unoriented, Raman Data Processed
Mineral: Tetrawickmanite
Rruff sample: R100003
Ideal chemistry: Mn^2+^Sn^4+^(OH)_6_
Locality: Langban, Filipstad, Varmland, Sweden
Source: William Pinch
Description: Yellowish-orange pseudocubic crystals
Raman shift (cm-1)	intensity
158.546	0
161.439	23.199
164.332	43.3807
167.224	35.517
170.117	43.0271
173.01	45.0322
175.902	65.7543
178.795	81.3652
181.688	90.7952
184.581	89.8875
187.473	81.0841
190.366	82.6763
193.259	89.0376
196.151	75.4755
199.044	76.7345
201.937	54.4855
204.829	43.0044
207.722	24.7483
210.615	15.8538
213.507	12.8954
216.4	8.58569
219.293	4.65942
222.186	12.0256
225.078	13.4045
227.971	0.526733
230.864	15.4066
233.756	1.48486
236.649	2.00781
239.542	1.61353
242.435	7.0459
245.327	18.3407
248.22	31.4831
251.113	34.5633
254.005	54.7496
256.898	70.4412
259.791	93.0444
262.683	146.459
265.576	232.102
268.469	355.856
271.361	472.55
274.254	630.565
277.147	819.156
280.04	1058.88
282.932	1220.77
285.825	1126.03
288.718	875.494
291.61	661.452
294.503	531.929
297.396	456.154
300.288	391.304
303.181	324.313
306.074	252.121
308.967	167.905
311.859	106.598
314.752	69.9481
317.645	38.832
320.537	12.5668
323.43	1.89941
326.323	19.2068
329.216	24.9935
332.108	39.234
335.001	63.3835
337.894	97.7447
340.786	136.562
343.679	209.519
346.572	284.273
349.464	395.143
352.357	478.932
355.25	566.835
358.142	650.333
361.035	703.885
363.928	736.176
366.821	745.574
369.713	719.717
372.606	670.783
375.499	627.706
378.391	570.46
381.284	499.937
384.177	424.814
387.07	357.664
389.962	297.474
392.855	254.412
395.748	209.239
398.64	162.186
401.533	124.441
404.426	89.4512
407.318	52.5529
410.211	20.437
413.104	10.707
415.997	0.178589
418.889	11.5617
421.782	8.78455
424.675	13.9523
427.567	0.876221
430.46	12.3565
433.353	20.8252
436.245	37.9263
439.138	50.5272
442.031	73.9707
444.923	83.7327
447.816	78.7259
450.709	74.5359
453.602	72.9502
456.494	57.5751
459.387	50.5541
462.28	46.0317
465.172	40.7312
468.065	35.8575
470.958	31.4133
473.851	30.7715
476.743	24.3394
479.636	13.5442
482.529	7.18079
485.421	3.4154
488.314	8.33557
491.207	13.5466
494.099	13.1256
496.992	17.2441
499.885	6.46643
502.777	3.95606
505.67	16.2447
508.563	21.9731
511.456	42.5447
514.348	59.142
517.241	75.0295
520.134	100.188
523.026	123.812
525.919	165.998
528.812	196.077
531.705	226.768
534.597	261.091
537.49	309.128
540.383	320.944
543.275	345.352
546.168	362.292
549.061	391.338
551.953	427.025
554.846	457.336
557.739	504.546
560.631	574.665
563.524	657.054
566.417	791.215
569.31	983.971
572.202	1286.7
575.095	1739.38
577.988	2371.84
580.88	3248.87
583.773	4235.26
586.666	5378.7
589.558	6400.48
592.451	6898.13
595.344	6182.64
598.237	4591.99
601.129	3086.89
604.022	2067.48
606.915	1406.36
609.807	978.158
612.7	689.702
615.593	480.804
618.486	354.762
621.378	263.464
624.271	182.735
627.164	134.416
630.056	97.483
632.949	64.3181
635.842	38.1207
638.734	28.9515
641.627	6.47534
644.52	7.76318
647.413	6.31006
650.305	0.874268
653.198	7.87305
656.091	5.92712
658.983	3.80627
661.876	9.91479
664.769	8.03748
667.661	6.47754
670.554	4.79333
673.447	4.21448
676.34	2.44482
679.232	5.23083
682.125	9.10181
685.018	3.28662
687.91	19.0104
690.803	19.443
693.696	11.6339
696.588	19.2825
699.481	27.8497
702.374	27.537
705.266	30.2859
708.159	30.8456
711.052	41.87
713.945	50.1537
716.837	55.8763
719.73	46.1823
722.623	46.3715
725.515	47.4582
728.408	55.0685
731.301	52.9855
734.193	43.6257
737.086	48.6821
739.979	44.7751
742.872	46.501
745.764	49.5454
748.657	56.2585
751.55	58.6272
754.442	65.993
757.335	63.6633
760.228	75.2338
763.12	76.9089
766.013	84.4307
768.906	78.9247
771.799	72.0348
774.691	80.4125
777.584	72.2731
780.477	67.598
783.369	64.5692
786.262	51.0798
789.155	40.4825
792.048	34.6521
794.94	29.9336
797.833	8.36951
800.726	3.81775
803.618	6.04236
806.511	2.28345
809.404	2.13489
812.296	2.93945
815.189	0.857666
818.082	1.07141
820.975	0.589355
823.867	4.0531
826.76	14.4974
829.653	24.2821
832.545	33.3722
835.438	52.7227
838.331	82.0496
841.223	115.766
844.116	163.111
847.009	236.187
849.902	313.882
852.794	419.782
855.687	547.717
858.58	672.903
861.472	776.354
864.365	854.334
867.258	876.96
870.15	863.28
873.043	827.089
875.936	762.057
878.828	664.704
881.721	552.067
884.614	439.67
887.507	347.692
890.399	261.393
893.292	203.222
896.185	165.653
899.077	140.48
901.97	105.496
904.863	84.1226
907.755	71.195
910.648	55.0371
913.541	37.2744
916.434	33.9202
919.326	22.5806
922.219	12.9183
925.112	4.08508
928.004	4.03906
930.897	5.22815
933.79	3.62427
936.683	10.1361
939.575	0.894409
942.468	1.10791
945.361	5.55762
948.253	3.42188
951.146	0.533203
954.039	8.88086
956.931	5.76404
959.824	1.4989
962.717	1.46765
965.61	3.27673
968.502	7.11585
971.395	4.52246
974.288	13.2031
977.18	11.0568
980.073	10.6802
982.966	14.2307
985.858	14.0406
988.751	13.7058
991.644	11.5415
994.537	7.59961
997.429	17.5663
1000.32	18.5125
1003.22	4.38928
1006.11	1.64819
1009	5.37927
1011.89	8.33972
1014.78	7.33862
1017.68	7.66833
1020.57	5.66052
1023.46	7.76807
1026.36	8.65881
1029.25	5.92847
1032.14	3.48975
1035.03	6.61401
1037.93	1.84155
1040.82	7.31433
1043.71	18.9135
1046.61	7.40832
1049.5	8.78503
1052.39	2.38623
1055.28	6.4303
1058.18	11.2593
1061.07	2.83899
1063.96	2.34448
1066.85	3.44275
1069.75	8.40613
1072.64	9.68176
1075.53	14.0365
1078.42	19.6514
1081.32	25.46
1084.21	19.4067
1087.1	23.8632
1090	22.2125
1092.89	27.1791
1095.78	33.2
1098.67	35.9611
1101.57	39.3832
1104.46	30.3044
1107.35	29.677
1110.24	33.471
1113.14	27.1357
1116.03	29.2073
1118.92	24.4617
1121.82	24.077
1124.71	22.0654
1127.6	18.0028
1130.49	14.4973
1133.39	10.1937
1136.28	9.5752
1139.17	8.20032
1142.06	21.9935
1144.96	19.1735
1147.85	22.5203
1150.74	20.6564
1153.63	18.3887
1156.53	10.9866
1159.42	0.483643
1162.31	8.35071
1165.21	4.14758
1168.1	6.23865
1170.99	2.37769
1173.88	2.16919
1176.78	3.96594
1179.67	2.68408
1182.56	1.75891
1185.45	1.86206
1188.35	7.38989
1191.24	2.36353
1194.13	6.73511
1197.03	4.55566
1199.92	13.9535
1202.81	2.49499
1205.7	7.34058
1208.6	10.1382
1211.49	9.33765
1214.38	2.06897
1217.27	0.946655
1220.17	3.54639
1223.06	8.06506
1225.95	10.4017
1228.85	8.4696
1231.74	1.1687
1234.63	0.665405
1237.52	3.57422
1240.42	10.9539
1243.31	12.415
1246.2	17.1499
1249.09	18.1671
1251.99	10.9575
1254.88	10.1316
1257.77	9.25085
1260.66	15.0603
1263.56	5.11365
1266.45	14.9748
1269.34	14.7723
1272.24	9.63684
1275.13	9.46033
1278.02	18.4296
1280.91	12.4432
1283.81	6.37427
1286.7	7.26392
1289.59	10.0437
1292.48	1.02502
1295.38	4.88025
1298.27	9.48218
1301.16	7.6958
