Measurement: Raman, 780 nm, unoriented, Raman Data Processed
Mineral: Tetrahedrite
Rruff sample: R050302
Ideal chemistry: Cu_12_Sb_4_S_13_
Locality: Casapalca, Peru
Source: Eugene Schlepp
Description: Black tetrahedra associated with quartz and pyrite
Measured chemistry: (Cu_10.02_Zn_1.76_Fe_0.22_)_Σ=12_(Sb_2.42_As_1.58_)_Σ=4_S_13.00_
Raman shift (cm-1)	intensity
145.074	0
147.967	0.90957
150.859	0.113636
153.752	1.65325
156.645	0.791998
159.538	2.78702
162.43	2.51577
165.323	2.44449
168.216	3.92472
171.108	4.9279
174.001	4.66437
176.894	4.46967
179.786	5.51177
182.679	4.15709
185.572	2.90361
188.465	1.52339
191.357	1.92139
194.25	1.30248
197.143	0.193122
200.035	0.29883
202.928	0.327413
205.821	0.025925
208.714	0.3839
211.606	0.33131
214.499	0.846508
217.392	0.005406
220.284	0.095486
223.177	1.40041
226.07	0.520444
228.962	1.54659
231.855	2.06931
234.748	2.34155
237.641	1.94653
240.533	2.80122
243.426	3.18345
246.319	1.68845
249.211	3.11984
252.104	3.83267
254.997	0.901016
257.889	0.948549
260.782	0.083742
263.675	0.839136
266.567	0.006472
269.46	0.07469
272.353	0.114088
275.246	1.87761
278.138	2.98337
281.031	6.89915
283.924	7.99055
286.816	10.5656
289.709	12.3132
292.602	14.2546
295.495	16.1359
298.387	15.5577
301.28	17.4696
304.173	17.5993
307.065	17.7462
309.958	18.5201
312.851	21.2795
315.743	23.2212
318.636	26.09
321.529	28.1752
324.421	32.2918
327.314	33.6415
330.207	36.6863
333.1	39.5445
335.992	46.2878
338.885	54.0102
341.778	62.7145
344.67	72.2389
347.563	82.7704
350.456	98.4541
353.349	109.56
356.241	113.451
359.134	111.612
362.027	103.585
364.919	95.7413
367.812	89.1009
370.705	76.8783
373.597	64.6814
376.49	59.0504
379.383	50.6307
382.276	38.2928
385.168	20.7157
388.061	9.32632
390.954	4.13266
393.846	1.55931
396.739	0.647256
399.632	1.34149
402.524	0.437792
405.417	0.566502
408.31	1.07449
411.202	0.591388
414.095	0.373048
416.988	0.141545
419.881	0.183041
422.773	1.74743
425.666	0.577852
428.559	1.0359
431.451	1.35435
434.344	1.79059
437.237	1.74338
440.13	1.33302
443.022	2.00005
445.915	2.19695
448.808	2.35339
451.7	2.1085
454.593	3.10995
457.486	3.00092
460.378	3.25645
463.271	3.09825
466.164	2.92274
469.057	1.45576
471.949	1.86932
474.842	2.01269
477.735	1.21119
480.627	0.771309
483.52	1.89815
486.413	0.69275
489.305	1.35395
492.198	1.32738
495.091	0.963508
497.983	1.1089
500.876	0.921895
503.769	0.39919
506.662	0.685193
509.554	1.11157
512.447	0.926637
515.34	0.581765
518.232	1.24189
521.125	0.885979
524.018	0.934071
526.91	0.270739
529.803	0.696354
532.696	0.350796
535.589	0.440812
538.481	0.53044
541.374	0.344008
544.267	0.42975
547.159	0.005169
550.052	0.13644
552.945	0.293875
555.837	0.051101
558.73	0.349954
561.623	1.23299
564.516	0.096278
567.408	0.480291
570.301	0.181413
573.194	0.971336
576.086	0.698376
578.979	0.389746
581.872	0.986145
584.764	0.486857
587.657	0.135778
590.55	0.038374
593.443	0.439505
596.335	0.244451
599.228	1.00652
602.121	0.646572
605.013	0.265811
607.906	0.030377
610.799	0.630465
613.692	0.462428
616.584	0.43465
619.477	0.493212
622.37	0.509497
625.262	0.294496
628.155	0.419963
631.048	0.763238
633.94	0.426626
636.833	0.211351
639.726	0.388271
642.619	1.15281
645.511	0.717445
648.404	0.768462
651.297	0.532079
654.189	0.724274
657.082	0.757691
659.975	1.01213
662.867	0.031832
665.76	0.513093
668.653	0.772258
671.545	0.360042
674.438	0.299284
677.331	0.867275
680.224	0.954047
683.116	0.593788
686.009	0.341756
688.902	0.920531
691.794	0.175312
694.687	0.819793
697.58	0.435378
700.472	0.221865
703.365	0.87862
706.258	1.00209
709.151	0.632813
712.043	0.795653
714.936	0.231094
717.829	0.02885
720.721	0.398186
723.614	0.70573
726.507	0.831328
729.399	0.588531
732.292	0.789341
735.185	0.368754
738.078	0.281598
740.97	0.7447
743.863	0.051915
746.756	0.874202
749.648	0.605162
752.541	0.725239
755.434	0.709963
758.327	0.597766
761.219	0.256536
764.112	0.546697
767.005	0.616112
769.897	0.187897
772.79	0.477281
775.683	0.113249
778.575	1.12893
781.468	0.39237
784.361	0.640378
787.254	0.601139
790.146	0.266157
793.039	0.521692
795.932	1.13991
798.824	0.451328
801.717	1.02851
804.61	0.740495
807.502	0.996174
810.395	0.113627
813.288	0.308462
816.181	0.845217
819.073	0.86485
821.966	0.372319
824.859	0.41899
827.751	0.593862
830.644	1.00691
833.537	1.06006
836.429	1.62617
839.322	0.083559
842.215	0.307948
845.107	1.01509
848	0.691388
850.893	0.055234
853.786	0.550153
856.678	1.10472
859.571	0.362171
862.464	0.883113
865.356	0.994614
868.249	0.553875
871.142	0.394303
874.034	0.320926
876.927	0.149059
879.82	0.550899
882.713	0.586129
885.605	1.00529
888.498	0.998691
891.391	0.928114
894.283	0.769114
897.176	0.34379
900.069	1.01609
902.962	0.493737
905.854	0.609083
908.747	0.703316
911.64	0.333956
914.532	0.592257
917.425	0.924289
920.318	1.02806
923.21	0.651558
926.103	0.593506
928.996	0.972886
931.888	0.886244
934.781	0.558759
937.674	0.790616
940.567	1.0348
943.459	0.1352
946.352	0.39057
949.245	0.106997
952.137	0.580276
955.03	1.24318
957.923	1.37122
960.815	0.211567
963.708	0.863702
966.601	0.597806
969.494	1.02729
972.386	1.0955
975.279	0.085015
978.172	0.522521
981.064	0.225681
983.957	0.947866
986.85	0.072471
989.742	0.36037
992.635	0.387307
995.528	0.58385
998.42	0.554252
1001.31	0.06203
1004.21	0.416783
1007.1	0.511792
1009.99	0.637775
1012.88	0.248321
1015.78	1.04328
1018.67	0.925715
1021.56	0.91734
1024.45	0.672996
1027.35	0.627154
1030.24	0.642986
1033.13	0.031203
1036.03	0.318303
1038.92	0.836272
1041.81	0.299917
1044.7	0.516446
1047.6	0.45362
1050.49	1.05334
1053.38	0.902919
1056.28	0.667275
1059.17	0.556425
1062.06	0.819077
1064.95	0.815582
1067.85	0.648281
1070.74	0.765632
1073.63	0.389722
1076.52	0.823254
1079.42	1.40923
1082.31	0.397938
1085.2	0.69409
1088.09	0.531799
1090.99	0.408243
1093.88	0.520244
1096.77	0.824802
1099.66	0.603794
1102.56	0.463234
1105.45	0.706735
1108.34	1.35177
1111.24	0.61727
1114.13	0.089834
1117.02	0.780031
1119.91	0.507421
1122.81	1.23202
1125.7	0.473697
1128.59	0.442785
1131.48	0.716755
1134.38	0.841234
1137.27	0.046153
1140.16	0.111098
1143.06	0.279176
1145.95	0.936163
1148.84	0.353891
1151.73	0.252858
1154.63	0.116873
1157.52	0.470743
1160.41	0.391704
1163.3	0.398146
1166.2	0.537662
1169.09	1.02811
1171.98	0.208352
1174.88	0.71224
1177.77	0.325258
1180.66	1.04115
1183.55	0.369629
1186.45	0.650443
1189.34	1.2698
1192.23	0.682882
1195.12	0.64841
1198.02	0.87073
1200.91	0.951454
1203.8	0.587059
1206.69	0.682454
1209.59	0.643168
1212.48	0.705651
1215.37	0.935434
1218.27	0.438147
1221.16	0.046568
1224.05	0.355211
1226.94	0.881305
1229.84	0.211389
1232.73	0.744517
1235.62	0.83044
1238.52	0.146264
1241.41	0.778137
1244.3	0.287699
1247.19	0.344103
1250.09	0.662411
1252.98	0.798975
1255.87	0.661217
1258.76	0.983524
1261.66	1.00469
1264.55	1.22889
1267.44	0.859711
1270.33	0.123579
1273.23	0.244173
1276.12	1.20916
1279.01	0.713205
1281.9	0.243705
1284.8	0.028536
