Measurement: Raman, 780 nm, unoriented, Raman Data Processed
Mineral: Thaumasite
Rruff sample: R060814
Ideal chemistry: Ca_3_Si(OH)_6_(SO_4_)(CO_3_)12H_2_O
Locality: Crestmore Quarry, Riverside County, Jurupa Mountains, California, USA
Source: Michael Scott
Description: Mass of colorless acicular crystals associated with afwillite, R080022
Raman shift (cm-1)	intensity
161.524	0
164.417	0.083946
167.31	1.67474
170.202	2.96098
173.095	4.96192
175.988	6.63655
178.881	9.44502
181.773	11.9393
184.666	14.6192
187.559	17.928
190.451	20.3297
193.344	24.7789
196.237	27.8503
199.129	30.9871
202.022	35.9844
204.915	39.3619
207.808	43.9592
210.7	44.4391
213.593	39.8666
216.486	34.3416
219.378	27.2987
222.271	23.4029
225.164	20.324
228.056	17.1585
230.949	15.6379
233.842	13.7282
236.734	12.3224
239.627	10.8261
242.52	8.83955
245.413	7.36538
248.305	6.6541
251.198	4.93714
254.091	3.54799
256.983	2.85899
259.876	1.55478
262.769	0.541756
265.661	0.589954
268.554	0.855476
271.447	0.113243
274.34	0.625526
277.232	0.253742
280.125	0.043026
283.018	0.495495
285.91	0.514881
288.803	0.690956
291.696	0.545433
294.589	0.430847
297.481	0.670078
300.374	0.543385
303.267	0.893494
306.159	0.994312
309.052	1.95837
311.945	1.48976
314.837	1.33554
317.73	0.915974
320.623	1.54497
323.515	1.29132
326.408	1.07873
329.301	1.22379
332.194	0.835396
335.086	0.270468
337.979	0.042828
340.872	0.11614
343.764	0.219887
346.657	0.108658
349.55	0.564648
352.442	0.715137
355.335	0.784346
358.228	1.76985
361.121	2.13894
364.013	2.59306
366.906	2.8783
369.799	2.18858
372.691	2.59393
375.584	2.191
378.477	1.08319
381.37	0.953365
384.262	0.379435
387.155	0.307289
390.048	0.617384
392.94	0.222515
395.833	1.14881
398.726	1.57361
401.618	2.31572
404.511	3.43919
407.404	4.40599
410.296	5.01691
413.189	6.37673
416.082	7.19576
418.975	7.84901
421.867	8.052
424.76	8.55739
427.653	8.70482
430.545	9.84411
433.438	10.5196
436.331	12.3309
439.224	14.154
442.116	15.9368
445.009	18.8665
447.902	19.715
450.794	20.837
453.687	20.0785
456.58	18.8535
459.472	15.2773
462.365	12.3022
465.258	9.24431
468.151	6.87006
471.043	4.6592
473.936	3.68444
476.829	3.42041
479.721	2.33373
482.614	1.44057
485.507	0.418627
488.399	0.149134
491.292	0.144266
494.185	0.148771
497.077	0.191746
499.97	0.223724
502.863	0.006086
505.756	0.072737
508.648	0.099947
511.541	0.121231
514.434	0.071741
517.326	0.334044
520.219	0.211582
523.112	0.756823
526.005	1.14215
528.897	1.14584
531.79	1.51151
534.683	2.17294
537.575	2.97396
540.468	2.33831
543.361	3.12343
546.253	3.11779
549.146	2.81408
552.039	2.23041
554.932	1.97046
557.824	0.903509
560.717	0.662037
563.61	0.664661
566.502	0.039474
569.395	0.36729
572.288	0.397577
575.18	0.504375
578.073	0.497564
580.966	0.674129
583.859	0.97773
586.751	1.01414
589.644	1.52903
592.537	2.57408
595.429	2.65667
598.322	2.71651
601.215	3.55687
604.107	3.71079
607	3.64284
609.893	3.79242
612.785	4.45438
615.678	4.48204
618.571	4.45477
621.464	5.11472
624.356	5.30438
627.249	6.32874
630.142	6.37127
633.034	6.89708
635.927	8.10484
638.82	9.65789
641.712	12.7384
644.605	16.1857
647.498	18.2728
650.391	21.2195
653.283	23.4908
656.176	22.8473
659.069	19.9142
661.961	11.7453
664.854	5.60863
667.747	2.75683
670.639	1.33309
673.532	0.729517
676.425	0.463711
679.318	0.598465
682.21	0.031103
685.103	0.121889
687.996	0.756565
690.888	0.594788
693.781	0.289379
696.674	0.460264
699.567	0.202818
702.459	0.169264
705.352	0.139139
708.245	0.216152
711.137	0.180971
714.03	0.03385
716.923	0.032797
719.815	0.063061
722.708	0.119335
725.601	0.019569
728.494	0.432949
731.386	0.390676
734.279	0.146835
737.172	0.013536
740.064	0.159588
742.957	0.107809
745.85	0.981586
748.742	0.567959
751.635	1.07834
754.528	1.6782
757.42	2.04551
760.313	1.74399
763.206	1.93954
766.099	1.42393
768.991	1.09858
771.884	0.728081
774.777	0.327097
777.669	0.399761
780.562	0.123951
783.455	0.237165
786.347	0.909409
789.24	0.804035
792.133	0.868044
795.026	1.07355
797.918	1.04589
800.811	0.701674
803.704	1.161
806.596	1.52482
809.489	0.980282
812.382	1.29904
815.274	1.05656
818.167	1.24727
821.06	1.18276
823.953	1.54685
826.845	1.18091
829.738	0.800621
832.631	1.32871
835.523	0.978123
838.416	0.945402
841.309	1.05836
844.201	1.06837
847.094	1.38197
849.987	0.792295
852.88	1.41886
855.772	0.975155
858.665	0.707962
861.558	0.50699
864.45	1.02257
867.343	1.25948
870.236	1.30168
873.128	1.46444
876.021	0.738218
878.914	1.40587
881.807	1.02992
884.699	1.44505
887.592	1.14053
890.485	0.859411
893.377	1.37247
896.27	0.45088
899.163	1.01685
902.055	0.331221
904.948	0.481598
907.841	0.181108
910.734	0.176218
913.626	0.425673
916.519	0.045807
919.412	0.302176
922.304	0.01589
925.197	0.120165
928.09	0.383778
930.982	0.102448
933.875	0.183687
936.768	0.177938
939.66	0.054161
942.553	0.435858
945.446	0.404245
948.339	0.67602
951.231	0.688166
954.124	0.638603
957.017	0.500257
959.909	1.04384
962.802	1.18576
965.695	2.03875
968.587	3.08804
971.48	6.38362
974.373	13.3207
977.266	31.8117
980.158	49.2867
983.051	71.7343
985.944	105.501
988.836	144.576
991.729	140.394
994.622	57.9885
997.514	18.8389
1000.41	7.66096
1003.3	3.70422
1006.19	3.11878
1009.09	1.30065
1011.98	1.38904
1014.87	0.488544
1017.76	0.17732
1020.66	0.349293
1023.55	0.412018
1026.44	0.366446
1029.33	0.154707
1032.23	0.035875
1035.12	0.200859
1038.01	0.322611
1040.9	0.110474
1043.8	0.723015
1046.69	0.859182
1049.58	1.08824
1052.48	2.01131
1055.37	4.57009
1058.26	9.58849
1061.15	17.5861
1064.05	26.9362
1066.94	38.432
1069.83	49.5245
1072.72	54.3836
1075.62	37.2644
1078.51	16.0066
1081.4	8.58818
1084.3	6.61646
1087.19	4.98058
1090.08	4.61776
1092.97	4.58801
1095.87	4.75554
1098.76	4.82184
1101.65	4.79225
1104.54	4.69052
1107.44	4.46841
1110.33	4.45652
1113.22	4.8052
1116.12	3.58457
1119.01	4.20122
1121.9	3.4222
1124.79	3.05933
1127.69	3.01595
1130.58	2.53212
1133.47	2.28843
1136.36	1.48245
1139.26	1.53405
1142.15	1.50436
1145.04	1.12473
1147.93	0.925668
1150.83	0.412875
1153.72	0.19642
1156.61	0.007214
1159.51	0.407366
1162.4	0.10516
1165.29	0.041689
1168.18	0.030576
1171.08	0.109294
1173.97	0.323403
1176.86	0.211694
1179.76	0.12266
1182.65	0.065802
1185.54	0.274499
1188.43	0.444934
1191.33	0.042978
1194.22	0.190848
1197.11	0.235282
1200	0.152814
1202.9	0.519444
1205.79	0.775827
1208.68	0.78677
1211.57	0.418634
1214.47	0.46182
1217.36	0.614394
1220.25	0.599581
1223.14	0.509809
1226.04	0.741966
1228.93	0.514116
1231.82	0.457966
1234.72	0.500737
1237.61	0.421281
1240.5	0.465233
1243.39	0.624107
1246.29	0.459225
1249.18	0.638144
1252.07	0.558252
1254.96	0.345028
1257.86	0.248861
1260.75	0.614994
1263.64	0.341957
1266.54	0.356678
1269.43	0.465584
1272.32	0.179131
1275.21	0.215155
1278.11	0.394419
1281	0.141037
1283.89	0.343695
1286.79	0.018244
