Measurement: Raman, 532 nm, unoriented, Raman Data Processed
Mineral: Thaumasite
Rruff sample: R060296
Ideal chemistry: Ca_3_Si(OH)_6_(SO_4_)(CO_3_)12H_2_O
Locality: N'Chwaning II mine, Kalahari manganese field, Cape Province, South Africa
Source: Herb Obodda
Description: Pale blue hexagonal prism
Raman shift (cm-1)	intensity
129.544	0
132.918	5.6098
136.293	1.85788
139.668	25.0296
143.043	59.4177
146.418	75.5455
149.792	109.792
153.167	159.569
156.542	153.03
159.917	128.479
163.292	132.031
166.667	145.331
170.041	172.726
173.416	193.733
176.791	186.128
180.166	198.368
183.541	228.21
186.916	248.912
190.29	251.334
193.665	243.256
197.04	250.218
200.415	249.084
203.79	247.663
207.164	268.129
210.539	307.034
213.914	352.555
217.289	335.266
220.664	288.688
224.038	256.601
227.413	253.698
230.788	279.058
234.163	314.102
237.538	332.205
240.913	350.012
244.287	364.594
247.662	327.018
251.037	251.274
254.412	192.698
257.787	140.451
261.161	98.6041
264.536	71.1392
267.911	45.8351
271.286	26.4835
274.661	12.0825
278.036	1.50839
281.41	0.619522
284.785	7.08983
288.16	2.44164
291.535	4.85617
294.91	5.4734
298.284	1.71541
301.659	4.53873
305.034	2.8632
308.409	3.85326
311.784	0.28389
315.159	9.5139
318.533	15.7601
321.908	20.1103
325.283	19.7649
328.658	21.865
332.033	19.6219
335.408	20.0116
338.782	13.1015
342.157	3.98203
345.532	7.02595
348.907	4.35051
352.281	3.26425
355.656	1.8528
359.031	1.44157
362.406	2.75571
365.781	2.51804
369.156	1.22151
372.53	2.84376
375.905	0.552185
379.28	2.3568
382.655	4.96945
386.03	6.57277
389.404	16.0399
392.779	30.4868
396.154	44.6298
399.529	53.057
402.904	79.5278
406.279	106.301
409.653	139.024
413.028	168.781
416.403	181.85
419.778	172.278
423.153	150.794
426.527	134.198
429.902	132.178
433.277	142.578
436.652	168.643
440.027	206.126
443.402	253.699
446.776	297.519
450.151	323.634
453.526	316.566
456.901	252.596
460.276	176.084
463.651	113.671
467.025	81.9689
470.4	67.9607
473.775	64.1327
477.15	65.5166
480.525	55.5845
483.899	47.1177
487.274	35.1666
490.649	24.5559
494.024	11.9705
497.399	4.71883
500.774	3.33913
504.148	2.75737
507.523	1.43385
510.898	0.002548
514.273	0.068207
517.648	0.408936
521.022	2.91861
524.397	0.611938
527.772	0.52948
531.147	0.961853
534.522	1.04807
537.896	1.03442
541.271	6.57933
544.646	3.13103
548.021	11.0439
551.396	19.7809
554.771	25.1962
558.145	26.021
561.52	31.8388
564.895	28.1798
568.27	36.6707
571.645	40.9697
575.019	41.1985
578.394	44.8822
581.769	60.1924
585.144	74.8271
588.519	93.3685
591.894	114.052
595.268	131.922
598.643	149.924
602.018	159.624
605.393	152.53
608.768	141.896
612.142	111.94
615.517	80.6939
618.892	53.1705
622.267	32.8075
625.642	27.0247
629.016	25.3931
632.391	29.7365
635.766	47.4732
639.141	82.8226
642.516	151.071
645.891	252.234
649.265	401.821
652.64	651.76
656.015	927.601
659.39	813.652
662.765	382.29
666.139	162.439
669.514	76.3707
672.889	38.3897
676.264	17.1682
679.639	5.79291
683.014	2.18358
686.388	3.10451
689.763	4.26494
693.138	1.47491
696.513	0.116653
699.888	1.46861
703.263	0.012894
706.637	0.024544
710.012	1.61942
713.387	0.672104
716.762	0.299416
720.136	2.35841
723.511	1.40624
726.886	6.82478
730.261	8.19041
733.636	6.25436
737.011	8.81428
740.385	5.19896
743.76	5.13475
747.135	6.14375
750.51	6.62128
753.885	6.11299
757.26	7.95996
760.634	6.63527
764.009	7.31845
767.384	8.95834
770.759	7.419
774.134	5.1865
777.508	8.54353
780.883	7.65403
784.258	7.51911
787.633	10.7851
791.008	13.0659
794.383	14.6747
797.757	22.1419
801.132	31.5909
804.507	49.8135
807.882	75.8484
811.257	108.544
814.631	103.261
818.006	50.8024
821.381	31.5595
824.756	28.0471
828.131	27.345
831.505	26.1601
834.88	26.3687
838.255	23.7097
841.63	24.7311
845.005	17.6672
848.38	14.0168
851.754	9.62135
855.129	6.58737
858.504	2.36746
861.879	1.98993
865.254	0.894638
868.629	1.02565
872.003	0.921471
875.378	0.68927
878.753	0.729622
882.128	2.48199
885.503	0.10659
888.877	2.45192
892.252	0.34803
895.627	0.701759
899.002	0.007965
902.377	1.54276
905.751	4.97484
909.126	9.1709
912.501	12.8059
915.876	19.5474
919.251	26.7639
922.625	34.059
926	39.0371
929.375	46.2055
932.75	47.4171
936.125	46.077
939.5	49.3206
942.875	50.9549
946.249	54.6901
949.624	72.3337
952.999	101.455
956.374	148.171
959.749	216.496
963.123	322.774
966.498	441.466
969.873	416.833
973.248	287.431
976.623	272.87
979.997	537.453
983.372	882.633
986.747	1709.54
990.122	3992.52
993.497	2601.95
996.871	397.733
1000.25	145.512
1003.62	69.4649
1007	35.6733
1010.37	18.1473
1013.75	11.2987
1017.12	7.71708
1020.5	5.02928
1023.87	3.84494
1027.24	0.942009
1030.62	0.472298
1033.99	0.022469
1037.37	3.82757
1040.74	4.05226
1044.12	4.41166
1047.49	0.023453
1050.87	3.59844
1054.24	0.687767
1057.62	5.69398
1060.99	16.2712
1064.37	39.2689
1067.74	74.1955
1071.12	168.911
1074.49	228.273
1077.87	79.8162
1081.24	51.462
1084.62	54.9094
1087.99	51.2006
1091.37	56.6836
1094.74	65.7922
1098.12	73.586
1101.49	75.3538
1104.87	79.2819
1108.24	89.0771
1111.62	95.0079
1114.99	110.657
1118.37	116.257
1121.74	132.12
1125.12	130.315
1128.49	127.787
1131.86	113.098
1135.24	97.5554
1138.61	80.0629
1141.99	63.4395
1145.36	52.2867
1148.74	38.5203
1152.11	29.296
1155.49	22.9575
1158.86	16.8525
1162.24	11.844
1165.61	9.33542
1168.99	5.0532
1172.36	6.24868
1175.74	3.3812
1179.11	0.75354
1182.49	0.363106
1185.86	2.31093
1189.24	1.54096
1192.61	2.20731
1195.99	1.2812
1199.36	1.00742
1202.73	1.38806
1206.11	1.32596
1209.48	0.318787
1212.86	1.62844
1216.23	0.875511
1219.61	0.568741
1222.98	1.41722
1226.36	1.01316
1229.73	3.32703
1233.11	3.19395
1236.48	4.74289
1239.86	5.77316
1243.23	4.90802
1246.61	5.17181
1249.98	6.80596
1253.36	6.6592
1256.73	5.94777
1260.11	4.05223
1263.48	2.23472
1266.86	4.61709
1270.23	0.593422
1273.61	3.97189
1276.98	1.93843
1280.36	3.86649
1283.73	3.04193
1287.11	3.92331
1290.48	3.88731
1293.86	0.445259
1297.23	3.0901
1300.61	0.479652
