Measurement: Raman, 780 nm, unoriented, Raman Data Processed
Mineral: Thaumasite
Rruff sample: R060296
Ideal chemistry: Ca_3_Si(OH)_6_(SO_4_)(CO_3_)12H_2_O
Locality: N'Chwaning II mine, Kalahari manganese field, Cape Province, South Africa
Source: Herb Obodda
Description: Pale blue hexagonal prism
Raman shift (cm-1)	intensity
117.567	0
120.942	18.6688
124.317	16.4561
127.692	10.3029
131.067	6.65653
134.442	2.41837
137.816	28.4134
141.191	93.5033
144.566	139.841
147.941	164.672
151.316	174.923
154.69	90.2203
158.065	22.0718
161.44	0.504517
164.815	7.6964
168.19	4.37355
171.565	14.888
174.939	29.3725
178.314	60.3142
181.689	102.704
185.064	145.108
188.439	158.746
191.814	159.579
195.188	170.106
198.563	196.197
201.938	235.217
205.313	303.432
208.688	424.454
212.062	574.842
215.437	611.763
218.812	508.882
222.187	354.374
225.562	250.709
228.936	202.274
232.311	189.997
235.686	191.919
239.061	189.553
242.436	182.5
245.811	176.046
249.185	142.828
252.56	106.787
255.935	78.4112
259.31	58.1493
262.685	43.8984
266.059	35.3714
269.434	30.4513
272.809	31.8456
276.184	25.3769
279.559	22.5422
282.933	20.6965
286.308	15.8354
289.683	16.2118
293.058	11.5258
296.433	8.96612
299.808	7.38216
303.182	3.77308
306.557	1.4702
309.932	0.878281
313.307	4.06981
316.682	2.73936
320.057	2.11384
323.431	1.13258
326.806	3.62176
330.181	0.591133
333.556	0.595863
336.931	0.266762
340.305	2.26003
343.68	2.95237
347.055	0.905319
350.43	1.13212
353.805	5.70435
357.18	6.11945
360.554	7.08585
363.929	7.2445
367.304	6.35612
370.679	5.4064
374.054	2.32844
377.428	1.12328
380.803	0.475441
384.178	0.60582
387.553	2.94837
390.928	1.83234
394.303	8.25167
397.677	15.6284
401.052	18.1965
404.427	23.9147
407.802	37.2277
411.177	51.3423
414.551	65.9057
417.926	66.9426
421.301	61.4817
424.676	50.4097
428.051	49.0923
431.425	51.1118
434.8	59.1198
438.175	78.8387
441.55	102.078
444.925	129.658
448.3	158.879
451.674	175.931
455.049	170.698
458.424	144.238
461.799	113.834
465.174	92.6323
468.548	86.4945
471.923	98.1783
475.298	110.053
478.673	112.592
482.048	111.298
485.423	102.4
488.797	76.3703
492.172	51.6765
495.547	29.4709
498.922	21.5517
502.297	12.8417
505.671	10.0074
509.046	3.27351
512.421	0.799042
515.796	0.10775
519.171	0.488533
522.545	2.84748
525.92	2.30811
529.295	0.013184
532.67	3.00607
536.045	1.54215
539.42	1.08218
542.794	2.50214
546.169	9.39194
549.544	14.2095
552.919	22.7225
556.294	26.8635
559.668	28.1698
563.043	30.276
566.418	29.3174
569.793	33.1285
573.168	26.3596
576.543	28.0321
579.917	30.4898
583.292	33.6741
586.667	39.2108
590.042	50.2415
593.417	61.2354
596.792	72.5376
600.166	86.8566
603.541	90.3596
606.916	88.2261
610.291	75.8226
613.666	70.1293
617.04	57.3629
620.415	45.7785
623.79	42.3351
627.165	40.6759
630.54	45.0064
633.915	49.5312
637.289	61.7227
640.664	87.6852
644.039	119.152
647.414	165.619
650.789	261.977
654.163	438.597
657.538	532.429
660.913	324.817
664.288	139.362
667.663	63.087
671.038	27.1878
674.412	14.064
677.787	5.09288
681.162	0.23333
684.537	0.662598
687.912	0.392311
691.286	3.12547
694.661	0.477798
698.036	1.03685
701.411	0.197472
704.786	0.522163
708.16	1.21067
711.535	0.654472
714.91	0.31506
718.285	0.191994
721.66	0.51329
725.035	2.16036
728.409	2.47408
731.784	7.13016
735.159	3.74449
738.534	3.40295
741.909	4.99544
745.284	3.10698
748.658	3.0597
752.033	5.60126
755.408	5.14157
758.783	6.47276
762.158	4.64867
765.532	5.75162
768.907	5.40951
772.282	6.1488
775.657	5.8372
779.032	8.01318
782.407	7.31743
785.781	8.04882
789.156	11.248
792.531	17.4781
795.906	18.7743
799.281	28.1166
802.655	39.885
806.03	58.4442
809.405	82.3512
812.78	90.8268
816.155	56.4847
819.529	36.0769
822.904	30.656
826.279	30.2358
829.654	30.1254
833.029	28.4918
836.404	25.951
839.778	23.2998
843.153	20.3762
846.528	17.2329
849.903	13.7171
853.278	9.65857
856.653	5.23527
860.027	4.42438
863.402	4.91518
866.777	1.36006
870.152	0.810215
873.527	1.14354
876.901	1.05699
880.276	1.64203
883.651	1.09258
887.026	0.851006
890.401	2.54835
893.775	1.79053
897.15	0.218449
900.525	0.481407
903.9	3.8912
907.275	0.003006
910.649	7.01044
914.024	14.4235
917.399	14.59
920.774	25.0658
924.149	32.0328
927.524	36.7147
930.898	43.0779
934.273	47.2544
937.648	43.8097
941.023	50.3063
944.398	59.8424
947.773	79.7588
951.147	114.349
954.522	175.811
957.897	272.776
961.272	409.066
964.647	623.571
968.021	714.933
971.396	458.653
974.771	292.069
978.146	324.966
981.521	377.165
984.895	614.399
988.27	1489.99
991.645	2892.9
995.02	465.95
998.395	131.355
1001.77	58.7317
1005.14	28.8706
1008.52	15.1877
1011.89	9.38709
1015.27	5.21739
1018.64	2.61787
1022.02	0.660336
1025.39	1.15031
1028.77	0.990475
1032.14	1.22455
1035.52	1.40579
1038.89	2.71635
1042.27	2.19114
1045.64	0.719193
1049.02	0.069832
1052.39	2.733
1055.77	6.70966
1059.14	16.4419
1062.52	38.3445
1065.89	69.2722
1069.27	145.263
1072.64	373.245
1076.02	223.949
1079.39	67.5396
1082.77	53.9417
1086.14	52.108
1089.52	45.6944
1092.89	49.2103
1096.27	52.2122
1099.64	56.5191
1103.01	56.7143
1106.39	53.4993
1109.76	59.2555
1113.14	54.1081
1116.51	51.6269
1119.89	48.7916
1123.26	47.5169
1126.64	43.1381
1130.01	35.3474
1133.39	28.7987
1136.76	24.4091
1140.14	16.5228
1143.51	11.2642
1146.89	9.83973
1150.26	6.00598
1153.64	4.32146
1157.01	2.69778
1160.39	1.64874
1163.76	1.22225
1167.14	2.06496
1170.51	3.20417
1173.88	1.90862
1177.26	1.21934
1180.63	1.70489
1184.01	2.08866
1187.38	3.34382
1190.76	0.537621
1194.13	1.15328
1197.51	2.85765
1200.88	2.47348
1204.26	2.46306
1207.63	1.13842
1211.01	0.980164
1214.38	1.99614
1217.76	0.140745
1221.13	2.22171
1224.51	2.32381
1227.88	0.569254
1231.26	3.23871
1234.63	4.18938
1238.01	5.18019
1241.38	5.43491
1244.76	5.85595
1248.13	3.94041
1251.51	3.72557
1254.88	3.57118
1258.26	4.73907
1261.63	2.69194
1265.01	0.226074
1268.38	1.16923
1271.76	3.1713
1275.13	3.46223
1278.51	2.97441
1281.88	1.70104
1285.25	0.001896
