Measurement: Raman, 532 nm, unoriented, Raman Data Processed
Mineral: Theisite
Rruff sample: R050326
Ideal chemistry: Cu^2+^_5_Zn^2+^_5_As^5+^_2_O_8_(OH)_14_
Locality: Tucker's Tunnel, Tuckerville, Hinsdale County, Colorado, USA
Source: Marcus Origlieri
Description: Pale blue crust, easily burnt by the laser
Raman shift (cm-1)	intensity
125.094	0
127.987	80.729
130.88	3.748
133.772	273.824
136.665	741.723
139.558	1248.9
142.45	1757.43
145.343	2406.34
148.236	3105.98
151.128	3719.89
154.021	4129.73
156.914	3747.88
159.807	3055.49
162.699	2111.95
165.592	1537.47
168.485	1181.38
171.377	1183.76
174.27	1373.52
177.163	1411.98
180.055	1405.67
182.948	1328.28
185.841	1692.75
188.734	1812.08
191.626	1822.05
194.519	1727.14
197.412	1425.01
200.304	1467.55
203.197	658.141
206.09	431.52
208.982	320.07
211.875	51.656
214.768	284.207
217.661	320.449
220.553	725.395
223.446	1172.56
226.339	1717.03
229.231	2044.09
232.124	2417.81
235.017	2609.85
237.91	2865.87
240.802	2875.2
243.695	2609.12
246.588	2267.38
249.48	2104.1
252.373	1983.88
255.266	2202.65
258.158	2462.03
261.051	2584.65
263.944	2671.11
266.836	2075.86
269.729	1445.02
272.622	966.621
275.515	835.445
278.407	685.809
281.3	494.855
284.193	296.188
287.085	119.188
289.978	131.477
292.871	136.648
295.763	105.906
298.656	126.336
301.549	121.297
304.442	95.984
307.334	324.75
310.227	405.043
313.12	470.531
316.012	732.824
318.905	674.828
321.798	794.637
324.69	702.113
327.583	724.285
330.476	648.039
333.369	555.641
336.261	455.559
339.154	374.453
342.047	555.32
344.94	586.523
347.832	579.543
350.725	560.539
353.618	553.121
356.51	799.262
359.403	819
362.296	927.891
365.188	1184.32
368.081	1434.94
370.974	1414.52
373.866	1397.89
376.759	1311.56
379.652	1226.52
382.545	1157.66
385.437	935.105
388.33	897.383
391.223	779.66
394.115	812.754
397.008	763.551
399.901	619.766
402.793	752.27
405.686	675.836
408.579	835.371
411.472	883.098
414.364	1087.92
417.257	1110.5
420.15	1179.78
423.042	968.117
425.935	771.453
428.828	785.461
431.72	406.789
434.613	270.539
437.506	285.438
440.399	55.664
443.291	8.867
446.184	69.805
449.077	15.746
451.969	111.602
454.862	15.289
457.755	132.32
460.647	229.371
463.54	315.352
466.433	559.176
469.326	788.957
472.218	991.352
475.111	1436.39
478.004	1608.83
480.896	1993.91
483.789	2412.68
486.682	2762.77
489.574	2920.82
492.467	3252.9
495.36	3175.18
498.253	3168.27
501.145	3299.89
504.038	3039.74
506.931	2729.57
509.823	2499.86
512.716	2422.02
515.609	2093.39
518.502	1878.85
521.394	1721
524.287	1744.16
527.18	1683.88
530.072	1610.7
532.965	1393.85
535.858	1297.86
538.75	1103.93
541.643	881.676
544.536	552.793
547.429	548.469
550.321	371.789
553.214	122.492
556.107	98.684
558.999	43.371
561.892	28.977
564.785	7.008
567.677	35.02
570.57	85.863
573.463	42.32
576.356	7.734
579.248	173.957
582.141	102.996
585.034	98.109
587.926	14.789
590.819	62.426
593.712	139.707
596.604	31.453
599.497	29.977
602.39	1.137
605.282	13.273
608.175	293.902
611.068	44.668
613.961	6.723
616.853	96.664
619.746	82.191
622.639	49.684
625.531	84.211
628.424	202.168
631.317	228.926
634.209	187.762
637.102	95
639.995	230.703
642.888	509.336
645.78	373.605
648.673	343.75
651.566	113.48
654.458	270.199
657.351	315.047
660.244	448.559
663.136	350.734
666.029	517.418
668.922	438.66
671.815	748.445
674.707	948.012
677.6	1427.71
680.493	2089.47
683.385	3030.14
686.278	3910.72
689.171	4379.35
692.063	4671.43
694.956	4521.05
697.849	4234.12
700.742	3572.77
703.634	3002.07
706.527	2319.01
709.42	1578.48
712.312	1083.47
715.205	760.613
718.098	586.195
720.99	306.305
723.883	268.395
726.776	145.363
729.669	111.492
732.561	48.129
735.454	89.672
738.347	41.715
741.239	167.215
744.132	50.758
747.025	21.387
749.917	19.418
752.81	125.09
755.703	41.289
758.596	70.594
761.488	107.262
764.381	201
767.274	317.258
770.166	362.449
773.059	507.781
775.952	664.406
778.844	868.988
781.737	1084.17
784.63	1321.18
787.523	1490.78
790.415	1713.19
793.308	1887.46
796.201	1964.08
799.093	2103.65
801.986	2314.21
804.879	2503.71
807.771	2884.58
810.664	3267.82
813.557	3951.23
816.45	5923.31
819.342	6665.5
822.235	7523.77
825.128	9071.5
828.02	10275.4
830.913	11329.2
833.806	11689.3
836.698	11628.1
839.591	11090.6
842.484	10198.7
845.377	9102.46
848.269	7894.58
851.162	6510.1
854.055	5827.6
856.947	4525.32
859.84	3771.02
862.733	3055.5
865.625	2527.52
868.518	1869.16
871.411	1617.3
874.304	962.559
877.196	752.031
880.089	497.289
882.982	431.5
885.875	189.344
888.767	205.188
891.66	8.863
894.553	74.105
897.445	63.621
900.338	160.027
903.231	88
906.123	18.906
909.016	33.031
911.909	24.16
914.802	57.195
917.694	65.023
920.587	40.91
923.48	11.703
926.372	19.473
929.265	81.883
932.158	180.328
935.05	5.047
937.943	95.387
940.836	73.191
943.729	221.266
946.621	171.301
949.514	54.84
952.407	317.637
955.299	47.336
958.192	153.52
961.085	181.809
963.977	79.434
966.87	2.477
969.763	98.246
972.656	81.469
975.548	227.199
978.441	63.996
981.334	30.801
984.226	68.055
987.119	69.5
990.012	250.637
992.904	54.816
995.797	183.422
998.69	105.223
1001.58	215.117
1004.48	212.203
1007.37	104.102
1010.26	9.773
1013.15	182.844
1016.05	71.926
1018.94	107.137
1021.83	236.738
1024.72	181.812
1027.62	0.309
1030.51	181.648
1033.4	203.781
1036.3	118.066
1039.19	120.133
1042.08	63.703
1044.97	117.75
1047.87	194.074
1050.76	153.258
1053.65	178.297
1056.54	270.227
1059.44	60.711
1062.33	339.383
1065.22	151.699
1068.12	173.988
1071.01	232.754
1073.9	114.844
1076.79	279.035
1079.68	201.609
1082.58	302.961
1085.47	454.375
1088.36	271.672
1091.26	204.105
1094.15	342.043
1097.04	91.141
1099.93	244.613
1102.83	1.031
1105.72	51.195
1108.61	157.309
1111.51	144.836
1114.4	61.699
1117.29	158.227
1120.18	170.348
1123.08	4.598
1125.97	186.121
1128.86	207.031
1131.75	91.809
1134.65	155.355
1137.54	63.199
1140.43	27.281
1143.33	190.297
1146.22	57.977
1149.11	175.551
1152	235.316
1154.9	194.359
1157.79	225.426
1160.68	200.219
1163.57	136.699
1166.47	160.281
1169.36	131.074
1172.25	117.086
1175.14	57.727
1178.04	216.059
1180.93	85.52
1183.82	13.555
1186.71	15.027
1189.61	154.043
1192.5	650.754
1195.39	78.047
1198.29	290.805
1201.18	147.309
1204.07	170.105
1206.96	151.199
1209.86	114.559
1212.75	320.695
1215.64	175.672
1218.54	122.707
1221.43	168.242
1224.32	211.492
1227.21	132.246
1230.11	35.207
1233	216.992
1235.89	103.301
1238.78	109.922
1241.68	159.605
1244.57	118.109
1247.46	19.867
1250.36	136.59
1253.25	129.395
1256.14	91.457
1259.03	220.621
1261.93	55.777
1264.82	0
