Measurement: Raman, 532 nm, unoriented, Raman Data Processed
Mineral: Thenardite
Rruff sample: R040178
Ideal chemistry: Na_2_SO_4_
Locality: Bonita Flow, Flagstaff, Coconino County, Arizona, USA
Source: University of Arizona Mineral Museum
Description: Tan colored powder
Raman shift (cm-1)	intensity
160.268	0
163.161	5.96533
166.054	50.1943
168.946	75.856
171.839	134.087
174.732	162.023
177.625	218.593
180.517	206.725
183.41	202.69
186.303	257.778
189.195	231.502
192.088	265.333
194.981	223.973
197.874	251.514
200.766	240.796
203.659	232.681
206.552	270.324
209.444	356.683
212.337	317.243
215.23	262.733
218.122	262.273
221.015	212.332
223.908	192.11
226.8	162.16
229.693	216.264
232.586	208.069
235.479	133.797
238.371	220.464
241.264	179.257
244.157	203.386
247.049	148.871
249.942	88.5967
252.835	127.279
255.727	103.81
258.62	157.822
261.513	59.9941
264.406	89.1533
267.298	34.3848
270.191	138.283
273.084	83.0215
275.976	56.3281
278.869	91.5742
281.762	151.966
284.655	128.132
287.547	125.975
290.44	90.666
293.333	70.5625
296.225	41.1934
299.118	59.417
302.011	39.9639
304.904	16.4932
307.796	96.5879
310.689	7.58691
313.582	54.7803
316.474	80.5254
319.367	22.0713
322.26	74.9844
325.152	23.8291
328.045	52.1279
330.938	2.44141
333.83	56.8398
336.723	7.02832
339.616	61.1895
342.509	47.25
345.401	18.3291
348.294	1.53809
351.187	11.2529
354.079	58.1797
356.972	23.4697
359.865	42.1494
362.757	44.4824
365.65	75.8242
368.543	78.9688
371.436	33.8008
374.328	24.7393
377.221	12.1641
380.114	44.6523
383.006	39.6631
385.899	30.1143
388.792	28.2949
391.685	120.513
394.577	15.0986
397.47	90.6465
400.363	7.33887
403.255	5.66406
406.148	2.06934
409.041	59.1055
411.933	101.277
414.826	141.173
417.719	57.3359
420.611	135.732
423.504	220.644
426.397	307.537
429.29	337.9
432.182	528.352
435.075	785.547
437.968	1121.44
440.86	1511.32
443.753	2164.31
446.646	2492.94
449.538	2809.6
452.431	2725.04
455.324	2386.87
458.217	2324.54
461.109	2396.59
464.002	2444.86
466.895	2016.28
469.787	1521.53
472.68	1032.58
475.573	649.785
478.466	534.849
481.358	316.899
484.251	318.648
487.144	195.731
490.036	132.494
492.929	115.78
495.822	180.831
498.714	127.835
501.607	154.171
504.5	80.3545
507.393	38.8272
510.285	145.883
513.178	89.6543
516.071	103.272
518.963	20.2695
521.856	83.458
524.749	13.7188
527.641	20.6348
530.534	118.217
533.427	37.707
536.32	15.7188
539.212	35.998
542.105	71.0566
544.998	91.2129
547.89	136.809
550.783	99.1426
553.676	27.4141
556.568	106.877
559.461	46.0898
562.354	5.68945
565.247	19.4707
568.139	87.2148
571.032	34.1895
573.925	123.848
576.817	84.6348
579.71	58.0371
582.603	158.147
585.495	60.3477
588.388	91.4062
591.281	56.6582
594.174	170.728
597.066	195.961
599.959	169.35
602.852	360.223
605.744	534.354
608.637	1018.49
611.53	1511.55
614.423	2149.16
617.315	2872.46
620.208	3703.06
623.101	3115.48
625.993	2582.68
628.886	2776.42
631.779	3292.7
634.671	2708.01
637.564	2074.88
640.457	2045.9
643.35	2353.74
646.242	2512.06
649.135	1776.48
652.028	783.387
654.92	303.305
657.813	237.185
660.706	125.982
663.598	145.275
666.491	196.996
669.384	19.582
672.277	55.8203
675.169	9.52539
678.062	6.03516
680.955	39.0957
683.847	6.93945
686.74	20.4336
689.633	53.0684
692.525	57.3145
695.418	104.254
698.311	8.85547
701.204	2.25
704.096	76.5527
706.989	93.0566
709.882	26.9668
712.774	98.1836
715.667	6.80078
718.56	1.44922
721.452	9.94727
724.345	2.83398
727.238	91.1406
730.131	83.3789
733.023	83.5586
735.916	130.272
738.809	53.3418
741.701	40.1406
744.594	72.3574
747.487	49.0391
750.38	104.459
753.272	75.4668
756.165	55.4277
759.058	79.0117
761.95	178.863
764.843	109.715
767.736	102.481
770.628	47.6602
773.521	63.0664
776.414	27.7539
779.307	72.0195
782.199	76.4961
785.092	101.441
787.985	117.297
790.877	124.967
793.77	148.992
796.663	160.863
799.555	89.625
802.448	205.611
805.341	155.717
808.234	112.906
811.126	116.936
814.019	149.541
816.912	4.4043
819.804	74.4434
822.697	42.3867
825.59	203.045
828.482	158.678
831.375	32.3184
834.268	229.447
837.16	75.0176
840.053	122.227
842.946	73.9473
845.839	9.94531
848.731	42.9688
851.624	100.731
854.517	0.892578
857.409	148.148
860.302	114.603
863.195	23.3633
866.087	137.293
868.98	25
871.873	124.147
874.766	111.965
877.658	69.9219
880.551	30.9785
883.444	36.5195
886.337	23.0156
889.229	120.994
892.122	150.924
895.015	63.8887
897.907	86.8711
900.8	71.1406
903.693	73.0273
906.585	35.9668
909.478	1.09766
912.371	22.5762
915.264	98.0527
918.156	91.7246
921.049	178.231
923.942	85.0508
926.834	85.1016
929.727	59.8438
932.62	66.4043
935.512	61.082
938.405	103.912
941.298	67.1328
944.191	41.3223
947.083	126.598
949.976	112.494
952.869	156.941
955.761	69.6426
958.654	61.1973
961.547	209.1
964.439	211.801
967.332	305.346
970.225	494.014
973.117	800.986
976.01	1369.98
978.903	2231.31
981.796	5933.65
984.688	15781.3
987.581	25847.5
990.474	36409
993.366	35446.8
996.259	13674.8
999.152	4493.3
1002.04	2540.54
1004.94	1820.01
1007.83	1296.23
1010.72	843.322
1013.62	491.635
1016.51	464.674
1019.4	320.699
1022.29	220.223
1025.19	92.6602
1028.08	92.4004
1030.97	42.0137
1033.86	245.795
1036.76	204.047
1039.65	10.9922
1042.54	38.293
1045.43	26.5273
1048.33	25.0957
1051.22	13.5234
1054.11	29.1465
1057.01	26.9434
1059.9	62.6484
1062.79	14.918
1065.68	101.182
1068.58	23.625
1071.47	119.186
1074.36	17.4414
1077.26	87.2812
1080.15	92.8535
1083.04	116.018
1085.93	167.096
1088.83	685.725
1091.72	1097.07
1094.61	2096.03
1097.5	2938.28
1100.4	3186.12
1103.29	2378.15
1106.18	1066.25
1109.07	442.881
1111.97	271.627
1114.86	297.062
1117.75	297.219
1120.64	598.967
1123.54	1405.38
1126.43	2384.08
1129.32	2801.82
1132.22	2531.83
1135.11	1212.35
1138	641.369
1140.89	1273.08
1143.79	1621.4
1146.68	2963.29
1149.57	4164.06
1152.46	4068.02
1155.36	1812.12
1158.25	672.047
1161.14	293.344
1164.04	308.924
1166.93	210.725
1169.82	113.772
1172.71	69.7363
1175.61	41.8965
1178.5	2.01172
1181.39	34.9219
1184.29	91.2559
1187.18	91.5117
1190.07	26.2168
1192.96	153.406
1195.86	39.5977
1198.75	15.6152
1201.64	88.6445
1204.53	4.66992
1207.43	87.1699
1210.32	9.47266
1213.21	19.1074
1216.1	51.4531
1219	44.6875
1221.89	93.6856
1224.78	33.3203
1227.67	33.9023
1230.57	91.5352
1233.46	77.0332
1236.35	26.543
1239.25	125.262
1242.14	83.9121
1245.03	155.076
1247.92	238.309
1250.82	102.799
1253.71	101.805
1256.6	94.8047
1259.49	96.8828
1262.39	191.623
1265.28	54.7227
1268.17	87.6328
1271.07	126.074
1273.96	98.0234
1276.85	78.1523
1279.74	226.775
1282.64	68.8789
1285.53	96.2227
1288.42	87.2539
1291.32	52.3496
1294.21	116.742
1297.1	173.742
1299.99	2.29883
1302.88	120.842
1305.78	134.516
