Measurement: Raman, 532 nm, unoriented, Raman Data Processed
Mineral: Thenardite
Rruff sample: R040183
Ideal chemistry: Na_2_SO_4_
Locality: Camp Verde, Yavapai County, Arizona, USA
Source: University of Arizona Mineral Museum
Description: Tan colored fragment
Measured chemistry: Na_2.00_S_1.00_O_4_
Raman shift (cm-1)	intensity
160.268	0
163.161	18.9479
166.054	2.73377
168.946	22.3419
171.839	28.1847
174.732	17.9689
177.625	48.9639
180.517	8.10913
183.41	25.7776
186.303	38.7856
189.195	14.3046
192.088	39.0985
194.981	7.04248
197.874	30.931
200.766	34.397
203.659	45.1318
206.552	20.0343
209.444	45.6472
212.337	28.8623
215.23	24.8831
218.122	17.9094
221.015	52.3254
223.908	16.8856
226.8	27.306
229.693	35.2467
232.586	30.9292
235.479	25.4116
238.371	12.9956
241.264	36.3602
244.157	46.2797
247.049	37.1708
249.942	39.5552
252.835	16.9911
255.727	35.0457
258.62	13.9937
261.513	19.2253
264.406	6.92224
267.298	45.5576
270.191	34.5737
273.084	22.8544
275.976	56.7327
278.869	28.7391
281.762	14.5623
284.655	5.94238
287.547	8.76514
290.44	7.30469
293.333	15.6101
296.225	32.4766
299.118	3.99268
302.011	10.2002
304.904	25.3691
307.796	17.5442
310.689	16.6226
313.582	26.1328
316.474	18.7695
319.367	6.92676
322.26	34.6917
325.152	17.396
328.045	39.2656
330.938	33.9783
333.83	19.2522
336.723	2.09131
339.616	30.439
342.509	48.9839
345.401	22.9526
348.294	4.88428
351.187	32.9287
354.079	33.1826
356.972	7.39722
359.865	20.8567
362.757	28.6033
365.65	1.93848
368.543	3.39087
371.436	30.7373
374.328	8.82007
377.221	41.6418
380.114	6.15918
383.006	11.6323
385.899	37.3923
388.792	30.6502
391.685	51.0286
394.577	8.15088
397.47	35.7315
400.363	19.8923
403.255	64.8318
406.148	22.8008
409.041	17.7944
411.933	78.0093
414.826	44.3999
417.719	31.4973
420.611	46.3789
423.504	101.705
426.397	151.156
429.29	180.688
432.182	267.666
435.075	379.171
437.968	520.201
440.86	718.897
443.753	982.647
446.646	1161.19
449.538	1220.8
452.431	976.49
455.324	633.892
458.217	523.371
461.109	418.534
464.002	424.054
466.895	416.204
469.787	307.922
472.68	180.8
475.573	157.242
478.466	78.4622
481.358	75.5801
484.251	30.6746
487.144	32.6289
490.036	23.352
492.929	48.1785
495.822	7.84277
498.714	12.8308
501.607	48.9553
504.5	19.7266
507.393	35.0217
510.285	11.3877
513.178	21.7976
516.071	29.0671
518.963	46.1438
521.856	12.5422
524.749	32.9177
527.641	45.6648
530.534	14.2903
533.427	48.239
536.32	12.1333
539.212	14.8401
542.105	1.14185
544.998	50.9995
547.89	28.4712
550.783	32.6531
553.676	19.3833
556.568	39.2725
559.461	21.4563
562.354	46.9744
565.247	1.00684
568.139	39.6594
571.032	16.2275
573.925	18.4343
576.817	23.9624
579.71	11.6977
582.603	2.24365
585.495	26.2566
588.388	27.8523
591.281	44.1606
594.174	20.2336
597.066	63.6143
599.959	62.5383
602.852	52.7034
605.744	84.2947
608.637	223.989
611.53	381.991
614.423	531.48
617.315	716.635
620.208	1024.08
623.101	853.642
625.993	773.662
628.886	873.411
631.779	1047.45
634.671	850.209
637.564	756.376
640.457	891.611
643.35	1118.06
646.242	1324.4
649.135	960.278
652.028	363.259
654.92	168.094
657.813	75.9639
660.706	61.1157
663.598	53.8523
666.491	34.1602
669.384	76.896
672.277	25.7585
675.169	55.8667
678.062	2.97852
680.955	28.0247
683.847	39.3293
686.74	16.386
689.633	9.06128
692.525	18.9597
695.418	27.9932
698.311	26.1782
701.204	2.95264
704.096	5.09058
706.989	30.2852
709.882	41.728
712.774	30.0794
715.667	37.093
718.56	39.1848
721.452	2.15649
724.345	57.0115
727.238	6.04346
730.131	77.3909
733.023	3.75562
735.916	56.2983
738.809	36.4116
741.701	49.9465
744.594	63.531
747.487	41.2124
750.38	78.4102
753.272	34.7224
756.165	58.1052
759.058	34.6775
761.95	73.7224
764.843	12.5305
767.736	34.6819
770.628	11.842
773.521	44.5217
776.414	19.6484
779.307	47.4639
782.199	39.0706
785.092	11.2739
787.985	37.8074
790.877	11.1834
793.77	3.08911
796.663	13.6492
799.555	35.5125
802.448	27.3713
805.341	5.34424
808.234	38.9443
811.126	38.7808
814.019	17.572
816.912	29.7258
819.804	5.70361
822.697	31.1631
825.59	10.4268
828.482	43.6174
831.375	46.8711
834.268	22.3088
837.16	35.4539
840.053	49.3086
842.946	30.7285
845.839	40.4031
848.731	32.146
851.624	66.554
854.517	65.7009
857.409	43.6721
860.302	2.24268
863.195	34.8765
866.087	25.2717
868.98	11.6223
871.873	0.675781
874.766	40.0171
877.658	44.0791
880.551	17.2918
883.444	30.0378
886.337	45.7078
889.229	33.1384
892.122	19.0727
895.015	7.31641
897.907	2.84546
900.8	51.3098
903.693	24.3608
906.585	21.8623
909.478	39.0662
912.371	20.6392
915.264	33.7051
918.156	53.5725
921.049	83.1519
923.942	1.25659
926.834	22.2617
929.727	53.1609
932.62	79.0586
935.512	26.8342
938.405	37.5369
941.298	8.73584
944.191	96.9851
947.083	42.5066
949.976	19.3667
952.869	31.5115
955.761	9.29321
958.654	43.8352
961.547	67.8225
964.439	37.3689
967.332	101.927
970.225	123.128
973.117	232.063
976.01	336.585
978.903	517.061
981.796	1425.21
984.688	4660.02
987.581	8438.91
990.474	12807.1
993.366	14167.1
996.259	5257.1
999.152	1258.98
1002.04	591.309
1004.94	380.154
1007.83	209.635
1010.72	182.263
1013.62	85.281
1016.51	96.6228
1019.4	49.0466
1022.29	55.4551
1025.19	68.9888
1028.08	83.1514
1030.97	37.7363
1033.86	36.3831
1036.76	0.732422
1039.65	2.29224
1042.54	26.251
1045.43	17.7373
1048.33	3.01709
1051.22	5.71069
1054.11	5.39844
1057.01	9.94702
1059.9	33.1728
1062.79	20.2297
1065.68	6.44189
1068.58	27.5139
1071.47	17.0078
1074.36	3.87988
1077.26	36.657
1080.15	32.4282
1083.04	13.7602
1085.93	58.7717
1088.83	145.762
1091.72	261.492
1094.61	513.816
1097.5	737.454
1100.4	848.558
1103.29	745.792
1106.18	293.283
1109.07	117.574
1111.97	120.73
1114.86	94.051
1117.75	137.732
1120.64	234.788
1123.54	576.568
1126.43	1085.79
1129.32	1543.98
1132.22	1565.31
1135.11	659.783
1138	321.125
1140.89	199.072
1143.79	453.493
1146.68	834.157
1149.57	1288.61
1152.46	1404.37
1155.36	672.053
1158.25	206.375
1161.14	96.4775
1164.04	60.5278
1166.93	47.5254
1169.82	26.9893
1172.71	5.71387
1175.61	18.0938
1178.5	50.6016
1181.39	12.9517
1184.29	17.9521
1187.18	31.0215
1190.07	22.9912
1192.96	11.7612
1195.86	52.5962
1198.75	48.7959
1201.64	18.54
1204.53	55.3638
1207.43	0.675293
1210.32	16.1958
1213.21	26.2827
1216.1	34.3628
1219	48.3208
1221.89	11.0137
1224.78	66.6269
1227.67	75.9126
1230.57	40.376
1233.46	53.7222
1236.35	34.9477
1239.25	26.8237
1242.14	76.9228
1245.03	41.8013
1247.92	75.6382
1250.82	39.7866
1253.71	94.3057
1256.6	49.4077
1259.49	54.5869
1262.39	14.0742
1265.28	10.6895
1268.17	29.4053
1271.07	4.85889
1273.96	98.9902
1276.85	91.8799
1279.74	56.2285
1282.64	65.3032
1285.53	18.2788
1288.42	33.2749
1291.32	5.05713
1294.21	52.1294
1297.1	32.3032
1299.99	47.2563
1302.88	3.40772
1305.78	2.43457
1308.67	8.25732
