Measurement: Raman, 785 nm, unoriented, Raman Data Processed
Mineral: Thenardite
Rruff sample: R040178
Ideal chemistry: Na_2_SO_4_
Locality: Bonita Flow, Flagstaff, Coconino County, Arizona, USA
Source: University of Arizona Mineral Museum
Description: Tan colored powder
Raman shift (cm-1)	intensity
171.642	0
174.534	7.48462
177.427	6.5896
180.32	27.0618
183.212	44.78
186.105	69.658
188.998	80.1291
191.891	81.1025
194.783	116.035
197.676	89.4485
200.569	105.424
203.461	132.78
206.354	129.824
209.247	105.508
212.139	74.293
215.032	98.5393
217.925	134.394
220.818	90.917
223.71	133.396
226.603	122.761
229.496	81.1909
232.388	122.341
235.281	97.1631
238.174	108.048
241.066	105.287
243.959	122.882
246.852	121.748
249.745	117.683
252.637	109.128
255.53	120.556
258.423	107.871
261.315	79.5554
264.208	129.569
267.101	104.899
269.993	92.0518
272.886	105.874
275.779	81.2588
278.672	67.3789
281.564	25.4924
284.457	60.2212
287.35	67.6382
290.242	59.3748
293.135	62.6267
296.028	33.9707
298.921	40.8948
301.813	10.4434
304.706	36.5327
307.599	8.90698
310.491	2.3064
313.384	14.6435
316.277	32.2546
319.169	2.32129
322.062	2.00171
324.955	9.28516
327.847	4.57153
330.74	30.6462
333.633	14.7131
336.526	10.4023
339.418	13.0669
342.311	2.85669
345.204	8.35913
348.096	29.8621
350.989	1.7146
353.882	32.9121
356.774	51.564
359.667	39.6111
362.56	5.88525
365.452	12.7649
368.345	4.02954
371.238	13.2712
374.131	6.24683
377.023	57.8916
379.916	15.3665
382.809	7.26392
385.701	11.8608
388.594	7.45361
391.487	6.26782
394.38	7.18823
397.272	20.0205
400.165	8.58521
403.058	47.3752
405.95	24.0769
408.843	22.2109
411.736	57.5615
414.628	29.4055
417.521	64.0815
420.414	76.7351
423.307	90.7346
426.199	136.898
429.092	133.516
431.985	153.473
434.877	276.186
437.77	324.424
440.663	478.14
443.555	655.44
446.448	832.538
449.341	998.055
452.234	1028.01
455.126	834.935
458.019	749.705
460.912	850.703
463.804	891.761
466.697	864.165
469.59	665.506
472.483	474.865
475.375	318.362
478.268	210.061
481.161	137.356
484.053	126.993
486.946	93.968
489.839	57.9131
492.731	93.9773
495.624	49.0405
498.517	15.7695
501.409	32.4834
504.302	30.6506
507.195	53.6089
510.088	28.2607
512.98	23.3044
515.873	17.8406
518.766	22.0386
521.658	21.6692
524.551	20.3933
527.444	3.89648
530.337	9.96289
533.229	22.4956
536.122	29.9766
539.015	6.90454
541.907	36.2429
544.8	21.427
547.693	51.9368
550.585	15.0666
553.478	49.3337
556.371	34.1724
559.263	17.0703
562.156	15.0317
565.049	36.8457
567.942	0.504639
570.834	38.5207
573.727	89.6431
576.62	22.9448
579.512	31.0811
582.405	44.2654
585.298	19.864
588.19	67.0239
591.083	33.2329
593.976	31.3411
596.869	35.1301
599.761	81.0669
602.654	103.734
605.547	117.416
608.439	227.65
611.332	351.159
614.225	558.409
617.117	869.447
620.01	1141.66
622.903	1038.97
625.795	782.149
628.688	799.339
631.581	1002.34
634.474	951.911
637.366	640.924
640.259	566.053
643.152	660.597
646.044	842.075
648.937	697.938
651.83	342.145
654.722	165.699
657.615	72.3706
660.508	61.0964
663.401	21.5422
666.293	38.3989
669.186	16.1653
672.079	5.87305
674.971	21.5352
677.864	14.4458
680.757	7.10278
683.649	2.27563
686.542	18.396
689.435	2.83057
692.328	19.1482
695.22	57.4043
698.113	11.1421
701.006	4.10059
703.898	38.6965
706.791	8.22998
709.684	25.8496
712.577	61.8833
715.469	19.0569
718.362	36.9246
721.255	7.56909
724.147	56.2227
727.04	22.5994
729.933	54.5461
732.825	36.5273
735.718	36.4382
738.611	51.7839
741.504	52.7649
744.396	27.7248
747.289	42.5395
750.182	54.5774
753.074	57.0364
755.967	44.8323
758.86	70.4858
761.752	24.3894
764.645	50.2568
767.538	29.9185
770.431	14.4543
773.323	23.0998
776.216	57.7507
779.109	47.9778
782.001	3.4978
784.894	61.1519
787.787	46.634
790.679	6.99805
793.572	35.7131
796.465	11.1318
799.357	12.2288
802.25	15.8276
805.143	46.136
808.036	40.9651
810.928	57.3303
813.821	28.3801
816.714	14.6816
819.606	33.8171
822.499	12.9541
825.392	23.5444
828.284	33.3157
831.177	22.5615
834.07	16.6265
836.963	48.4268
839.855	66.8611
842.748	23.6235
845.641	43.8645
848.533	34.6457
851.426	3.04956
854.319	42.9358
857.212	7.70532
860.104	2.10962
862.997	54.4761
865.89	13.5298
868.782	44.2795
871.675	28.4785
874.568	29.8818
877.46	24.9399
880.353	31.9492
883.246	49.9094
886.139	6.1106
889.031	41.407
891.924	30.2769
894.817	49.0669
897.709	10.375
900.602	30.7629
903.495	11.8918
906.388	38.9348
909.28	29.2981
912.173	11.385
915.066	30.3174
917.958	25.698
920.851	1.375
923.744	27.1677
926.636	3.17529
929.529	27.3696
932.422	1.75171
935.314	0.598145
938.207	14.447
941.1	17.6411
943.993	58.8809
946.885	21.9521
949.778	19.8706
952.671	30.2122
955.563	26.1094
958.456	10.5754
961.349	24.1623
964.241	45.1848
967.134	75.0742
970.027	104.188
972.92	185.867
975.812	254.665
978.705	410.665
981.598	977.316
984.49	2446.16
987.383	4381.65
990.276	8370.42
993.168	11578.2
996.061	5525.18
998.954	1692.41
1001.85	915.171
1004.74	580.277
1007.63	438.57
1010.52	307.764
1013.42	217.618
1016.31	169.237
1019.2	91.5127
1022.1	92.4907
1024.99	70.0127
1027.88	93.969
1030.77	59.759
1033.67	30.1763
1036.56	46.3745
1039.45	17.0676
1042.34	23.8023
1045.24	52.1345
1048.13	30.1773
1051.02	28.8921
1053.91	19.8945
1056.81	29.2285
1059.7	15.5249
1062.59	20.0735
1065.49	3.57959
1068.38	24.3611
1071.27	0.207031
1074.16	7.0874
1077.06	3.21606
1079.95	5.06689
1082.84	35.0002
1085.73	23.6016
1088.63	32.7722
1091.52	131.319
1094.41	318.571
1097.31	528.025
1100.2	742.244
1103.09	616.335
1105.98	253.403
1108.88	77.929
1111.77	27.1682
1114.66	1.84936
1117.56	11.9795
1120.45	0.733398
1123.34	95.0347
1126.23	250.27
1129.12	523.82
1132.02	579.499
1134.91	280.644
1137.8	45.3145
1140.7	20.6897
1143.59	97.3994
1146.48	305.447
1149.37	638.56
1152.27	966.943
1155.16	472.199
1158.05	118.505
1160.94	53.0007
1163.84	14.1465
1166.73	47.1887
1169.62	55.4995
1172.52	98.5706
1175.41	124.414
1178.3	161.035
1181.19	225.403
1184.09	212.517
1186.98	286.336
1189.87	288.582
1192.77	303.191
1195.66	312.747
1198.55	269.961
1201.44	243.008
1204.34	205.603
1207.23	149.269
1210.12	112.474
1213.01	60.6799
1215.91	35.7957
1218.8	1.43481
1221.69	9.67822
