Measurement: Raman, 514 nm, unoriented, Raman Data Processed
Mineral: Thenardite
Rruff sample: R040178
Ideal chemistry: Na_2_SO_4_
Locality: Bonita Flow, Flagstaff, Coconino County, Arizona, USA
Source: University of Arizona Mineral Museum
Description: Tan colored powder
Raman shift (cm-1)	intensity
157.902	0
162.038	179.429
166.172	147.486
170.303	65.539
174.433	58.753
178.56	109.575
182.686	94.813
186.809	4.302
190.93	63.753
195.049	190.676
199.167	79.114
203.282	35.663
207.395	137.966
211.506	156.095
215.615	118.127
219.722	221.269
223.827	196.121
227.93	148.725
232.031	62.745
236.129	150.147
240.226	154.975
244.321	258.423
248.414	69.266
252.504	118.888
256.593	139.373
260.68	39.114
264.764	149.52
268.847	78.785
272.928	20.976
277.006	19.429
281.083	89.875
285.157	140.385
289.23	89.289
293.3	69.299
297.369	137.796
301.435	95.801
305.5	173.438
309.562	0.914
313.623	148.25
317.681	265.457
321.738	144.019
325.792	14.398
329.845	136.874
333.895	217.667
337.944	78.561
341.99	109.123
346.035	149.438
350.077	119.369
354.118	121.152
358.156	110.933
362.193	143.09
366.227	171.889
370.26	1.389
374.29	172.347
378.319	281.673
382.345	221.805
386.37	63.833
390.393	5.078
394.413	52.651
398.432	211.017
402.449	139.151
406.463	86.693
410.476	146.546
414.487	343.782
418.496	221.221
422.503	0.755
426.508	117.909
430.51	314.679
434.511	438.619
438.51	337.411
442.507	484.54
446.503	751.19
450.496	1354.67
454.487	1400.56
458.476	1304.3
462.463	1149.88
466.449	1505.66
470.432	1349.85
474.413	825.459
478.393	728.483
482.37	473.658
486.346	317.201
490.32	192.119
494.291	117.161
498.261	251.372
502.229	246.177
506.195	101.497
510.159	23.729
514.121	150.616
518.081	185.616
522.039	131.05
525.995	26.673
529.949	18.831
533.902	246.892
537.852	201.075
541.801	63.768
545.747	37.981
549.692	271.569
553.635	96.411
557.576	80.625
561.514	53.612
565.451	197.011
569.387	199.59
573.32	232.148
577.251	45.134
581.18	109.327
585.108	151.503
589.033	264.356
592.957	227.165
596.878	109.445
600.798	71.175
604.716	243.265
608.632	347.744
612.546	448.875
616.458	410.408
620.369	1382.05
624.277	1812.9
628.184	1217.24
632.088	1478.27
635.991	1848.77
639.892	929.509
643.791	1097.94
647.688	1498.32
651.583	1167.79
655.476	506.984
659.368	277.176
663.257	146.9
667.145	256.148
671.03	115.881
674.914	77.336
678.796	53.248
682.676	130.4
686.555	96.641
690.431	133.691
694.305	40.197
698.178	89.859
702.049	305.715
705.918	377.613
709.785	172.285
713.65	176.518
717.513	364.961
721.375	429.41
725.234	283.264
729.092	130.221
732.948	5.299
736.802	151.828
740.654	238.137
744.504	344.229
748.352	225.262
752.199	196.68
756.044	207.254
759.887	242.781
763.728	352.637
767.567	312.115
771.404	191.361
775.24	210.281
779.073	279.908
782.905	358.188
786.735	256.467
790.563	184.227
794.389	98.703
798.214	117.771
802.036	353.977
805.857	359.895
809.676	115.52
813.493	61.518
817.308	175.373
821.122	109.805
824.934	283.232
828.743	196
832.551	158.154
836.357	139.723
840.162	118.609
843.964	42.021
847.765	272.984
851.564	73.217
855.361	106.33
859.156	176.221
862.949	164.264
866.741	123.461
870.531	233.621
874.319	102.76
878.105	111.709
881.889	79.33
885.672	32.904
889.453	354.988
893.232	303.682
897.009	241.111
900.784	18.516
904.558	115.76
908.329	143.75
912.099	380.775
915.867	225.02
919.634	301.793
923.398	238.258
927.161	74.283
930.922	302.08
934.681	424.773
938.438	550.52
942.194	476.148
945.948	362.947
949.7	148.029
953.45	223.416
957.199	388.666
960.945	463.33
964.69	457.025
968.433	421.42
972.174	354.074
975.914	707.787
979.652	878.504
983.388	1772.06
987.122	4716.67
990.854	24162.5
994.585	22594.8
998.314	5650.02
1002.04	2094.76
1005.77	1549.17
1009.49	1384.99
1013.21	919.791
1016.93	655.758
1020.65	263.176
1024.37	159.666
1028.08	213.896
1031.8	664.572
1035.51	589.496
1039.22	454.422
1042.92	257.391
1046.63	11.775
1050.33	188.531
1054.04	286.23
1057.74	433.379
1061.44	374.186
1065.13	421.516
1068.83	389.373
1072.52	236.312
1076.21	37.545
1079.9	308.621
1083.59	315.34
1087.28	492.893
1090.96	748.668
1094.65	1044.83
1098.33	1781.23
1102.01	2047.67
1105.69	714.676
1109.36	512.322
1113.04	687.113
1116.71	504.551
1120.38	651.066
1124.05	488.92
1127.72	1760.29
1131.39	2039.21
1135.05	714.506
1138.71	519.088
1142.37	748.689
1146.03	1249.55
1149.69	3416.98
1153.35	1768.53
1157	444.699
1160.65	312.723
1164.3	242.23
1167.95	515.77
1171.6	545.156
1175.24	496.875
1178.89	189.135
1182.53	72.346
1186.17	205.076
1189.81	70.096
1193.44	484.742
1197.08	425.381
1200.71	556.119
1204.35	728.953
1207.98	458.98
1211.6	157.623
1215.23	295.396
1218.86	382.311
1222.48	608.867
1226.1	617.789
1229.72	944.771
1233.34	630.557
1236.95	504.416
1240.57	328.412
1244.18	300.395
1247.79	252.137
1251.4	443.363
1255.01	614.211
1258.62	662.6
1262.22	791.059
1265.83	538.209
1269.43	534.51
1273.03	109.178
1276.62	336.848
1280.22	30.48
1283.82	110.865
1287.41	363.043
1291	502.191
1294.59	400.184
1298.18	417.201
1301.76	92.775
1305.35	57.299
1308.93	51.939
1312.51	166.852
1316.09	190.531
1319.67	247.535
1323.24	409.562
1326.82	422.586
1330.39	495.559
1333.96	250.461
1337.53	373.871
1341.1	128.184
1344.67	29.863
1348.23	173.902
1351.8	505.867
1355.36	635.762
1358.92	875.176
1362.47	993.855
1366.03	580.957
1369.59	534.629
1373.14	415.711
1376.69	362.422
1380.24	241.73
1383.79	480.926
1387.33	498.465
1390.88	793.93
1394.42	560.504
1397.96	914.457
1401.5	994.973
1405.04	666.695
1408.58	391.078
1412.11	324.625
1415.65	196.074
1419.18	167.625
1422.71	202.988
1426.24	469.207
1429.76	662.859
1433.29	899.738
1436.81	1025.64
1440.33	1146.23
1443.85	827.539
1447.37	471.762
1450.89	242.566
1454.4	116.047
1457.92	19.395
1461.43	88.449
1464.94	11.465
1468.45	196.297
