Measurement: Raman, 785 nm, unoriented, Raman Data Processed
Mineral: Thenardite
Rruff sample: R040183
Ideal chemistry: Na_2_SO_4_
Locality: Camp Verde, Yavapai County, Arizona, USA
Source: University of Arizona Mineral Museum
Description: Tan colored fragment
Measured chemistry: Na_2.00_S_1.00_O_4_
Raman shift (cm-1)	intensity
150.429	0
153.321	4.68324
156.214	3.4081
159.107	6.23604
161.999	7.07637
164.892	15.6457
167.785	21.6184
170.677	13.2541
173.57	16.9411
176.463	16.1947
179.356	17.0962
182.248	12.8097
185.141	18.7519
188.034	14.184
190.926	25.3216
193.819	19.354
196.712	22.214
199.604	22.8983
202.497	29.6235
205.39	17.3808
208.282	25.0903
211.175	15.1524
214.068	19.1254
216.961	14.3938
219.853	11.7189
222.746	6.54002
225.639	13.1341
228.531	12.3195
231.424	7.1071
234.317	9.52454
237.209	12.3308
240.102	10.7922
242.995	9.53612
245.888	1.39829
248.78	15.815
251.673	14.4976
254.566	10.042
257.458	17.6347
260.351	9.47025
263.244	9.13968
266.137	12.6898
269.029	5.07016
271.922	11.4812
274.815	1.1048
277.707	1.99582
280.6	10.9333
283.493	7.0661
286.385	5.59341
289.278	11.6815
292.171	6.77777
295.063	10.5273
297.956	5.44009
300.849	12.0846
303.742	4.06805
306.634	2.07437
309.527	7.677
312.42	7.68863
315.312	1.21262
318.205	12.9864
321.098	6.14807
323.99	2.11548
326.883	5.84363
329.776	15.8913
332.669	2.07867
335.561	1.78616
338.454	18.9617
341.347	14.6928
344.239	7.64206
347.132	3.94861
350.025	12.7501
352.918	21.7583
355.81	12.318
358.703	5.5307
361.596	1.67984
364.488	8.42987
367.381	8.97455
370.274	2.35025
373.166	10.1547
376.059	5.05484
378.952	3.27243
381.844	6.0885
384.737	17.3942
387.63	3.40283
390.523	0.915527
393.415	2.31171
396.308	3.90088
399.201	7.69458
402.093	6.54855
404.986	14.3705
407.879	12.5257
410.772	2.42709
413.664	11.8341
416.557	15.4669
419.45	14.0572
422.342	11.5417
425.235	22.1099
428.128	34.3292
431.02	37.6973
433.913	39.7267
436.806	68.3767
439.699	99.9404
442.591	139.917
445.484	184.609
448.377	239.624
451.269	234.325
454.162	165.193
457.055	125.515
459.947	90.1079
462.84	88.6342
465.733	81.2293
468.625	74.4603
471.518	48.7626
474.411	23.9133
477.304	21.419
480.196	18.7891
483.089	19.1824
485.982	16.9989
488.874	3.84616
491.767	12.325
494.66	4.66718
497.553	15.0693
500.445	6.64172
503.338	0.383102
506.231	6.64662
509.123	6.07428
512.016	5.82411
514.909	5.22676
517.802	2.85681
520.694	0.791718
523.587	6.32982
526.48	7.24498
529.372	2.81569
532.265	0.606628
535.158	7.90597
538.05	0.462936
540.943	10.9598
543.836	6.52461
546.729	17.6992
549.621	4.55298
552.514	6.57292
555.407	2.30341
558.299	5.27528
561.192	14.364
564.085	2.01648
566.977	0.541687
569.87	8.14734
572.763	9.2556
575.655	2.82854
578.548	12.2864
581.441	10.4175
584.333	2.09811
587.226	12.2925
590.119	4.11618
593.012	14.5274
595.904	4.69254
598.797	5.82864
601.69	17.7387
604.582	22.2964
607.475	22.9202
610.368	45.3768
613.26	72.7352
616.153	117.422
619.046	172.163
621.939	177.673
624.831	134.379
627.724	150.379
630.617	190.268
633.509	197.438
636.402	153.976
639.295	114.333
642.188	155.256
645.08	202.498
647.973	207.909
650.866	116.457
653.758	42.5167
656.651	18.1573
659.544	21.9439
662.436	12.0125
665.329	10.5327
668.222	3.08772
671.115	7.93271
674.007	1.85283
676.9	9.70749
679.793	9.93945
682.685	5.13625
685.578	7.32785
688.471	3.44836
691.363	5.90616
694.256	1.74419
697.149	11.1338
700.042	14.7114
702.934	5.48086
705.827	4.06891
708.72	6.6387
711.612	3.06583
714.505	4.64587
717.398	14.8072
720.29	13.3435
723.183	3.69293
726.076	0.174973
728.968	6.07553
731.861	7.94293
734.754	11.7385
737.647	12.3693
740.539	6.61185
743.432	1.83292
746.325	8.28569
749.217	9.19743
752.11	3.35167
755.003	9.70973
757.895	11.8002
760.788	13.9542
763.681	5.02594
766.574	16.0662
769.466	11.9537
772.359	11.3326
775.252	10.9145
778.144	9.39537
781.037	11.7666
783.93	15.7111
786.822	3.46905
789.715	2.00305
792.608	3.61815
795.501	22.9908
798.393	11.5343
801.286	20.1218
804.179	12.733
807.071	1.09592
809.964	7.64072
812.857	6.30258
815.75	12.9592
818.642	6.89137
821.535	1.71823
824.428	8.99866
827.32	4.70995
830.213	10.8576
833.106	8.26746
835.998	9.38081
838.891	18.983
841.784	13.4222
844.677	18.2652
847.569	13.555
850.462	13.7056
853.355	13.0628
856.247	2.2442
859.14	14.814
862.033	2.44505
864.925	7.43372
867.818	8.04967
870.711	6.29736
873.604	18.7253
876.496	3.93727
879.389	5.77492
882.282	6.15517
885.174	2.23396
888.067	11.2603
890.96	6.00246
893.852	2.79411
896.745	1.28073
899.638	8.06685
902.53	9.56839
905.423	0.247986
908.316	13.4713
911.209	4.34976
914.101	1.82326
916.994	0.890793
919.887	4.06593
922.779	1.04817
925.672	16.9878
928.565	6.45792
931.457	11.5071
934.35	2.65604
937.243	6.34634
940.136	7.06621
943.028	0.145416
945.921	3.87796
948.814	11.0221
951.706	9.28349
954.599	9.19638
957.492	4.83182
960.385	11.8904
963.277	21.907
966.17	8.49719
969.063	27.5535
971.955	32.516
974.848	51.6767
977.741	73.6849
980.633	135.577
983.526	461.722
986.419	933.375
989.312	1623.64
992.204	2990.01
995.097	1826.09
997.99	513.246
1000.88	152.415
1003.77	87.1606
1006.67	53.1839
1009.56	34.536
1012.45	24.5157
1015.35	14.474
1018.24	24.8842
1021.13	24.0486
1024.02	18.4088
1026.92	13.4265
1029.81	13.8224
1032.7	8.73657
1035.6	9.11566
1038.49	3.04286
1041.38	2.87126
1044.27	1.60641
1047.17	7.25499
1050.06	7.50905
1052.95	10.0268
1055.84	1.95485
1058.74	3.0553
1061.63	2.61871
1064.52	8.92627
1067.41	3.58426
1070.31	3.35518
1073.2	8.65109
1076.09	7.78032
1078.98	6.08154
1081.88	6.75696
1084.77	10.5521
1087.66	19.2771
1090.56	24.9364
1093.45	40.3377
1096.34	85.1064
1099.23	128.137
1102.13	134.265
1105.02	71.9702
1107.91	36.2514
1110.81	12.2226
1113.7	1.81947
1116.59	19.676
1119.48	17.5914
1122.38	27.5381
1125.27	75.0383
1128.16	142.958
1131.05	203.279
1133.95	142.841
1136.84	47.5737
1139.73	31.6261
1142.62	34.0464
1145.52	70.9144
1148.41	128.606
1151.3	202.884
1154.19	158.282
1157.09	62.8768
1159.98	14.8803
1162.87	5.80006
1165.77	8.16339
1168.66	6.8349
1171.55	5.53245
1174.44	8.43773
1177.34	1.8988
1180.23	5.12437
1183.12	1.96368
1186.02	0.243164
1188.91	1.08795
1191.8	3.5614
1194.69	3.27881
1197.59	0.447113
1200.48	10.8557
1203.37	14.719
1206.26	5.30177
1209.16	6.38847
1212.05	6.77832
1214.94	8.97523
1217.84	16.9435
1220.73	9.71017
1223.62	9.95157
1226.51	1.45433
1229.41	12.0682
1232.3	14.8807
1235.19	3.52
