Measurement: Raman, 514 nm, unoriented, Raman Data Processed
Mineral: Thenardite
Rruff sample: R040183
Ideal chemistry: Na_2_SO_4_
Locality: Camp Verde, Yavapai County, Arizona, USA
Source: University of Arizona Mineral Museum
Description: Tan colored fragment
Measured chemistry: Na_2.00_S_1.00_O_4_
Raman shift (cm-1)	intensity
83.614	0
87.798	0.191
91.981	40.494
96.161	49.755
100.34	80.486
104.516	89.998
108.691	55.39
112.864	109.148
117.034	355.964
121.203	359.607
125.369	71.924
129.534	82.685
133.696	92.84
137.857	81.497
142.016	90.461
146.172	57.799
150.327	58.332
154.48	78.983
158.63	122.592
162.779	115.318
166.926	77.11
171.07	53.867
175.213	70.003
179.354	52.979
183.493	29.909
187.63	47.664
191.765	56.486
195.898	0.469
200.029	42.37
204.158	66.27
208.285	67.612
212.41	9.531
216.533	24.213
220.654	13.914
224.773	32.998
228.891	32.171
233.006	28.489
237.119	14.769
241.231	54.213
245.34	27.618
249.448	10.462
253.553	24.638
257.657	30.263
261.758	6.841
265.858	39.247
269.956	51.486
274.052	25.844
278.146	34.297
282.237	18.826
286.327	5.589
290.416	2.049
294.502	14.732
298.586	32.457
302.668	1.222
306.749	28.018
310.827	13.836
314.903	28.319
318.978	1.533
323.051	5.397
327.121	16.736
331.19	4.138
335.257	4.033
339.322	8.948
343.385	68.878
347.446	6.832
351.505	19.817
355.563	45.803
359.618	45.812
363.672	25.395
367.723	11.45
371.773	40.501
375.821	27.599
379.866	75.875
383.91	42.967
387.952	46.074
391.992	2.197
396.031	20.649
400.067	55.808
404.101	17.992
408.134	47.481
412.165	64.866
416.193	72.606
420.22	38.89
424.245	74.05
428.268	144.367
432.289	91.931
436.309	132.151
440.326	175.419
444.342	221.569
448.355	397.482
452.367	762.689
456.377	1281.41
460.385	2627.79
464.391	4258.16
468.395	3615.76
472.398	1928.17
476.398	986.209
480.397	558.604
484.394	352.296
488.389	225.879
492.382	187.286
496.373	124.692
500.362	113.098
504.349	59.068
508.335	55.92
512.319	53.76
516.3	55.154
520.28	90.84
524.259	97.341
528.235	43.494
532.209	9.808
536.182	35.108
540.152	40.215
544.121	46.486
548.088	23.756
552.053	22.904
556.017	33.924
559.978	55.448
563.938	14.297
567.895	71.681
571.851	39.078
575.805	25.186
579.758	37.256
583.708	30.515
587.657	6.542
591.603	28.547
595.548	34.536
599.491	45.753
603.432	29.694
607.372	61.62
611.309	84.978
615.245	103.018
619.179	246.345
623.111	236.184
627.041	319.182
630.97	665.013
634.896	460.805
638.821	194.602
642.744	104.467
646.665	57.196
650.584	50.904
654.502	50.03
658.418	14.68
662.331	8.999
666.244	29.555
670.154	33.012
674.062	14.522
677.969	13.844
681.874	17.408
685.777	36.8
689.678	45.946
693.577	38.2
697.475	31.148
701.371	41.185
705.265	34.229
709.157	32.245
713.047	5.498
716.936	9.43
720.823	59.266
724.708	38.223
728.591	71.93
732.472	78.198
736.352	4.92
740.23	43.541
744.106	19.974
747.98	26.619
751.853	51.242
755.723	42.84
759.592	63.413
763.459	1.036
767.325	47.484
771.188	0.018
775.05	32.447
778.91	21.897
782.768	29.301
786.625	12.667
790.479	48.016
794.332	44.348
798.183	19.661
802.033	56.956
805.88	39.236
809.726	65.492
813.57	43.613
817.413	21.562
821.253	35.622
825.092	57.839
828.929	0.46
832.764	29.798
836.598	47.303
840.429	51.397
844.259	14.604
848.088	2.195
851.914	50.102
855.739	35.291
859.562	21.461
863.383	11.631
867.203	5.758
871.02	38.727
874.836	59.394
878.65	5.625
882.463	48.353
886.274	31.604
890.083	73.667
893.89	8.952
897.695	49.24
901.499	43.546
905.301	79.85
909.102	86.925
912.9	102.292
916.697	107.288
920.492	53.665
924.285	89.649
928.077	84.901
931.867	125.506
935.655	84.794
939.442	145.221
943.226	127.802
947.009	135.272
950.791	164.669
954.57	210.205
958.348	206.754
962.124	215.466
965.899	260.131
969.671	300.042
973.442	369.571
977.211	836.269
980.979	746.322
984.745	1445.1
988.509	4595.93
992.271	39131.8
996.032	23506.6
999.791	3353.39
1003.55	1250.33
1007.3	721.319
1011.06	552.292
1014.81	342.279
1018.56	269.294
1022.31	215.387
1026.06	163.515
1029.8	129.992
1033.55	115.17
1037.29	99.734
1041.03	108.998
1044.77	111.403
1048.5	140.698
1052.24	55.983
1055.97	79.478
1059.7	75.989
1063.43	56.334
1067.16	2.608
1070.89	23.721
1074.61	61.805
1078.34	15.355
1082.06	7.057
1085.78	59.456
1089.5	68.755
1093.21	49.121
1096.93	160.449
1100.64	195.722
1104.35	321.987
1108.06	32.264
1111.77	53.597
1115.48	61.023
1119.18	0.051
1122.89	13.234
1126.59	27.514
1130.29	21.806
1133.99	86.154
1137.68	42.455
1141.38	90.707
1145.07	155.106
1148.76	394.592
1152.45	2303.72
1156.14	1447.38
1159.83	272.527
1163.51	107.715
1167.19	116.888
1170.88	25.492
1174.56	1.754
1178.23	75.344
1181.91	2.189
1185.59	70.975
1189.26	13.225
1192.93	34.673
1196.6	56.556
1200.27	11.503
1203.94	68.918
1207.6	52.278
1211.27	34.63
1214.93	59.771
1218.59	10.885
1222.25	40.951
1225.9	20.363
1229.56	38.707
1233.21	94.751
1236.86	65.948
1240.51	76.945
1244.16	63.856
1247.81	66.65
1251.45	112.252
1255.1	35.803
1258.74	17.703
1262.38	1.937
1266.02	50.416
1269.66	35.862
1273.29	80.071
1276.93	21.864
1280.56	11.907
1284.19	61.875
1287.82	53.766
1291.45	44.526
1295.07	30.15
1298.7	0.68
1302.32	32.142
1305.94	39.543
1309.56	74.881
1313.18	1.123
1316.8	105.21
1320.41	21.974
1324.02	56.467
1327.63	63.214
1331.24	0.834
1334.85	19.436
1338.46	30.015
1342.06	69.616
1345.67	29
1349.27	54.442
1352.87	27.674
1356.47	107.99
1360.07	44.687
1363.66	53.259
1367.25	92.011
1370.85	34.543
1374.44	16.865
1378.03	67.811
1381.61	122.087
1385.2	55.318
1388.78	62.535
1392.37	72.416
1395.95	50.535
1399.53	60.248
1403.1	66.416
1406.68	71.273
1410.26	60.789
1413.83	57.064
1417.4	90.375
1420.97	76.026
1424.54	71.883
1428.1	88.499
1431.67	93.75
1435.23	71.798
1438.8	32.779
1442.36	100.975
1445.91	67.271
1449.47	80.318
1453.03	92.174
1456.58	105.434
1460.13	110.909
1463.68	67.541
1467.23	48.967
1470.78	73.538
1474.33	81.914
1477.87	62.59
1481.42	52.855
1484.96	83.269
1488.5	15.77
1492.04	67.599
1495.57	99.739
1499.11	127.354
1502.64	32.584
1506.17	66.534
1509.71	116.532
1513.23	61.074
1516.76	64.031
1520.29	33.519
