Measurement: Raman, 780 nm, unoriented, Raman Data Processed
Mineral: Theophrastite
Rruff sample: R070699
Ideal chemistry: Ni(OH)_2_
Locality: Lord Brassey mine, Heazlewood, Tasmania, Australia
Source: Michael Scott
Description: Green botryoidal aggregates coating magnetite
Raman shift (cm-1)	intensity
229.891	0
232.783	21.9446
235.676	12.553
238.569	21.1782
241.462	2.22772
244.354	20.488
247.247	15.695
250.14	18.8792
253.032	21.3159
255.925	23.9607
258.818	26.074
261.71	28.3544
264.603	31.8932
267.496	35.2076
270.389	46.41
273.281	62.7891
276.174	91.4302
279.067	146.751
281.959	198.194
284.852	286.558
287.745	385.519
290.637	546.028
293.53	722.648
296.423	915.77
299.316	1073.54
302.208	1207.76
305.101	1291.84
307.994	1102.49
310.886	946.372
313.779	584.753
316.672	414.479
319.565	255.968
322.457	135.569
325.35	113.279
328.243	69.329
331.135	60.7761
334.028	14.4651
336.921	1.01599
339.813	16.2278
342.706	21.8899
345.599	4.9422
348.491	5.11585
351.384	19.4543
354.277	25.9214
357.17	3.24127
360.062	7.13623
362.955	7.05109
365.848	6.42328
368.74	6.6792
371.633	14.4622
374.526	19.6256
377.418	29.0233
380.311	38.6553
383.204	26.4423
386.097	75.9774
388.989	31.4548
391.882	79.6519
394.775	72.3076
397.667	62.3294
400.56	99.4598
403.453	141.435
406.346	149.352
409.238	167.581
412.131	205.257
415.024	212.8
417.916	263.192
420.809	349.09
423.702	477.877
426.594	624.063
429.487	913.331
432.38	1159.38
435.272	1400.06
438.165	1718.88
441.058	1864.96
443.951	1909.19
446.843	1736.16
449.736	1445.57
452.629	1122.37
455.522	873.138
458.414	677.702
461.307	495.348
464.2	376.716
467.092	250.044
469.985	195.494
472.878	120.154
475.77	67.6312
478.663	90.7112
481.556	26.093
484.449	15.0942
487.341	8.69019
490.234	18.9782
493.127	10.5862
496.019	0.633728
498.912	0.571228
501.805	0.501465
504.697	33.2698
507.59	28.956
510.483	61.2976
513.375	35.7188
516.268	26.1572
519.161	32.0336
522.054	33.9324
524.946	30.4146
527.839	24.0604
530.732	34.8179
533.624	24.0717
536.517	43.8868
539.41	15.6126
542.303	37.8954
545.195	39.5387
548.088	2.42676
550.981	5.62378
553.873	0.991394
556.766	41.5395
559.659	12.7144
562.551	26.6888
565.444	6.54535
568.337	26.2104
571.23	26.4776
574.122	35.9481
577.015	68.2861
579.908	24.0668
582.8	12.5291
585.693	39.0582
588.586	36.267
591.478	58.2327
594.371	48.6757
597.264	41.6908
600.157	15.6139
603.049	35.905
605.942	32.648
608.835	47.7766
611.727	62.3343
614.62	26.8265
617.513	39.7595
620.405	38.4305
623.298	43.9617
626.191	34.3936
629.083	16.2005
631.976	38.9849
634.869	20.9403
637.762	9.40088
640.654	16.5516
643.547	51.6667
646.44	31.9972
649.332	42.3631
652.225	10.5367
655.118	15.4313
658.01	21.4805
660.903	17.5198
663.796	34.7281
666.689	28.2199
669.581	25.4178
672.474	30.0579
675.367	35.4802
678.26	7.7096
681.152	9.79242
684.045	6.00024
686.938	35.4967
689.83	18.0383
692.723	25.8068
695.616	2.00366
698.508	36.5567
701.401	22.5181
704.294	28.0282
707.187	15.412
710.079	4.00403
712.972	18.4784
715.865	23.3835
718.757	1.55701
721.65	21.1379
724.543	14.8998
727.435	10.4401
730.328	16.693
733.221	29.5311
736.114	7.65595
739.006	27.8407
741.899	18.1754
744.792	50.1233
747.684	13.351
750.577	51.582
753.47	16.1469
756.362	22.6154
759.255	0.582581
762.148	6.87677
765.04	23.8157
767.933	18.9081
770.826	11.8866
773.719	21.2391
776.611	22.9044
779.504	24.1099
782.397	9.86993
785.289	7.94489
788.182	44.0504
791.075	14.4322
793.967	22.5225
796.86	9.81537
799.753	24.5762
802.646	16.0322
805.538	8.93701
808.431	26.5742
811.324	46.8117
814.216	0.080688
817.109	45.2685
820.002	37.8778
822.894	34.1016
825.787	60.5193
828.68	57.0741
831.573	64.5962
834.465	77.0017
837.358	90.0696
840.251	98.6896
843.143	112.647
846.036	113.735
848.929	120.923
851.822	109.14
854.714	109.531
857.607	123.817
860.5	92.6428
863.392	93.4458
866.285	95.2383
869.178	108.48
872.07	84.6946
874.963	90.9667
877.856	85.7944
880.749	70.6681
883.641	72.2904
886.534	69.8917
889.427	54.6359
892.319	68.1772
895.212	68.1835
898.105	47.5713
900.997	39.556
903.89	22.9031
906.783	27.3987
909.676	8.09106
912.568	22.8719
915.461	1.85083
918.354	19.4962
921.246	25.3215
924.139	21.9861
927.032	16.2549
929.924	24.0236
932.817	19.6215
935.71	21.729
938.602	6.50629
941.495	3.3728
944.388	17.1138
947.281	0.826599
950.173	8.35272
953.066	38.1618
955.959	2.98743
958.851	28.4523
961.744	17.6763
964.637	30.6596
967.529	26.5262
970.422	51.5839
973.315	73.6883
976.208	50.657
979.1	26.8342
981.993	69.0305
984.886	75.4535
987.778	49.4086
990.671	33.6575
993.564	29.8353
996.457	9.60565
999.349	5.13348
1002.24	25.2955
1005.13	4.53082
1008.03	2.56311
1010.92	8.31836
1013.81	12.7028
1016.71	16.4009
1019.6	11.6512
1022.49	20.9492
1025.38	28.2997
1028.28	44.1186
1031.17	40.9162
1034.06	57.9462
1036.95	63.9482
1039.85	86.2108
1042.74	96.6214
1045.63	77.9543
1048.53	81.132
1051.42	80.8239
1054.31	96.8725
1057.2	92.1525
1060.1	108.801
1062.99	99.6856
1065.88	88.5571
1068.77	75.2401
1071.67	78.3071
1074.56	97.7099
1077.45	58.5977
1080.35	60.3079
1083.24	37.8877
1086.13	23.7544
1089.02	32.3317
1091.92	38.3887
1094.81	40.7197
1097.7	13.9016
1100.59	38.3414
1103.49	8.08496
1106.38	24.1958
1109.27	7.22754
1112.16	17.0459
1115.06	4.901
1117.95	21.4254
1120.84	2.02179
1123.73	20.0508
1126.63	23.6862
1129.52	33.0173
1132.41	13.4896
1135.31	12.6736
1138.2	14.2744
1141.09	16.7161
1143.98	14.5945
1146.88	22.8205
1149.77	10.6751
1152.66	17.6411
1155.56	29.7123
1158.45	19.2437
1161.34	9.80545
1164.23	8.1059
1167.13	4.03928
1170.02	18.7219
1172.91	20.0705
1175.8	5.80084
1178.7	12.1258
1181.59	7.30313
1184.48	16.3738
1187.38	23.7408
1190.27	29.121
1193.16	33.819
1196.05	16.6678
1198.95	15.0546
1201.84	20.2904
1204.73	27.0582
1207.62	36.2557
1210.52	10.2434
1213.41	20.9005
1216.3	11.8256
1219.19	19.6373
1222.09	31.8747
1224.98	15.6785
1227.87	25.5649
1230.77	23.0774
1233.66	40.6615
1236.55	25.5143
1239.44	20.0155
1242.34	3.81024
1245.23	21.5184
1248.12	25.383
1251.01	3.52396
1253.91	25.4272
1256.8	14.232
1259.69	41.638
1262.59	17.0275
1265.48	1.72095
1268.37	8.22858
1271.26	20.5957
1274.16	10.7714
1277.05	20.5145
1279.94	21.479
1282.83	5.61835
