Measurement: Raman, 532 nm, unoriented, Raman Data Processed
Mineral: Theophrastite
Rruff sample: R070699
Ideal chemistry: Ni(OH)_2_
Locality: Lord Brassey mine, Heazlewood, Tasmania, Australia
Source: Michael Scott
Description: Green botryoidal aggregates coating magnetite
Raman shift (cm-1)	intensity
136.917	0
139.81	145.253
142.703	53.0752
145.595	5.94727
148.488	192.169
151.381	18.2725
154.274	231.242
157.166	280.549
160.059	40.8652
162.952	76.1894
165.844	18.3896
168.737	26.9912
171.63	61.5781
174.522	109.726
177.415	164.233
180.308	102.93
183.201	97.418
186.093	68.5996
188.986	32.8213
191.879	8.19727
194.771	16.6377
197.664	29.5771
200.557	52.7637
203.449	165.743
206.342	50.085
209.235	42.3506
212.127	16.6279
215.02	85.5498
217.913	30.2607
220.806	76.0352
223.698	91.0664
226.591	114.4
229.484	245.096
232.376	162.455
235.269	129.074
238.162	147.948
241.054	116.555
243.947	97.1357
246.84	121.571
249.732	145.634
252.625	11.6074
255.518	4.52148
258.411	73.3223
261.303	55.7891
264.196	79.5088
267.089	66.501
269.981	132.915
272.874	311.832
275.767	234.672
278.659	326.316
281.552	616.971
284.445	894.316
287.338	1270.01
290.23	1799.46
293.123	2394.4
296.016	3197.5
298.908	3606.78
301.801	4408.32
304.694	4814
307.587	4940.38
310.479	4686.69
313.372	3678.21
316.265	2501.68
319.157	1490.45
322.05	1011.5
324.943	617.073
327.835	355.099
330.728	312.874
333.621	152.105
336.514	6.875
339.406	62.8574
342.299	27.1641
345.192	17.7822
348.084	37.0762
350.977	43.294
353.87	3.12109
356.762	1.36426
359.655	25.7031
362.548	44.1777
365.44	3.36621
368.333	26.9736
371.226	16.3525
374.119	19
377.011	63.0713
379.904	35.3633
382.797	177.324
385.689	72.1025
388.582	66.4629
391.475	31.7109
394.368	225.575
397.26	81.4893
400.153	244.315
403.046	240.626
405.938	197.015
408.831	333.761
411.724	435.237
414.616	602.756
417.509	841.494
420.402	1000.38
423.295	1327.22
426.187	1811.57
429.08	2312.88
431.973	3083.8
434.865	4031.87
437.758	4839.58
440.651	5592.19
443.543	6116.73
446.436	6183.47
449.329	5573.4
452.221	4585.39
455.114	3581.62
458.007	2780.47
460.9	2113.97
463.792	1550.79
466.685	1191.73
469.578	659.823
472.47	473.788
475.363	264.875
478.256	199.799
481.149	124.999
484.041	75.7998
486.934	133.763
489.827	87.6123
492.719	63.0869
495.612	95.3301
498.505	47.8223
501.397	80.5664
504.29	167.968
507.183	283.447
510.075	312.437
512.968	411.696
515.861	296.195
518.754	228.339
521.646	173.768
524.539	171.975
527.432	128.178
530.324	157.082
533.217	139.733
536.11	106.478
539.002	157.432
541.895	25.1953
544.788	58.5469
547.681	107.289
550.573	19.8496
553.466	160.236
556.359	25.0605
559.251	31.8232
562.144	64.5283
565.037	19.2256
567.929	14.4834
570.822	6.83887
573.715	118.656
576.607	318.589
579.5	93.5244
582.393	130.947
585.286	154.376
588.178	189.888
591.071	250.054
593.964	169.198
596.856	256.546
599.749	173.689
602.642	247.381
605.534	249.637
608.427	320.169
611.32	270.647
614.213	239.014
617.105	252.11
619.998	247.291
622.891	172.496
625.783	200.358
628.676	101.081
631.569	190.816
634.462	167.33
637.354	77.2109
640.247	55.2852
643.14	193.299
646.032	38.3369
648.925	91.708
651.818	111.7
654.71	114.44
657.603	116.083
660.496	181.293
663.389	121.248
666.281	235.959
669.174	47.5791
672.067	130.848
674.959	86.8174
677.852	53.2471
680.745	45.5273
683.637	4.22559
686.53	20.8359
689.423	98.333
692.316	68.4033
695.208	124.919
698.101	69.0742
700.994	64.5176
703.886	59.2871
706.779	30.2822
709.672	30.5918
712.564	3.96582
715.457	3.04883
718.35	91.8301
721.242	20.8613
724.135	79.5469
727.028	36.8594
729.921	162.092
732.813	100.826
735.706	142.328
738.599	104.481
741.491	29.7383
744.384	60.1934
747.277	167.326
750.169	83.2422
753.062	237.522
755.955	172.707
758.848	243.228
761.74	247.17
764.633	127.938
767.526	180.49
770.418	138.465
773.311	194.027
776.204	206.26
779.096	188.019
781.989	113.99
784.882	124.488
787.775	92.9336
790.667	195.461
793.56	183.193
796.453	45.0527
799.345	70.1191
802.238	23.6953
805.131	16.6016
808.024	59.166
810.916	9.03711
813.809	83.9883
816.702	108.512
819.594	4.7832
822.487	152.857
825.38	136.277
828.272	261.644
831.165	333.568
834.058	305.16
836.95	212.668
839.843	280.498
842.736	358.404
845.629	478.236
848.521	600.963
851.414	473
854.307	538.281
857.199	549.225
860.092	503.574
862.985	487.111
865.877	560.402
868.77	470.478
871.663	504.807
874.556	371.551
877.448	374.869
880.341	371.881
883.234	264.035
886.126	145.209
889.019	322.695
891.912	220.883
894.804	226.863
897.697	125.668
900.59	198.043
903.482	149.848
906.375	183.678
909.268	88.4023
912.161	18.0039
915.053	7.30273
917.946	109.557
920.839	33.4531
923.731	71.1133
926.624	19.0195
929.517	85.8906
932.409	62.1816
935.302	93.6992
938.195	37.0098
941.088	31.2754
943.98	20.2969
946.873	16.0293
949.766	63.9707
952.658	44.9121
955.551	33.3613
958.444	53.252
961.337	3.78125
964.229	62.6406
967.122	131.961
970.015	218.002
972.907	186.703
975.8	258.148
978.693	230.652
981.585	205.043
984.478	217.027
987.371	201.539
990.264	208.717
993.156	136.133
996.049	145.367
998.942	39.3672
1001.83	112.414
1004.73	54.8633
1007.62	115.289
1010.51	0.40625
1013.4	104.65
1016.3	35.3203
1019.19	133.117
1022.08	163.928
1024.98	15.0723
1027.87	85.3809
1030.76	114.01
1033.65	96.8926
1036.55	332.998
1039.44	211.994
1042.33	279.594
1045.22	215.957
1048.12	199.033
1051.01	220.875
1053.9	291.971
1056.8	263.488
1059.69	223.785
1062.58	215.353
1065.47	302.258
1068.37	239.373
1071.26	169.551
1074.15	298.369
1077.04	344.18
1079.94	302.295
1082.83	244.676
1085.72	154.381
1088.62	109.99
1091.51	77.6602
1094.4	71.9277
1097.29	118.525
1100.19	45.6016
1103.08	110.76
1105.97	29.6172
1108.86	11.8477
1111.76	7
1114.65	100.111
1117.54	31.2305
1120.43	51.9102
1123.33	60.9473
1126.22	16.5703
1129.11	19.2383
1132.01	37.8789
1134.9	19.9238
1137.79	3.88477
1140.68	28.6543
1143.58	118.535
1146.47	43.6387
1149.36	54.252
1152.26	138.904
1155.15	61.916
1158.04	46.2793
1160.93	82.4981
1163.83	100.85
1166.72	85.8125
1169.61	40.748
1172.5	5.22852
1175.4	65.4961
1178.29	85.2031
1181.18	82.2754
1184.07	20.1992
1186.97	21.9863
1189.86	20.9395
1192.75	129.356
1195.64	117.647
1198.54	143.328
1201.43	25.0781
1204.32	115.375
1207.22	104.883
1210.11	67.6094
1213	48.3711
1215.89	82.4512
1218.79	72.9121
1221.68	70.2812
1224.57	86.1406
1227.46	114.064
1230.36	110.789
1233.25	97.1562
1236.14	124.072
1239.04	192.477
1241.93	147.94
1244.82	42.3047
1247.71	131.885
1250.61	26.0137
1253.5	99.3535
1256.39	70.2559
1259.29	16.3125
1262.18	58.4492
1265.07	176.748
1267.96	119.584
1270.86	130.539
1273.75	182.025
1276.64	211.045
1279.53	124.549
1282.43	1.71484
