Measurement: Raman, 532 nm, unoriented, Raman Data Processed
Mineral: Thomsenolite
Rruff sample: R050282
Ideal chemistry: NaCaAlF_6_H_2_O
Locality: Ivigtut, Greenland
Source: Marcus Origlieri
Description: Colorless prismatic rectangular single crystals associated with colorless ralstonite
Measured chemistry: Na_1.00_(Ca_0.96_Sr_0.04_)_Σ=1_Al_1.00_F_6.00_·H_2_O
Raman shift (cm-1)	intensity
104.112	0
107.487	2.83418
110.862	6.0837
114.237	20.7636
117.611	15.2297
120.986	13.6435
124.361	21.8317
127.736	28.891
131.111	44.3775
134.486	36.8434
137.86	35.1678
141.235	42.4862
144.61	19.9901
147.985	5.72427
151.359	1.95548
154.734	8.79168
158.109	22.0687
161.484	43.6521
164.859	36.1463
168.234	29.9203
171.608	41.437
174.983	60.529
178.358	71.4703
181.733	42.3839
185.108	27.0891
188.482	20.3592
191.857	5.88216
195.232	0.943825
198.607	7.74683
201.982	9.17764
205.357	1.47447
208.731	1.55979
212.106	0.523376
215.481	1.85216
218.856	9.10998
222.231	21.7312
225.606	43.2058
228.98	58.4973
232.355	53.7351
235.73	40.5998
239.105	23.8886
242.48	12.144
245.854	9.94535
249.229	12.1955
252.604	7.99926
255.979	2.04611
259.354	1.51431
262.728	3.06698
266.103	1.87062
269.478	1.73486
272.853	3.77859
276.228	3.68713
279.603	3.32571
282.977	2.28061
286.352	9.56683
289.727	21.2846
293.102	41.5131
296.477	66.0552
299.851	74.7482
303.226	57.8849
306.601	41.9646
309.976	42.715
313.351	59.0186
316.726	76.9619
320.1	77.0971
323.475	62.1175
326.85	65.1572
330.225	79.1948
333.6	87.0891
336.974	74.79
340.349	48.376
343.724	39.1218
347.099	45.1778
350.474	43.1006
353.849	29.1487
357.223	31.1832
360.598	49.5213
363.973	85.4249
367.348	139.648
370.723	210.691
374.097	269.271
377.472	296.626
380.847	323.318
384.222	348.398
387.597	325.445
390.971	246.616
394.346	172.364
397.721	123.907
401.096	100.786
404.471	90.3558
407.846	85.2114
411.22	73.9165
414.595	51.1822
417.97	29.0781
421.345	17.2787
424.72	12.2746
428.094	8.73986
431.469	8.23251
434.844	6.13775
438.219	3.53607
441.594	0.983215
444.969	2.68253
448.343	2.87001
451.718	3.75632
455.093	3.60826
458.468	1.88428
461.843	1.31071
465.217	0.414879
468.592	3.49146
471.967	6.84699
475.342	10.4732
478.717	15.1695
482.091	22.0018
485.466	29.3243
488.841	34.4731
492.216	40.5903
495.591	46.2485
498.966	49.406
502.34	46.8008
505.715	41.9693
509.09	32.2339
512.465	25.9259
515.84	21.4833
519.215	17.3046
522.589	19.4309
525.964	23.2014
529.339	33.179
532.714	46.5445
536.089	65.9905
539.463	89.15
542.838	115.892
546.213	148.308
549.588	191.128
552.963	255.524
556.337	343.045
559.712	436.895
563.087	488.662
566.462	478.067
569.837	469.116
573.212	488.272
576.586	475.937
579.961	377.062
583.336	240.61
586.711	140.5
590.086	83.2757
593.46	52.7226
596.835	33.3956
600.21	19.104
603.585	9.68308
606.96	3.40081
610.335	1.08254
613.709	0.086113
617.084	0.576111
620.459	0.366417
623.834	3.04112
627.209	3.19731
630.583	0.162209
633.958	2.71619
637.333	11.7111
640.708	25.1206
644.083	38.6949
647.457	53.9408
650.832	65.5292
654.207	66.9597
657.582	58.1394
660.957	44.285
664.332	33.4137
667.706	24.9608
671.081	17.7756
674.456	12.5656
677.831	9.15694
681.206	5.46624
684.58	0.942539
687.955	0.072674
691.33	0.388252
694.705	0.621273
698.08	0.437187
701.455	0.288731
704.829	0.145145
708.204	0.467609
711.579	2.17929
714.954	2.69725
718.329	3.71178
721.703	4.79142
725.078	5.69193
728.453	7.46279
731.828	9.17775
735.203	11.8021
738.577	14.2405
741.952	17.6089
745.327	19.9938
748.702	22.2704
752.077	23.0523
755.452	23.598
758.826	21.0065
762.201	20.0458
765.576	15.8366
768.951	13.4186
772.326	11.1944
775.701	9.68741
779.075	7.1857
782.45	6.75877
785.825	5.1164
789.2	4.49561
792.574	3.54696
795.949	2.35475
799.324	2.11389
802.699	2.03906
806.074	0.736469
809.449	1.54089
812.823	0.807339
816.198	0.950035
819.573	0.672256
822.948	0.512383
826.323	0.811886
829.697	0.587654
833.072	0.73497
836.447	0.281942
839.822	0.330215
843.197	0.699596
846.572	0.627375
849.946	0.216173
853.321	0.664726
856.696	0.022148
860.071	0.742611
863.446	0.084324
866.821	0.964088
870.195	0.698181
873.57	0.683746
876.945	0.454664
880.32	0.427004
883.695	0.473166
887.069	0.233032
890.444	0.877953
893.819	0.636724
897.194	0.161539
900.569	0.221588
903.943	0.827345
907.318	0.366632
910.693	0.136642
914.068	0.127609
917.443	0.287201
920.818	0.27635
924.192	0.378006
927.567	0.764
930.942	0.315456
934.317	0.442215
937.692	1.22918
941.067	0.604862
944.441	0.827515
947.816	0.125221
951.191	2.21917
954.566	1.11811
957.941	0.920078
961.315	1.3376
964.69	1.60885
968.065	0.830984
971.44	0.054014
974.815	0.545689
978.189	1.19674
981.564	1.54153
984.939	0.904413
988.314	1.45582
991.689	1.47994
995.063	1.47426
998.438	1.24926
1001.81	1.10697
1005.19	0.495581
1008.56	0.48254
1011.94	0.57173
1015.31	0.917391
1018.69	0.721275
1022.06	0.28154
1025.44	0.789919
1028.81	0.786058
1032.19	0.595888
1035.56	0.127106
1038.94	0.356926
1042.31	1.50227
1045.69	1.19929
1049.06	0.752451
1052.43	0.850197
1055.81	0.254238
1059.18	0.456739
1062.56	0.876545
1065.93	0.028776
1069.31	0.752264
1072.68	0.948002
1076.06	1.2712
1079.43	0.522257
1082.81	0.478807
1086.18	0.656603
1089.56	0.813074
1092.93	0.024221
1096.31	1.11201
1099.68	0.416279
1103.06	0.252905
1106.43	0.953165
1109.81	0.343098
1113.18	0.372089
1116.56	1.50835
1119.93	0.492384
1123.31	0.896097
1126.68	0.897163
1130.06	0.464001
1133.43	0.106871
1136.81	0.271187
1140.18	0.771708
1143.56	0.699215
1146.93	0.85384
1150.31	0.810545
1153.68	1.0987
1157.06	1.31181
1160.43	0.716585
1163.8	0.956429
1167.18	1.15938
1170.55	0.077406
1173.93	0.717289
1177.3	1.21959
1180.68	0.778643
1184.05	0.468384
1187.43	1.16706
1190.8	0.819166
1194.18	0.675478
1197.55	0.430864
1200.93	0.647694
1204.3	0.522968
1207.68	1.35689
1211.05	0.918697
1214.43	0.287907
1217.8	1.42254
1221.18	0.319855
1224.55	0.529968
1227.93	0.17061
1231.3	0.212234
1234.67	0.447319
1238.05	0.698343
1241.42	0.636578
1244.8	0.653555
1248.17	1.20563
1251.55	0.33968
1254.92	0.858587
1258.3	1.26744
1261.67	0.397772
1265.05	0.688883
1268.42	1.15188
1271.8	0.315233
1275.17	0.746952
1278.55	1.15522
