Measurement: Raman, 532 nm, unoriented, Raman Data Processed
Mineral: Thomasclarkite-(Y)
Rruff sample: R110186
Ideal chemistry: NaY(HCO_3_)(OH)_3_4H_2_O
Locality: Mont Saint-Hilaire, Quebec, Canada
Source: Donald Doell
Description: Aggregate of sharp yellow blocky crystals
Raman shift (cm-1)	intensity
165.22	0
168.113	0.721519
171.006	1.53405
173.898	7.51682
176.791	19.2322
179.684	33.8622
182.577	49.1844
185.469	63.8716
188.362	72.9246
191.255	81.0232
194.147	95.7636
197.04	114.119
199.933	134.652
202.825	152.454
205.718	161.081
208.611	155.332
211.504	136.846
214.396	118.37
217.289	106.644
220.182	97.4203
223.074	89.1956
225.967	78.7998
228.86	68.3405
231.752	58.178
234.645	51.5532
237.538	46.0839
240.43	39.4945
243.323	35.9488
246.216	33.3335
249.109	34.4094
252.001	35.9677
254.894	39.9609
257.787	42.0751
260.679	46.4652
263.572	47.355
266.465	47.4695
269.358	44.507
272.25	41.396
275.143	36.2719
278.036	32.0622
280.928	25.2062
283.821	17.6073
286.714	10.7952
289.606	5.64792
292.499	1.39112
295.392	1.48413
298.284	1.64092
301.177	2.35374
304.07	1.70787
306.963	0.648956
309.855	0.576878
312.748	0.073574
315.641	0.898022
318.533	0.513027
321.426	0.459415
324.319	0.430634
327.212	0.580574
330.104	0.401497
332.997	0.391903
335.89	0.670418
338.782	1.21045
341.675	0.998871
344.568	0.694973
347.46	0.553158
350.353	1.67897
353.246	1.91894
356.139	1.70071
359.031	1.16919
361.924	1.58033
364.817	1.56605
367.709	2.57966
370.602	2.16137
373.495	2.95441
376.387	3.1263
379.28	3.56142
382.173	3.44674
385.065	3.53238
387.958	3.83228
390.851	4.17548
393.744	4.30729
396.636	3.73695
399.529	4.1268
402.422	4.76089
405.314	4.29888
408.207	3.52828
411.1	3.47207
413.993	3.40928
416.885	2.9699
419.778	2.99013
422.671	2.2844
425.563	2.47586
428.456	1.84823
431.349	2.66794
434.241	2.23888
437.134	2.22723
440.027	2.66841
442.92	2.32834
445.812	2.55661
448.705	2.54103
451.598	2.44129
454.49	3.54046
457.383	2.86439
460.276	1.96849
463.168	2.22744
466.061	1.03547
468.954	1.47316
471.846	2.08817
474.739	1.26084
477.632	1.12624
480.525	0.42952
483.417	0.558151
486.31	0.812912
489.203	0.44944
492.095	0.643131
494.988	0.431938
497.881	0.519257
500.774	0.103661
503.666	1.38184
506.559	1.19317
509.452	1.20339
512.344	0.993629
515.237	1.24781
518.13	0.371994
521.022	0.375763
523.915	0.228004
526.808	0.710751
529.701	0.011894
532.593	0.052349
535.486	0.490528
538.379	0.692459
541.271	0.241539
544.164	0.856602
547.057	0.5923
549.949	0.420753
552.842	0.025677
555.735	0.145889
558.628	0.101849
561.52	0.490025
564.413	0.441326
567.306	0.507084
570.198	0.034126
573.091	0.226246
575.984	0.354187
578.876	0.140255
581.769	0.758259
584.662	0.78894
587.554	0.041382
590.447	0.016632
593.34	0.184696
596.232	0.210178
599.125	0.062969
602.018	0.156353
604.911	0.371735
607.803	0.394936
610.696	0.031483
613.589	0.597164
616.481	0.224842
619.374	0.317684
622.267	0.280052
625.159	0.569626
628.052	0.010536
630.945	0.129387
633.838	0.221661
636.73	0.152924
639.623	0.758755
642.516	0.978371
645.408	0.867802
648.301	0.704235
651.194	1.25017
654.087	1.83216
656.979	2.68979
659.872	1.71888
662.765	1.6563
665.657	1.61982
668.55	1.08976
671.443	1.63041
674.335	2.29596
677.228	1.98071
680.121	2.06926
683.014	1.95026
685.906	1.46518
688.799	0.736931
691.692	0.241161
694.584	0.251068
697.477	0.0784
700.37	0.562447
703.263	1.20288
706.155	1.86098
709.048	3.62714
711.941	5.00194
714.833	6.35539
717.726	9.00169
720.619	11.1204
723.511	13.2491
726.404	15.8257
729.297	17.6501
732.189	17.0113
735.082	16.1422
737.975	18.7881
740.868	24.8553
743.76	33.8723
746.653	47.6911
749.546	60.2667
752.438	57.4456
755.331	38.6393
758.224	23.8758
761.116	14.7449
764.009	9.4371
766.902	6.11196
769.795	4.66046
772.687	2.25501
775.58	2.05473
778.473	0.550987
781.365	1.00483
784.258	0.221596
787.151	0.476467
790.043	0.242249
792.936	0.119389
795.829	0.274746
798.722	0.415134
801.614	0.345253
804.507	0.50045
807.4	0.414223
810.292	1.02631
813.185	0.17466
816.078	1.19001
818.971	0.543613
821.863	0.936806
824.756	0.052074
827.649	0.909355
830.541	1.02919
833.434	0.895325
836.327	0.427807
839.219	0.534111
842.112	0.684864
845.005	0.025753
847.898	1.24247
850.79	0.841595
853.683	0.721085
856.576	1.20448
859.468	0.541931
862.361	1.16465
865.254	0.530846
868.146	0.960476
871.039	0.989113
873.932	1.12223
876.824	1.05988
879.717	0.744595
882.61	0.347546
885.503	0.947594
888.395	0.767971
891.288	0.431927
894.181	0.294277
897.073	0.125843
899.966	0.500694
902.859	0.044193
905.751	0.713173
908.644	0.468822
911.537	0.938007
914.43	0.815281
917.322	1.4829
920.215	1.98856
923.108	1.89837
926	3.01197
928.893	3.64879
931.786	3.72762
934.678	4.27413
937.571	5.00783
940.464	5.05799
943.357	6.24108
946.249	7.00867
949.142	6.05086
952.035	5.46411
954.927	4.75434
957.82	4.72771
960.713	4.28843
963.606	3.87772
966.498	3.18856
969.391	3.18634
972.284	2.47432
975.176	2.40419
978.069	1.95037
980.962	1.673
983.854	1.59799
986.747	1.12484
989.64	0.833813
992.533	1.53716
995.425	0.911469
998.318	1.01538
1001.21	0.341789
1004.1	0.90918
1007	0.385021
1009.89	0.23077
1012.78	0.477066
1015.67	0.415562
1018.57	0.023952
1021.46	0.102821
1024.35	0.448658
1027.24	0.106659
1030.14	0.292557
1033.03	0.119022
1035.92	0.264698
1038.82	1.58501
1041.71	1.46624
1044.6	1.87706
1047.49	2.51363
1050.39	3.75287
1053.28	6.58813
1056.17	9.22635
1059.07	15.1422
1061.96	31.3904
1064.85	72.941
1067.74	124.38
1070.63	200.34
1073.53	319.159
1076.42	284.603
1079.31	84.9376
1082.21	41.1518
1085.1	31.8784
1087.99	50.2249
1090.88	89.5542
1093.78	147.93
1096.67	268.343
1099.56	355.975
1102.45	225.414
1105.35	104.273
1108.24	52.5186
1111.13	31.4559
1114.03	20.876
1116.92	11.6203
1119.81	7.58094
1122.7	4.63547
1125.6	3.40538
1128.49	1.90193
1131.38	1.27685
1134.28	0.941395
1137.17	0.714497
1140.06	0.563732
1142.95	0.398891
1145.85	0.390923
1148.74	0.369255
1151.63	0.017513
1154.52	0.040562
1157.42	0.455482
1160.31	0.331043
1163.2	0.70932
1166.09	0.5854
1168.99	0.036831
1171.88	0.237465
1174.77	0.651684
1177.66	0.32481
1180.56	0.637836
1183.45	0.123714
1186.34	1.10891
1189.24	0.440525
1192.13	0.808529
1195.02	0.003246
1197.91	0.35894
1200.81	0.824268
1203.7	0.548656
1206.59	0.831642
1209.48	0.650341
1212.38	0.208282
1215.27	0.432934
1218.16	0.371925
1221.06	0.588604
1223.95	0.775562
1226.84	0.635666
1229.73	1.23675
1232.63	0.511768
1235.52	0.271267
1238.41	0.312298
1241.31	0.59679
1244.2	0.722717
1247.09	0.731125
1249.98	0.04406
1252.88	0.482868
1255.77	0.206177
1258.66	0.692898
1261.55	0.773357
1264.45	0.741692
1267.34	0.364719
1270.23	1.86894
1273.12	0.03104
1276.02	0.887737
1278.91	0.681793
1281.8	0.192551
1284.69	0.57
1287.59	0.544922
1290.48	0.019775
1293.37	0.073689
1296.27	0.616459
1299.16	1.48331
1302.05	0.24501
