Measurement: Raman, 780 nm, unoriented, Raman Data Processed
Mineral: Thomsonite-Ca
Rruff sample: R050103
Ideal chemistry: NaCa_2_(Al_5_Si_5_)O_20_6H_2_O
Locality: Seeberg, Bohemia, Czech Republic
Source: Rock Currier
Description: Colorless prismatic crystals
Measured chemistry: Na_1.00_(Ca_0.92_Sr_0.08_)_2_(Al_5.00_Si_5.00_)O_20_Â·6H_2_O
Raman shift (cm-1)	intensity
154.847	0
157.739	1.48053
160.632	11.0784
163.525	30.0851
166.417	45.6145
169.31	39.3006
172.203	46.3693
175.095	73.2647
177.988	109.846
180.881	111.9
183.774	83.6972
186.666	51.945
189.559	31.7091
192.452	28.5044
195.344	37.9432
198.237	42.8229
201.13	27.2258
204.022	7.70832
206.915	1.65662
209.808	1.76605
212.701	2.69794
215.593	12.7803
218.486	23.9706
221.379	26.6665
224.271	19.9136
227.164	8.7254
230.057	3.14893
232.949	1.03198
235.842	4.12549
238.735	2.18623
241.627	0.524902
244.52	3.34096
247.413	7.62872
250.306	13.8794
253.198	20.3228
256.091	26.8976
258.984	32.8526
261.876	29.9152
264.769	27.241
267.662	18.3663
270.555	9.84384
273.447	6.11305
276.34	5.62965
279.233	7.56212
282.125	7.86921
285.018	10.5357
287.911	11.4867
290.803	13.2245
293.696	13.8329
296.589	15.9733
299.481	21.1006
302.374	24.3178
305.267	27.2096
308.16	26.14
311.052	22.9628
313.945	21.3089
316.838	21.5333
319.73	23.0665
322.623	25.7364
325.516	26.8794
328.408	26.4998
331.301	25.5227
334.194	26.7486
337.087	31.1012
339.979	35.5184
342.872	32.2959
345.765	26.5737
348.657	24.3121
351.55	22.81
354.443	21.0137
357.335	19.2921
360.228	16.8093
363.121	16.0419
366.014	12.6563
368.906	9.31011
371.799	8.74026
374.692	11.7467
377.584	15.8738
380.477	17.7658
383.37	16.7709
386.262	17.7628
389.155	18.7612
392.048	15.948
394.94	8.22976
397.833	2.98351
400.726	0.243675
403.619	2.44296
406.511	3.17297
409.404	2.1334
412.297	0.03957
415.189	1.81124
418.082	6.73311
420.975	11.1214
423.868	18.1206
426.76	23.845
429.653	33.0919
432.546	41.6045
435.438	52.459
438.331	68.2601
441.224	76.9112
444.116	71.3244
447.009	53.6551
449.902	35.2519
452.795	26.2391
455.687	19.9787
458.58	17.1451
461.473	18.35
464.365	21.8985
467.258	31.3688
470.151	46.5418
473.043	56.918
475.936	45.5959
478.829	26.434
481.721	15.5414
484.614	11.2597
487.507	9.04493
490.399	5.83265
493.292	5.6573
496.185	5.61911
499.078	1.41234
501.97	0.304634
504.863	0.899147
507.756	1.89925
510.648	7.99277
513.541	19.7632
516.434	35.6144
519.327	56.0285
522.219	84.4363
525.112	119.398
528.005	167.861
530.897	231.01
533.79	288.627
536.683	300.151
539.575	251.946
542.468	180.3
545.361	124.323
548.254	82.2823
551.146	55.1851
554.039	36.0832
556.932	24.629
559.824	17.6558
562.717	11.3988
565.61	7.90619
568.502	4.03303
571.395	3.10123
574.288	0.360443
577.181	0.402599
580.073	1.34323
582.966	0.216869
585.859	0.630966
588.751	0.207668
591.644	1.6448
594.537	3.53556
597.429	4.37729
600.322	7.15968
603.215	8.69781
606.107	9.54358
609	8.19394
611.893	5.14967
614.786	2.74762
617.678	0.559727
620.571	0.103043
623.464	0.307602
626.356	0.503651
629.249	0.154087
632.142	0.304741
635.034	0.137543
637.927	0.386391
640.82	0.131119
643.712	0.068375
646.605	0.254196
649.498	0.47966
652.391	0.015129
655.283	0.465672
658.176	0.055489
661.069	0.517124
663.961	1.12733
666.854	0.168579
669.747	0.741001
672.639	0.924248
675.532	2.70301
678.425	2.00008
681.318	2.63242
684.21	3.2444
687.103	4.62831
689.996	5.31706
692.888	4.55052
695.781	7.02362
698.674	7.0707
701.567	7.35361
704.459	7.17987
707.352	8.06076
710.245	8.24246
713.137	8.29068
716.03	8.15976
718.923	8.45918
721.815	9.63868
724.708	8.99643
727.601	8.41257
730.494	8.1041
733.386	6.92983
736.279	7.84881
739.172	7.67115
742.064	6.7036
744.957	7.34613
747.85	7.30239
750.742	6.85637
753.635	7.26498
756.528	6.0923
759.42	5.18731
762.313	5.2231
765.206	4.33863
768.099	3.43486
770.991	2.39262
773.884	3.54468
776.777	2.96116
779.669	2.905
782.562	2.5917
785.455	1.87573
788.347	0.718861
791.24	1.18606
794.133	0.997711
797.025	0.765034
799.918	1.20659
802.811	1.64862
805.704	3.51205
808.596	5.30724
811.489	7.00232
814.382	5.05494
817.274	1.09307
820.167	0.002174
823.06	0.69265
825.952	0.532654
828.845	0.696568
831.738	0.032547
834.631	0.248779
837.523	0.934158
840.416	0.514458
843.309	0.606514
846.201	0.630548
849.094	0.53229
851.987	1.41324
854.88	0.786055
857.772	0.131201
860.665	0.829096
863.558	0.869816
866.45	1.43615
869.343	0.674412
872.236	0.666265
875.128	0.401278
878.021	0.277433
880.914	1.22521
883.807	0.198425
886.699	0.315458
889.592	0.083849
892.485	0.15383
895.377	0.350832
898.27	0.716722
901.163	0.259138
904.055	0.349241
906.948	0.280481
909.841	1.08164
912.734	1.70276
915.626	2.86463
918.519	2.65362
921.412	3.60679
924.304	4.10421
927.197	5.74558
930.09	7.38301
932.982	8.33598
935.875	10.4186
938.768	10.9767
941.66	11.438
944.553	12.8947
947.446	13.1894
950.339	14.3134
953.231	15.6228
956.124	16.1671
959.017	18.5053
961.909	20.1867
964.802	22.5798
967.695	23.9878
970.587	24.1786
973.48	26.2603
976.373	27.9182
979.265	30.5044
982.158	33.6268
985.051	35.4975
987.944	38.3387
990.836	36.6948
993.729	32.5393
996.622	26.9463
999.514	20.5619
1002.41	16.5974
1005.3	12.6429
1008.19	10.4221
1011.09	9.77486
1013.98	8.62127
1016.87	7.44719
1019.76	6.89767
1022.66	3.0642
1025.55	2.58406
1028.44	0.786003
1031.33	0.231915
1034.23	0.582214
1037.12	0.855072
1040.01	0.232677
1042.9	0.401505
1045.8	0.778328
1048.69	1.95648
1051.58	3.45745
1054.48	4.4649
1057.37	6.69643
1060.26	8.7943
1063.15	10.4105
1066.05	11.8517
1068.94	11.9012
1071.83	11.8325
1074.72	10.705
1077.62	10.5932
1080.51	9.52813
1083.4	7.97502
1086.3	6.28661
1089.19	5.87785
1092.08	4.79585
1094.97	3.64517
1097.87	3.85274
1100.76	2.84891
1103.65	2.20599
1106.54	2.31184
1109.44	0.945145
1112.33	1.3463
1115.22	1.76052
1118.12	1.49885
1121.01	0.881742
1123.9	0.88349
1126.79	0.135895
1129.69	0.134464
1132.58	0.370245
1135.47	0.349508
1138.36	0.144819
1141.26	0.319246
1144.15	0.014952
1147.04	0.075319
1149.93	0.25827
1152.83	0.865507
1155.72	0.017189
1158.61	0.702236
1161.51	0.341263
1164.4	1.21932
1167.29	0.187037
1170.18	1.5917
1173.08	1.52904
1175.97	1.06514
1178.86	2.26928
1181.75	1.72555
1184.65	2.01413
1187.54	1.3772
1190.43	2.02246
1193.33	0.842842
1196.22	0.912422
1199.11	1.42847
1202	0.798313
1204.9	1.10992
1207.79	0.62429
1210.68	1.27962
1213.57	0.729694
1216.47	0.687263
1219.36	0.91494
1222.25	1.05776
1225.14	0.499809
1228.04	1.13001
1230.93	0.70179
1233.82	1.02303
1236.72	0.948559
1239.61	1.60024
1242.5	1.31689
1245.39	0.815422
1248.29	0.330101
1251.18	0.621319
1254.07	0.551971
1256.96	0.548634
1259.86	0.801888
1262.75	0.790638
1265.64	0.455139
1268.54	0.170761
1271.43	0.139412
