Measurement: Raman, 780 nm, unoriented, Raman Data Processed
Mineral: Thomsenolite
Rruff sample: R050282
Ideal chemistry: NaCaAlF_6_H_2_O
Locality: Ivigtut, Greenland
Source: Marcus Origlieri
Description: Colorless prismatic rectangular single crystals associated with colorless ralstonite
Measured chemistry: Na_1.00_(Ca_0.96_Sr_0.04_)_Σ=1_Al_1.00_F_6.00_·H_2_O
Raman shift (cm-1)	intensity
103.761	0
107.136	2.19081
110.511	12.4804
113.886	14.6259
117.261	1.61594
120.636	0.607864
124.01	6.47794
127.385	15.7945
130.76	14.5133
134.135	5.37302
137.51	4.57297
140.885	7.96064
144.259	2.17701
147.634	1.13906
151.009	3.79485
154.384	12.7718
157.759	34.3919
161.133	57.4041
164.508	37.7377
167.883	30.9672
171.258	42.5968
174.633	68.5346
178.007	77.0762
181.382	36.0536
184.757	15.8608
188.132	9.35543
191.507	4.23473
194.882	2.2293
198.256	6.76887
201.631	8.611
205.006	4.34328
208.381	0.757351
211.756	0.75021
215.131	1.7401
218.505	4.2439
221.88	12.912
225.255	25.6675
228.63	31.7608
232.005	30.5052
235.379	26.751
238.754	15.6748
242.129	7.20392
245.504	4.98513
248.879	6.566
252.253	3.33861
255.628	1.40008
259.003	1.26055
262.378	0.128422
265.753	0.2342
269.127	1.15857
272.502	2.44479
275.877	5.50053
279.252	13.0023
282.627	21.0018
286.002	31.2835
289.376	49.4278
292.751	74.1153
296.126	103.523
299.501	112.722
302.876	86.0267
306.25	66.035
309.625	67.3468
313	79.8295
316.375	95.4172
319.75	76.2087
323.125	41.9132
326.499	25.8195
329.874	22.068
333.249	25.2972
336.624	26.4386
339.999	12.3326
343.373	5.27733
346.748	6.32649
350.123	4.64743
353.498	0.150951
356.873	1.63454
360.248	1.77428
363.622	7.80087
366.997	19.8248
370.372	34.1595
373.747	48.5088
377.122	57.3039
380.497	68.5366
383.871	79.5903
387.246	76.8022
390.621	58.4719
393.996	41.3167
397.37	30.4995
400.745	26.7885
404.12	25.0958
407.495	25.7579
410.87	24.1777
414.245	14.0243
417.619	7.47996
420.994	5.0042
424.369	4.95307
427.744	7.37822
431.119	9.27599
434.493	7.81657
437.868	2.94369
441.243	1.22985
444.618	0.573513
447.993	1.99111
451.368	1.81428
454.742	0.973152
458.117	0.134533
461.492	1.28918
464.867	3.1021
468.242	5.93928
471.616	7.33987
474.991	11.5634
478.366	15.8608
481.741	20.4323
485.116	25.0481
488.491	30.1847
491.865	34.0929
495.24	37.6495
498.615	36.9622
501.99	33.7692
505.365	28.5532
508.74	20.945
512.114	14.0816
515.489	8.76162
518.864	5.16086
522.239	4.9104
525.614	6.55726
528.988	11.2691
532.363	17.111
535.738	27.1136
539.113	41.6399
542.488	62.2848
545.862	88.2751
549.237	122.656
552.612	172.57
555.987	239.059
559.362	304.358
562.737	330.22
566.111	313.828
569.486	302.737
572.861	316.406
576.236	309.704
579.611	242.807
582.986	155.131
586.36	94.9908
589.735	60.871
593.11	43.1113
596.485	29.4556
599.86	20.0129
603.234	10.813
606.609	3.77002
609.984	0.268402
613.359	1.45217
616.734	1.89546
620.108	1.91805
623.483	0.330544
626.858	0.898251
630.233	4.16684
633.608	10.0312
636.982	18.2776
640.357	30.0661
643.732	44.7465
647.107	60.6467
650.482	72.458
653.857	71.4204
657.231	60.7752
660.606	46.0405
663.981	33.3907
667.356	24.9492
670.731	17.0933
674.106	11.6784
677.48	7.59029
680.855	5.04863
684.23	3.25728
687.605	1.39654
690.98	1.30412
694.354	0.443005
697.729	0.018501
701.104	0.067709
704.479	0.308392
707.854	0.531158
711.229	0.41612
714.603	0.734637
717.978	0.047648
721.353	0.667059
724.728	0.268854
728.102	0.991287
731.477	1.32282
734.852	1.83807
738.227	2.12382
741.602	2.22396
744.977	3.40457
748.351	3.36256
751.726	3.0639
755.101	3.8758
758.476	4.18498
761.851	3.38268
765.226	2.74034
768.6	2.58342
771.975	1.94623
775.35	1.63928
778.725	1.75777
782.1	1.94756
785.474	1.68213
788.849	1.06434
792.224	1.70124
795.599	1.14298
798.974	0.700518
802.348	1.08151
805.723	0.465983
809.098	0.922066
812.473	0.487458
815.848	0.782959
819.223	0.254154
822.597	0.670665
825.972	0.317217
829.347	0.161669
832.722	1.0434
836.097	0.679524
839.471	0.567278
842.846	0.318854
846.221	1.19706
849.596	0.48322
852.971	0.138232
856.346	0.184933
859.72	0.341788
863.095	0.080533
866.47	0.507493
869.845	0.80123
873.22	0.657657
876.595	0.21598
879.969	0.019863
883.344	0.820358
886.719	0.3662
890.094	0.32599
893.469	0.060849
896.843	0.141681
900.218	0.61908
903.593	0.342777
906.968	0.202
910.343	0.05703
913.717	0.626986
917.092	0.078811
920.467	0.125249
923.842	0.108687
927.217	0.020152
930.591	0.120491
933.966	0.730405
937.341	0.067816
940.716	0.224059
944.091	0.673826
947.466	1.12619
950.84	0.899926
954.215	0.793694
957.59	0.883173
960.965	0.90423
964.34	0.47035
967.715	0.685585
971.089	1.21437
974.464	0.785157
977.839	1.27074
981.214	1.1016
984.589	0.789139
987.963	0.43459
991.338	0.673447
994.713	1.00114
998.088	0.201799
1001.46	0.527432
1004.84	0.109516
1008.21	0.283077
1011.59	0.504416
1014.96	0.663599
1018.34	1.14513
1021.71	0.588275
1025.09	0.967164
1028.46	0.942948
1031.84	0.692598
1035.21	0.78547
1038.59	0.417524
1041.96	0.729143
1045.34	0.562444
1048.71	1.23235
1052.09	0.002145
1055.46	0.50704
1058.84	0.523293
1062.21	0.559017
1065.58	0.964672
1068.96	1.03897
1072.33	0.241015
1075.71	0.186751
1079.08	0.622988
1082.46	0.526031
1085.83	0.374587
1089.21	0.551826
1092.58	0.821492
1095.96	0.063556
1099.33	0.297571
1102.71	0.292258
1106.08	0.323255
1109.46	0.338376
1112.83	0.022594
1116.21	0.519909
1119.58	0.436507
1122.96	0.620918
1126.33	0.608672
1129.71	0.254252
1133.08	0.120317
1136.45	0.289801
1139.83	0.238598
1143.2	0.300025
1146.58	0.656501
1149.95	0.420064
1153.33	0.403626
1156.7	0.538782
1160.08	0.364185
1163.45	0.90251
1166.83	0.018079
1170.2	0.692061
1173.58	0.757638
1176.95	0.718279
1180.33	0.197807
1183.7	0.590066
1187.08	0.526109
1190.45	0.911802
1193.83	0.88161
1197.2	0.555445
1200.58	1.13286
1203.95	1.02035
1207.33	0.537113
1210.7	0.473432
1214.08	0.917883
1217.45	0.738723
1220.83	0.991739
1224.2	0.389936
1227.58	0.522126
1230.95	0.577575
1234.33	0.665557
1237.7	1.10043
1241.08	0.71973
1244.45	0.582941
1247.82	0.837188
1251.2	0.08592
1254.57	0.417624
1257.95	0.513456
1261.32	1.05807
1264.7	1.0564
1268.07	0.824738
1271.45	0.318904
1274.82	0.803284
1278.2	0.042796
