Measurement: Raman, 514 nm, unoriented, Raman Data Processed
Mineral: Thomsenolite
Rruff sample: R050282
Ideal chemistry: NaCaAlF_6_H_2_O
Locality: Ivigtut, Greenland
Source: Marcus Origlieri
Description: Colorless prismatic rectangular single crystals associated with colorless ralstonite
Measured chemistry: Na_1.00_(Ca_0.96_Sr_0.04_)_Σ=1_Al_1.00_F_6.00_·H_2_O
Raman shift (cm-1)	intensity
52.866	0
57.065	276.743
61.262	58.033
65.458	15.778
69.651	68.844
73.842	419.103
78.031	645.91
82.218	931.845
86.404	1318.88
90.587	2476.23
94.768	4689.38
98.947	6887.82
103.124	5681.83
107.3	5674.71
111.473	5889.78
115.644	4760.23
119.813	2979.8
123.981	2971.31
128.146	4110.54
132.309	4098.31
136.47	2972.41
140.63	2925.33
144.787	1883.52
148.942	970.46
153.096	668.453
157.247	764.637
161.396	1137.1
165.544	1277.26
169.689	1971.83
173.833	2766.36
177.974	2976.82
182.114	2184.48
186.251	2355.3
190.387	1716.2
194.52	1435.15
198.652	1841.15
202.782	1830.18
206.909	1489.22
211.035	722.281
215.159	506.332
219.281	832.443
223.4	1868.01
227.518	3393.46
231.634	3830.05
235.748	2962.83
239.86	1822.32
243.97	1436.6
248.079	1821.51
252.185	1601.91
256.289	1018.69
260.391	1014.74
264.492	876.198
268.59	569.39
272.687	179.871
276.781	88.755
280.874	172.225
284.964	146.229
289.053	89.582
293.14	495.271
297.225	964.088
301.308	946.523
305.389	766.438
309.468	933.708
313.545	1386.53
317.62	2094.1
321.693	2955.41
325.765	4696.44
329.834	7304.18
333.902	7759.39
337.967	5864.17
342.031	4040.6
346.093	3530.65
350.153	3264.3
354.21	2898.55
358.267	3609.38
362.321	5594.79
366.373	9441.77
370.423	15206.3
374.471	18700.5
378.518	18113.3
382.563	18093
386.605	17354.6
390.646	13253.3
394.685	8944.93
398.722	6584.43
402.757	5550.71
406.79	4814.68
410.821	4176.33
414.851	2819.63
418.878	1653.56
422.904	980.354
426.927	646.279
430.949	374.038
434.969	251.377
438.987	159.659
443.003	46.451
447.018	67.503
451.03	173.646
455.041	202.956
459.049	191.605
463.056	5.487
467.061	34.723
471.064	179.292
475.065	361.351
479.064	604.892
483.062	928.905
487.057	1320.19
491.051	1757.32
495.043	2302.7
499.032	2667.53
503.02	2938.03
507.007	2877.49
510.991	2793.61
514.973	2989.15
518.954	3114.79
522.933	3326.48
526.91	3940.29
530.885	5031.06
534.858	6560.52
538.829	8401.96
542.799	10500.9
546.766	11915.1
550.732	14087.9
554.696	18643.2
558.658	25587.4
562.618	30433.7
566.576	29814.2
570.533	30962.1
574.488	34245.3
578.44	31199.8
582.391	21412.5
586.341	13002.4
590.288	8088.61
594.233	5231
598.177	3759.59
602.119	2984.36
606.059	2513.2
609.997	2244.25
613.933	2009.4
617.868	2055.47
621.801	1761.75
625.731	1610.07
629.66	1152.24
633.588	1035.57
637.513	1028.19
641.437	1266.63
645.358	1555.34
649.278	1965.14
653.196	2343.03
657.113	2005.01
661.027	1663.05
664.94	1375.67
668.851	1062.43
672.76	845.847
676.667	573.371
680.572	567.383
684.476	42.191
688.378	21.908
692.278	23.706
696.176	84.734
700.072	58.555
703.967	26.772
707.86	44.008
711.751	21.987
715.64	117.795
719.527	166.119
723.413	342.986
727.297	467.939
731.179	653.228
735.059	806.846
738.937	1128.38
742.814	1403.21
746.689	1879.15
750.562	2124.34
754.433	2517.6
758.303	2495.97
762.17	2226.33
766.036	1952.5
769.901	1678.91
773.763	1318.93
777.624	1081.28
781.482	822.56
785.339	695.189
789.195	606.184
793.048	458.724
796.9	406.974
800.75	324.697
804.598	270.836
808.445	308.863
812.289	265.91
816.132	230.061
819.973	194.156
823.813	145.96
827.65	120.477
831.486	165.693
835.32	118.566
839.152	114.433
842.983	104.483
846.812	56.21
850.639	56.665
854.464	1.289
858.288	9.899
862.11	22.417
865.93	19.292
869.748	26.31
873.564	34.36
877.379	52.758
881.192	1.379
885.004	16.848
888.813	7.531
892.621	41.541
896.427	13.213
900.232	30.526
904.034	59.511
907.835	36.175
911.634	0.524
915.432	76.563
919.227	103.307
923.021	72.75
926.813	50.89
930.604	41.718
934.393	36.24
938.18	118.452
941.965	121.376
945.749	94.016
949.53	133.408
953.311	170.138
957.089	185.583
960.866	198.167
964.641	326.603
968.414	243.562
972.185	247.856
975.955	286.714
979.723	285.573
983.49	361.801
987.254	309.815
991.017	395.379
994.779	336.41
998.538	434.291
1002.3	213.827
1006.05	322.281
1009.81	295.248
1013.56	265.67
1017.31	351.275
1021.06	228.116
1024.81	260.532
1028.55	252.915
1032.3	258.011
1036.04	218.585
1039.78	236.221
1043.52	242.762
1047.26	255.814
1050.99	284.966
1054.73	261.513
1058.46	256.709
1062.19	231.112
1065.92	211.656
1069.65	187.442
1073.37	270.019
1077.1	221.439
1080.82	234.22
1084.54	216.254
1088.26	209.45
1091.97	134.364
1095.69	82.191
1099.4	122.89
1103.12	172.632
1106.83	163.316
1110.54	177.102
1114.24	129.925
1117.95	122.385
1121.65	102.175
1125.35	168.759
1129.06	103.741
1132.75	73.652
1136.45	47.628
1140.15	35.846
1143.84	103.601
1147.53	16.877
1151.22	23.669
1154.91	23.717
1158.6	14.051
1162.28	2.821
1165.97	53.804
1169.65	51.608
1173.33	3.786
1177.01	34.82
1180.69	39.581
1184.36	34.987
1188.04	62.86
1191.71	29.099
1195.38	27.685
1199.05	19.651
1202.71	92.215
1206.38	87.572
1210.04	1.835
1213.71	41.885
1217.37	65.789
1221.03	48.604
1224.68	1.336
1228.34	44.309
1231.99	57.602
1235.65	8.053
1239.3	10.451
1242.95	46.669
1246.59	143.899
1250.24	72.669
1253.88	10.897
1257.53	25.263
1261.17	50.941
1264.81	72.583
1268.45	56.887
1272.08	43.021
1275.72	42.005
1279.35	61.457
1282.98	64.18
1286.61	89.524
1290.24	13.339
1293.87	87.848
1297.49	8.461
1301.11	89.357
1304.73	4.829
1308.36	45.402
1311.97	28.297
1315.59	162.382
1319.2	47.56
1322.82	5.239
1326.43	24.819
1330.04	32.274
1333.65	6.405
1337.26	59.262
1340.86	142.167
1344.47	12.056
1348.07	87.329
1351.67	117.567
1355.27	109.532
1358.87	103.208
1362.46	139.146
1366.06	77.607
1369.65	114.617
1373.24	58.104
1376.83	75.192
1380.42	122.578
1384	108.463
1387.59	59.984
1391.17	109.462
1394.75	138.706
1398.33	149.996
1401.91	137.532
1405.49	56.749
1409.06	26.094
1412.64	79.946
1416.21	44.281
1419.78	79.633
1423.35	5.968
1426.91	73.562
1430.48	28.646
1434.05	46.03
1437.61	140.231
1441.17	85.009
1444.73	80.571
1448.29	78.72
1451.84	115.828
1455.4	131.975
1458.95	183.683
1462.5	60.481
1466.05	101.595
1469.6	10.753
1473.15	13.13
1476.69	144.887
1480.24	38.313
1483.78	41.86
1487.32	144.027
1490.86	67.985
1494.39	86.804
1497.93	133.951
1501.46	95.522
