Measurement: Raman, 532 nm, unoriented, Raman Data Processed
Mineral: Thomsonite-Ca
Rruff sample: R050091
Ideal chemistry: NaCa_2_(Al_5_Si_5_)O_20_6H_2_O
Locality: Amudikha River, near Mirny, Yakutia, Siberia, Russia
Source: Rock Currier
Description: Radial groups of colorless bladed crystals
Measured chemistry: (Na_0.94_[box]_0.06_)_Σ=1_(Ca_1.71_Na_0.29_)_Σ=2_(Si_5.35_Al_4.65_)O_20_·7.09H_2_O
Raman shift (cm-1)	intensity
138.352	0
141.727	0.339722
145.102	97.2917
148.476	171.017
151.851	278.755
155.226	450.852
158.601	569.617
161.976	708.011
165.351	882.481
168.725	1004.71
172.1	1144.4
175.475	1304.1
178.85	1370.16
182.225	1177.79
185.6	858.252
188.974	659.389
192.349	585.992
195.724	604.837
199.099	521.201
202.474	361.803
205.848	196.159
209.223	198.06
212.598	208.75
215.973	237.816
219.348	326.342
222.722	290.616
226.097	208.972
229.472	121.896
232.847	34.8687
236.222	31.3752
239.597	14.1989
242.971	23.3376
246.346	1.35407
249.721	34.8397
253.096	96.1379
256.471	189.269
259.846	193.982
263.22	159.055
266.595	129.729
269.97	46.4476
273.345	15.1121
276.719	5.31433
280.094	15.7443
283.469	4.2771
286.844	20.9139
290.219	54.5541
293.594	106.639
296.969	126.937
300.343	172.685
303.718	223.503
307.093	270.225
310.468	246.074
313.843	211.754
317.217	236.679
320.592	264.808
323.967	263.183
327.342	293.436
330.717	323.505
334.091	345.531
337.466	409.107
340.841	437.735
344.216	413.446
347.591	321.946
350.966	277.957
354.34	205.995
357.715	148.31
361.09	159.173
364.465	128.021
367.84	75.6253
371.214	77.0004
374.589	92.0318
377.964	132.907
381.339	153.703
384.714	196.214
388.089	171.147
391.463	194.05
394.838	136.214
398.213	71.9557
401.588	2.27631
404.963	35.2404
408.337	15.2951
411.712	14.932
415.087	8.33453
418.462	36.982
421.837	96.4453
425.212	185.546
428.586	263.599
431.961	401.008
435.336	531.179
438.711	709.982
442.086	825.277
445.461	758.771
448.835	571.713
452.21	417.689
455.585	255.456
458.96	197.967
462.335	240.192
465.709	312.929
469.084	398.48
472.459	513.542
475.834	433.764
479.209	252.888
482.584	157.237
485.958	96.0952
489.333	90.8989
492.708	76.3324
496.083	74.2783
499.458	19.6068
502.832	15.8044
506.207	1.87683
509.582	66.2389
512.957	143.439
516.332	352.124
519.707	657.886
523.081	1217.62
526.456	1992.19
529.831	2902.97
533.206	3765.01
536.581	4102.89
539.955	3437.93
543.33	2376.22
546.705	1512.46
550.08	955.999
553.455	631.553
556.83	383.651
560.204	211.658
563.579	145.08
566.954	94.8995
570.329	52.407
573.704	30.7014
577.078	0.378296
580.453	6.58258
583.828	6.8266
587.203	3.73029
590.578	4.862
593.952	34.8167
597.327	62.7856
600.702	58.4375
604.077	75.6105
607.452	85.8408
610.827	77.619
614.201	38.2978
617.576	44.3087
620.951	46.3389
624.326	15.7761
627.701	21.2232
631.076	24.0825
634.45	14.0163
637.825	22.0598
641.2	10.6393
644.575	15.7706
647.95	3.87036
651.324	3.5705
654.699	11.7747
658.074	7.01111
661.449	15.6014
664.824	5.7243
668.198	6.28967
671.573	13.5057
674.948	18.0967
678.323	44.3822
681.698	34.2212
685.073	30.694
688.447	73.611
691.822	89.027
695.197	63.4523
698.572	87.661
701.947	106.772
705.322	101.84
708.696	152.218
712.071	135.016
715.446	105.414
718.821	125.673
722.196	117.808
725.57	145.791
728.945	130.221
732.32	125.975
735.695	139.134
739.07	137.928
742.444	124.545
745.819	145.236
749.194	131.968
752.569	157.591
755.944	161.739
759.319	123.072
762.693	117.482
766.068	126.221
769.443	112.434
772.818	96.4736
776.193	94.9033
779.567	66.1075
782.942	77.7833
786.317	67.9618
789.692	34.7245
793.067	33.4957
796.442	18.7505
799.816	2.57782
803.191	3.29205
806.566	24.7485
809.941	18.8249
813.316	4.07745
816.691	13.2623
820.065	23.6597
823.44	0.647827
826.815	8.3429
830.19	9.34711
833.565	8.51013
836.939	12.9932
840.314	22.935
843.689	42.6242
847.064	8.55591
850.439	21.3041
853.813	28.5038
857.188	39.7605
860.563	21.9119
863.938	39.6178
867.313	5.91138
870.688	28.7033
874.062	17.9714
877.437	15.852
880.812	16.2578
884.187	16.2726
887.562	11.5838
890.937	23.0835
894.311	4.88965
897.686	2.97168
901.061	9.10626
904.436	0.445923
907.811	1.30939
911.185	31.3443
914.56	12.5534
917.935	34.1994
921.31	34.5748
924.685	50.8138
928.059	64.2297
931.434	85.4561
934.809	103.448
938.184	118.32
941.559	133.383
944.934	133.466
948.308	151.498
951.683	144.502
955.058	173.222
958.433	195.47
961.808	204.316
965.183	267.521
968.557	286.211
971.932	306.341
975.307	315.927
978.682	359.2
982.057	409.892
985.431	459.115
988.806	474.157
992.181	518.205
995.556	454.786
998.931	428.779
1002.3	369.667
1005.68	289.389
1009.05	241.353
1012.43	198.623
1015.8	136.619
1019.18	101.656
1022.55	68.6749
1025.93	61.8813
1029.3	13.3523
1032.68	5.66565
1036.05	2.80951
1039.43	23.5517
1042.8	22.805
1046.18	24.0894
1049.55	45.6494
1052.93	53.7237
1056.3	125.242
1059.68	112.228
1063.05	184.207
1066.43	224.967
1069.8	250.56
1073.18	238.281
1076.55	232.834
1079.93	197.799
1083.3	198.385
1086.68	171.824
1090.05	137.463
1093.43	118.618
1096.8	123.417
1100.17	80.3978
1103.55	68.0021
1106.92	76.0474
1110.3	52.9633
1113.67	15.3749
1117.05	38.5379
1120.42	10.6725
1123.8	15.6918
1127.17	19.6826
1130.55	14.0055
1133.92	1.31305
1137.3	1.20294
1140.67	2.30054
1144.05	9.89197
1147.42	5.43994
1150.8	11.1802
1154.17	5.22852
1157.55	9.68073
1160.92	20.903
1164.3	18.7651
1167.67	33.3703
1171.05	3.07165
1174.42	27.3358
1177.8	33.3127
1181.17	57.407
1184.55	36.0669
1187.92	5.63184
1191.3	11.0098
1194.67	29.2294
1198.05	35.171
1201.42	13.1107
1204.8	19.7369
1208.17	5.95941
1211.54	9.39606
1214.92	13.8028
1218.29	19.9249
1221.67	10.0711
1225.04	16.0522
1228.42	38.7258
1231.79	15.7791
1235.17	23.3065
1238.54	27.5219
1241.92	16.0278
1245.29	25.4453
1248.67	49.2973
1252.04	35.8759
1255.42	19.6757
1258.79	13.9841
1262.17	32.9816
1265.54	38.637
1268.92	25.6201
1272.29	16.8035
1275.67	35.3751
1279.04	40.7842
1282.41	55.1223
1285.79	44.9681
1289.16	40.6605
1292.54	17.929
1295.91	58.5517
1299.29	5.90668
