Measurement: Raman, 785 nm, unoriented, Raman Data Processed
Mineral: Thomsonite-Ca
Rruff sample: R050091
Ideal chemistry: NaCa_2_(Al_5_Si_5_)O_20_6H_2_O
Locality: Amudikha River, near Mirny, Yakutia, Siberia, Russia
Source: Rock Currier
Description: Radial groups of colorless bladed crystals
Measured chemistry: (Na_0.94_[box]_0.06_)_Σ=1_(Ca_1.71_Na_0.29_)_Σ=2_(Si_5.35_Al_4.65_)O_20_·7.09H_2_O
Raman shift (cm-1)	intensity
160.563	0
163.455	90.4023
166.348	390.262
169.241	615.835
172.133	931.729
175.026	1281.71
177.919	1556.84
180.812	1464.27
183.704	981.8
186.597	564.828
189.49	319.221
192.382	204.232
195.275	169.675
198.168	148.39
201.06	137.127
203.953	36.1014
206.846	40.6204
209.739	51.4652
212.631	122.031
215.524	287.184
218.417	471.922
221.309	536.386
224.202	441.102
227.095	258.225
229.988	152.908
232.88	58.4639
235.773	37.6657
238.666	77.7642
241.558	61.8051
244.451	31.8447
247.344	17.0111
250.236	72.3325
253.129	177.444
256.022	304.744
258.915	379.65
261.807	305.622
264.7	234.592
267.593	166.814
270.485	96.7915
273.378	88.4205
276.271	86.6208
279.163	103.593
282.056	115.891
284.949	135.643
287.842	149.157
290.734	178.263
293.627	194.819
296.52	182.485
299.412	193.802
302.305	217.561
305.198	256.548
308.09	282.185
310.983	300.186
313.876	283.559
316.769	288.033
319.661	316.391
322.554	311.612
325.447	375.447
328.339	376.4
331.232	417.3
334.125	486.22
337.017	506.906
339.91	603.481
342.803	583.025
345.695	542.981
348.588	474.882
351.481	404.501
354.374	355.252
357.266	315.767
360.159	338.259
363.052	269.435
365.944	253.312
368.837	161.514
371.73	124.489
374.623	155.637
377.515	174.125
380.408	198.506
383.301	155.811
386.193	149.455
389.086	144.716
391.979	134.493
394.871	98.8849
397.764	41.7616
400.657	9.03735
403.55	36.4822
406.442	48.8674
409.335	48.2882
412.228	4.22784
415.12	9.86029
418.013	82.8934
420.906	140.502
423.798	212.277
426.691	334.065
429.584	488.369
432.476	610.303
435.369	775.578
438.262	996.602
441.155	1154.27
444.047	1189.87
446.94	1081.38
449.833	896.036
452.725	679.116
455.618	490.069
458.511	410.559
461.404	409.993
464.296	498.61
467.189	651.878
470.082	895.671
472.974	1053.46
475.867	899.41
478.76	587.649
481.652	313.891
484.545	220.143
487.438	162.862
490.33	151.744
493.223	140.452
496.116	138.773
499.009	77.9138
501.901	15.084
504.794	14.6377
507.687	13.0645
510.579	93.8482
513.472	216.161
516.365	409.805
519.258	746.08
522.15	1210.25
525.043	1945.82
527.936	2850.35
530.828	3986.03
533.721	4989.91
536.614	5453.95
539.506	4800.17
542.399	3673.81
545.292	2537.31
548.185	1700.99
551.077	1148.37
553.97	755.677
556.863	548.215
559.755	384.558
562.648	254.286
565.541	192.883
568.433	84.6342
571.326	89.1191
574.219	35.7441
577.111	30.5811
580.004	2.19867
582.897	10.9117
585.79	15.9464
588.682	13.514
591.575	23.0758
594.468	4.06378
597.36	38.6589
600.253	79.2208
603.146	140.734
606.038	184.581
608.931	171.214
611.824	122.161
614.717	78.8528
617.609	63.8644
620.502	48.3723
623.395	49.9816
626.287	35.5484
629.18	23.6024
632.073	28.0739
634.966	21.1322
637.858	21.7072
640.751	24.6747
643.644	21.9651
646.536	18.9381
649.429	6.5257
652.322	10.8343
655.214	12.3773
658.107	0.459747
661	8.56094
663.893	4.0173
666.785	22.2439
669.678	45.0467
672.571	17.6321
675.463	32.1786
678.356	38.2804
681.249	41.883
684.141	56.7429
687.034	72.071
689.927	74.5072
692.819	128.173
695.712	98.4496
698.605	116.912
701.498	121.948
704.39	137.573
707.283	158.159
710.176	151.621
713.068	129.277
715.961	125.459
718.854	153.649
721.746	136.268
724.639	154.268
727.532	138.077
730.425	142.145
733.317	128.434
736.21	112.495
739.103	117.55
741.995	115.544
744.888	126.746
747.781	117.68
750.673	130.925
753.566	137.674
756.459	115.303
759.352	95.9293
762.244	96.6327
765.137	101.983
768.03	69.4077
770.922	77.4109
773.815	60.6074
776.708	50.2469
779.601	54.3568
782.493	41.5104
785.386	48.8073
788.279	41.3368
791.171	30.4467
794.064	44.4079
796.957	35.7798
799.849	16.4634
802.742	16.3464
805.635	15.5909
808.528	17.3166
811.42	9.14548
814.313	8.58166
817.206	14.042
820.098	0.981934
822.991	3.3924
825.884	4.26694
828.776	21.4589
831.669	18.0336
834.562	12.8546
837.455	27.4103
840.347	0.704681
843.24	16.7861
846.133	0.049194
849.025	11.063
851.918	18.1638
854.811	25.8305
857.703	2.14829
860.596	19.609
863.489	30.6808
866.381	31.5444
869.274	17.4567
872.167	13.7581
875.06	3.01547
877.952	0.264862
880.845	7.93057
883.738	25.8522
886.63	0.796021
889.523	12.8806
892.416	14.4166
895.308	8.46497
898.201	1.18411
901.094	21.8843
903.987	6.73978
906.879	4.09085
909.772	2.5488
912.665	23.6622
915.557	15.6642
918.45	38.0603
921.343	46.8693
924.236	40.4342
927.128	80.8558
930.021	120.418
932.914	78.6938
935.806	96.9623
938.699	114.713
941.592	107.358
944.484	135.628
947.377	151.062
950.27	136.612
953.163	149.938
956.055	160.136
958.948	213.918
961.841	243.487
964.733	271.212
967.626	264.341
970.519	288.57
973.411	267.477
976.304	301.95
979.197	366.359
982.09	361.049
984.982	417.735
987.875	421.075
990.768	447.769
993.66	429.119
996.553	418.197
999.446	373.89
1002.34	327.789
1005.23	286.747
1008.12	234.63
1011.02	193.435
1013.91	187.084
1016.8	113.298
1019.7	90.6086
1022.59	71.8587
1025.48	34.387
1028.37	18.7397
1031.27	0.147278
1034.16	8.25674
1037.05	22.3967
1039.94	0.552887
1042.84	25.2753
1045.73	0.248688
1048.62	32.4328
1051.51	48.7266
1054.41	74.9515
1057.3	108.959
1060.19	139.772
1063.09	173.176
1065.98	199.402
1068.87	182.108
1071.76	192.884
1074.66	199.312
1077.55	217.064
1080.44	171.818
1083.33	165.012
1086.23	134.644
1089.12	137.964
1092.01	109.259
1094.9	70.0448
1097.8	83.7502
1100.69	58.6716
1103.58	29.6041
1106.48	23.5037
1109.37	16.8371
1112.26	44.2276
1115.15	23.5045
1118.05	29.1928
1120.94	9.99164
1123.83	12.7041
1126.72	2.58987
1129.62	14.8442
1132.51	5.84792
1135.4	9.45017
1138.3	20.884
1141.19	0.940735
1144.08	4.72427
1146.97	4.2067
1149.87	14.9792
1152.76	10.3775
1155.65	12.497
1158.54	16.7327
1161.44	15.6875
1164.33	25.6244
1167.22	19.4315
1170.12	6.67697
1173.01	20.4511
1175.9	24.6141
1178.79	19.8984
1181.69	2.97896
1184.58	40.5715
1187.47	5.19557
1190.36	28.7389
1193.26	19.2421
1196.15	29.7249
1199.04	27.7156
1201.93	26.3482
1204.83	31.5749
1207.72	17.0669
1210.61	25.6467
1213.51	26.7982
1216.4	35.7263
1219.29	4.78175
1222.18	54.3558
1225.08	28.5324
1227.97	6.47978
1230.86	8.64648
1233.75	28.7598
1236.65	0.648117
