Measurement: Raman, 514 nm, unoriented, Raman Data Processed
Mineral: Thomsonite-Ca
Rruff sample: R050103
Ideal chemistry: NaCa_2_(Al_5_Si_5_)O_20_6H_2_O
Locality: Seeberg, Bohemia, Czech Republic
Source: Rock Currier
Description: Colorless prismatic crystals
Measured chemistry: Na_1.00_(Ca_0.92_Sr_0.08_)_2_(Al_5.00_Si_5.00_)O_20_Â·6H_2_O
Raman shift (cm-1)	intensity
125.369	0
129.534	23.404
133.696	218.963
137.857	1193.98
142.016	2592.46
146.172	1381.7
150.327	680.337
154.48	908.93
158.63	1288.18
162.779	2083.98
166.926	3302.01
171.07	5422.22
175.213	9031.91
179.354	11167.3
183.493	8019.77
187.63	4729.12
191.765	2946.74
195.898	1944.88
200.029	1530.82
204.158	928.464
208.285	1150.68
212.41	2166.8
216.533	3967.99
220.654	4862.59
224.773	3631.91
228.891	2111.56
233.006	1096.76
237.119	433.331
241.231	41.105
245.34	122.974
249.448	336.796
253.553	830.338
257.657	1480.85
261.758	1166.17
265.858	412.91
269.956	24.236
274.052	53.795
278.146	4.064
282.237	2.848
286.327	264.547
290.416	199.215
294.502	16.666
298.586	108.98
302.668	148.352
306.749	15.883
310.827	39.303
314.903	152
318.978	506.057
323.051	673.457
327.121	837.193
331.19	959.184
335.257	1418.23
339.322	1699.29
343.385	1695.52
347.446	1338.9
351.505	1108.34
355.563	1236.14
359.618	1675.5
363.672	1682.14
367.723	1206.6
371.773	817.799
375.821	1077.85
379.866	642.441
383.91	472.436
387.952	488.156
391.992	306.783
396.031	306.293
400.067	344.475
404.101	261.373
408.134	208.623
412.165	365.988
416.193	424.111
420.22	813.793
424.245	1123.35
428.268	2068.62
432.289	2778.38
436.309	3757.65
440.326	5090.15
444.342	5011.98
448.355	3705.87
452.367	2363.18
456.377	1817.99
460.385	1756.5
464.391	2408.24
468.395	4484.97
472.398	6424.02
476.398	5343.26
480.397	3393.74
484.394	2307.95
488.389	1982.1
492.382	1815.44
496.373	1363.67
500.362	1259.73
504.349	824.312
508.335	911.703
512.319	1276.88
516.3	1786.59
520.28	2828.55
524.259	5001.98
528.235	9136.78
532.209	15501.7
536.182	19826.2
540.152	16641.7
544.121	10574.2
548.088	6884.48
552.053	4558.82
556.017	2852.66
559.978	1986.02
563.938	1431.83
567.895	984.039
571.851	844.617
575.805	494.508
579.758	238.264
583.708	330.996
587.657	261.363
591.603	183.229
595.548	454.1
599.491	433.17
603.432	916.969
607.372	1074.12
611.309	607.91
615.245	558.666
619.179	140.643
623.111	348.506
627.041	72.793
630.97	95.607
634.896	445.143
638.821	171.736
642.744	471.893
646.665	127.062
650.584	216.561
654.502	67.537
658.418	17.311
662.331	14.07
666.244	201.055
670.154	167.881
674.062	148.266
677.969	162.605
681.874	122.648
685.777	256.252
689.678	302.852
693.577	135.049
697.475	581.023
701.371	509.609
705.265	717.275
709.157	306.648
713.047	780.697
716.936	866.748
720.823	861.191
724.708	573.961
728.591	533.301
732.472	358.824
736.352	451.598
740.23	369.172
744.106	408.93
747.98	137.434
751.853	648.422
755.723	215.205
759.592	61.629
763.459	371.727
767.325	466.531
771.188	248.09
775.05	31.807
778.91	50.678
782.768	284.818
786.625	261.898
790.479	11.707
794.332	33.73
798.183	210.857
802.033	50.057
805.88	297.484
809.726	103.479
813.57	168.074
817.413	11.145
821.253	7.615
825.092	97.852
828.929	158.105
832.764	24.922
836.598	324.762
840.429	13.469
844.259	59.811
848.088	332.215
851.914	398.344
855.739	360.287
859.562	101.842
863.383	31.221
867.203	343.076
871.02	92.137
874.836	297.973
878.65	232.686
882.463	257.18
886.274	360.59
890.083	300.762
893.89	462.68
897.695	284.711
901.499	420.609
905.301	363.238
909.102	591.215
912.9	808.938
916.697	745.77
920.492	738.406
924.285	973.195
928.077	1120.38
931.867	1134.47
935.655	1586.71
939.442	1449.03
943.226	1887.38
947.009	2019.68
950.791	1818.61
954.57	1594.42
958.348	1873.19
962.124	1836.21
965.899	1994.03
969.671	2163.95
973.442	2394.82
977.211	2581.19
980.979	2558.59
984.745	2404.66
988.509	2911.72
992.271	2948.46
996.032	2730.23
999.791	1874.18
1003.55	1934.71
1007.3	1759.22
1011.06	1480.74
1014.81	1395.63
1018.56	1431.86
1022.31	1335.4
1026.06	888.996
1029.8	672.5
1033.55	637.664
1037.29	864.121
1041.03	858.551
1044.77	825.453
1048.5	794.359
1052.24	1187.96
1055.97	785.816
1059.7	1073.75
1063.43	1264.4
1067.16	1048.29
1070.89	1172.57
1074.61	1433.63
1078.34	1099.19
1082.06	1186.22
1085.78	1804.64
1089.5	1050.62
1093.21	615.461
1096.93	539.492
1100.64	617.926
1104.35	449.793
1108.06	558.598
1111.77	407.852
1115.48	239.289
1119.18	240.66
1122.89	185.133
1126.59	89.488
1130.29	378.922
1133.99	16.621
1137.68	251.613
1141.38	18.676
1145.07	203.777
1148.76	269.113
1152.45	93.766
1156.14	429.965
1159.83	160
1163.51	217.258
1167.19	375.844
1170.88	231.105
1174.56	65.594
1178.23	201.5
1181.91	1.336
1185.59	164.523
1189.26	252.812
1192.93	119.477
1196.6	282.488
1200.27	578.148
1203.94	136.902
1207.6	697.625
1211.27	491.766
1214.93	361.527
1218.59	547.91
1222.25	568.219
1225.9	837.555
1229.56	542.965
1233.21	347.805
1236.86	533.305
1240.51	771.109
1244.16	502.969
1247.81	619.781
1251.45	462.75
1255.1	530.281
1258.74	44.875
1262.38	286.867
1266.02	538.406
1269.66	541.535
1273.29	291.645
1276.93	221.711
1280.56	355.242
1284.19	174.086
1287.82	352.867
1291.45	425.215
1295.07	434.961
1298.7	197.629
1302.32	223.688
1305.94	53.871
1309.56	214.691
1313.18	276.75
1316.8	360.816
1320.41	506.336
1324.02	568.531
1327.63	695.336
1331.24	381.777
1334.85	145.746
1338.46	160.66
