Measurement: Raman, 532 nm, unoriented, Raman Data Processed
Mineral: Thomsonite-Ca
Rruff sample: R050103
Ideal chemistry: NaCa_2_(Al_5_Si_5_)O_20_6H_2_O
Locality: Seeberg, Bohemia, Czech Republic
Source: Rock Currier
Description: Colorless prismatic crystals
Measured chemistry: Na_1.00_(Ca_0.92_Sr_0.08_)_2_(Al_5.00_Si_5.00_)O_20_Â·6H_2_O
Raman shift (cm-1)	intensity
142.52	0
145.413	1.03998
148.306	23.3581
151.198	63.227
154.091	110.043
156.984	140.255
159.876	160.016
162.769	198.989
165.662	249.433
168.554	274.205
171.447	289.49
174.34	343.321
177.233	441.162
180.125	499.917
183.018	417.077
185.911	278.741
188.803	177.833
191.696	139.994
194.589	131.952
197.482	127.148
200.374	100.877
203.267	64.5309
206.16	37.5242
209.052	36.6829
211.945	49.4774
214.838	77.8233
217.73	118.84
220.623	145.987
223.516	129.31
226.409	78.5653
229.301	38.5268
232.194	16.1462
235.087	1.36342
237.979	11.538
240.872	11.7294
243.765	7.21315
246.657	0.762955
249.55	11.614
252.443	29.7479
255.335	48.5333
258.228	70.3964
261.121	67.3528
264.014	48.4504
266.906	34.1253
269.799	14.7953
272.692	6.60921
275.584	2.61646
278.477	2.56548
281.37	3.41817
284.262	7.32985
287.155	8.45232
290.048	13.6173
292.941	18.4459
295.833	25.1829
298.726	27.8314
301.619	34.8806
304.511	42.7977
307.404	46.7483
310.297	47.1324
313.19	40.4959
316.082	42.4377
318.975	50.9926
321.868	59.7216
324.76	63.7757
327.653	68.7892
330.546	69.2766
333.438	73.3554
336.331	83.6628
339.224	97.812
342.116	104.036
345.009	95.8678
347.902	83.1032
350.795	77.502
353.687	75.616
356.58	70.395
359.473	68.7465
362.365	65.6363
365.258	62.8055
368.151	44.1773
371.043	37.8208
373.936	34.8794
376.829	42.649
379.721	47.0003
382.614	45.0281
385.507	40.2147
388.4	40.2616
391.292	38.542
394.185	26.0435
397.078	11.3833
399.97	2.04669
402.863	3.98932
405.756	6.9776
408.649	6.91844
411.541	4.69069
414.434	1.00612
417.327	11.51
420.219	24.6356
423.112	38.7676
426.005	57.7866
428.897	80.872
431.79	107.278
434.683	136.382
437.575	174.773
440.468	214.534
443.361	221.373
446.254	187.542
449.146	133.145
452.039	88.2078
454.932	68.353
457.824	60.3591
460.717	71.0862
463.61	75.9994
466.502	103.582
469.395	150.304
472.288	196.85
475.181	195.515
478.073	133.621
480.966	77.7806
483.859	53.0066
486.751	41.1144
489.644	35.3857
492.537	30.414
495.43	24.4045
498.322	15.2899
501.215	5.9697
504.108	0.095734
507	2.03415
509.893	8.29874
512.786	31.7042
515.678	63.3273
518.571	114.101
521.464	185.668
524.356	288.558
527.249	421.725
530.142	605.576
533.034	808.701
535.927	927.79
538.82	864.533
541.713	662.128
544.605	465.139
547.498	314.721
550.391	215.055
553.283	147.439
556.176	100.643
559.069	69.1271
561.962	45.2346
564.854	31.7776
567.747	20.6746
570.64	9.69336
573.532	5.15906
576.425	2.00983
579.318	0.300049
582.21	2.74355
585.103	2.9175
587.996	0.971405
590.889	2.61203
593.781	6.97409
596.674	12.7917
599.567	21.2828
602.459	29.847
605.352	33.5606
608.245	31.8777
611.137	20.38
614.03	13.8391
616.923	8.39385
619.816	3.57632
622.708	1.22226
625.601	0.824005
628.494	1.6566
631.386	0.653488
634.279	0.909943
637.172	0.956131
640.064	0.53537
642.957	1.64612
645.85	0.10643
648.742	0.553635
651.635	1.34082
654.528	0.572952
657.421	0.953339
660.313	1.39348
663.206	1.86586
666.099	0.120255
668.991	3.90402
671.884	4.16359
674.777	5.92659
677.669	8.0591
680.562	9.69716
683.455	10.6732
686.348	9.79108
689.24	12.4928
692.133	15.7304
695.026	16.5826
697.918	20.6978
700.811	23.8992
703.704	23.5738
706.596	22.1477
709.489	25.1558
712.382	25.4886
715.274	25.6031
718.167	24.2898
721.06	26.0235
723.953	24.0853
726.845	23.4261
729.738	23.4275
732.631	21.7357
735.523	21.2714
738.416	18.7438
741.309	19.0819
744.202	17.0346
747.094	16.4529
749.987	15.9577
752.88	14.8575
755.772	16.3092
758.665	12.1086
761.558	13.8889
764.45	10.3075
767.343	9.63711
770.236	9.31941
773.129	5.72836
776.021	8.06276
778.914	5.8712
781.807	4.107
784.699	4.04045
787.592	0.312332
790.485	2.29099
793.377	2.95749
796.27	2.17091
799.163	3.57962
802.056	5.1097
804.948	8.89592
807.841	17.5773
810.734	26.796
813.626	20.866
816.519	9.03412
819.412	1.62019
822.304	1.45195
825.197	0.454269
828.09	1.05226
830.982	1.50931
833.875	0.828415
836.768	0.045303
839.661	1.42723
842.553	2.61377
845.446	1.49162
848.339	1.32689
851.231	0.204468
854.124	1.44955
857.017	0.367325
859.909	0.60643
862.802	0.068939
865.695	0.537125
868.588	2.35744
871.48	0.06926
874.373	0.982452
877.266	1.44392
880.158	0.515839
883.051	1.25003
885.944	0.434509
888.837	0.19194
891.729	1.28552
894.622	0.694183
897.515	1.83106
900.407	1.88924
903.3	0.858429
906.193	4.06261
909.085	3.57986
911.978	5.69459
914.871	6.32221
917.763	9.16751
920.656	13.5995
923.549	12.2897
926.442	16.9835
929.334	20.0026
932.227	24.9041
935.12	29.7921
938.012	34.6964
940.905	38.0291
943.798	38.9102
946.69	41.568
949.583	45.5521
952.476	47.6882
955.369	48.4603
958.261	55.9031
961.154	62.1878
964.047	69.7905
966.939	76.1122
969.832	76.9283
972.725	78.7207
975.617	82.4817
978.51	90.3286
981.403	98.7064
984.295	110.894
987.188	117.615
990.081	118.102
992.974	114.286
995.866	92.6209
998.759	74.1757
1001.65	59.6601
1004.54	47.3916
1007.44	38.3165
1010.33	31.3959
1013.22	27.0963
1016.12	23.7694
1019.01	22.4196
1021.9	16.3437
1024.79	11.0785
1027.69	3.27106
1030.58	3.8998
1033.47	0.919495
1036.36	0.378494
1039.26	1.58623
1042.15	1.48695
1045.04	0.179016
1047.93	2.27649
1050.83	8.00975
1053.72	10.4427
1056.61	15.1159
1059.51	20.6044
1062.4	25.8439
1065.29	32.8168
1068.18	34.4251
1071.08	34.8052
1073.97	32.6749
1076.86	33.3695
1079.76	29.4183
1082.65	24.1398
1085.54	24.2141
1088.43	21.2304
1091.33	16.4189
1094.22	13.699
1097.11	11.8962
1100	8.43297
1102.9	9.67807
1105.79	6.45711
1108.68	5.81757
1111.57	5.15665
1114.47	3.5173
1117.36	1.71046
1120.25	3.59122
1123.14	2.50873
1126.04	3.81731
1128.93	2.53076
1131.82	1.73579
1134.72	0.389587
1137.61	0.549026
1140.5	1.71355
1143.39	0.752167
1146.29	0.40921
1149.18	1.23148
1152.07	0.949036
1154.96	2.61435
1157.86	2.82332
1160.75	1.84346
1163.64	2.41988
1166.54	3.20032
1169.43	2.21397
1172.32	2.46008
1175.21	3.08989
1178.11	4.18172
1181	5.96307
1183.89	4.6093
1186.78	4.18759
1189.68	4.91605
1192.57	4.11101
1195.46	4.29723
1198.36	3.31978
1201.25	3.29727
1204.14	2.10585
1207.03	2.17566
1209.93	2.24881
1212.82	0.025635
1215.71	0.562561
1218.6	0.353134
1221.5	1.66405
1224.39	0.39769
1227.28	3.58636
1230.17	2.55745
1233.07	2.21376
1235.96	1.41492
1238.85	2.65199
1241.75	1.11362
1244.64	1.90755
1247.53	2.53606
1250.42	1.76411
1253.32	2.27391
1256.21	2.65784
1259.1	0.143082
1261.99	1.06392
1264.89	1.93651
1267.78	0.763687
1270.67	1.10883
1273.57	0.587067
1276.46	2.57896
1279.35	3.58667
1282.24	1.05592
1285.14	0.292313
1288.03	3.18701
1290.92	1.99396
