Measurement: Raman, 514 nm, unoriented, Raman Data Processed
Mineral: Thorite
Rruff sample: X050164
Ideal chemistry: ThSiO_4_
Locality: Italy
Source: Caltech
Raman shift (cm-1)	intensity
195.598	0
200.635	147.312
205.672	0.68
210.71	59.179
215.747	97.814
220.784	66.928
225.821	74.886
230.859	118.663
235.896	80.358
240.933	69.262
245.971	39.284
251.008	99.809
256.045	251.86
261.082	463.159
266.12	880.005
271.157	1638.36
276.194	3470.64
281.231	6535.24
286.269	10564.9
291.306	12669
296.343	10250.5
301.38	5490.67
306.418	2429.42
311.455	1310.46
316.492	611.404
321.53	252.595
326.567	40.409
331.604	28.626
336.642	39.846
341.679	80.282
346.716	38.783
351.753	31.781
356.791	41.668
361.828	19.33
366.865	2.838
371.902	10.798
376.94	34.844
381.977	16.081
387.014	17.839
392.052	36.417
397.089	32.492
402.126	203.123
407.163	553.99
412.201	1142.81
417.238	2251.68
422.275	4501.65
427.312	9272.68
432.35	15682.5
437.387	18938.8
442.424	14425.8
447.462	6913.82
452.499	3353.27
457.536	1788.04
462.573	1208.44
467.611	656.938
472.648	354.034
477.685	47.437
482.723	6.116
487.76	78.759
492.797	9.6
497.834	53.739
502.872	161.63
507.909	123.291
512.946	154.228
517.984	125.394
523.021	73.379
528.058	2.622
533.095	32.042
538.133	7.386
543.17	103.874
548.207	76.396
553.244	59.373
558.282	217.55
563.319	177.46
568.356	282.757
573.393	437.81
578.431	552.615
583.468	1006.19
588.505	2019.15
593.543	3231.52
598.58	3234.41
603.617	1421.8
608.654	410.35
613.692	227.126
618.729	77.992
623.766	16.65
628.804	31.875
633.841	89.03
638.878	20.425
643.915	37.472
648.953	23.967
653.99	93.414
659.027	124.955
664.065	86.579
669.102	203.609
674.139	67.772
679.176	115.65
684.214	116.092
689.251	115.71
694.288	182.422
699.325	64.219
704.363	59.29
709.4	7.875
714.437	78.829
719.475	25.638
724.512	47.424
729.549	9.627
734.586	106.887
739.624	27.998
744.661	122.808
749.698	68.552
754.735	88.541
759.773	165.366
764.81	91.984
769.847	162.079
774.885	222.682
779.922	196.547
784.959	184.63
789.996	118.644
795.034	27.781
800.071	263.804
805.108	410.384
810.146	568.369
815.183	568.932
820.22	622.655
825.257	433.108
830.295	157.29
835.332	113.136
840.369	151.174
845.406	14.237
850.444	163.592
855.481	103.325
860.518	49.496
865.555	2.457
870.593	295.986
875.63	1205.75
880.667	2875.32
885.705	7036.85
890.742	12750.1
895.779	16257.7
900.817	12355.4
905.854	10929.1
910.891	20255.8
915.928	35207.1
920.966	42670.9
926.003	23070.7
931.04	9481.73
936.078	4408.89
941.115	1990.89
946.152	788.766
951.189	225.248
956.227	3.695
961.264	115.605
966.301	70.271
971.338	4.284
976.376	69.975
981.413	71.272
986.45	168.026
991.487	131.608
996.525	145.372
1001.56	167.719
1006.6	82.594
1011.64	88.278
1016.67	33.508
1021.71	169.555
1026.75	77.052
1031.79	237.879
1036.82	111.828
1041.86	139.999
1046.9	9.231
1051.93	33.732
1056.97	143.669
1062.01	66.521
1067.05	64.023
1072.08	67.18
1077.12	82.768
1082.16	119.798
1087.2	160.142
1092.23	27.304
1097.27	90.945
1102.31	127.719
1107.35	205.288
1112.38	145.039
1117.42	42.776
1122.46	17.238
1127.49	51.291
1132.53	30.625
1137.57	86.747
1142.61	43.92
1147.64	48.2
1152.68	45.82
1157.72	39.04
1162.76	96.828
1167.79	240.397
1172.83	224.408
1177.87	230.014
1182.9	255.191
1187.94	93.578
1192.98	170.152
1198.02	70.632
1203.05	14.296
1208.09	87.72
1213.13	55.739
1218.16	40.057
1223.2	54.007
1228.24	87.722
1233.28	53.624
1238.31	21.812
1243.35	39.131
1248.39	37.466
1253.43	62.146
1258.46	128.63
1263.5	48.96
1268.54	11.816
1273.58	6.668
1278.61	36.521
1283.65	15.947
1288.69	7.161
1293.72	12.016
1298.76	37.952
1303.8	6.493
1308.84	36.562
1313.87	117.362
1318.91	5.643
1323.95	203.131
1328.98	277.497
1334.02	181.699
1339.06	202.086
1344.1	165.629
1349.13	246.271
1354.17	322.964
1359.21	338.876
1364.25	267.97
1369.28	284.113
1374.32	254.9
1379.36	271.929
1384.39	265.421
1389.43	162.223
1394.47	68.121
1399.51	91.453
1404.54	124.751
1409.58	41.461
1414.62	52.287
1419.66	5.938
1424.69	13.483
1429.73	24.34
1434.77	102.864
1439.81	179.286
1444.84	135.014
1449.88	57.822
1454.92	185.904
1459.95	187.656
1464.99	89.914
1470.03	7.064
1475.07	119.808
1480.1	58.905
1485.14	128.594
1490.18	193.668
1495.21	76.525
1500.25	0
