Measurement: Raman, 532 nm, unoriented, Raman Data Processed
Mineral: Thorianite
Rruff sample: R060849
Ideal chemistry: ThO_2_
Locality: Belafeno, Malagasy Republic
Source: Michael Scott
Description: Dark brown rough cube
Raman shift (cm-1)	intensity
136.468	0
139.843	436.532
143.218	537.366
146.593	480.459
149.968	349.917
153.342	452.94
156.717	615.461
160.092	824.326
163.467	840.457
166.842	766.729
170.216	653.112
173.591	567.895
176.966	545.498
180.341	352.148
183.716	251.345
187.091	192.465
190.465	204.234
193.84	15.5625
197.215	82.3096
200.59	61.6357
203.965	10.3301
207.339	32.0566
210.714	24.3398
214.089	93.9258
217.464	110.199
220.839	229.825
224.214	241.419
227.588	349.328
230.963	420.475
234.338	395.366
237.713	439.797
241.088	530.402
244.462	561.45
247.837	545.06
251.212	574.707
254.587	504.587
257.962	433.58
261.337	493.283
264.711	432.956
268.086	306.099
271.461	349.97
274.836	334.827
278.211	436.562
281.585	364.62
284.96	348.159
288.335	421.393
291.71	256.432
295.085	224.876
298.459	68.6543
301.834	266.56
305.209	313.62
308.584	308.163
311.959	286.631
315.334	151.22
318.708	122.734
322.083	42.8682
325.458	35.6875
328.833	128.341
332.208	38.9512
335.582	112.432
338.957	157.768
342.332	88.1807
345.707	1.75781
349.082	8.01562
352.457	20.04
355.831	25.9902
359.206	70.8125
362.581	39.3135
365.956	21.0156
369.33	20.1611
372.705	9.28613
376.08	97.3096
379.455	223.257
382.83	370.796
386.205	600.416
389.579	719.11
392.954	774.27
396.329	844.496
399.704	1067.17
403.079	1361.91
406.454	1549.25
409.828	1884.25
413.203	2215.04
416.578	2578.01
419.953	2952.77
423.328	3593.2
426.702	4342.51
430.077	5322.4
433.452	6613.14
436.827	8178.92
440.202	10314.9
443.576	12880.9
446.951	15918.8
450.326	19547.2
453.701	23277
457.076	26045.1
460.45	26469
463.825	24445.9
467.2	20730.2
470.575	16809.6
473.95	12920
477.325	9281.47
480.699	6464.79
484.074	4441.01
487.449	2821.98
490.824	1558.82
494.199	769.233
497.574	249.319
500.948	54.9805
504.323	293.194
507.698	196.286
511.073	260.529
514.448	68.6514
517.822	6.97461
521.197	199.051
524.572	430.088
527.947	757.373
531.322	1250.21
534.697	1916.73
538.071	2710.9
541.446	3758.47
544.821	4714.41
548.196	5404.57
551.571	5962.31
554.945	6231.9
558.32	6197.36
561.695	6083.23
565.07	5796.43
568.445	5500.17
571.819	5071.08
575.194	4970.59
578.569	4765.01
581.944	4731.22
585.319	4819.99
588.693	4980.82
592.068	5052.93
595.443	5436.53
598.818	5735.84
602.193	6018.84
605.568	6104.5
608.942	5961.82
612.317	5554.16
615.692	5000.89
619.067	4570.73
622.442	3978.94
625.816	3539.47
629.191	3045.44
632.566	2494.92
635.941	2136.81
639.316	1890.91
642.691	1590.46
646.065	1492.43
649.44	1221.73
652.815	1134.26
656.19	896.166
659.565	662.977
662.939	392.435
666.314	268.392
669.689	233.219
673.064	59.3359
676.439	29.377
679.813	31.9521
683.188	99.3496
686.563	86.1973
689.938	3.09961
693.313	38.4111
696.688	18.5215
700.062	65.334
703.437	1.70215
706.812	14.4893
710.187	111.306
713.562	30.4287
716.936	222.367
720.311	186.385
723.686	291.454
727.061	397.305
730.436	332.612
733.811	331.639
737.185	348.743
740.56	353.242
743.935	476.857
747.31	442.959
750.685	472.332
754.059	203.463
757.434	386.846
760.809	291.382
764.184	285.756
767.559	314.229
770.933	340.186
774.308	238.474
777.683	224.602
781.058	212.484
784.433	291.015
787.808	213.477
791.182	217.594
794.557	190.815
797.932	170.558
801.307	174.45
804.682	143.723
808.056	60.2476
811.431	55.4526
814.806	72.7349
818.181	86.0044
821.556	88.4224
824.931	55.8452
828.305	144.057
831.68	136.383
835.055	30.2144
838.43	123.571
841.805	68.4497
845.179	99.7715
848.554	36.7422
851.929	20.5474
855.304	17.273
858.679	74.7217
862.053	45.9746
865.428	48.7398
868.803	79.7046
872.178	90.9316
875.553	21.5449
878.928	19.2793
882.302	70.7988
885.677	67.1103
889.052	81.833
892.427	117.964
895.802	50.4443
899.176	124.757
902.551	36.6934
905.926	13.7676
909.301	125.513
912.676	65.6269
916.051	65.1787
919.425	47.6846
922.8	67.251
926.175	41.5098
929.55	78.7363
932.925	73.4609
936.299	44.1035
939.674	126.195
943.049	71.9688
946.424	87.8926
949.799	3.19629
953.173	92.2734
956.548	50.3584
959.923	40.8525
963.298	69.1982
966.673	61.4736
970.048	2.89844
973.422	49.3125
976.797	84.0068
980.172	128.364
983.547	138.21
986.922	28.8213
990.296	43.6357
993.671	100.394
997.046	118.598
1000.42	94.9004
1003.8	98.1182
1007.17	94.2012
1010.54	97.2617
1013.92	124.416
1017.29	70.4014
1020.67	21.9824
1024.05	81.7148
1027.42	71.7988
1030.79	111.974
1034.17	46.8174
1037.54	36.25
1040.92	44.2881
1044.29	63.2852
1047.67	12.3623
1051.04	36.084
1054.42	76.2607
1057.79	10.5127
1061.17	51.9512
1064.54	52.416
1067.92	171.773
1071.29	38.581
1074.67	115.362
1078.04	94.2461
1081.42	180.914
1084.79	181.482
1088.17	235.788
1091.54	363.576
1094.92	384.017
1098.29	407.31
1101.66	512.246
1105.04	534.412
1108.41	596.857
1111.79	578.799
1115.16	651.356
1118.54	668.662
1121.91	729.424
1125.29	728.749
1128.66	850.209
1132.04	919.011
1135.41	971.467
1138.79	919.351
1142.16	1041.39
1145.54	991.735
1148.91	1023.84
1152.29	1068.22
1155.66	1026.76
1159.04	1067.53
1162.41	889.226
1165.79	863.977
1169.16	810.935
1172.54	890.269
1175.91	753.107
1179.29	641.761
1182.66	691.429
1186.04	595.482
1189.41	496.967
1192.79	494.88
1196.16	463.219
1199.54	374.244
1202.91	285.121
1206.29	236.981
1209.66	354.758
1213.03	306.991
1216.41	236.308
1219.78	118.942
1223.16	125.932
1226.53	85.0527
1229.91	44.0869
1233.28	66.1016
1236.66	50.1006
1240.03	10.9268
1243.41	98.7978
1246.78	29.5029
1250.16	86.0186
1253.53	15.7754
1256.91	47.0303
1260.28	15.2344
1263.66	3.37109
1267.03	29.2354
1270.41	107.683
1273.78	112.439
1277.16	164.484
1280.53	191.126
1283.9	65.7578
1287.28	37.3955
1290.65	93.6221
1294.03	40.0342
1297.4	109.586
1300.78	0
