Measurement: Raman, 532 nm, unoriented, Raman Data Processed
Mineral: Thortveitite
Rruff sample: R060360
Ideal chemistry: Sc_2_Si_2_O_7_
Locality: Rossa, near Evje, southern Norway
Source: Michael Scott
Description: Gray transparent prismatic crystal
Measured chemistry: (Sc_1.44_Y_0.30_Zr_0.07_Fe^3+^_0.08_Mn_0.06_Yb_0.05_)_Σ=2_(Si_1.99_Al_0.01_)_Σ=2_O_7_
Raman shift (cm-1)	intensity
166.667	0
169.559	15.2058
172.452	22.3794
175.345	26.7432
178.237	18.6664
181.13	14.9259
184.023	19.3586
186.916	12.7013
189.808	12.4465
192.701	8.45196
195.594	8.53802
198.486	8.25952
201.379	5.60034
204.272	3.5849
207.164	5.78351
210.057	6.82043
212.95	10.5962
215.843	3.18225
218.735	0.193604
221.628	1.48318
224.521	2.1831
227.413	13.2075
230.306	0.039368
233.199	4.65973
236.091	9.23956
238.984	6.11331
241.877	13.6025
244.769	11.1515
247.662	13.0918
250.555	20.4922
253.448	19.7862
256.34	21.2768
259.233	21.6889
262.126	20.5161
265.018	23.6596
267.911	24.4988
270.804	24.4678
273.697	28.3392
276.589	28.0525
279.482	31.8331
282.375	32.0349
285.267	33.2101
288.16	31.8127
291.053	29.4285
293.945	24.5741
296.838	27.2976
299.731	22.0732
302.623	18.8067
305.516	16.3616
308.409	12.9212
311.302	8.69891
314.194	5.51282
317.087	10.4957
319.98	2.35773
322.872	1.15692
325.765	3.44312
328.658	3.55096
331.55	6.95026
334.443	8.69727
337.336	4.16968
340.229	4.37006
343.121	1.58429
346.014	0.381348
348.907	7.55335
351.799	16.9163
354.692	25.8195
357.585	41.0402
360.478	67.7136
363.37	77.4383
366.263	91.8112
369.156	108.206
372.048	125.911
374.941	147.257
377.834	163.685
380.726	177.186
383.619	191.201
386.512	207.641
389.404	213.33
392.297	219.436
395.19	221.999
398.083	233.248
400.975	244.417
403.868	266.751
406.761	297.861
409.653	328.226
412.546	359.461
415.439	395.786
418.332	441.97
421.224	478.327
424.117	517.129
427.01	547.077
429.902	581.707
432.795	610.93
435.688	639.556
438.58	649.051
441.473	633.015
444.366	610.655
447.259	567.31
450.151	515.712
453.044	441.135
455.937	358.141
458.829	278.806
461.722	202.125
464.615	124.248
467.507	61.2924
470.4	17.1505
473.293	16.1127
476.185	29.1547
479.078	15.3129
481.971	11.6984
484.864	63.2812
487.756	121.706
490.649	180.784
493.542	235.656
496.434	283.924
499.327	299.628
502.22	288.87
505.113	245.979
508.005	185.203
510.898	131.761
513.791	78.968
516.683	41.9056
519.576	16.2163
522.469	13.8948
525.361	25.4945
528.254	62.275
531.147	95.4548
534.04	144.368
536.932	194.87
539.825	259.2
542.718	315.424
545.61	375.664
548.503	437.291
551.396	502.615
554.288	591.713
557.181	676.974
560.074	764.28
562.967	850.866
565.859	900.104
568.752	907.995
571.645	842.873
574.537	720.902
577.43	563.716
580.323	396.691
583.216	254.49
586.108	139.393
589.001	55.6797
591.894	2.95544
594.786	15.9777
597.679	17.4831
600.572	5.93164
603.464	24.2447
606.357	84.2294
609.25	155.984
612.142	243.009
615.035	334.995
617.928	416.451
620.821	474.873
623.713	502.3
626.606	483.82
629.499	419.333
632.391	333.056
635.284	235.919
638.177	146.468
641.069	70.0065
643.962	18.0283
646.855	2.18872
649.747	1.9696
652.64	5.93262
655.533	26.9475
658.426	68.6505
661.318	123.742
664.211	182.02
667.104	246.681
669.996	294.405
672.889	328.203
675.782	339.677
678.674	326.015
681.567	298.6
684.46	255.637
687.353	206.572
690.245	165.952
693.138	127.955
696.031	101.141
698.923	80.6012
701.816	57.7833
704.709	40.0626
707.601	28.8583
710.494	19.1577
713.387	12.6606
716.28	9.76465
719.172	1.77954
722.065	0.54126
724.958	1.12378
727.85	6.30042
730.743	7.31885
733.636	6.50183
736.529	15.1969
739.421	11.6628
742.314	13.1185
745.207	19.8175
748.099	28.0112
750.992	32.9967
753.885	40.8076
756.777	45.1168
759.67	59.3962
762.563	63.907
765.456	65.1272
768.348	63.5848
771.241	63.6166
774.134	63.6011
777.026	62.2238
779.919	60.3197
782.812	55.8381
785.704	42.955
788.597	33.9082
791.49	30.7092
794.383	28.0487
797.275	14.5369
800.168	9.28149
803.061	0.255127
805.953	3.84314
808.846	6.99756
811.739	17.7095
814.631	16.6986
817.524	13.6594
820.417	8.93103
823.309	7.70752
826.202	5.98315
829.095	1.61169
831.988	16.9694
834.88	25.6668
837.773	39.8434
840.666	55.2605
843.558	71.7543
846.451	91.4735
849.344	105.925
852.236	122.782
855.129	138.755
858.022	155.772
860.915	169.066
863.807	185.358
866.7	193.788
869.593	205.554
872.485	227.945
875.378	248.474
878.271	269.284
881.163	299.269
884.056	325.086
886.949	357.542
889.842	405.096
892.734	442.05
895.627	483.813
898.52	521.942
901.412	559.335
904.305	583.488
907.198	605.829
910.091	620.585
912.983	634.099
915.876	637.747
918.769	642.186
921.661	623.384
924.554	593.928
927.447	559.641
930.339	510.42
933.232	447.154
936.125	386.522
939.018	329.495
941.91	275.29
944.803	222.479
947.696	175.835
950.588	133.839
953.481	99.2054
956.374	68.7886
959.266	55.6965
962.159	47.8762
965.052	43.8857
967.944	46.4391
970.837	65.4351
973.73	75.8535
976.623	92.174
979.515	105.296
982.408	103.43
985.301	99.3885
988.193	96.7391
991.086	90.2899
993.979	74.073
996.871	55.4391
999.764	47.3718
1002.66	42.1769
1005.55	30.3866
1008.44	15.4764
1011.34	6.89307
1014.23	1.41547
1017.12	7.539
1020.01	9.90814
1022.91	8.10327
1025.8	14.2892
1028.69	13.4803
1031.58	9.68713
1034.48	7.37439
1037.37	1.86005
1040.26	4.05664
1043.15	1.37201
1046.05	5.67853
1048.94	10.9993
1051.83	15.4746
1054.73	23.3218
1057.62	30.9852
1060.51	33.353
1063.4	36.8494
1066.3	42.4459
1069.19	48.4936
1072.08	56.182
1074.97	59.0362
1077.87	64.8129
1080.76	67.809
1083.65	64.1271
1086.55	63.9383
1089.44	64.1379
1092.33	62.4085
1095.22	63.1058
1098.12	58.8529
1101.01	58.2586
1103.9	54.5823
1106.79	54.0378
1109.69	52.8578
1112.58	50.1519
1115.47	45.8706
1118.37	45.5742
1121.26	41.9239
1124.15	44.8746
1127.04	39.9703
1129.94	37.2751
1132.83	34.445
1135.72	35.8088
1138.61	32.6574
1141.51	29.6006
1144.4	27.8298
1147.29	28.2701
1150.18	26.2424
1153.08	25.0056
1155.97	23.6086
1158.86	21.7495
1161.76	21.3509
1164.65	17.4342
1167.54	18.3021
1170.43	16.1274
1173.33	13.2041
1176.22	12.7277
1179.11	11.1097
1182	10.4285
1184.9	10.3829
1187.79	7.58194
1190.68	7.40714
1193.58	5.52164
1196.47	5.36761
1199.36	6.04321
1202.25	3.24524
1205.15	4.0993
1208.04	1.91779
1210.93	2.21759
1213.82	3.92514
1216.72	2.80667
1219.61	1.60556
1222.5	1.07742
1225.39	2.698
1228.29	1.64331
1231.18	1.03497
1234.07	0.672699
1236.97	0.270386
1239.86	0.792053
1242.75	0.762756
1245.64	0.034119
1248.54	2.18515
1251.43	2.6506
1254.32	0.961151
1257.21	2.23218
1260.11	0.126434
1263	2.05286
1265.89	0.999084
1268.79	1.39004
1271.68	3.53867
1274.57	2.66449
1277.46	0.80249
1280.36	1.18994
1283.25	2.10257
1286.14	0.411469
1289.03	0.334778
1291.93	3.42694
1294.82	4.34683
1297.71	0.51709
1300.61	2.1734
