Measurement: Raman, 532 nm, unoriented, Raman Data Processed
Mineral: Thortveitite
Rruff sample: R061065
Ideal chemistry: Sc_2_Si_2_O_7_
Locality: Synthetic
Source: Bob Downs
Description: Colorless fragment
Raman shift (cm-1)	intensity
83.4349	0
86.8097	16.7871
90.1846	11.8219
93.5594	42.5856
96.9342	45.583
100.309	75.144
103.684	44.1592
107.059	19.0408
110.433	5.62891
113.808	13.5091
117.183	7.97383
120.558	21.5869
123.933	55.0456
127.308	94.7273
130.682	130.304
134.057	88.3742
137.432	80.1371
140.807	102.919
144.182	115.59
147.556	114.396
150.931	87.7594
154.306	72.2966
157.681	74.435
161.056	58.2394
164.43	75.3275
167.805	55.6901
171.18	47.7523
174.555	45.7336
177.93	47.2718
181.305	80.2463
184.679	237.25
188.054	527.841
191.429	972.555
194.804	2188.98
198.179	529.895
201.553	746.832
204.928	2287.25
208.303	699.488
211.678	148.795
215.053	53.278
218.428	56.6923
221.802	24.7829
225.177	41.5645
228.552	37.4379
231.927	66.921
235.302	78.6923
238.676	186.148
242.051	337.171
245.426	1016.64
248.801	1786.87
252.176	3753.99
255.55	5153.82
258.925	560.931
262.3	224.149
265.675	188.809
269.05	183.706
272.425	223.648
275.799	334.033
279.174	577.679
282.549	538.982
285.924	183.038
289.299	97.4335
292.673	53.4463
296.048	42.8373
299.423	16.782
302.798	9.69452
306.173	5.05804
309.548	18.7442
312.922	6.44476
316.297	49.1997
319.672	62.3486
323.047	34.6596
326.422	2.06171
329.796	22.0941
333.171	112.979
336.546	383.134
339.921	1033.49
343.296	1960.69
346.671	3821.79
350.045	4892.7
353.42	1265.57
356.795	292.219
360.17	92.4468
363.545	28.8447
366.919	23.1517
370.294	41.0131
373.669	166.556
377.044	378.445
380.419	888.856
383.793	1797.85
387.168	3359.32
390.543	5741.45
393.918	8397.84
397.293	9136.84
400.668	6924.76
404.042	3839.76
407.417	2206.46
410.792	1515.3
414.167	1184.62
417.542	1220.45
420.916	1669.13
424.291	2885.74
427.666	4859.78
431.041	8055.23
434.416	11936.9
437.79	10939.8
441.165	9217.48
444.54	9306.13
447.915	7630.71
451.29	4897.54
454.664	3062.04
458.039	1861.67
461.414	1162.02
464.789	801.122
468.164	466.832
471.539	277.763
474.913	156.012
478.288	55.7562
481.663	0.481506
485.038	53.2612
488.413	70.8527
491.788	76.68
495.162	32.3748
498.537	129.977
501.912	348.422
505.287	785.129
508.662	1725.39
512.036	1896.67
515.411	515.34
518.786	201.696
522.161	131.653
525.536	159.454
528.91	253.027
532.285	476.918
535.66	837.167
539.035	1455.42
542.41	2406.76
545.784	2350.11
549.159	1182.7
552.534	544.414
555.909	257.708
559.284	148.818
562.659	105.236
566.033	60.4411
569.408	70.5772
572.783	36.3466
576.158	44.2253
579.533	55.9025
582.908	60.5727
586.282	2.37958
589.657	18.7513
593.032	7.22436
596.407	7.62738
599.782	7.84418
603.156	4.63904
606.531	6.64343
609.906	1.82666
613.281	16.5268
616.656	18.5689
620.03	29.5609
623.405	45.954
626.78	49.1699
630.155	85.3547
633.53	96.9617
636.904	94.0519
640.279	33.3997
643.654	16.4023
647.029	17.0605
650.404	1.48761
653.779	11.8648
657.153	4.36847
660.528	20.6927
663.903	51.1755
667.278	45.5238
670.653	112.337
674.028	151.18
677.402	298.221
680.777	452.457
684.152	593.576
687.527	740.591
690.902	782.599
694.276	564.636
697.651	407.651
701.026	268.076
704.401	169.113
707.776	134.265
711.15	40.1114
714.525	43.9367
717.9	37.0921
721.275	45.0288
724.65	26.1943
728.024	6.79575
731.399	19.9444
734.774	15.4967
738.149	30.0158
741.524	17.707
744.899	21.6755
748.273	33.7342
751.648	34.9399
755.023	31.7491
758.398	36.4575
761.773	26.0511
765.148	29.6694
768.522	27.54
771.897	12.9094
775.272	21.6106
778.647	23.5936
782.021	18.0633
785.396	14.0727
788.771	37.3369
792.146	10.609
795.521	20.668
798.896	33.5639
802.27	34.2634
805.645	47.2939
809.02	33.0343
812.395	26.316
815.77	17.2489
819.144	49.6957
822.519	39.3313
825.894	40.7205
829.269	40.9956
832.644	17.4374
836.019	23.428
839.393	17.3878
842.768	0.13031
846.143	6.995
849.518	16.2086
852.893	2.38904
856.268	8.78009
859.642	0.101074
863.017	1.15637
866.392	5.79138
869.767	14.0903
873.141	15.4938
876.516	10.8662
879.891	0.37738
883.266	0.283691
886.641	14.2432
890.016	39.4159
893.39	71.072
896.765	102.267
900.14	102.247
903.515	189.585
906.89	273.416
910.264	382.869
913.639	629.493
917.014	1066.41
920.389	2073.45
923.764	4049.58
927.139	7675.7
930.513	14893
933.888	15687.6
937.263	6206.33
940.638	4522.62
944.013	5159.74
947.388	6484.48
950.762	6383.24
954.137	3994.98
957.512	2129.14
960.887	1151.3
964.261	655.519
967.636	434.893
971.011	267.326
974.386	210.831
977.761	144.561
981.136	125.062
984.51	93.8221
987.885	79.0925
991.26	69.6469
994.635	38.0879
998.01	45.699
1001.38	18.2925
1004.76	17.2646
1008.13	4.01776
1011.51	2.02393
1014.88	6.49237
1018.26	5.48261
1021.63	2.06989
1025.01	10.7056
1028.38	15.3721
1031.76	4.38312
1035.13	3.81964
1038.51	4.72485
1041.88	24.7214
1045.26	22.2719
1048.63	22.5909
1052.01	22.3994
1055.38	29.3702
1058.76	30.3021
1062.13	36.3079
1065.51	44.5173
1068.88	7.9541
1072.26	46.2194
1075.63	56.7023
1079.01	51.3511
1082.38	47.9178
1085.76	46.9068
1089.13	44.6217
1092.5	67.5523
1095.88	57.8927
1099.25	55.1558
1102.63	41.8616
1106	35.9543
1109.38	37.6136
1112.75	31.9565
1116.13	27.0389
1119.5	17.1814
1122.88	22.5922
1126.25	16.7317
1129.63	16.736
1133	4.44177
1136.38	3.49405
1139.75	11.1207
1143.13	11.5125
1146.5	2.87201
1149.88	14.0835
1153.25	3.54745
1156.63	6.23584
1160	33.6376
1163.38	36.5944
1166.75	42.9069
1170.12	49.7905
1173.5	24.3829
1176.88	42.3636
1180.25	33.5942
1183.62	38.2935
1187	53.3413
1190.37	39.7499
1193.75	38.9609
1197.12	31.0443
1200.5	25.966
1203.87	25.1173
1207.25	41.2495
1210.62	15.2783
1214	30.2365
1217.37	27.8433
1220.75	9.76886
1224.12	6.64059
1227.5	8.35489
1230.87	9.18765
1234.25	9.50397
1237.62	17.6066
1241	21.4852
1244.37	6.58926
1247.75	28.8504
1251.12	25.9971
1254.49	18.082
1257.87	9.04483
1261.24	28.5095
1264.62	41.3992
1267.99	18.3242
1271.37	12.5355
1274.74	16.9301
1278.12	4.47318
1281.49	0.999603
1284.87	24.0662
1288.24	17.5096
1291.62	19.6703
1294.99	12.2082
