Measurement: Raman, 785 nm, unoriented, Raman Data Processed
Mineral: Thorianite
Rruff sample: R060849
Ideal chemistry: ThO_2_
Locality: Belafeno, Malagasy Republic
Source: Michael Scott
Description: Dark brown rough cube
Raman shift (cm-1)	intensity
171.45	0
174.343	12.8384
177.236	0.025391
180.128	9.74512
183.021	35.7109
185.914	106.463
188.806	147.906
191.699	148.318
194.592	142.129
197.484	197.115
200.377	252.005
203.27	340.713
206.163	312.409
209.055	307.319
211.948	245.134
214.841	244.327
217.733	327.339
220.626	338.648
223.519	304.023
226.411	276.136
229.304	298.75
232.197	294.172
235.089	256.217
237.982	285.687
240.875	234.356
243.768	261.66
246.66	255.41
249.553	220.789
252.446	162.912
255.338	192.132
258.231	197.343
261.124	130.976
264.017	208.817
266.909	162.275
269.802	176.545
272.695	106.608
275.587	146.72
278.48	143.866
281.373	141.518
284.265	137.106
287.158	209.835
290.051	178.888
292.943	235.193
295.836	133.949
298.729	174.018
301.622	85.8569
304.514	191.673
307.407	96.7241
310.3	69.6279
313.192	119.674
316.085	86.7266
318.978	64.4238
321.87	93.0073
324.763	104.931
327.656	48.8589
330.549	41.2427
333.441	45.9312
336.334	3.97217
339.227	72.2602
342.119	17.5293
345.012	46.5327
347.905	25.29
350.798	3.32959
353.69	28.7515
356.583	28.5093
359.476	28.4756
362.368	1.21777
365.261	3.64258
368.154	11.3076
371.046	21.292
373.939	77.0019
376.832	77.4106
379.724	65.333
382.617	102.962
385.51	84.2075
388.403	155.66
391.295	121.408
394.188	187
397.081	177.555
399.973	258.972
402.866	267.394
405.759	314.06
408.651	370.084
411.544	463.585
414.437	494.908
417.33	611.913
420.222	751.318
423.115	826.569
426.008	1003.58
428.9	1252.81
431.793	1434.07
434.686	1676.39
437.579	2057.82
440.471	2419.07
443.364	2788.78
446.257	3298.39
449.149	3848.51
452.042	4381.72
454.935	4942.1
457.827	5392.84
460.72	5590.04
463.613	5569.97
466.505	5247.49
469.398	4682.73
472.291	4152.45
475.184	3516.19
478.076	2888.55
480.969	2345.2
483.862	1910.62
486.754	1581.26
489.647	1253.73
492.54	1035.71
495.433	783.742
498.325	696.4
501.218	423.75
504.111	311.766
507.003	183.209
509.896	169.028
512.789	103.691
515.681	34.0649
518.574	29.7734
521.467	29.5801
524.36	25.1523
527.252	5.95117
530.145	75.7915
533.038	39.5029
535.93	36.8066
538.823	31.5449
541.716	24.3364
544.608	10.501
547.501	18.2427
550.394	34.7505
553.286	50.0464
556.179	40.3374
559.072	166.661
561.965	180.035
564.857	222.881
567.75	177.139
570.643	251.898
573.535	221.523
576.428	234.333
579.321	223.856
582.213	310.972
585.106	243.84
587.999	209.936
590.891	196.254
593.784	182.826
596.677	244.782
599.57	254.765
602.462	298.491
605.355	433.476
608.248	589.606
611.14	821.855
614.033	995.366
616.926	1219.15
619.818	1485.08
622.711	1777.78
625.604	2019.17
628.497	2163.19
631.389	2299.53
634.282	2310.26
637.175	2393.2
640.067	2267.04
642.96	2222.22
645.853	2106.24
648.745	2012.16
651.638	1863.86
654.531	1663.36
657.424	1539.63
660.316	1344.62
663.209	1303.75
666.102	1040.71
668.994	965.665
671.887	828.743
674.78	737.932
677.673	629.248
680.565	461.314
683.458	444.946
686.351	353.724
689.243	295.918
692.136	271.058
695.029	256.401
697.921	126.587
700.814	159.401
703.707	85.8052
706.6	64.6289
709.492	109.07
712.385	38.2676
715.278	88.9707
718.17	87.167
721.063	8.43652
723.956	49.6152
726.848	14.6968
729.741	5.33447
732.634	41.8735
735.527	52.3594
738.419	41.6001
741.312	35.169
744.205	10.6587
747.097	17.8438
749.99	17.7207
752.883	21.0435
755.775	11.2119
758.668	14.6065
761.561	29.062
764.453	41.4658
767.346	54.1274
770.239	61.9546
773.132	19.3145
776.024	31.332
778.917	64.0654
781.81	93.564
784.702	98.0947
787.595	126.111
790.488	86.9692
793.38	101.249
796.273	117.872
799.166	132.91
802.059	74.8315
804.951	114.997
807.844	125.903
810.737	121.991
813.629	48.3291
816.522	96.166
819.415	96.437
822.308	73.1313
825.2	137.574
828.093	57.2192
830.986	53.6338
833.878	58.0967
836.771	76.2153
839.664	98.6758
842.556	75.8906
845.449	96.6421
848.342	11.206
851.235	89.8662
854.127	48.5737
857.02	42.7466
859.913	28.3511
862.805	63.9185
865.698	111.57
868.591	82.3306
871.483	140.006
874.376	76.4653
877.269	34.2022
880.162	36.2563
883.054	61.2988
885.947	36.9019
888.84	30.6787
891.732	93.1289
894.625	5.28516
897.518	54.77
900.41	76.0933
903.303	22.3618
906.196	72.2136
909.088	19.5112
911.981	49.0559
914.874	74.9485
917.767	110.632
920.659	39.866
923.552	56.7363
926.445	98.5806
929.337	55.0288
932.23	72.4141
935.123	47.2507
938.015	88.9409
940.908	40.6196
943.801	63.6362
946.693	69.7256
949.586	25.648
952.479	11.6035
955.372	62.1382
958.264	30.8938
961.157	6.88867
964.05	61.7234
966.942	42.5244
969.835	7.0813
972.728	8.08057
975.62	8.94409
978.513	29.363
981.406	20.1416
984.299	43.0862
987.191	30.7144
990.084	31.792
992.977	36.8218
995.869	18.4385
998.762	43.1475
1001.65	22.9705
1004.55	52.04
1007.44	26.7825
1010.33	63.1262
1013.23	58.8301
1016.12	53.9849
1019.01	87.9248
1021.9	84.9282
1024.8	72.8533
1027.69	44.5405
1030.58	62.9065
1033.47	71.7573
1036.37	25.6548
1039.26	62.4414
1042.15	83.0625
1045.05	52.4338
1047.94	52.187
1050.83	57.7444
1053.72	19.9128
1056.62	78.6775
1059.51	44.2236
1062.4	21.8955
1065.29	55.7109
1068.19	29.1987
1071.08	5.02197
1073.97	51.2022
1076.87	17.0889
1079.76	8.92505
1082.65	53.1594
1085.54	44.572
1088.44	24.7471
1091.33	5.55664
1094.22	6.09863
1097.11	13.8574
1100.01	36.2703
1102.9	3.71069
1105.79	3.74316
1108.68	36.9902
1111.58	23.2561
1114.47	7.68555
1117.36	23.0259
1120.26	26.1421
1123.15	39.354
1126.04	32.9988
1128.93	15.9651
1131.83	50.9907
1134.72	26.792
1137.61	13.4404
1140.5	0.466309
1143.4	17.5706
1146.29	48.7698
1149.18	44.9099
1152.08	21.9368
1154.97	32.6597
1157.86	20.3315
1160.75	35.5059
1163.65	8.55591
1166.54	79.6355
1169.43	58.0027
1172.32	80.0657
1175.22	95.137
1178.11	119.528
1181	126.013
1183.89	94.3989
1186.79	165.546
1189.68	112.952
1192.57	157.725
1195.47	183.287
1198.36	164.983
1201.25	95.3127
1204.14	82.8379
1207.04	81.9414
1209.93	69.8765
1212.82	35.3984
1215.71	11.9431
1218.61	4.12915
1221.5	35.6035
