Measurement: Raman, 532 nm, unoriented, Raman Data Processed
Mineral: Thorianite
Rruff sample: R130003
Ideal chemistry: ThO_2_
Locality: Millar's mine, Tory Hill, Monmouth Township, Haliburton County, Ontario, Canada
Source: Don Doell
Description: Broken black cubes REDO RAMAN
Raman shift (cm-1)	intensity
116.3	0
119.674	0.215088
123.049	14.6256
126.424	5.20706
129.799	14.2721
133.174	7.69627
136.548	10.9334
139.923	21.3935
143.298	9.6615
146.673	13.4937
150.048	15.3938
153.423	16.0216
156.797	14.4272
160.172	9.70146
163.547	10.2823
166.922	4.08377
170.297	4.72833
173.672	0.278275
177.046	0.058365
180.421	2.1555
183.796	0.362976
187.171	2.05017
190.546	2.54392
193.92	3.70772
197.295	6.08691
200.67	7.03244
204.045	6.50224
207.42	8.58351
210.794	10.754
214.169	11.4543
217.544	12.1305
220.919	14.256
224.294	13.5649
227.669	13.6873
231.043	12.5781
234.418	12.1534
237.793	13.8274
241.168	12.7023
244.543	12.3142
247.917	10.6686
251.292	9.87036
254.667	10.0877
258.042	11.5786
261.417	9.97817
264.792	12.007
268.166	12.0492
271.541	11.4193
274.916	10.4981
278.291	11.2177
281.666	9.29863
285.041	10.7191
288.415	8.97223
291.79	9.40443
295.165	10.1402
298.54	8.39215
301.915	7.4904
305.289	7.7186
308.664	7.46062
312.039	5.22409
315.414	6.84558
318.789	5.11952
322.163	5.32339
325.538	3.55296
328.913	4.54045
332.288	2.834
335.663	1.37425
339.038	2.19946
342.412	0.475769
345.787	0.181534
349.162	1.04646
352.537	0.601227
355.912	0.395065
359.286	1.30776
362.661	0.994507
366.036	0.126907
369.411	1.06679
372.786	0.671799
376.161	0.219208
379.535	2.19824
382.91	0.34613
386.285	1.6622
389.66	1.89552
393.035	2.79286
396.409	6.14026
399.784	9.27693
403.159	11.386
406.534	15.0771
409.909	18.031
413.284	22.2639
416.658	28.3196
420.033	35.7806
423.408	41.0293
426.783	48.2337
430.158	56.5781
433.532	65.074
436.907	72.7412
440.282	82.2333
443.657	91.4229
447.032	99.0223
450.406	102.981
453.781	108.985
457.156	112.49
460.531	110.188
463.906	110.17
467.281	108.407
470.655	102.228
474.03	95.7575
477.405	87.2938
480.78	81.3879
484.155	79.3991
487.529	73.4712
490.904	68.9201
494.279	67.7587
497.654	64.4564
501.029	58.9587
504.404	53.5059
507.778	47.6807
511.153	42.1069
514.528	36.5554
517.903	30.2211
521.278	22.8152
524.653	17.8676
528.027	12.9367
531.402	9.2352
534.777	3.84912
538.152	0.468979
541.527	1.28955
544.901	4.35614
548.276	4.4355
551.651	4.37521
555.026	2.77744
558.401	1.04678
561.775	0.587082
565.15	2.69698
568.525	6.36462
571.9	10.3247
575.275	14.5141
578.649	18.1387
582.024	21.5495
585.399	28.5961
588.774	31.5271
592.149	36.6464
595.524	43.323
598.898	47.7269
602.273	56.1338
605.648	61.2275
609.023	73.5073
612.398	83.4924
615.773	97.9796
619.147	110.168
622.522	125.208
625.897	137.341
629.272	146.85
632.647	152.752
636.021	154.664
639.396	155.121
642.771	151.327
646.146	147.022
649.521	142.629
652.895	134.087
656.27	124.448
659.645	117.532
663.02	111.125
666.395	99.8946
669.77	92.2494
673.144	82.9035
676.519	70.2858
679.894	61.9515
683.269	51.3743
686.644	44.2202
690.019	36.2022
693.393	29.5145
696.768	25.4879
700.143	18.5898
703.518	15.1246
706.893	13.2371
710.267	8.48021
713.642	5.70366
717.017	5.62795
720.392	2.72351
723.767	0.650787
727.141	0.444366
730.516	1.04321
733.891	1.84518
737.266	1.53009
740.641	0.999252
744.016	1.60683
747.39	1.48076
750.765	1.12433
754.14	1.54567
757.515	0.671036
760.89	0.371597
764.264	1.48006
767.639	3.14558
771.014	2.46905
774.389	4.21256
777.764	4.46371
781.139	5.01735
784.513	7.51071
787.888	7.27351
791.263	7.88969
794.638	7.88861
798.013	10.9139
801.388	10.0773
804.762	9.47502
808.137	10.5822
811.512	10.3381
814.887	11.2413
818.261	9.89589
821.636	10.2165
825.011	11.4409
828.386	10.7861
831.761	10.0264
835.136	11.9276
838.51	11.1267
841.885	11.8516
845.26	12.0965
848.635	11.6488
852.01	12.7907
855.385	11.5393
858.759	13.3672
862.134	12.1901
865.509	10.3095
868.884	11.1814
872.259	9.23341
875.633	8.19679
879.008	8.79029
882.383	6.58659
885.758	6.0628
889.133	5.6724
892.508	5.63793
895.882	3.6182
899.257	4.51741
902.632	3.63596
906.007	1.69487
909.382	3.47128
912.756	2.4779
916.131	0.072388
919.506	1.13606
922.881	0.553925
926.256	0.269623
929.63	0.775444
933.005	0.600662
936.38	0.934883
939.755	1.01794
943.13	0.252579
946.505	0.08342
949.879	0.272484
953.254	0.008797
956.629	0.426773
960.004	0.663467
963.379	0.241737
966.754	0.181435
970.128	0.166298
973.503	0.738174
976.878	0.270554
980.253	0.7388
983.628	0.514275
987.002	1.32629
990.377	1.20873
993.752	0.439529
997.127	0.944717
1000.5	1.16432
1003.88	1.21578
1007.25	0.421791
1010.63	1.12879
1014	0.215874
1017.38	1.61778
1020.75	1.326
1024.12	1.72611
1027.5	0.953545
1030.88	2.33837
1034.25	2.17271
1037.62	2.31428
1041	3.36254
1044.37	3.37763
1047.75	1.48389
1051.12	3.05825
1054.5	2.07535
1057.87	0.864487
1061.25	0.934425
1064.62	1.07338
1068	1.61767
1071.37	0.499725
1074.75	2.00412
1078.12	0.026756
1081.5	2.67017
1084.87	1.13416
1088.25	0.582237
1091.62	1.59125
1095	0.757027
1098.37	0.151619
1101.75	0.39994
1105.12	0.086586
1108.5	0.741959
1111.87	0.998161
1115.24	0.353668
1118.62	0.049187
1121.99	1.39898
1125.37	1.86509
1128.74	1.30141
1132.12	1.17661
1135.49	1.15082
1138.87	0.826439
1142.24	2.08632
1145.62	0.577347
1148.99	0.397949
1152.37	2.07927
1155.74	0.052948
1159.12	1.50719
1162.49	1.73247
1165.87	0.078079
1169.24	0.749245
1172.62	0.354462
1175.99	0.685654
1179.37	0.790504
1182.74	0.897652
1186.12	1.13084
1189.49	1.07243
1192.87	1.50103
1196.24	0.866379
1199.62	1.73941
1202.99	0.655708
1206.37	1.57851
1209.74	0.418869
1213.12	1.13319
1216.49	0.899979
1219.87	1.59668
1223.24	0.222778
1226.61	2.01886
1229.99	2.10805
1233.36	1.77991
1236.74	2.43987
1240.11	1.96375
1243.49	1.68481
1246.86	1.81056
1250.24	1.35726
1253.61	1.75238
1256.99	1.66259
1260.36	1.30135
1263.74	0.809753
1267.11	0.799973
1270.49	0.724785
1273.86	1.13424
1277.24	0.449745
1280.61	0.220612
1283.99	0.315308
1287.36	0.57795
1290.74	0.757629
1294.11	0.682808
1297.49	1.00574
1300.86	0.150452
