Measurement: Raman, 514 nm, unoriented, Raman Data Processed
Mineral: Thorite
Rruff sample: X050163
Ideal chemistry: ThSiO_4_
Locality: synthetic, grown by Boatner
Source: Caltech
Raman shift (cm-1)	intensity
150.558	0
155.597	0.967
160.635	7.52
165.673	35.069
170.712	68.48
175.75	128.761
180.789	319.181
185.827	847.526
190.865	1207.6
195.904	1192.82
200.942	515.624
205.981	184.643
211.019	160.428
216.058	118.711
221.096	103.213
226.134	76.634
231.173	44.846
236.211	17.115
241.25	0.949
246.288	4.909
251.327	33.744
256.365	5.495
261.403	187.126
266.442	382.862
271.48	652.766
276.519	1588.67
281.557	5139.33
286.595	12698.8
291.634	18478.1
296.672	17204.4
301.711	7303.52
306.749	1900.82
311.787	906.625
316.826	453.839
321.864	239.558
326.903	84.507
331.941	56.943
336.979	45.731
342.018	24.587
347.056	20.208
352.095	24.363
357.133	6.311
362.172	32.905
367.21	23.628
372.248	38.089
377.287	10.432
382.325	15.834
387.364	10.663
392.402	34.855
397.44	189.359
402.479	226.395
407.517	370.021
412.556	547.897
417.594	1094.58
422.633	2020.24
427.671	4797.21
432.709	9927.85
437.748	12943.8
442.786	11156.6
447.825	4574.63
452.863	1327.96
457.901	622.355
462.94	322.467
467.978	148.547
473.017	108.91
478.055	12.233
483.094	38.609
488.132	7.503
493.17	38.178
498.209	113.348
503.247	103.907
508.286	124.032
513.324	112.307
518.362	164.985
523.401	113.849
528.439	33.859
533.478	3.307
538.516	38.094
543.555	81.372
548.593	34.172
553.631	6.007
558.67	1.913
563.708	70.468
568.747	120.279
573.785	166.405
578.823	193.613
583.862	411.512
588.9	1130.89
593.939	1679.06
598.977	1578.66
604.015	593.584
609.054	104.133
614.092	142.049
619.131	80.64
624.169	61.291
629.208	4.337
634.246	22.2
639.284	40.579
644.323	49.82
649.361	18.791
654.4	2.577
659.438	27.849
664.476	75.092
669.515	18.439
674.553	7.346
679.592	42.195
684.63	23.093
689.669	8.433
694.707	30.493
699.745	31.012
704.784	18.397
709.822	37.471
714.86	52.576
719.899	26.9
724.937	38.148
729.976	39.779
735.014	26.408
740.053	18.949
745.091	43.969
750.13	15.535
755.168	36.421
760.206	22.82
765.245	123.306
770.283	67.063
775.321	41.222
780.36	3.649
785.398	52.184
790.437	117.941
795.475	83.056
800.514	74.061
805.552	64.569
810.59	113.39
815.629	37.127
820.667	62.656
825.706	31.463
830.744	67.397
835.782	0.54
840.821	46.637
845.859	372.094
850.898	962.595
855.936	1315.05
860.975	513.4
866.013	0.955
871.051	13.584
876.09	107.32
881.128	1298.24
886.167	7465.62
891.205	12811.2
896.244	13330
901.282	5329.66
906.32	3705.61
911.359	15015.2
916.397	24702.9
921.436	26109
926.474	8636.94
931.512	943.256
936.551	205.194
941.589	78.854
946.628	84.312
951.666	38.717
956.704	49.265
961.743	47.868
966.781	250.758
971.82	203.199
976.858	95.439
981.896	37.837
986.935	196.716
991.973	271.751
997.012	88.786
1002.05	22.188
1007.09	18.554
1012.13	35.277
1017.16	137.078
1022.2	160.732
1027.24	211.927
1032.28	489.781
1037.32	746.844
1042.36	1003.71
1047.4	1053.9
1052.43	981.038
1057.47	572.966
1062.51	202.751
1067.55	160.166
1072.59	127.507
1077.63	95.786
1082.66	64.112
1087.7	92.192
1092.74	398.929
1097.78	651.902
1102.82	690.866
1107.86	334.253
1112.89	20.371
1117.93	4.023
1122.97	133.801
1128.01	505.92
1133.05	729.724
1138.09	720.955
1143.13	566.964
1148.16	512.865
1153.2	520.402
1158.24	607.836
1163.28	682.689
1168.32	744.868
1173.36	744.774
1178.39	490.638
1183.43	221.307
1188.47	2.815
1193.51	37.421
1198.55	5.649
1203.59	40.959
1208.62	209.315
1213.66	409.289
1218.7	505.319
1223.74	671.921
1228.78	807.878
1233.82	1009.86
1238.86	1147.94
1243.89	874.768
1248.93	544.339
1253.97	256.028
1259.01	17.343
1264.05	43.909
1269.09	0.091
1274.12	67.025
1279.16	99.876
1284.2	199.816
1289.24	306.745
1294.28	374.106
1299.32	414.846
1304.36	322.152
1309.39	110.074
1314.43	8.128
1319.47	3.118
1324.51	103.462
1329.55	216.391
1334.59	247.045
1339.62	325.22
1344.66	395.163
1349.7	344.507
1354.74	329.021
1359.78	191.78
1364.82	148.105
1369.85	166.788
1374.89	54.545
1379.93	70.672
1384.97	44.358
1390.01	85.935
1395.05	40.357
1400.09	83.208
1405.12	55.577
1410.16	48.401
1415.2	65.175
1420.24	73.973
1425.28	51.343
1430.32	66.491
1435.35	111.282
1440.39	43.653
1445.43	59.36
1450.47	69.342
1455.51	50.072
1460.55	98.96
1465.58	14.866
1470.62	6.108
1475.66	122.011
1480.7	53.49
1485.74	98.635
1490.78	66.78
1495.82	0.774
1500.85	0
