Measurement: Raman, 785 nm, unoriented, Raman Data Processed
Mineral: Tilasite
Rruff sample: R060618
Ideal chemistry: CaMgAs^5+^O_4_F
Locality: Cervandone, Italy
Source: Michael Scott
Description: Pinkish-gray spearhead shaped crystals associated with albite and hexagonal tablets of clinochlore
Measured chemistry: Ca_1.00_(Mg_0.99_Fe_0.01_)_Σ=1_((As_0.99_P_0.01_)_Σ=1_O_4_)F_1.00_
Raman shift (cm-1)	intensity
167.43	0
169.841	10.3069
172.252	61.9495
174.662	7.58008
177.073	8.84546
179.483	25.4858
181.894	24.0452
184.304	64.9204
186.715	95.7478
189.126	40.1592
191.536	104.557
193.947	37.5156
196.357	103.029
198.768	145.113
201.179	130.49
203.589	95.4299
206	90.946
208.41	85.8396
210.821	57.8105
213.232	33.198
215.642	73.2439
218.053	27.5125
220.463	10.53
222.874	33.8262
225.284	16.5068
227.695	33.0115
230.106	69.1841
232.516	13.1516
234.927	0.155273
237.337	81.4497
239.748	143.963
242.159	94.5051
244.569	152.713
246.98	217.856
249.39	299.833
251.801	603.837
254.211	1096.72
256.622	1804.25
259.033	2588.52
261.443	2543.96
263.854	1574.53
266.264	782.681
268.675	407.084
271.086	236.695
273.496	156.661
275.907	107.207
278.317	218.42
280.728	180.783
283.138	210.74
285.549	253.16
287.96	245.61
290.37	272.02
292.781	279.825
295.191	266.53
297.602	238.674
300.012	188.004
302.423	205.516
304.834	143.765
307.244	166.879
309.655	199.973
312.065	281.5
314.476	363.369
316.887	646.258
319.297	998.898
321.708	1693.9
324.118	2835.4
326.529	4169.28
328.94	5397.76
331.35	5154.6
333.761	3313.08
336.171	1636.57
338.582	777.168
340.992	432.97
343.403	232.161
345.813	118.753
348.224	190.211
350.635	380.05
353.045	682.793
355.456	1359.54
357.866	2302.63
360.277	3433.66
362.688	4525.96
365.098	4493.26
367.509	3272.84
369.919	1958.16
372.33	1071.72
374.74	700.183
377.151	422.208
379.562	354.207
381.972	460.175
384.383	656.442
386.793	981.183
389.204	1312.04
391.615	1518.49
394.025	1211.42
396.436	826.408
398.846	442.674
401.257	200.406
403.668	115.939
406.078	29.2952
408.489	46.1121
410.899	60.8347
413.31	38.6208
415.72	65.915
418.131	13.9736
420.542	11.2026
422.952	7.73315
425.363	69.2769
427.773	91.7417
430.184	181.439
432.594	228.826
435.005	326.285
437.416	358.834
439.826	364.931
442.237	324.935
444.647	302.365
447.058	343.082
449.469	410.365
451.879	478.214
454.29	585.841
456.7	833.399
459.111	1237.99
461.522	1802.52
463.932	2505.84
466.343	2800.61
468.753	2326.1
471.164	1411.96
473.574	810.847
475.985	528.63
478.396	377.118
480.806	298.419
483.217	208.245
485.627	191.011
488.038	156.56
490.449	150.704
492.859	142.711
495.27	195.561
497.68	199.52
500.091	243.376
502.501	158.819
504.912	70.2512
507.323	31.9509
509.733	9.51685
512.144	19.8811
514.554	1.15723
516.965	2.05493
519.375	25.5608
521.786	20.8201
524.197	9.9895
526.607	24.6035
529.018	0.612305
531.428	23.7983
533.839	0.538086
536.25	116.268
538.66	96.9719
541.071	96.5869
543.481	126.215
545.892	128.16
548.303	85.7522
550.713	101.507
553.124	157.261
555.534	124.831
557.945	94.4844
560.355	171.985
562.766	87.5757
565.177	83.2437
567.587	115.618
569.998	145.755
572.408	104.198
574.819	102.531
577.23	81.1462
579.64	54.3027
582.051	58.0127
584.461	40.9541
586.872	37.8765
589.282	45.8188
591.693	34.7798
594.104	7.36011
596.514	8.40771
598.925	12.5029
601.335	36.7935
603.746	5.95679
606.156	1.8855
608.567	0.978027
610.978	33.2966
613.388	7.32324
615.799	51.4768
618.209	7.33643
620.62	46.0154
623.03	28.8645
625.441	59.3826
627.852	64.7104
630.262	61.0002
632.673	71.5169
635.083	98.3904
637.494	85.4285
639.905	66.8086
642.315	94.697
644.726	109.883
647.136	84.8826
649.547	131.799
651.957	137.587
654.368	126.409
656.779	134.744
659.189	148.316
661.6	153.016
664.01	129.038
666.421	110.653
668.832	133.113
671.242	121.07
673.653	107.741
676.063	78.1809
678.474	102.981
680.885	86.3523
683.295	73.4578
685.706	61.2473
688.116	54.0667
690.527	65.4238
692.937	107.89
695.348	80.7493
697.759	104.526
700.169	80.2544
702.58	67.9458
704.99	104.674
707.401	62.5405
709.812	101.071
712.222	83.792
714.633	48.3152
717.043	48.2129
719.454	80.1103
721.864	55.543
724.275	52.7717
726.686	57.885
729.096	38.6887
731.507	42.5132
733.917	24.6113
736.328	40.5603
738.739	2.78589
741.149	35.9324
743.56	91.6231
745.97	7.35376
748.381	23.1148
750.791	6.75
753.202	7.56226
755.612	22.0989
758.023	27.291
760.434	14.9424
762.844	21.9292
765.255	1.0647
767.665	5.16504
770.076	32.2891
772.487	65.4522
774.897	53.8023
777.308	125.214
779.718	131.246
782.129	156.275
784.54	153.075
786.95	194.681
789.361	171.395
791.771	158.744
794.182	215.212
796.592	231.369
799.003	197.537
801.414	234.854
803.824	242.919
806.235	358.098
808.645	476.994
811.056	650.96
813.467	864.999
815.877	1167.52
818.288	1630.55
820.698	2227.34
823.109	3001.97
825.519	4311.38
827.93	5991.84
830.341	7460.05
832.751	6811.89
835.162	4940.28
837.572	3868.53
839.983	4091.47
842.394	5848.28
844.804	9414.04
847.215	15503
849.625	22933.9
852.036	21590.2
854.447	11584.9
856.857	5564.02
859.268	3174.26
861.678	2027.5
864.089	1373.19
866.499	1039.13
868.91	915.795
871.321	951.75
873.731	1126.98
876.142	1210.94
878.552	733.315
880.963	343.533
883.373	170.407
885.784	79.084
888.195	42.346
890.605	18.7998
893.016	25.4959
895.426	4.55957
897.837	15.5418
900.247	23.3794
902.658	4.4519
905.069	15.0662
907.479	48.3838
909.89	4.60767
912.3	29.4002
914.711	48.4624
917.122	85.2263
919.532	99.7871
921.943	147.317
924.353	180.857
926.764	196.914
929.174	247.553
931.585	256.488
933.996	247.145
936.406	306.861
938.817	267.019
941.227	331.332
943.638	322.837
946.049	331.914
948.459	302.16
950.87	298.091
953.28	302.761
955.691	301.055
958.101	247.387
960.512	274.523
962.923	288.441
965.333	254.036
967.744	230.316
970.154	198.087
972.565	191.532
974.976	198.843
977.386	184.162
979.797	148.203
982.207	160.234
984.618	125.747
987.029	120.072
989.439	89.3689
991.85	73.1577
994.26	53.7178
996.671	53.2878
999.081	41.5576
1001.49	33.4944
1003.9	20.6211
1006.31	24.7156
1008.72	9.12012
1011.13	21.323
1013.54	31.8814
1015.96	62.8774
1018.37	65.9148
1020.78	64.4399
1023.19	120.008
1025.6	134.152
1028.01	176.935
1030.42	250.11
1032.83	249.014
1035.24	236.594
1037.65	248.689
1040.06	297.706
1042.47	243.377
1044.88	170.429
1047.29	219.287
1049.7	134.235
1052.11	158.045
1054.53	87.1956
1056.93	76.4199
1059.35	44.6819
1061.76	1.10571
