Measurement: Raman, 532 nm, unoriented, Raman Data Processed
Mineral: Tilasite
Rruff sample: R050246
Ideal chemistry: CaMgAs^5+^O_4_F
Locality: Langban, Filipstad, Varmland, Sweden
Source: Marcus Origlieri
Description: Reddish-brown granular
Measured chemistry: Ca_1.02_Mg_0.98_(As_1.00_O_4_)F_1.00_
Raman shift (cm-1)	intensity
184.339	0
187.231	7.27182
190.124	3.87904
193.017	14.2743
195.909	8.6015
198.802	5.69946
201.695	0.718811
204.588	1.04031
207.48	1.52632
210.373	4.8582
213.266	12.346
216.158	15.9565
219.051	25.7411
221.944	39.5016
224.836	62.3091
227.729	96.7857
230.622	142.142
233.514	205.06
236.407	302.337
239.3	379.976
242.193	349
245.085	241.62
247.978	161.09
250.871	127.546
253.763	121.483
256.656	140.469
259.549	159.601
262.442	139.017
265.334	94.5356
268.227	65.3787
271.12	48.1471
274.012	34.1671
276.905	26.906
279.798	27.1324
282.69	19.1988
285.583	11.794
288.476	9.23231
291.368	2.03615
294.261	2.28821
297.154	1.24229
300.047	2.97339
302.939	5.59508
305.832	2.80032
308.725	0.168396
311.617	8.77136
314.51	20.3378
317.403	42.1813
320.296	68.4835
323.188	112.5
326.081	186.999
328.974	271.2
331.866	250.65
334.759	127.709
337.652	64.2119
340.544	35.3565
343.437	21.7133
346.33	18.1976
349.223	20.751
352.115	25.3852
355.008	37.0368
357.901	53.5375
360.793	77.0124
363.686	91.6401
366.579	67.2909
369.471	45.8709
372.364	48.4614
375.257	83.6061
378.149	150.814
381.042	225.009
383.935	339.198
386.828	505.053
389.72	663.46
392.613	646.957
395.506	423.632
398.398	230.394
401.291	122.582
404.184	63.7943
407.077	35.5051
409.969	16.3742
412.862	4.47992
415.755	4.32137
418.647	8.66
421.54	5.79767
424.433	5.32051
427.325	22.3506
430.218	59.7076
433.111	113.694
436.003	156.964
438.896	128.725
441.789	59.2877
444.682	28.8303
447.574	32.182
450.467	65.5269
453.36	117.941
456.252	198.477
459.145	330.198
462.038	535.901
464.93	680.284
467.823	540.982
470.716	268.771
473.609	118.709
476.501	62.5029
479.394	41.9959
482.287	41.414
485.179	57.8171
488.072	88.4076
490.965	129.629
493.858	198.551
496.75	286.865
499.643	350.735
502.536	243.032
505.428	115.386
508.321	51.9817
511.214	26.5277
514.106	15.735
516.999	11.791
519.892	10.7563
522.784	12.4746
525.677	10.8411
528.57	13.5627
531.463	10.7129
534.355	7.03888
537.248	8.35501
540.141	3.32399
543.033	2.90044
545.926	0.128311
548.819	2.8902
551.712	0.096375
554.604	2.79552
557.497	0.983368
560.39	1.76927
563.282	1.96596
566.175	0.801376
569.068	1.19019
571.96	3.91043
574.853	2.79469
577.746	5.0925
580.639	4.44189
583.531	8.56909
586.424	9.54704
589.317	13.3487
592.209	11.2747
595.102	12.0071
597.995	11.9905
600.888	10.2922
603.78	9.96523
606.673	11.3852
609.566	6.95918
612.458	6.99188
615.351	8.29842
618.244	4.70104
621.136	3.42883
624.029	3.20804
626.922	3.70456
629.814	3.26531
632.707	3.71446
635.6	1.9574
638.493	2.94762
641.385	3.27551
644.278	3.69161
647.171	1.45587
650.063	3.06494
652.956	3.19786
655.849	1.31137
658.741	2.54474
661.634	1.4355
664.527	3.23674
667.42	5.55693
670.312	4.86169
673.205	8.39671
676.098	8.43426
678.99	5.98621
681.883	10.2475
684.776	8.78203
687.668	9.61497
690.561	14.0925
693.454	16.1351
696.347	15.48
699.239	14.2237
702.132	13.894
705.025	15.6351
707.917	15.9825
710.81	13.8133
713.703	13.3718
716.596	11.7875
719.488	9.89143
722.381	7.97363
725.274	7.11893
728.166	5.61209
731.059	4.86719
733.952	5.72717
736.844	1.8728
739.737	1.38386
742.63	1.75337
745.523	0.267517
748.415	0.464493
751.308	1.01018
754.201	1.21513
757.093	1.30959
759.986	3.14293
762.879	1.74658
765.771	1.27602
768.664	0.391846
771.557	1.67407
774.449	1.07628
777.342	1.34123
780.235	2.08838
783.128	6.49899
786.02	9.64943
788.913	13.7135
791.806	18.3469
794.698	25.4064
797.591	28.0777
800.484	38.9249
803.376	48.4587
806.269	65.8655
809.162	92.6571
812.055	138.122
814.947	213.418
817.84	310.361
820.733	382.996
823.625	396.928
826.518	466.123
829.411	579.192
832.303	575.942
835.196	544.288
838.089	780.579
840.982	1223.42
843.874	2098.98
846.767	3787.47
849.66	6630.85
852.552	5684.36
855.445	2248.94
858.338	1016.34
861.231	604.716
864.123	474.284
867.016	482.255
869.909	596.165
872.801	887.148
875.694	1104.82
878.587	545.621
881.479	218.971
884.372	107.339
887.265	61.582
890.158	40.2648
893.05	23.0722
895.943	11.7429
898.836	7.09578
901.728	2.85985
904.621	1.29521
907.514	4.76944
910.406	3.12674
913.299	2.7097
916.192	0.523712
919.085	0.415421
921.977	0.490707
924.87	1.45462
927.763	0.755142
930.655	1.66931
933.548	2.524
936.441	3.2804
939.333	7.55222
942.226	13.2894
945.119	9.81949
948.011	4.22604
950.904	1.58884
953.797	1.29047
956.69	0.463547
959.582	1.67697
962.475	2.63275
965.368	1.55443
968.26	2.68491
971.153	1.95372
974.046	4.14798
976.938	0.598923
979.831	2.7404
982.724	2.10605
985.617	3.4088
988.509	6.8578
991.402	4.06468
994.295	7.91832
997.187	7.13969
1000.08	7.62866
1002.97	6.6329
1005.87	6.41203
1008.76	2.87085
1011.65	4.15399
1014.54	4.19351
1017.44	3.18584
1020.33	0.090652
1023.22	1.32315
1026.11	2.30631
1029.01	0.515472
1031.9	2.03601
1034.79	0.114517
1037.68	1.9601
1040.58	0.222168
1043.47	1.61954
1046.36	1.44136
1049.26	0.236053
1052.15	3.3746
1055.04	0.650925
1057.93	0.174271
1060.83	2.17036
1063.72	1.49345
1066.61	1.68401
1069.51	2.48314
1072.4	0.172165
1075.29	2.01965
1078.18	1.18413
1081.08	1.32312
1083.97	1.11636
1086.86	5.01878
1089.75	5.25125
1092.65	2.53603
1095.54	1.57632
1098.43	0.652084
1101.33	3.97081
1104.22	1.11292
1107.11	2.70488
1110	0.238556
1112.89	2.09029
1115.79	0.898468
1118.68	1.8678
1121.57	2.53287
1124.47	3.85747
1127.36	3.3631
1130.25	2.3324
1133.14	0.768158
1136.04	0.181503
1138.93	0.878006
1141.82	1.63715
1144.71	0.913147
1147.61	2.44739
1150.5	1.69266
1153.39	2.69803
1156.29	0.220642
1159.18	1.32054
1162.07	2.61969
1164.96	4.54462
1167.86	2.56338
1170.75	0.819412
1173.64	2.33121
1176.54	1.94659
1179.43	2.66415
1182.32	0.845901
1185.21	1.65411
1188.11	2.11382
1191	2.60072
1193.89	0.78624
1196.78	3.41695
1199.68	3.7233
1202.57	0.036362
1205.46	0.014236
1208.35	1.35733
1211.25	1.70921
1214.14	4.65684
1217.03	1.85049
1219.92	2.7249
1222.82	6.61952
1225.71	2.50409
1228.6	0.171585
1231.5	2.35295
1234.39	0.95575
1237.28	1.14499
1240.17	2.92488
1243.07	2.93887
1245.96	1.53464
1248.85	2.36325
1251.74	4.43729
1254.64	4.25411
1257.53	8.94902
1260.42	6.6954
1263.32	1.06053
1266.21	0.151367
1269.1	3.59345
1271.99	2.34848
1274.89	3.56836
1277.78	3.21439
1280.67	4.21056
1283.57	4.18378
1286.46	1.12892
1289.35	3.47965
1292.24	4.35373
1295.13	1.9355
1298.03	3.32155
1300.92	0.678085
