Measurement: Raman, 532 nm, unoriented, Raman Data Processed
Mineral: Tilasite
Rruff sample: R060618
Ideal chemistry: CaMgAs^5+^O_4_F
Locality: Cervandone, Italy
Source: Michael Scott
Description: Pinkish-gray spearhead shaped crystals associated with albite and hexagonal tablets of clinochlore
Measured chemistry: Ca_1.00_(Mg_0.99_Fe_0.01_)_Σ=1_((As_0.99_P_0.01_)_Σ=1_O_4_)F_1.00_
Raman shift (cm-1)	intensity
83.918	0
86.811	8.29
89.703	20.499
92.596	28.396
95.489	34.238
98.381	20.35
101.274	2.289
104.167	5.341
107.06	7.401
109.952	53.551
112.845	95.455
115.738	172.638
118.63	246.981
121.523	195.734
124.416	172.621
127.308	135.153
130.201	133.635
133.094	166.571
135.986	183.826
138.879	210.964
141.772	266.299
144.665	352.79
147.557	534.385
150.45	780.435
153.343	1029.65
156.235	1129.39
159.128	803.057
162.021	429.215
164.913	281
167.806	190.537
170.699	161.831
173.592	104.884
176.484	84.668
179.377	77.148
182.27	55.417
185.162	48.54
188.055	30.779
190.948	46.2
193.84	36.335
196.733	48.135
199.626	21.437
202.519	20.404
205.411	35.953
208.304	47.934
211.197	18.831
214.089	48.651
216.982	65.293
219.875	60.761
222.768	79.263
225.66	100.909
228.553	168.237
231.446	243.108
234.338	368.62
237.231	509.559
240.124	559.306
243.016	514.098
245.909	387.423
248.802	340.049
251.695	324.654
254.587	406.013
257.48	498.905
260.373	551.064
263.265	356.969
266.158	201.828
269.051	121.982
271.943	53.078
274.836	21.331
277.729	8.416
280.621	1.796
283.514	1.496
286.407	2.981
289.3	14.904
292.192	6.903
295.085	0.501
297.978	18.45
300.87	11.678
303.763	32.705
306.656	62.546
309.548	105.286
312.441	199.468
315.334	361.279
318.227	674.852
321.119	1131.51
324.012	1745.31
326.905	2442.82
329.797	2780.3
332.69	2034.24
335.583	1033.74
338.475	512.359
341.368	288.832
344.261	159.573
347.154	107.64
350.046	128.539
352.939	140.853
355.832	238.757
358.724	382.122
361.617	485.653
364.51	494.926
367.402	333.836
370.295	184.034
373.188	132.816
376.081	129.585
378.973	269.099
381.866	437.29
384.759	692.327
387.651	963.777
390.544	1189.86
393.437	997.15
396.329	621.77
399.222	326.318
402.115	142.822
405.008	56.091
407.9	18.333
410.793	17.998
413.686	15.627
416.578	5.76
419.471	2.738
422.364	78.427
425.256	156.185
428.149	239.606
431.042	449.75
433.935	660.88
436.827	775.629
439.72	614.131
442.613	413.501
445.505	324.813
448.398	339.922
451.291	461.077
454.183	718.785
457.076	1143.03
459.969	1727.42
462.862	2399.4
465.754	2792.19
468.647	2134.99
471.54	1139.75
474.432	576.803
477.325	321.779
480.218	179.472
483.11	124.904
486.003	81.704
488.896	97.343
491.789	58.3
494.681	84.125
497.574	92.995
500.467	78.635
503.359	59.028
506.252	12.962
509.145	9.191
512.037	3.703
514.93	5.961
517.823	1.7
520.716	4.587
523.608	14.228
526.501	6.33
529.394	11.249
532.286	2.865
535.179	19.53
538.072	24.519
540.964	13.106
543.857	14.164
546.75	31.216
549.643	25.376
552.535	17.729
555.428	27.195
558.321	23.936
561.213	42.007
564.106	27.297
566.999	36.771
569.891	18.473
572.784	41.643
575.677	15.894
578.57	1.728
581.462	2.055
584.355	7.735
587.248	9.508
590.14	11.652
593.033	24.697
595.926	27.582
598.818	27.87
601.711	19.076
604.604	10.401
607.497	38.007
610.389	30.263
613.282	37.337
616.175	23.684
619.067	42.637
621.96	29.515
624.853	39.875
627.745	56.713
630.638	34.464
633.531	43.42
636.424	50.791
639.316	48.597
642.209	38.345
645.102	49.507
647.994	48.395
650.887	53.523
653.78	47.453
656.672	45.743
659.565	58.316
662.458	56.205
665.35	40.63
668.243	26.762
671.136	40.763
674.029	50.417
676.921	31.258
679.814	53.185
682.707	56.416
685.599	41.819
688.492	47.171
691.385	39.167
694.277	39.316
697.17	61.335
700.063	34.687
702.956	46.656
705.848	45.496
708.741	41.782
711.634	19.362
714.526	20.607
717.419	22.882
720.312	26.752
723.204	22.434
726.097	25.878
728.99	25.569
731.883	9.996
734.775	4.127
737.668	2.908
740.561	0.604
743.453	6.76
746.346	24.31
749.239	0.777
752.131	18.881
755.024	40.61
757.917	4.397
760.81	6.391
763.702	4.128
766.595	18.186
769.487	29.478
772.38	12.734
775.273	39.187
778.166	25.779
781.058	45.321
783.951	48.219
786.844	75.152
789.737	119.898
792.629	168.175
795.522	214.08
798.415	285.941
801.307	356.46
804.2	553.198
807.093	782.789
809.985	1218.59
812.878	1856.24
815.771	2834.03
818.664	4036
821.556	5023.65
824.449	5698.86
827.342	7161.41
830.234	8740.96
833.127	7796.39
836.02	5336.23
838.912	4722.59
841.805	5785.95
844.698	8334.92
847.591	12769.4
850.483	17220.4
853.376	11974.1
856.269	5186.62
859.161	2706.68
862.054	1786.98
864.947	1476.93
867.839	1553.34
870.732	1971.12
873.625	2680.15
876.518	2828.84
879.41	1489.23
882.303	694.191
885.196	374.079
888.088	204.3
890.981	150.482
893.874	82.741
896.766	66.097
899.659	27.451
902.552	17.383
905.444	28.736
908.337	16.048
911.23	19.226
914.122	10.433
917.015	6.534
919.908	0.72
922.801	19.049
925.693	42.536
928.586	63.084
931.479	82.911
934.371	92.411
937.264	89.56
940.157	130.31
943.049	155.91
945.942	129.205
948.835	103.283
951.728	84.878
954.62	79.506
957.513	67.42
960.406	87.652
963.298	49.784
966.191	53.47
969.084	31.026
971.977	35.231
974.869	19.343
977.762	5.19
980.655	6.137
983.547	25.494
986.44	11.356
989.333	17.202
992.225	13.546
995.118	3.039
998.011	8.329
1000.9	9.877
1003.8	35.349
1006.69	22.105
1009.58	14.637
1012.47	17.13
1015.37	13.463
1018.26	24.373
1021.15	4.361
1024.05	8.407
1026.94	6.418
1029.83	11.792
1032.72	30.96
1035.62	3.174
1038.51	23.159
1041.4	27.057
1044.29	29.512
1047.19	23.99
1050.08	19.327
1052.97	30.706
1055.87	17.242
1058.76	4.882
1061.65	19.566
1064.54	19.62
1067.44	17.717
1070.33	13.715
1073.22	12.577
1076.11	12.95
1079.01	16.291
1081.9	3.86
1084.79	19.111
1087.68	22.577
1090.58	9.399
1093.47	5.193
1096.36	9.545
1099.26	3.148
1102.15	25.493
1105.04	11.134
1107.93	18.689
1110.83	19.336
1113.72	2.707
1116.61	12.397
1119.5	1.733
1122.4	9.955
1125.29	16.69
1128.18	34.446
1131.08	13.872
1133.97	27.21
1136.86	20.139
1139.75	18.632
1142.65	25.187
1145.54	1.055
1148.43	13.008
1151.32	5.494
1154.22	22.115
1157.11	2.414
1160	30.802
1162.89	2.149
1165.79	27.559
1168.68	6.18
1171.57	20.118
1174.46	4.732
1177.36	12.213
1180.25	7.101
1183.14	18.153
1186.04	26.9
1188.93	13.436
1191.82	3.983
1194.71	7.326
1197.61	10.723
1200.5	9.476
1203.39	28.112
1206.29	14.627
1209.18	12.324
1212.07	11.117
1214.96	20.663
1217.86	19.155
1220.75	11.057
1223.64	9.891
1226.53	24.052
1229.43	0.047
