Measurement: Raman, 780 nm, unoriented, Raman Data Processed
Mineral: Tilasite
Rruff sample: R050246
Ideal chemistry: CaMgAs^5+^O_4_F
Locality: Langban, Filipstad, Varmland, Sweden
Source: Marcus Origlieri
Description: Reddish-brown granular
Measured chemistry: Ca_1.02_Mg_0.98_(As_1.00_O_4_)F_1.00_
Raman shift (cm-1)	intensity
107.591	0
110.966	59.5821
114.341	329.162
117.716	809.549
121.091	326.475
124.466	174.161
127.84	128.289
131.215	106.391
134.59	94.0946
137.965	103.76
141.34	168.487
144.714	222.962
148.089	257.624
151.464	352.89
154.839	486.591
158.214	339.42
161.589	107.316
164.963	20.5394
168.338	10.3803
171.713	20.2967
175.088	24.6434
178.463	2.51477
181.838	37.5856
185.212	105.962
188.587	55.0797
191.962	29.9705
195.337	24.1747
198.712	44.0459
202.086	64.571
205.461	106.167
208.836	150.371
212.211	201.911
215.586	263.773
218.96	310.226
222.335	340.645
225.71	362.224
229.085	399.16
232.46	506.325
235.834	733.454
239.209	954.378
242.584	768.313
245.959	375.483
249.334	132.062
252.709	52.3673
256.083	115.333
259.458	228.191
262.833	134.333
266.208	23.9186
269.583	2.37274
272.957	1.52277
276.332	15.6125
279.707	30.6238
283.082	61.3726
286.457	63.6031
289.832	76.2947
293.206	78.6395
296.581	48.7037
299.956	35.6287
303.331	13.9114
306.706	4.76086
310.08	20.5192
313.455	32.0104
316.83	0.565674
320.205	72.5154
323.58	261.586
326.954	574.252
330.329	805.706
333.704	507.334
337.079	337.943
340.454	354.103
343.829	493.378
347.203	697.333
350.578	943.02
353.953	1209.7
357.328	1457.99
360.703	1609.29
364.077	1543.22
367.452	1250.72
370.827	952.46
374.202	760.244
377.577	703.387
380.952	813.627
384.326	1155.48
387.701	1746.83
391.076	2155.84
394.451	1543.93
397.826	799.073
401.2	410.482
404.575	228.016
407.95	122.808
411.325	71.1993
414.7	50.6637
418.075	40.1466
421.449	55.4207
424.824	59.4777
428.199	77.3904
431.574	146.624
434.949	259.693
438.323	215.286
441.698	37.48
445.073	40.7795
448.448	35.0264
451.823	29.6006
455.197	200.62
458.572	571.998
461.947	1262.73
465.322	1699.72
468.697	1108.77
472.072	390.011
475.446	116.446
478.821	30.9304
482.196	9.90881
485.571	12.6592
488.946	80.016
492.32	212.543
495.695	460.016
499.07	727.63
502.445	545.822
505.82	272.342
509.195	183.511
512.569	156.891
515.944	148.589
519.319	136.021
522.694	112.26
526.068	93.0566
529.443	66.5067
532.818	42.071
536.193	37.2253
539.568	38.2029
542.943	28.2306
546.317	31.7012
549.692	44.597
553.067	50.582
556.442	56.9725
559.817	46.8005
563.192	35.5996
566.566	22.2616
569.941	6.98614
573.316	9.91699
576.691	14.6896
580.066	5.91931
583.44	1.99817
586.815	17.3059
590.19	46.2908
593.565	76.3397
596.94	118.265
600.314	161.158
603.689	210.302
607.064	254.101
610.439	292.838
613.814	335.92
617.188	366.505
620.563	394.315
623.938	407.428
627.313	410.195
630.688	399.583
634.063	380.115
637.437	341.633
640.812	312.536
644.187	278.169
647.562	252.461
650.937	217.207
654.312	186.605
657.686	153.525
661.061	131.734
664.436	113.253
667.811	87.7341
671.186	80.7776
674.56	67.4504
677.935	63.1204
681.31	44.5429
684.685	30.3077
688.06	18.8664
691.434	15.9508
694.809	0.646362
698.184	6.58301
701.559	6.33777
704.934	10.9437
708.308	12.5867
711.683	40.1772
715.058	61.7091
718.433	86.1053
721.808	111.631
725.183	130.915
728.557	141.351
731.932	141.384
735.307	134.52
738.682	115.198
742.057	94.3644
745.432	68.8757
748.806	48.7593
752.181	33.7183
755.556	17.6309
758.931	2.0622
762.306	1.54706
765.68	3.54718
769.055	6.83386
772.43	7.08795
775.805	4.87293
779.18	0.780701
782.554	0.898621
785.929	1.56171
789.304	0.657166
792.679	12.2761
796.054	23.7979
799.428	23.7934
802.803	49.0805
806.178	88.4928
809.553	132.564
812.928	242.848
816.303	457.577
819.677	718.258
823.052	791.13
826.427	1076.13
829.802	1469.32
833.177	1230.88
836.552	1225.71
839.926	1998.26
843.301	4302.66
846.676	10631.7
850.051	20723.1
853.426	10133.8
856.8	3340.44
860.175	1629.56
863.55	1077.28
866.925	1014.67
870.3	1438.16
873.674	2567.29
877.049	1919.44
880.424	665.389
883.799	308.418
887.174	167.921
890.548	104.818
893.923	60.1587
897.298	27.6265
900.673	11.8331
904.048	1.75201
907.423	15.5388
910.797	4.87439
914.172	6.97199
917.547	5.91617
920.922	8.28699
924.297	9.61066
927.671	18.6039
931.046	18.2077
934.421	27.951
937.796	37.353
941.171	68.2365
944.545	80.8691
947.92	69.9997
951.295	74.6529
954.67	86.2089
958.045	95.211
961.42	96.5263
964.794	103.349
968.169	106.726
971.544	127.045
974.919	131.449
978.294	141.988
981.668	148.928
985.043	162.056
988.418	172.142
991.793	172.653
995.168	183.048
998.543	189.083
1001.92	202.057
1005.29	218.353
1008.67	240.649
1012.04	261.143
1015.42	290.158
1018.79	301.447
1022.17	313.696
1025.54	315.064
1028.92	306.476
1032.29	280.09
1035.67	256.418
1039.04	231.711
1042.41	204.76
1045.79	169.804
1049.16	134
1052.54	98.0187
1055.91	72.2247
1059.29	37.7517
1062.66	5.79053
1066.04	20.2374
1069.41	43.5363
1072.79	58.7285
1076.16	79.3555
1079.54	69.2304
1082.91	69.7355
1086.29	44.0387
1089.66	6.57886
1093.04	51.335
1096.41	108.062
1099.79	208.05
1103.16	302.543
1106.54	456.355
1109.91	631.784
1113.29	851.352
1116.66	1146.46
1120.04	1543.26
1123.41	2027.88
1126.79	2637.24
1130.16	3351.9
1133.54	4253.93
1136.91	5329.32
1140.29	6699.03
1143.66	8322.14
1147.03	10292.5
1150.41	12310
1153.78	13980
1157.16	14957.2
1160.53	15059.6
1163.91	14475.8
1167.28	13385.6
1170.66	11911.3
1174.03	10421.9
1177.41	8942.64
1180.78	7565.8
1184.16	6339.71
1187.53	5193.95
1190.91	4267.77
1194.28	3462.99
1197.66	2813.78
1201.03	2300.09
1204.41	1910.97
1207.78	1530.81
1211.16	1298.28
1214.53	1091.7
1217.91	902.143
1221.28	737.864
1224.65	642.507
1228.03	479.76
1231.4	369.827
1234.78	247.457
1238.15	121.263
1241.53	15.0378
1244.9	42.4934
1248.28	77.2874
1251.65	48.7737
1255.03	18.7849
1258.4	58.4121
1261.78	139.075
1265.15	250.851
1268.53	217.804
1271.9	182.898
1275.28	127.559
1278.65	70.4741
1282.03	29.8638
