Measurement: Raman, 780 nm, unoriented, Raman Data Processed
Mineral: Tilleyite
Rruff sample: R050227
Ideal chemistry: Ca_5_Si_2_O_7_(CO_3_)_2_
Locality: Crestmore Quarry, Riverside County, California, USA
Source: Marcus Origlieri
Description: Aggregate of colorless subhedral crystals
Raman shift (cm-1)	intensity
131.887	0
134.78	3.65037
137.673	28.5567
140.565	52.242
143.458	40.7268
146.351	29.2499
149.243	35.3269
152.136	60.1576
155.029	105.276
157.921	140.173
160.814	89.9664
163.707	29.816
166.6	5.77113
169.492	6.74813
172.385	24.6519
175.278	44.5335
178.17	67.8607
181.063	77.208
183.956	50.1632
186.848	24.5204
189.741	17.5451
192.634	19.422
195.526	24.5202
198.419	20.0303
201.312	11.8836
204.205	0.584377
207.097	6.5489
209.99	8.98567
212.883	5.79038
215.775	0.482059
218.668	6.62815
221.561	16.5343
224.453	25.6888
227.346	37.5805
230.239	40.4255
233.132	43.6766
236.024	45.8279
238.917	42.5595
241.81	30.8462
244.702	24.655
247.595	23.894
250.488	32.1424
253.38	41.6619
256.273	60.1454
259.166	79.6534
262.059	78.7413
264.951	65.666
267.844	62.3107
270.737	66.7895
273.629	86.6573
276.522	102.294
279.415	118.632
282.307	127.006
285.2	133.492
288.093	136.76
290.986	135.014
293.878	121.812
296.771	118.338
299.664	138.73
302.556	139.351
305.449	97.405
308.342	71.3872
311.234	59.0355
314.127	52.8419
317.02	44.2436
319.913	39.3882
322.805	31.0095
325.698	15.9367
328.591	4.84706
331.483	5.11433
334.376	11.7684
337.269	23.351
340.161	32.6784
343.054	41.1845
345.947	49.9738
348.839	63.2161
351.732	79.6031
354.625	83.8414
357.518	75.3719
360.41	60.4109
363.303	51.4317
366.196	46.1983
369.088	42.1106
371.981	31.7266
374.874	16.8328
377.767	6.94156
380.659	1.12518
383.552	2.16977
386.445	3.67184
389.337	3.56647
392.23	2.3244
395.123	2.15515
398.015	0.563335
400.908	1.77184
403.801	2.96065
406.693	6.45475
409.586	6.34921
412.479	6.32609
415.372	8.07149
418.264	10.3663
421.157	12.4863
424.05	13.6883
426.942	11.2736
429.835	8.235
432.728	6.63531
435.62	5.82364
438.513	4.53697
441.406	4.73043
444.299	3.96547
447.191	2.2358
450.084	1.55864
452.977	0.602879
455.869	0.055474
458.762	0.723892
461.655	1.40053
464.548	1.5097
467.44	2.04575
470.333	2.63448
473.226	2.87075
476.118	2.65253
479.011	2.87703
481.904	4.22863
484.796	3.50562
487.689	3.07275
490.582	3.31805
493.474	3.60827
496.367	3.65091
499.26	3.37288
502.153	3.20314
505.045	4.09881
507.938	4.9902
510.831	6.12383
513.723	7.66472
516.616	9.32123
519.509	12.6225
522.402	15.6679
525.294	21.6137
528.187	22.3187
531.08	17.0327
533.972	11.2442
536.865	10.0253
539.758	9.07409
542.65	10.2691
545.543	10.2743
548.436	8.38569
551.328	5.08594
554.221	3.46728
557.114	2.04556
560.007	1.63908
562.899	0.40265
565.792	1.19408
568.685	0.300966
571.577	0.319515
574.47	0.199951
577.363	0.245729
580.255	0.001567
583.148	0.11637
586.041	0.726203
588.934	0.053751
591.826	0.085209
594.719	0.157939
597.612	0.885256
600.504	0.298099
603.397	0.144085
606.29	0.554387
609.183	1.27518
612.075	2.04207
614.968	2.72656
617.861	3.99525
620.753	6.08455
623.646	8.88578
626.539	14.2526
629.431	23.7644
632.324	37.8396
635.217	50.8938
638.11	67.5819
641.002	91.5245
643.895	122.074
646.788	141.647
649.68	107.924
652.573	56.9964
655.466	30.1007
658.358	16.9971
661.251	10.7954
664.144	7.10904
667.037	4.59462
669.929	3.61473
672.822	2.50877
675.715	1.5409
678.607	2.66412
681.5	3.80062
684.393	4.91665
687.285	8.68835
690.178	11.1926
693.071	17.4109
695.963	28.5506
698.856	29.4918
701.749	30.2693
704.642	19.3513
707.534	15.3353
710.427	22.3828
713.32	35.9686
716.212	49.5139
719.105	29.9782
721.998	21.1106
724.89	6.15713
727.783	1.89041
730.676	0.832778
733.568	0.24128
736.461	0.075019
739.354	0.206148
742.247	0.294751
745.139	0.155723
748.032	0.188977
750.925	0.080621
753.817	0.54235
756.71	0.140568
759.603	0.021216
762.495	0.255295
765.388	0.033905
768.281	0.12236
771.174	0.271688
774.066	0.45289
776.959	0.197629
779.852	0.543059
782.744	0.714886
785.637	0.474744
788.53	0.346416
791.423	0.53691
794.315	0.436558
797.208	0.304239
800.101	0.111618
802.993	0.324117
805.886	0.277025
808.779	0.476917
811.671	0.425456
814.564	1.52224
817.457	0.840175
820.35	1.72493
823.242	3.47671
826.135	4.23866
829.028	6.61647
831.92	9.54872
834.813	13.1487
837.706	14.9
840.598	10.3005
843.491	4.63095
846.384	1.54083
849.277	0.306533
852.169	0.04882
855.062	0.096451
857.955	0.600222
860.847	0.512805
863.74	1.45552
866.633	4.97099
869.525	2.01419
872.418	0.94401
875.311	0.210539
878.204	0.689901
881.096	2.69717
883.989	6.15653
886.882	12.4834
889.774	27.1047
892.667	60.6873
895.56	95.5115
898.452	129.251
901.345	191.38
904.238	292.562
907.131	388.276
910.023	207.641
912.916	74.1219
915.809	34.3351
918.701	19.395
921.594	14.8184
924.487	13.8631
927.38	14.9347
930.272	9.32914
933.165	2.55813
936.058	1.12106
938.95	2.05331
941.843	4.21787
944.736	6.96716
947.628	11.2599
950.521	16.4397
953.414	15.0073
956.306	5.77805
959.199	2.82705
962.092	1.41535
964.985	0.763485
967.877	0.65226
970.77	1.7451
973.663	1.96542
976.555	3.19903
979.448	4.51152
982.341	5.813
985.233	2.25255
988.126	0.344523
991.019	0.026962
993.912	1.183
996.804	3.83877
999.697	8.19306
1002.59	14.3738
1005.48	21.7225
1008.38	33.202
1011.27	46.127
1014.16	41.1934
1017.05	20.564
1019.95	9.77835
1022.84	6.08798
1025.73	2.91497
1028.62	0.986375
1031.52	0.09089
1034.41	0.171342
1037.3	0.771155
1040.19	0.195331
1043.09	0.525524
1045.98	0.175128
1048.87	0.188128
1051.77	1.0963
1054.66	1.83601
1057.55	4.01074
1060.44	7.59024
1063.34	12.0196
1066.23	34.9819
1069.12	79.1267
1072.01	102.283
1074.91	174.756
1077.8	296.759
1080.69	566.745
1083.59	214.299
1086.48	242.718
1089.37	261.93
1092.26	503.504
1095.16	326.757
1098.05	47.9571
1100.94	16.6494
1103.83	8.86192
1106.73	4.82855
1109.62	2.92682
1112.51	2.29158
1115.4	1.44687
1118.3	1.02775
1121.19	0.302721
1124.08	0.866878
1126.98	0.448783
1129.87	0.447709
1132.76	0.055067
1135.65	0.067118
1138.55	0.282837
1141.44	0.090929
1144.33	0.054101
1147.22	0.072403
1150.12	0.172604
1153.01	0.522193
1155.9	0.456803
1158.8	1.09595
1161.69	1.24765
1164.58	0.965318
1167.47	1.77464
1170.37	1.83966
1173.26	2.16584
1176.15	2.23938
1179.04	2.15584
1181.94	3.02281
1184.83	2.52292
1187.72	2.69024
1190.62	2.42864
1193.51	2.27057
1196.4	2.56284
1199.29	2.14548
1202.19	2.11196
1205.08	1.81591
1207.97	1.33081
1210.86	1.06987
1213.76	0.642098
1216.65	0.754858
1219.54	0.641208
1222.43	0.483247
1225.33	0.333223
1228.22	0.091344
1231.11	0.370054
1234.01	0.493697
1236.9	0.141954
1239.79	0.37001
1242.68	0.10093
1245.58	0.12249
1248.47	0.341184
1251.36	0.268732
1254.26	0.87734
1257.15	0.035329
1260.04	0.798781
1262.93	0.691364
1265.83	0.643712
1268.72	0.555221
1271.61	0.294965
1274.5	0.437591
1277.4	0.180367
1280.29	0.354002
