Measurement: Raman, 532 nm, unoriented, Raman Data Processed
Mineral: Tilleyite
Rruff sample: R050227
Ideal chemistry: Ca_5_Si_2_O_7_(CO_3_)_2_
Locality: Crestmore Quarry, Riverside County, California, USA
Source: Marcus Origlieri
Description: Aggregate of colorless subhedral crystals
Raman shift (cm-1)	intensity
131.351	0
134.726	2.02299
138.101	24.1106
141.476	65.509
144.85	55.0506
148.225	34.4465
151.6	46.7365
154.975	96.6272
158.35	175.424
161.725	129.662
165.099	39.2585
168.474	7.8084
171.849	14.7667
175.224	37.6379
178.599	72.2765
181.973	96.4056
185.348	55.8227
188.723	22.0957
192.098	17.2548
195.473	26.3689
198.847	29.8675
202.222	17.9
205.597	4.99195
208.972	5.26415
212.347	7.64269
215.722	5.19785
219.096	0.996475
222.471	10.7132
225.846	23.9936
229.221	37.7441
232.596	48.2168
235.97	57.6905
239.345	54.9677
242.72	35.5717
246.095	18.1562
249.47	14.0376
252.845	17.495
256.219	31.5052
259.594	49.9796
262.969	54.4368
266.344	51.0474
269.719	52.9731
273.093	65.9577
276.468	90.4274
279.843	107.733
283.218	111.555
286.593	116.447
289.967	131.24
293.342	124.867
296.717	104.649
300.092	119.454
303.467	129.576
306.842	86.3555
310.216	60.7458
313.591	60.1191
316.966	57.4153
320.341	48.0681
323.716	40.1332
327.091	18.1563
330.465	4.49814
333.84	5.92607
337.215	15.5232
340.59	27.8764
343.965	34.995
347.339	42.9439
350.714	58.8262
354.089	78.9086
357.464	82.4264
360.839	68.9022
364.214	65.7148
367.588	66.0139
370.963	59.8678
374.338	40.3109
377.713	20.0275
381.087	6.66635
384.462	0.15303
387.837	4.10612
391.212	4.26991
394.587	3.12403
397.962	0.575684
401.336	1.49632
404.711	5.27119
408.086	7.98946
411.461	8.09601
414.836	11.4756
418.211	18.0717
421.585	22.1043
424.96	25.017
428.335	17.2884
431.71	11.1048
435.085	7.11327
438.459	6.1432
441.834	4.34335
445.209	4.98518
448.584	2.68712
451.959	1.10799
455.334	0.167595
458.708	0.456802
462.083	0.341492
465.458	1.86719
468.833	2.95705
472.208	1.95526
475.582	3.02216
478.957	3.86802
482.332	5.52113
485.707	4.66854
489.082	4.17521
492.457	4.40908
495.831	3.87549
499.206	3.83477
502.581	3.78181
505.956	5.31097
509.33	5.5225
512.705	6.00439
516.08	9.54185
519.455	13.3294
522.83	20.3598
526.205	31.6385
529.579	32.7756
532.954	22.9828
536.329	15.8102
539.704	14.8925
543.079	15.2741
546.453	18.488
549.828	12.2368
553.203	8.33188
556.578	3.59
559.953	2.42329
563.328	2.30879
566.702	1.49445
570.077	1.29332
573.452	0.61972
576.827	0.492737
580.202	1.43892
583.577	0.446365
586.951	0.123154
590.326	1.21272
593.701	1.28975
597.076	0.980408
600.451	1.24689
603.825	0.204102
607.2	0.302322
610.575	1.17285
613.95	2.05559
617.325	4.77666
620.699	5.40967
624.074	9.14587
627.449	16.1395
630.824	26.5101
634.199	47.6176
637.573	77.4482
640.948	118.323
644.323	181.1
647.698	226.156
651.073	163.109
654.448	75.4153
657.822	33.3093
661.197	17.7065
664.572	7.82468
667.947	6.20526
671.322	2.2003
674.697	1.17697
678.071	2.05759
681.446	1.33238
684.821	1.53598
688.196	4.40411
691.571	13.4873
694.945	25.14
698.32	37.203
701.695	36.8726
705.07	32.7003
708.445	20.4057
711.819	37.896
715.194	66.6063
718.569	77.6261
721.944	45.3461
725.319	15.2524
728.693	3.38538
732.068	1.72919
735.443	0.475388
738.818	1.7253
742.193	0.582275
745.568	0.081711
748.942	1.6035
752.317	0.788956
755.692	1.28673
759.067	0.671585
762.442	3.27307
765.817	1.91538
769.191	1.62259
772.566	1.77673
775.941	2.12518
779.316	1.30588
782.691	1.04797
786.065	0.961609
789.44	3.84973
792.815	2.4996
796.19	1.00796
799.565	1.86868
802.939	3.17902
806.314	0.087982
809.689	0.16806
813.064	2.27039
816.439	2.86258
819.814	3.8071
823.188	5.92886
826.563	7.6767
829.938	14.0193
833.313	18.8477
836.688	31.4029
840.062	29.8884
843.437	13.1935
846.812	4.67181
850.187	1.33908
853.562	0.73291
856.937	0.359924
860.311	0.980072
863.686	2.20102
867.061	6.80774
870.436	5.90784
873.811	0.663757
877.185	1.92569
880.56	2.53979
883.935	5.70981
887.31	13.7466
890.685	32.0632
894.059	75.8159
897.434	143.856
900.809	240.344
904.184	452.677
907.559	725.849
910.934	428.039
914.308	130.968
917.683	53.5014
921.058	33.773
924.433	28.1023
927.808	31.3047
931.183	19.463
934.557	7.5788
937.932	3.25147
941.307	7.93329
944.682	9.49164
948.057	15.5004
951.431	28.9147
954.806	24.1618
958.181	9.54135
961.556	4.31613
964.931	2.23328
968.306	0.810272
971.68	0.795166
975.055	1.17389
978.43	3.72064
981.805	11.4206
985.18	7.3378
988.554	3.62814
991.929	0.075012
995.304	3.60245
998.679	7.99646
1002.05	17.5735
1005.43	32.6956
1008.8	58.7299
1012.18	96.3712
1015.55	84.2387
1018.93	35.658
1022.3	16.4301
1025.68	10.5047
1029.05	0.743103
1032.43	0.620483
1035.8	1.35657
1039.18	0.270386
1042.55	0.139954
1045.93	0.040588
1049.3	2.09595
1052.68	2.21429
1056.05	3.00507
1059.43	10.958
1062.8	12.3011
1066.17	20.6094
1069.55	82.2464
1072.92	149.598
1076.3	277.766
1079.67	748.75
1083.05	777.222
1086.42	310.597
1089.8	373.836
1093.17	963.385
1096.55	638.776
1099.92	76.2159
1103.3	28.2072
1106.67	11.796
1110.05	7.90949
1113.42	4.24988
1116.8	8.47095
1120.17	0.381104
1123.55	3.28656
1126.92	0.224121
1130.3	2.00726
1133.67	0.308899
1137.05	0.200745
1140.42	0.59668
1143.8	1.11377
1147.17	0.892212
1150.55	3.3476
1153.92	1.15747
1157.3	4.19318
1160.67	1.65723
1164.05	6.80518
1167.42	4.75787
1170.79	1.52527
1174.17	6.79413
1177.54	3.60016
1180.92	4.54724
1184.29	4.54761
1187.67	7.04919
1191.04	5.7279
1194.42	5.54285
1197.79	3.39435
1201.17	0.037109
1204.54	2.33685
1207.92	5.16766
1211.29	2.49951
1214.67	4.53235
1218.04	4.03363
1221.42	5.24237
1224.79	6.82947
1228.17	3.95587
1231.54	7.96655
1234.92	3.51654
1238.29	0.555664
1241.67	1.24762
1245.04	1.16058
1248.41	3.7309
1251.79	5.73383
1255.16	4.19367
1258.54	6.67682
1261.91	9.24219
1265.29	6.71735
1268.66	1.9881
1272.04	6.05042
1275.41	5.34497
1278.79	2.07349
1282.16	0.243774
1285.54	3.24902
1288.91	0.018799
