Measurement: Raman, 532 nm, unoriented, Raman Data Processed
Mineral: Tinaksite
Rruff sample: R060375
Ideal chemistry: K_2_Na(Ca,Mn)_2_TiOSi_7_O_18_(OH)
Locality: Chara River area, Murun Massif, northwest Aldan, Siberia, U.S.S.R.
Source: Michael Scott
Description: Tan colored long prismatic crystals embedded in purple charoite R060376
Raman shift (cm-1)	intensity
148.346	0
151.239	12.7637
154.132	61.7517
157.024	117.416
159.917	148.445
162.81	159.553
165.702	168.732
168.595	204.68
171.488	241.477
174.381	250.501
177.273	275.291
180.166	291.275
183.059	215.076
185.951	126.215
188.844	106.901
191.737	119.218
194.629	135.587
197.522	117.513
200.415	54.6001
203.308	12.8484
206.2	12.9559
209.093	16.2864
211.986	13.4291
214.878	2.59763
217.771	17.6964
220.664	54.6852
223.556	112.458
226.449	162.325
229.342	162.891
232.234	166.447
235.127	193.093
238.02	138.912
240.913	67.6149
243.805	50.6649
246.698	71.2926
249.591	117.862
252.483	155.469
255.376	181.78
258.269	189.553
261.161	180.399
264.054	176.789
266.947	167.233
269.84	220.397
272.732	306.162
275.625	322.174
278.518	227.007
281.41	162.17
284.303	124.873
287.196	112.04
290.089	84.8006
292.981	67.0352
295.874	86.6098
298.767	120.76
301.659	106.041
304.552	97.7345
307.445	114
310.337	135.029
313.23	121.711
316.123	112.021
319.015	121.423
321.908	134.368
324.801	107.707
327.694	58.7893
330.586	29.1977
333.479	2.62854
336.372	13.7173
339.264	13.3395
342.157	6.99356
345.05	34.6524
347.942	65.0573
350.835	121.603
353.728	207.275
356.621	292
359.513	279.936
362.406	176.648
365.299	98.8307
368.191	75.0328
371.084	72.8948
373.977	72.5243
376.87	50.4532
379.762	24.9717
382.655	17.7938
385.548	5.02463
388.44	7.19113
391.333	8.2533
394.226	11.9848
397.118	38.431
400.011	79.5514
402.904	136.716
405.796	229.843
408.689	329.288
411.582	327.387
414.475	248.513
417.367	157.542
420.26	85.1549
423.153	72.7805
426.045	74.8412
428.938	76.714
431.831	106.541
434.724	154.177
437.616	150.669
440.509	105.998
443.402	108.051
446.294	138.917
449.187	163.724
452.08	162.201
454.972	170.478
457.865	160.553
460.758	100.591
463.651	54.7548
466.543	31.7553
469.436	10.528
472.329	5.90805
475.221	10.8144
478.114	13.432
481.007	5.12222
483.899	3.27194
486.792	2.47162
489.685	2.41678
492.577	1.99548
495.47	3.44092
498.363	4.923
501.256	15.5354
504.148	31.8709
507.041	51.686
509.934	71.0712
512.826	82.7825
515.719	102.295
518.612	116.717
521.505	103.181
524.397	66.141
527.29	29.0184
530.183	9.63138
533.075	6.8905
535.968	2.08911
538.861	5.93283
541.753	18.9756
544.646	36.7543
547.539	59.2351
550.432	62.7853
553.324	37.2653
556.217	20.7297
559.11	20.3962
562.002	28.4405
564.895	54.5533
567.788	89.7134
570.68	130.454
573.573	138.44
576.466	95.0805
579.359	54.8656
582.251	30.0584
585.144	12.6416
588.037	2.63129
590.929	2.94275
593.822	6.86227
596.715	10.9001
599.607	11.6854
602.5	9.76627
605.393	7.01492
608.285	2.74899
611.178	17.7005
614.071	36.5252
616.964	58.7526
619.856	99.1548
622.749	164.893
625.642	264.883
628.534	398.514
631.427	578.857
634.32	841.83
637.212	1142.93
640.105	1226.68
642.998	911.169
645.891	595.912
648.783	464.48
651.676	445.503
654.569	486.385
657.461	551.881
660.354	612.563
663.247	684.418
666.139	805.32
669.032	987.619
671.925	1179.38
674.818	1314.65
677.71	1370.4
680.603	1322.94
683.496	1178.84
686.388	1049.18
689.281	1049.24
692.174	1061.93
695.067	944.77
697.959	770.436
700.852	640.157
703.745	577.729
706.637	568.112
709.53	472.962
712.423	323.963
715.315	222.519
718.208	160.373
721.101	125.115
723.994	94.015
726.886	72.5826
729.779	57.4374
732.672	50.0286
735.564	37.957
738.457	20.8086
741.35	8.46262
744.242	0.630737
747.135	1.91049
750.028	8.74182
752.92	9.6318
755.813	9.86517
758.706	9.19406
761.599	0.848633
764.491	2.15167
767.384	10.2155
770.277	20.8756
773.169	27.609
776.062	33.2299
778.955	26.7884
781.847	31.9567
784.74	37.2218
787.633	53.5425
790.526	70.1171
793.418	72.3281
796.311	49.6814
799.204	30.9973
802.096	23.1768
804.989	19.1039
807.882	18.6952
810.774	14.2337
813.667	11.2944
816.56	10.8114
819.453	9.12817
822.345	9.88809
825.238	8.17703
828.131	11.6525
831.023	12.7359
833.916	11.491
836.809	12.3256
839.702	11.8258
842.594	4.62885
845.487	4.5766
848.38	3.16418
851.272	1.71494
854.165	0.125519
857.058	0.564941
859.95	1.48511
862.843	0.24704
865.736	0.366486
868.629	0.300171
871.521	1.63107
874.414	3.97754
877.307	0.984161
880.199	0.755615
883.092	1.95959
885.985	0.446777
888.877	4.00137
891.77	10.8246
894.663	22.7452
897.556	32.0958
900.448	50.6112
903.341	71.4462
906.234	70.1436
909.126	45.8203
912.019	36.8507
914.912	45.3157
917.804	70.8012
920.697	94.5327
923.59	113.89
926.482	99.3658
929.375	61.8286
932.268	34.2484
935.161	13.6531
938.053	8.13077
940.946	4.72205
943.839	5.13129
946.731	16.5547
949.624	30.6155
952.517	62.2439
955.409	102.56
958.302	144.755
961.195	151.382
964.088	126.848
966.98	106.102
969.873	104.82
972.766	131.454
975.658	158.717
978.551	178.492
981.444	196.536
984.337	201.526
987.229	185.032
990.122	155.541
993.015	141.2
995.907	121.895
998.8	102.46
1001.69	106.993
1004.59	119.306
1007.48	117.209
1010.37	87.3328
1013.26	56.6433
1016.16	44.1918
1019.05	24.3283
1021.94	5.73157
1024.83	4.62219
1027.73	8.25824
1030.62	7.47095
1033.51	1.66681
1036.4	5.8529
1039.3	13.6462
1042.19	23.7381
1045.08	38.3583
1047.98	60.9038
1050.87	82.7088
1053.76	92.4839
1056.65	92.1075
1059.55	97.1844
1062.44	98.6446
1065.33	82.1434
1068.22	54.3034
1071.12	45.7906
1074.01	36.3431
1076.9	37.232
1079.8	41.1101
1082.69	48.7596
1085.58	66.8014
1088.47	90.5231
1091.37	131.396
1094.26	190.535
1097.15	231.792
1100.04	236.306
1102.94	217.283
1105.83	208.229
1108.72	236.988
1111.62	289.602
1114.51	381.302
1117.4	470.793
1120.29	464.342
1123.19	365.014
1126.08	271.408
1128.97	182.309
1131.86	105.447
1134.76	61.6633
1137.65	33.8877
1140.54	20.4992
1143.43	11.7153
1146.33	7.89996
1149.22	5.05444
1152.11	0.251099
1155.01	0.326538
1157.9	0.483398
1160.79	2.7406
1163.68	1.98676
1166.58	0.73407
1169.47	1.26483
1172.36	2.32324
1175.26	0.618347
1178.15	1.85815
1181.04	0.937378
1183.93	1.70227
1186.83	2.77618
1189.72	1.49695
1192.61	2.47315
1195.5	3.35718
1198.4	4.05225
1201.29	6.7486
1204.18	7.97907
1207.07	6.94751
1209.97	10.9734
1212.86	7.81476
1215.75	8.06415
1218.64	0.571838
1221.54	9.72363
1224.43	6.06189
1227.32	3.74524
1230.22	7.02814
1233.11	6.01929
1236	3.96185
1238.89	1.86041
1241.79	5.2995
1244.68	6.82996
1247.57	2.24579
1250.46	3.35504
1253.36	7.9491
1256.25	3.62946
1259.14	2.37994
1262.04	4.06726
1264.93	3.40112
1267.82	3.72644
1270.71	3.74805
1273.61	2.59381
1276.5	3.08026
1279.39	2.86987
1282.29	2.36383
1285.18	1.84186
1288.07	2.28259
1290.96	2.36682
1293.86	3.37744
1296.75	3.73944
1299.64	5.12585
1302.53	2.72742
