Measurement: Raman, 780 nm, unoriented, Raman Data Processed
Mineral: Tinaksite
Rruff sample: R060375
Ideal chemistry: K_2_Na(Ca,Mn)_2_TiOSi_7_O_18_(OH)
Locality: Chara River area, Murun Massif, northwest Aldan, Siberia, U.S.S.R.
Source: Michael Scott
Description: Tan colored long prismatic crystals embedded in purple charoite R060376
Raman shift (cm-1)	intensity
98.7649	0
102.14	4.14877
105.515	20.2117
108.889	84.261
112.264	161.432
115.639	142.494
119.014	163.558
122.389	346.119
125.763	520.264
129.138	394.917
132.513	232.029
135.888	124.527
139.263	37.4318
142.638	7.18813
146.012	5.97476
149.387	0.988998
152.762	31.5307
156.137	67.1741
159.512	97.5787
162.887	95.8304
166.261	97.4346
169.636	131.608
173.011	157.098
176.386	185.03
179.761	204.242
183.135	131.746
186.51	75.2832
189.885	83.8182
193.26	102.955
196.635	101.599
200.01	45.4287
203.384	4.66504
206.759	11.5015
210.134	9.80273
213.509	2.52907
216.884	22.3477
220.258	58.9569
223.633	115.498
227.008	147.192
230.383	138.688
233.758	157.211
237.132	129.441
240.507	70.1309
243.882	67.0836
247.257	96.5613
250.632	138.757
254.006	170.351
257.381	180.605
260.756	172.948
264.131	156.763
267.506	148.221
270.881	208.883
274.255	256.035
277.63	201.055
281.005	147.454
284.38	122.836
287.755	108.433
291.13	82.4598
294.504	88.7412
297.879	111.668
301.254	99.005
304.629	89.5858
308.004	112.717
311.378	114.916
314.753	97.698
318.128	108.879
321.503	117.247
324.878	85.1037
328.252	41.5138
331.627	14.1214
335.002	6.26425
338.377	13.1098
341.752	2.33609
345.127	25.8323
348.501	60.9733
351.876	129.653
355.251	211.176
358.626	217.399
362.001	131.736
365.375	73.9399
368.75	65.2123
372.125	65.161
375.5	56.2311
378.875	30.6953
382.25	20.729
385.624	5.65666
388.999	7.36356
392.374	1.12204
395.749	18.2497
399.124	55.0871
402.498	116.899
405.873	213.265
409.248	280.242
412.623	232.69
415.998	153.916
419.373	76.6576
422.747	58.9095
426.122	56.0153
429.497	60.3056
432.872	97.2242
436.247	117.889
439.622	75.7389
442.996	70.5981
446.371	89.4686
449.746	108.213
453.121	123.37
456.496	130.47
459.87	87.7636
463.245	39.3817
466.62	18.2609
469.995	1.18052
473.37	2.09674
476.745	3.87111
480.119	0.368729
483.494	5.41179
486.869	0.958046
490.244	0.076263
493.619	0.474922
496.993	2.63538
500.368	9.92423
503.743	25.8974
507.118	42.7452
510.493	60.5239
513.867	73.3229
517.242	87.9699
520.617	81.0776
523.992	47.7613
527.367	18.1871
530.741	4.07263
534.116	3.07528
537.491	4.78294
540.866	13.7016
544.241	29.4441
547.616	44.5902
550.99	37.4865
554.365	19.8652
557.74	12.0528
561.115	15.2693
564.49	32.2597
567.865	59.9626
571.239	89.3237
574.614	73.0931
577.989	44.4974
581.364	21.2635
584.739	7.52508
588.114	1.92908
591.488	5.18339
594.863	7.40228
598.238	6.3817
601.613	6.6721
604.987	5.0552
608.362	4.31618
611.737	14.69
615.112	32.4448
618.487	59.1282
621.862	107.528
625.236	177.779
628.611	282.944
631.986	460.132
635.361	738.07
638.736	934.716
642.111	735.834
645.485	441.103
648.86	323.2
652.235	309.602
655.61	347.141
658.985	402.921
662.359	460.03
665.734	570.414
669.109	733.756
672.484	872.21
675.859	942.47
679.234	915.866
682.608	797.129
685.983	685.602
689.358	689.081
692.733	672.244
696.108	554.221
699.482	438.628
702.857	386.106
706.232	372.765
709.607	294.8
712.982	185.51
716.356	122.573
719.731	88.0886
723.106	62.4654
726.481	48.1912
729.856	38.3999
733.231	31.0942
736.605	20.8213
739.98	6.99086
743.355	0.562431
746.73	5.53719
750.105	4.70304
753.48	5.45379
756.854	5.67117
760.229	2.47163
763.604	0.770531
766.979	6.10974
770.354	13.3085
773.728	20.7878
777.103	18.2977
780.478	17.8194
783.853	25.5991
787.228	36.9746
790.602	55.9983
793.977	52.9873
797.352	29.8883
800.727	18.9856
804.102	14.9083
807.477	12.4251
810.851	9.42056
814.226	8.47129
817.601	6.05296
820.976	5.059
824.351	7.60379
827.726	6.75535
831.1	8.38036
834.475	9.53451
837.85	8.34195
841.225	2.86087
844.6	3.55382
847.974	0.443832
851.349	1.10693
854.724	1.32077
858.099	0.727699
861.474	1.09075
864.848	0.452869
868.223	0.843975
871.598	0.497234
874.973	0.966911
878.348	0.522549
881.722	0.954121
885.097	1.96883
888.472	1.58882
891.847	8.08833
895.222	14.5029
898.597	25.3519
901.971	41.4265
905.346	44.4809
908.721	24.8385
912.096	22.4681
915.471	33.4873
918.846	52.3978
922.22	71.3898
925.595	68.8743
928.97	40.2531
932.345	20.7997
935.72	8.93737
939.094	3.34226
942.469	0.506584
945.844	5.51318
949.219	18.7121
952.594	38.8329
955.968	68.003
959.343	88.0021
962.718	79.9957
966.093	66.3337
969.468	66.7179
972.843	87.3084
976.217	102.17
979.592	116.656
982.967	123.005
986.342	117.805
989.717	98.2736
993.091	88.204
996.466	74.2343
999.841	66.329
1003.22	70.1077
1006.59	68.7387
1009.97	47.8571
1013.34	31.2688
1016.72	20.5704
1020.09	6.52123
1023.47	1.89114
1026.84	4.3773
1030.21	2.7083
1033.59	0.046921
1036.96	8.63451
1040.34	16.098
1043.71	25.7097
1047.09	43.8538
1050.46	61.3377
1053.84	64.1641
1057.21	60.851
1060.59	65.2846
1063.96	57.6498
1067.34	39.3067
1070.71	27.1717
1074.09	24.6849
1077.46	20.7564
1080.84	25.5523
1084.21	36.7198
1087.59	50.4029
1090.96	81.572
1094.34	122.5
1097.71	150.506
1101.09	143.321
1104.46	130.738
1107.84	140.012
1111.21	182.07
1114.59	255.204
1117.96	309.423
1121.34	261.63
1124.71	186.958
1128.08	120.083
1131.46	64.0797
1134.83	32.4268
1138.21	19.0427
1141.58	10.535
1144.96	3.38292
1148.33	2.50362
1151.71	1.94081
1155.08	0.896099
1158.46	1.42083
1161.83	0.828259
1165.21	0.102772
1168.58	1.45942
1171.96	0.284901
1175.33	0.982922
1178.71	2.06468
1182.08	2.00194
1185.46	1.01982
1188.83	5.39551
1192.21	1.73723
1195.58	1.91441
1198.95	4.70557
1202.33	2.80107
1205.7	3.19774
1209.08	2.55484
1212.45	4.61283
1215.83	1.5331
1219.2	1.32523
1222.58	2.85279
1225.95	3.62622
1229.33	2.18553
1232.7	0.680443
1236.08	1.75065
1239.45	2.44297
1242.83	0.731068
1246.2	2.45065
1249.58	3.53325
1252.95	2.66147
1256.33	1.51535
1259.7	3.70785
1263.08	1.21167
1266.45	0.814144
1269.83	0.924728
1273.2	3.28812
1276.58	1.25267
1279.95	2.06351
1283.33	1.98027
