Measurement: Raman, 780 nm, unoriented, Raman Data Processed
Mineral: Tincalconite
Rruff sample: R050660
Ideal chemistry: Na_2_B_4_O_5_(OH)_4_3H_2_O
Locality: Boron, Kern County, California, USA
Source: Marcus Origlieri
Description: Colorless pseudo-octahedral crystal
Raman shift (cm-1)	intensity
96.3644	0
99.7392	12.0595
103.114	37.0286
106.489	108.005
109.864	112.764
113.239	79.0228
116.613	78.6936
119.988	85.7943
123.363	98.0415
126.738	68.3749
130.113	47.9289
133.487	30.2483
136.862	22.9834
140.237	10.0198
143.612	0.01709
146.987	6.46668
150.362	1.94855
153.736	7.98248
157.111	24.9758
160.486	41.2396
163.861	56.7556
167.236	64.5657
170.61	77.2963
173.985	93.8616
177.36	110.087
180.735	111.597
184.11	103.178
187.484	89.9481
190.859	80.6702
194.234	72.4813
197.609	68.0199
200.984	59.1038
204.358	49.6012
207.733	38.6076
211.108	27.8165
214.483	24.3738
217.858	21.2721
221.233	19.5437
224.607	19.4419
227.982	16.4381
231.357	17.448
234.732	16.7374
238.107	17.5601
241.482	17.4963
244.856	15.0387
248.231	13.6266
251.606	13.2999
254.981	8.09727
258.356	8.66675
261.73	6.79431
265.105	4.16469
268.48	4.78108
271.855	3.31938
275.23	1.73731
278.604	0.204559
281.979	1.75015
285.354	0.754623
288.729	1.88202
292.104	1.86797
295.478	0.598511
298.853	0.623077
302.228	1.52564
305.603	2.35107
308.978	7.06233
312.353	12.867
315.727	22.5709
319.102	34.5875
322.477	44.8237
325.852	63.7645
329.227	88.74
332.601	119.411
335.976	143.01
339.351	153.97
342.726	173.763
346.101	192.018
349.476	160.637
352.85	99.4513
356.225	58.3921
359.6	34.4046
362.975	24.1873
366.35	10.764
369.724	2.97742
373.099	3.54132
376.474	2.01114
379.849	6.0713
383.224	12.9308
386.599	25.9964
389.973	38.0141
393.348	48.355
396.723	57.0926
400.098	82.6707
403.473	116.14
406.847	128.468
410.222	92.6903
413.597	43.8177
416.972	19.7238
420.347	8.19182
423.721	4.214
427.096	0.465073
430.471	0.928955
433.846	0.240555
437.221	0.488609
440.596	0.445656
443.97	0.508522
447.345	5.79195
450.72	8.76572
454.095	18.292
457.47	27.6297
460.844	45.2355
464.219	59.9617
467.594	57.7743
470.969	40.9007
474.344	27.4426
477.719	17.5759
481.093	12.8585
484.468	13.0579
487.843	12.4991
491.218	14.7254
494.592	18.4709
497.967	23.6678
501.342	29.9412
504.717	39.5683
508.092	34.5267
511.467	18.7085
514.841	13.754
518.216	12.1572
521.591	13.067
524.966	11.3906
528.341	4.79517
531.716	1.17616
535.09	0.006294
538.465	1.78406
541.84	0.48793
545.215	2.48315
548.59	6.47016
551.964	10.1083
555.339	18.4557
558.714	33.8818
562.089	62.5659
565.464	105.963
568.838	183.818
572.213	345.049
575.588	678.243
578.963	948.47
582.338	506.853
585.712	259.514
589.087	239.817
592.462	220.337
595.837	119.092
599.212	49.9828
602.587	25.4638
605.961	12.7656
609.336	6.79269
612.711	2.50197
616.086	2.47343
619.461	1.14591
622.836	2.71259
626.21	0.908829
629.585	1.77595
632.96	2.30667
636.335	10.2446
639.71	14.6469
643.084	8.03929
646.459	3.29102
649.834	1.70355
653.209	1.64735
656.584	0.978409
659.958	0.028419
663.333	0.218452
666.708	0.007858
670.083	1.43061
673.458	1.07856
676.832	1.57525
680.207	0.825958
683.582	0.302078
686.957	0.122742
690.332	0.028603
693.707	0.845627
697.081	0.385071
700.456	2.65031
703.831	2.82955
707.206	2.13813
710.581	3.78208
713.955	1.12225
717.33	2.306
720.705	2.72311
724.08	0.985504
727.455	1.55447
730.83	0.008255
734.204	0.7826
737.579	0.75502
740.954	0.048569
744.329	0.792976
747.704	3.04386
751.078	8.69639
754.453	18.5946
757.828	36.2585
761.203	69.238
764.578	115.775
767.952	130.875
771.327	91.673
774.702	55.509
778.077	30.6387
781.452	20.7748
784.827	9.65283
788.201	6.23164
791.576	4.98196
794.951	3.02623
798.326	2.0739
801.701	3.14558
805.075	3.82765
808.45	6.13913
811.825	6.2611
815.2	4.05384
818.575	6.58103
821.949	7.75298
825.324	6.00817
828.699	4.14795
832.074	5.14035
835.449	4.53349
838.824	7.35933
842.198	5.86768
845.573	3.26734
848.948	2.37413
852.323	4.09965
855.698	1.72253
859.072	5.32745
862.447	5.08021
865.822	4.08432
869.197	4.16092
872.572	3.95703
875.947	2.01001
879.321	2.16004
882.696	1.40348
886.071	0.502197
889.446	0.302567
892.821	0.506371
896.195	1.68791
899.57	0.642189
902.945	0.608902
906.32	0.094284
909.695	0.756218
913.069	1.63994
916.444	1.51415
919.819	0.856682
923.194	1.96036
926.569	6.0489
929.944	12.1915
933.318	26.9145
936.693	42.7635
940.068	62.5705
943.443	66.9075
946.818	61.6679
950.192	45.7123
953.567	31.1277
956.942	18.8451
960.317	12.6826
963.692	10.4432
967.067	9.06868
970.441	10.3757
973.816	10.5514
977.191	14.4615
980.566	18.0185
983.941	23.1167
987.315	26.2451
990.69	31.4549
994.065	31.1964
997.44	29.1188
1000.82	22.2341
1004.19	17.4815
1007.56	11.5685
1010.94	8.98172
1014.31	5.5072
1017.69	2.61231
1021.06	0.896805
1024.44	1.10543
1027.81	1.43623
1031.19	2.28461
1034.56	0.719009
1037.94	4.32108
1041.31	3.85969
1044.69	3.84502
1048.06	2.57449
1051.44	0.068726
1054.81	0.573235
1058.19	0.556808
1061.56	2.09302
1064.94	1.97922
1068.31	1.4279
1071.69	3.02824
1075.06	2.62857
1078.43	4.79302
1081.81	4.55821
1085.18	4.65807
1088.56	4.4932
1091.93	0.87915
1095.31	2.24548
1098.68	2.75495
1102.06	2.83072
1105.43	3.74615
1108.81	8.08378
1112.18	11.793
1115.56	8.04259
1118.93	4.79896
1122.31	1.55066
1125.68	1.5045
1129.06	0.038208
1132.43	1.39285
1135.81	0.778587
1139.18	2.09279
1142.56	4.87139
1145.93	4.58993
1149.31	4.96159
1152.68	3.64424
1156.06	5.08301
1159.43	5.15936
1162.81	1.97254
1166.18	5.36674
1169.56	4.21832
1172.93	3.29846
1176.31	3.34907
1179.68	5.04999
1183.06	8.34723
1186.43	10.41
1189.8	6.31718
1193.18	1.52742
1196.55	0.008972
1199.93	0.480354
1203.3	1.85789
1206.68	1.21423
1210.05	1.99781
1213.43	3.28109
1216.8	6.67001
1220.18	6.6163
1223.55	7.69919
1226.93	10.5751
1230.3	8.7351
1233.68	8.29997
1237.05	9.16222
1240.43	8.45983
1243.8	7.45247
1247.18	6.94849
1250.55	8.50668
1253.93	7.65267
1257.3	10.5063
1260.67	11.4456
1264.05	10.0283
1267.42	8.827
1270.8	6.98825
1274.17	3.28295
1277.55	3.37715
1280.92	0.289078
1284.3	0.00045
