Measurement: Raman, 780 nm, unoriented, Raman Data Processed
Mineral: Tinsleyite
Rruff sample: R070706
Ideal chemistry: KAl_2_(PO_4_)_2_(OH)2H_2_O
Locality: Tip Top Mine, Fourmile, Custer District, Custer Co., South Dakota, USA
Source: Michael Scott
Description: Pinkish red prismatic crystal fragment
Raman shift (cm-1)	intensity
140.699	0
143.592	104.712
146.484	188.128
149.377	228.765
152.27	34.9417
155.163	23.5166
158.055	5.31616
160.948	150.508
163.841	285.623
166.733	260.723
169.626	178.865
172.519	131.156
175.411	196.39
178.304	190.546
181.197	236.899
184.09	211.287
186.982	202.729
189.875	130.59
192.768	117.914
195.66	132.666
198.553	216.666
201.446	293.651
204.339	366.975
207.231	295.548
210.124	365.67
213.017	427.736
215.909	560.08
218.802	579.509
221.695	546.525
224.587	360.414
227.48	194.296
230.373	71.8062
233.266	42.2405
236.158	32.2788
239.051	23.727
241.944	45.4346
244.836	23.762
247.729	83.3425
250.622	273.956
253.514	444.585
256.407	661.317
259.3	925.03
262.193	1094.06
265.085	1242.27
267.978	1249.87
270.871	1392.08
273.763	1640
276.656	1860.7
279.549	2132.21
282.442	2209.64
285.334	2003.87
288.227	1679.2
291.12	1415.6
294.012	1223.47
296.905	1132.16
299.798	1027.31
302.69	990.591
305.583	844.293
308.476	789.207
311.368	654.393
314.261	595.519
317.154	501.7
320.047	544.621
322.939	552.456
325.832	664.575
328.725	807.777
331.617	982.871
334.51	964.056
337.403	744.854
340.296	481.509
343.188	248.384
346.081	110.584
348.974	38.957
351.866	29.9015
354.759	37.9477
357.652	8.00586
360.544	35.2195
363.437	84.18
366.33	119.947
369.223	210.362
372.115	203.035
375.008	211.821
377.901	206.908
380.793	70.4487
383.686	51.6605
386.579	8.01013
389.471	69.3135
392.364	57.8395
395.257	26.576
398.149	138.978
401.042	269.097
403.935	379.723
406.828	422.734
409.72	448.556
412.613	445.636
415.506	421.912
418.398	408.044
421.291	284.74
424.184	237.247
427.077	181.825
429.969	204.702
432.862	242.101
435.755	363.293
438.647	401.494
441.54	576.404
444.433	730.026
447.325	912.916
450.218	1043.86
453.111	1173.7
456.003	1236.55
458.896	1251.04
461.789	1100.03
464.682	964.531
467.574	829.236
470.467	691.973
473.36	668.509
476.252	691.91
479.145	725.375
482.038	671.662
484.931	587.328
487.823	484.259
490.716	397.299
493.609	309.486
496.501	272.537
499.394	289.827
502.287	299.113
505.18	315.226
508.072	237.007
510.965	268.637
513.858	275.143
516.75	296.27
519.643	296.097
522.536	286.494
525.428	283.191
528.321	243.942
531.214	178.332
534.106	126.916
536.999	62.6415
539.892	50.3593
542.785	13.1499
545.677	2.56494
548.57	58.4487
551.463	51.6227
554.355	56.5723
557.248	17.1675
560.141	27.2205
563.034	92.4477
565.926	164.161
568.819	191.134
571.712	270.021
574.604	335.439
577.497	348.218
580.39	306.082
583.282	272.018
586.175	219.864
589.068	220.057
591.961	223.727
594.853	266.107
597.746	306.562
600.639	401.738
603.531	523.19
606.424	674.029
609.317	827.657
612.209	890.599
615.102	904.467
617.995	927.258
620.888	969.036
623.78	1096.51
626.673	1226.81
629.566	1349.51
632.458	1309.35
635.351	1204.87
638.244	1123.49
641.136	1188.38
644.029	1277.17
646.922	1370.63
649.814	1500.89
652.707	1427.7
655.6	1365.89
658.493	1262.29
661.385	1193.83
664.278	1084.34
667.171	960.542
670.063	789.321
672.956	591.083
675.849	435.418
678.742	276.916
681.634	235.463
684.527	114.794
687.42	38.4442
690.312	44.8678
693.205	13.734
696.098	13.1741
698.99	4.8266
701.883	19.9903
704.776	22.0613
707.669	1.87701
710.561	27.1534
713.454	23.6743
716.347	13.1213
719.239	9.91879
722.132	29.948
725.025	8.31152
727.918	9.64395
730.81	5.20438
733.703	25.3566
736.596	32.4924
739.488	2.43109
742.381	27.4293
745.274	15.8451
748.166	37.1149
751.059	10.5668
753.952	26.9167
756.845	33.0218
759.737	36.8992
762.63	31.9158
765.523	29.4161
768.415	33.7329
771.308	40.858
774.201	28.191
777.093	34.7616
779.986	36.1386
782.879	1.75964
785.771	30.1594
788.664	24.3712
791.557	36.0866
794.45	0.500702
797.342	32.4528
800.235	36.7422
803.128	37.0485
806.02	24.6262
808.913	49.905
811.806	43.9263
814.698	30.8368
817.591	44.2726
820.484	42.9619
823.377	54.8042
826.269	38.7834
829.162	65.4392
832.055	75.626
834.947	56.7788
837.84	71.5177
840.733	90.6457
843.625	92.5032
846.518	57.5317
849.411	83.6432
852.304	71.4207
855.196	70.4563
858.089	59.1341
860.982	29.3247
863.875	77.6162
866.767	41.5736
869.66	54.2938
872.553	55.035
875.445	85.0725
878.338	71.3866
881.231	68.404
884.123	71.0568
887.016	101.737
889.909	66.9348
892.802	56.5524
895.694	59.5928
898.587	86.5578
901.48	42.6742
904.372	65.8756
907.265	27.0473
910.158	29.9387
913.05	42.3016
915.943	21.7053
918.836	21.8531
921.729	18.855
924.621	9.00973
927.514	24.2432
930.407	5.81656
933.299	13.3144
936.192	6.19397
939.085	5.27982
941.977	8.89166
944.87	19.1522
947.763	7.48907
950.655	17.7787
953.548	23.2918
956.441	45.2897
959.334	50.3455
962.226	105.515
965.119	99.5405
968.012	159.681
970.904	238.602
973.797	338.991
976.69	403.708
979.582	440.262
982.475	522.773
985.368	611.946
988.261	701.744
991.153	917.292
994.046	1157.5
996.939	1404.49
999.831	1292.12
1002.72	1065.55
1005.62	928.959
1008.51	832.957
1011.4	759.189
1014.29	726.173
1017.19	622.877
1020.08	654.736
1022.97	692.633
1025.87	737.947
1028.76	740.296
1031.65	659.255
1034.54	571.077
1037.44	595.995
1040.33	621.336
1043.22	725.8
1046.12	908.902
1049.01	1145.02
1051.9	1398.77
1054.79	1652.1
1057.68	1673.37
1060.58	1513.86
1063.47	1312.52
1066.36	992.384
1069.26	675.876
1072.15	433.145
1075.04	313.012
1077.93	135.038
1080.83	81.6952
1083.72	22.6941
1086.61	34.4437
1089.51	23.2999
1092.4	23.5152
1095.29	23.2651
1098.18	24.189
1101.08	19.7054
1103.97	1.14081
1106.86	7.08057
1109.75	6.85278
1112.65	8.33899
1115.54	12.1354
1118.43	21.6339
1121.33	14.1711
1124.22	67.1486
1127.11	33.8003
1130	46.0047
1132.9	39.9203
1135.79	48.9074
1138.68	8.84277
1141.57	12.8076
1144.47	10.5438
1147.36	2.4812
1150.25	9.24121
1153.14	24.0228
1156.04	16.7951
1158.93	58.6913
1161.82	54.1233
1164.71	121.689
1167.61	170.834
1170.5	244.661
1173.39	298.384
1176.29	296.584
1179.18	276.685
1182.07	235.387
1184.96	211.283
1187.86	146.689
1190.75	180.172
1193.64	177.046
1196.54	165.428
1199.43	165.687
1202.32	189.728
1205.21	238.575
1208.11	276.464
1211	278.379
1213.89	288.32
1216.78	246.18
1219.68	141.011
1222.57	102.731
1225.46	62.3931
1228.36	44.2995
1231.25	30.8063
1234.14	10.6045
1237.03	21.2658
1239.93	19.3799
1242.82	34.7143
1245.71	26.135
1248.6	15.0997
1251.5	17.6751
1254.39	23.3209
1257.28	23.2151
1260.17	66.8378
1263.07	23.2853
1265.96	28.6956
1268.85	50.4985
1271.74	51.4789
1274.64	19.7684
