Measurement: Raman, 780 nm, unoriented, Raman Data Processed
Mineral: Tinzenite
Rruff sample: R050251
Ideal chemistry: Ca_6_Al_4_[B_2_Si_8_O_30_](OH)_2_
Locality: Tinzen, Sursass Valley, Switzerland
Source: Marcus Origlieri
Description: Aggregate of yellowish orange prismatic crystals associated with quartz
Measured chemistry: (Ca_2.96_Mn_2.84_Fe^2+^_0.14_Mg_0.06_)_Î£=6_Al_4.00_[B_2.00_Si_8.00_O_30_](OH)_2_; H_2_O assumed ideal from stoichiometry; B_2_O_3_ estimated by difference
Raman shift (cm-1)	intensity
157.609	0
160.502	3.10221
163.395	5.80039
166.287	11.8451
169.18	14.7587
172.073	12.6358
174.965	4.76197
177.858	1.12488
180.751	1.80658
183.643	0.019257
186.536	3.68935
189.429	9.91706
192.322	17.5083
195.214	24.612
198.107	27.5962
201	33.0064
203.892	36.905
206.785	40.6577
209.678	33.1246
212.571	24.2876
215.463	14.0177
218.356	6.8138
221.249	1.87129
224.141	0.316994
227.034	1.50663
229.927	3.57214
232.819	0.460098
235.712	4.31046
238.605	8.36333
241.498	11.5055
244.39	16.4905
247.283	17.5801
250.176	17.8464
253.068	22.118
255.961	25.3625
258.854	29.8663
261.746	35.2447
264.639	41.5457
267.532	45.5246
270.425	51.9237
273.317	48.0492
276.21	38.498
279.103	29.6402
281.995	27.8512
284.888	30.9862
287.781	34.2489
290.673	30.5605
293.566	29.2753
296.459	37.1643
299.351	40.4578
302.244	44.315
305.137	53.1486
308.03	54.724
310.922	57.2049
313.815	62.5402
316.708	74.823
319.6	85.9707
322.493	83.7411
325.386	67.7664
328.279	57.2272
331.171	48.8349
334.064	46.2285
336.957	43.4174
339.849	40.3739
342.742	33.3734
345.635	27.1443
348.527	25.1915
351.42	21.4697
354.313	12.0923
357.205	2.6847
360.098	1.78081
362.991	3.8048
365.884	2.4744
368.776	2.14462
371.669	1.67968
374.562	3.13709
377.454	7.5153
380.347	13.202
383.24	19.1393
386.132	25.2489
389.025	24.4067
391.918	22.4319
394.81	22.1345
397.703	23.7924
400.596	23.6316
403.489	22.1447
406.381	25.7925
409.274	32.5754
412.167	40.2604
415.059	35.772
417.952	28.9708
420.845	26.2099
423.738	24.1576
426.63	26.8374
429.523	26.6851
432.416	25.2436
435.308	24.3694
438.201	21.4777
441.094	22.6194
443.986	20.8211
446.879	11.469
449.772	5.82497
452.665	3.87964
455.557	2.06812
458.45	0.553749
461.343	3.11461
464.235	5.37484
467.128	10.7384
470.021	10.9593
472.913	12.8723
475.806	13.1747
478.699	16.2877
481.592	18.1344
484.484	15.7293
487.377	9.5083
490.27	4.58189
493.162	3.50115
496.055	4.01089
498.948	5.13734
501.841	7.78108
504.733	8.08271
507.626	6.29919
510.519	3.32676
513.411	0.075424
516.304	0.265732
519.197	2.61478
522.089	0.785324
524.982	0.750504
527.875	2.32879
530.768	3.66286
533.66	6.91554
536.553	8.24101
539.446	10.9381
542.338	11.4598
545.231	13.11
548.124	14.1449
551.016	13.6079
553.909	10.9692
556.802	11.1134
559.694	10.3937
562.587	10.2508
565.48	12.072
568.373	14.252
571.265	15.0769
574.158	15.1768
577.051	14.2434
579.943	14.9715
582.836	16.4356
585.729	16.0911
588.621	15.6043
591.514	11.0944
594.407	7.53434
597.299	4.35365
600.192	2.5465
603.085	5.04667
605.978	3.97277
608.87	4.05814
611.763	4.24871
614.656	4.75846
617.548	5.38922
620.441	3.84853
623.334	1.85561
626.226	0.590824
629.119	0.577053
632.012	0.381969
634.905	0.643066
637.797	3.124
640.69	5.44226
643.583	6.26684
646.475	7.27721
649.368	3.24362
652.261	1.43158
655.154	0.271465
658.046	0.143002
660.939	0.969646
663.832	1.06898
666.724	4.65624
669.617	8.38934
672.51	13.9855
675.402	18.4022
678.295	22.8292
681.188	22.7643
684.081	18.8849
686.973	13.7958
689.866	8.88227
692.759	5.97686
695.651	7.32961
698.544	9.49971
701.437	15.5019
704.329	25.0184
707.222	39.2195
710.115	56.9637
713.008	78.3288
715.9	100.007
718.793	113.03
721.686	114.808
724.578	98.0342
727.471	70.32
730.364	41.8272
733.256	24.6326
736.149	13.8219
739.042	8.31703
741.934	6.06713
744.827	2.32501
747.72	1.8575
750.613	2.1641
753.505	1.38705
756.398	2.17321
759.291	2.7915
762.183	3.93942
765.076	3.77478
767.969	5.46225
770.861	4.47616
773.754	2.24629
776.647	0.650391
779.54	0.432747
782.432	1.33017
785.325	0.059689
788.218	0.732628
791.11	0.454082
794.003	0.420177
796.896	0.325188
799.788	0.46413
802.681	0.119659
805.574	0.751747
808.467	3.23651
811.359	2.09848
814.252	3.06082
817.145	1.94181
820.037	2.12754
822.93	1.58094
825.823	1.42068
828.716	2.02583
831.608	1.69998
834.501	2.10157
837.394	2.97536
840.286	3.05636
843.179	2.57491
846.072	2.91549
848.964	3.40872
851.857	2.00672
854.75	1.0024
857.643	2.19498
860.535	1.6096
863.428	4.24774
866.321	3.92935
869.213	5.46103
872.106	4.89732
874.999	5.65183
877.891	6.45694
880.784	5.80172
883.677	6.02148
886.569	7.59485
889.462	8.96463
892.355	11.0784
895.248	12.0879
898.14	11.1099
901.033	9.26684
903.926	8.24112
906.818	6.9266
909.711	4.34489
912.604	1.758
915.496	0.004776
918.389	1.89567
921.282	0.2897
924.175	0.907337
927.067	0.324989
929.96	0.139099
932.853	0.890945
935.745	2.84545
938.638	4.95243
941.531	8.22277
944.423	10.1692
947.316	13.2225
950.209	14.6545
953.102	17.633
955.994	21.0407
958.887	23.9691
961.78	25.8449
964.672	26.4083
967.565	27.7798
970.458	30.8994
973.351	35.4917
976.243	37.4846
979.136	44.0841
982.029	44.7308
984.921	45.8251
987.814	44.0104
990.707	41.2711
993.599	38.738
996.492	38.2576
999.385	29.6902
1002.28	22.2829
1005.17	15.6763
1008.06	11.9944
1010.96	9.84672
1013.85	5.6266
1016.74	3.29853
1019.63	1.74415
1022.53	0.860516
1025.42	1.22235
1028.31	0.491291
1031.2	0.266525
1034.1	0.250622
1036.99	1.32127
1039.88	0.101433
1042.78	1.09364
1045.67	2.72257
1048.56	2.21438
1051.45	3.88849
1054.35	5.84886
1057.24	5.51002
1060.13	5.34054
1063.02	4.9372
1065.92	2.97823
1068.81	3.75241
1071.7	4.3169
1074.6	5.48397
1077.49	6.95138
1080.38	9.37051
1083.27	8.98006
1086.17	7.84928
1089.06	6.46886
1091.95	3.81399
1094.84	3.43797
1097.74	2.37989
1100.63	3.50684
1103.52	2.86263
1106.41	2.4484
1109.31	2.65636
1112.2	0.966181
1115.09	2.96837
1117.98	0.144783
1120.88	0.729982
1123.77	0.264727
1126.66	0.52861
1129.56	0.335978
1132.45	0.347563
1135.34	1.01282
1138.23	0.273495
1141.13	0.471464
1144.02	0.735661
1146.91	0.059269
1149.81	0.515112
1152.7	1.24785
1155.59	0.545599
1158.48	0.956659
1161.38	0.183258
1164.27	0.487848
1167.16	1.20511
1170.05	1.03008
1172.95	1.25515
1175.84	1.83784
1178.73	2.17905
1181.62	1.83824
1184.52	0.525152
1187.41	1.64908
1190.3	1.95692
1193.2	2.02888
1196.09	2.14266
1198.98	1.0408
1201.87	0.846886
1204.77	1.31479
1207.66	1.77456
1210.55	0.876717
1213.44	0.435112
1216.34	1.19216
1219.23	0.755682
1222.12	1.35219
1225.02	1.43255
1227.91	1.53794
1230.8	0.790308
1233.69	1.2045
1236.59	0.910231
1239.48	0.588886
1242.37	0.942537
1245.26	2.17216
1248.16	2.37241
1251.05	1.05303
1253.94	1.50307
1256.84	1.71292
1259.73	1.47475
1262.62	0.110197
1265.51	0.104427
1268.41	1.2409
1271.3	0.876663
1274.19	1.91832
1277.08	0.997263
1279.98	1.12603
1282.87	1.89858
1285.76	0.206446
