Measurement: Raman, 514 nm, unoriented, Raman Data Processed
Mineral: Tinzenite
Rruff sample: R050251
Ideal chemistry: Ca_6_Al_4_[B_2_Si_8_O_30_](OH)_2_
Locality: Tinzen, Sursass Valley, Switzerland
Source: Marcus Origlieri
Description: Aggregate of yellowish orange prismatic crystals associated with quartz
Measured chemistry: (Ca_2.96_Mn_2.84_Fe^2+^_0.14_Mg_0.06_)_Î£=6_Al_4.00_[B_2.00_Si_8.00_O_30_](OH)_2_; H_2_O assumed ideal from stoichiometry; B_2_O_3_ estimated by difference
Raman shift (cm-1)	intensity
85.009	0
89.193	163.787
93.375	298.804
97.554	1490.78
101.732	4481.63
105.908	5194.56
110.082	3067.36
114.254	2308.91
118.424	1367.98
122.592	174.267
126.758	13.016
130.922	1009.47
135.083	1012.23
139.243	1985.61
143.401	1400.78
147.557	627.419
151.711	119.987
155.863	221.919
160.013	610.91
164.161	673.625
168.308	1013.29
172.452	990.882
176.594	459.752
180.734	34.009
184.872	137.598
189.008	670.414
193.143	1684.32
197.275	2293.19
201.405	2992.95
205.534	3696.53
209.66	3368.67
213.784	2343.33
217.907	1217.44
222.027	269.061
226.146	216.038
230.263	439.884
234.377	314.655
238.49	11.915
242.601	485.651
246.709	636.331
250.816	616.032
254.921	753.93
259.024	1131.79
263.125	1576.79
267.224	1857.16
271.321	2205.43
275.416	1755.31
279.51	916.608
283.601	679.251
287.69	786.131
291.778	1319.6
295.863	2403.34
299.947	3866.93
304.029	5112.48
308.108	4645.16
312.186	3360
316.262	3253.22
320.336	3995.64
324.408	3239.68
328.478	2908.61
332.546	3480.96
336.612	5117.74
340.677	4294.1
344.739	4160.77
348.799	4280.29
352.858	3578.89
356.915	1546.84
360.969	388.005
365.022	71.331
369.073	148.438
373.122	276.529
377.169	521.87
381.215	1281.45
385.258	2371.27
389.299	3012.86
393.339	2897.57
397.376	2416.87
401.412	1951.97
405.446	1996.78
409.478	3219.82
413.508	4553.1
417.536	4251.66
421.562	3665.43
425.586	3173.38
429.609	2432.48
433.629	1924.72
437.648	1629.09
441.665	1841.57
445.68	1651.15
449.693	816.828
453.704	502.607
457.713	299.478
461.721	442.437
465.726	731.483
469.73	794.755
473.731	1220.93
477.731	2310.68
481.729	4333.43
485.725	4168.19
489.72	2065.21
493.712	1021.96
497.703	868.444
501.691	1358.9
505.678	1402.28
509.663	776.961
513.646	208.696
517.627	4.231
521.607	161.401
525.584	166.369
529.56	60.108
533.534	418.608
537.506	647.618
541.476	820.527
545.444	922.331
549.41	1040.13
553.375	1099.46
557.337	1237.45
561.298	1229.69
565.257	1721.81
569.214	2195.77
573.17	2478.56
577.123	2405.19
581.075	2898.63
585.024	3617.89
588.972	3803.95
592.918	2624.85
596.863	1815.65
600.805	1390.08
604.746	1208.29
608.685	1010.26
612.621	971.01
616.557	1078.51
620.49	1007.77
624.421	474.771
628.351	171.349
632.279	30.245
636.205	55.424
640.129	204.378
644.051	403.694
647.972	526.023
651.89	149.706
655.807	23.523
659.722	99.883
663.636	64.587
667.547	120.491
671.457	555.613
675.365	1355.21
679.271	2597.83
683.175	2884.6
687.077	2081.67
690.978	1184.85
694.877	671.496
698.774	602.066
702.669	809.106
706.562	1455.77
710.454	2903.04
714.344	5479.93
718.232	9234.41
722.118	11800.5
726.002	10352.2
729.885	6377.49
733.766	3328.4
737.645	1610.93
741.522	823.072
745.397	625.834
749.271	506.217
753.143	415.221
757.013	477.849
760.881	846.106
764.748	1230
768.613	1563.52
772.476	1332.69
776.337	872.499
780.196	451.954
784.054	106.754
787.91	34.723
791.764	203.061
795.616	141.201
799.467	266.827
803.316	147.869
807.163	88.504
811.008	107.17
814.851	158.924
818.693	91.393
822.533	8.028
826.371	55.51
830.208	264.307
834.042	310.088
837.875	504.089
841.706	620.16
845.536	574.077
849.363	430.844
853.189	478.493
857.013	626.405
860.836	775.848
864.656	1045.46
868.475	1202.71
872.292	1390.53
876.108	1560.09
879.922	1765.74
883.733	2195.4
887.544	2886.1
891.352	3633.75
895.159	4115.46
898.964	4486.11
902.767	4115.63
906.568	3772.97
910.368	3420.86
914.166	2771.91
917.962	2268.37
921.757	2072.86
925.55	2090.31
929.341	2101.7
933.13	2352
936.918	2652.09
940.703	3394.38
944.488	4366.56
948.27	5171.24
952.051	5627.24
955.83	6546.24
959.607	7360.12
963.383	7270.38
967.156	6790.53
970.928	6718.67
974.699	7221.99
978.468	8424.11
982.234	9414.61
986	9270.02
989.763	8826.86
993.525	8809.28
997.285	8916.04
1001.04	7808.4
1004.8	6466.27
1008.55	5785.98
1012.31	5041.33
1016.06	3783.41
1019.81	2645.88
1023.56	2170.82
1027.31	2043.16
1031.05	1848.07
1034.79	1705.27
1038.53	1471.07
1042.27	1418.04
1046.01	1419.13
1049.75	1476.14
1053.48	1451.42
1057.22	1401.23
1060.95	1316.32
1064.68	1248.88
1068.4	1173.86
1072.13	1147.93
1075.86	1163.33
1079.58	1443.44
1083.3	1533.79
1087.02	1395.22
1090.74	1213.06
1094.45	1235.13
1098.17	1104.72
1101.88	853.8
1105.59	894.115
1109.3	735.158
1113.01	638.756
1116.71	576.447
1120.42	450.342
1124.12	616.272
1127.82	304.427
1131.52	284.685
1135.22	130.074
1138.91	221.396
1142.61	69.671
1146.3	58.183
1149.99	22.575
1153.68	47.59
1157.37	74.881
1161.06	46.568
1164.74	32.764
1168.42	101.114
1172.1	96.65
1175.78	81.387
1179.46	40.738
1183.14	49.553
1186.81	2.599
1190.48	84.396
1194.15	26.487
1197.83	159.267
1201.49	15.359
1205.16	78.102
1208.82	95.325
1212.49	0.676
1216.15	50.22
1219.81	3.955
1223.46	84.191
1227.12	178.301
1230.78	165.165
1234.43	270.904
1238.08	264.058
1241.73	319.585
1245.38	172.521
1249.03	215.849
1252.67	241.496
1256.31	323.487
1259.95	321.123
1263.6	309.598
1267.23	337.075
1270.87	290.432
1274.51	150.896
1278.14	218.889
1281.77	222.298
1285.4	252.848
1289.03	207.066
1292.66	111.422
1296.28	170.654
1299.91	207.152
1303.53	144.012
1307.15	98.382
1310.77	142.702
1314.38	18.208
1318	151.865
1321.61	148.302
1325.23	109.391
1328.84	224.149
1332.45	166.591
1336.06	83.56
1339.66	202.996
1343.27	116.008
1346.87	102.673
1350.47	22.939
1354.07	148.808
1357.67	157.442
1361.26	129.974
