Measurement: Raman, 780 nm, unoriented, Raman Data Processed
Mineral: Tinzenite
Rruff sample: R110064
Ideal chemistry: Ca_6_Al_4_[B_2_Si_8_O_30_](OH)_2_
Locality: Gambatesa mine, Val Graveglia, Genova, Italy
Source: Renato & Adriana Pagano
Description: Parallel aggregates of orange platy crystals
Raman shift (cm-1)	intensity
179.349	0
182.242	0.225281
185.134	0.79303
188.027	14.6627
190.92	37.1327
193.812	70.0142
196.705	82.3481
199.598	93.2349
202.49	127.088
205.383	168.701
208.276	154.53
211.168	109.603
214.061	75.9142
216.954	51.3257
219.847	26.621
222.739	5.23209
225.632	4.5679
228.525	4.83618
231.417	5.17435
234.31	7.61752
237.203	11.271
240.095	33.5925
242.988	46.9059
245.881	53.4739
248.774	51.508
251.666	51.9966
254.559	50.1264
257.452	46.1511
260.344	58.0168
263.237	72.1095
266.13	79.6678
269.022	85.8972
271.915	88.886
274.808	99.729
277.701	77.3949
280.593	43.0334
283.486	33.7987
286.379	39.9853
289.271	53.7207
292.164	76.9879
295.057	102.382
297.95	144.249
300.842	165.541
303.735	182.452
306.628	201.141
309.52	148.529
312.413	78.4086
315.306	48.1233
318.198	48.6993
321.091	56.4045
323.984	58.3206
326.877	47.255
329.769	45.7903
332.662	51.7492
335.555	71.0556
338.447	89.0022
341.34	118.187
344.233	142.915
347.125	149.76
350.018	157.577
352.911	143.487
355.803	69.3658
358.696	18.1144
361.589	2.13496
364.482	8.17873
367.374	9.14123
370.267	4.20808
373.16	5.42609
376.052	11.7529
378.945	29.0757
381.838	45.2504
384.731	78.6736
387.623	114.011
390.516	111.308
393.409	89.6943
396.301	73.3774
399.194	64.7916
402.087	60.3875
404.979	69.7359
407.872	98.0481
410.765	146.039
413.658	196.91
416.55	199.471
419.443	153.246
422.336	117.195
425.228	90.861
428.121	75.1453
431.014	56.9899
433.906	43.7907
436.799	46.7687
439.692	55.5595
442.584	70.4148
445.477	74.6405
448.37	44.9522
451.263	28.2197
454.155	17.9424
457.048	10.0486
459.941	3.24735
462.833	1.08766
465.726	8.30286
468.619	18.5746
471.512	31.7192
474.404	45.2142
477.297	64.8816
480.19	107.859
483.082	152.357
485.975	154.55
488.868	81.7707
491.76	42.5106
494.653	18.1987
497.546	17.9011
500.438	21.6623
503.331	19.6859
506.224	13.1448
509.117	8.38702
512.009	0.739365
514.902	2.42705
517.795	3.51602
520.687	2.71719
523.58	5.38904
526.473	0.70137
529.365	3.59816
532.258	9.47214
535.151	13.2302
538.044	15.0372
540.936	21.1056
543.829	22.39
546.722	24.85
549.614	21.132
552.507	28.9799
555.4	35.3151
558.293	44.1067
561.185	45.5586
564.078	62.9261
566.971	76.2051
569.863	92.3904
572.756	100.22
575.649	100.148
578.541	93.1452
581.434	87.3987
584.327	97.5272
587.22	110.366
590.112	102.773
593.005	78.8383
595.898	50.8259
598.79	44.7091
601.683	40.1238
604.576	39.4181
607.468	41.5218
610.361	42.9903
613.254	43.557
616.146	40.6932
619.039	45.969
621.932	37.501
624.825	24.0056
627.717	10.4118
630.61	3.86848
633.503	1.87782
636.395	1.46887
639.288	0.546997
642.181	1.17667
645.073	0.059982
647.966	0.788879
650.859	1.66255
653.752	0.052765
656.644	2.23467
659.537	0.396103
662.43	5.58531
665.322	15.3372
668.215	27.5632
671.108	47.2766
674	69.9969
676.893	90.729
679.786	116.024
682.679	107.254
685.571	86.3604
688.464	55.7003
691.357	40.8604
694.249	40.6089
697.142	41.383
700.035	53.2696
702.928	77.1681
705.82	108.611
708.713	151.5
711.606	198.04
714.498	248.733
717.391	298.154
720.284	319.349
723.176	295.747
726.069	230.903
728.962	155.913
731.855	94.7045
734.747	55.0491
737.64	33.4897
740.533	17.1614
743.425	14.909
746.318	8.97603
749.211	9.35228
752.103	7.14192
754.996	10.6951
757.889	9.58266
760.782	20.1205
763.674	26.2704
766.567	35.3883
769.46	30.1195
772.352	27.7328
775.245	17.5532
778.138	10.5256
781.03	4.58943
783.923	2.96928
786.816	1.56874
789.708	0.845917
792.601	2.21637
795.494	3.09602
798.387	0.436768
801.279	2.5638
804.172	1.17825
807.065	3.34502
809.957	7.15549
812.85	10.5829
815.743	8.89186
818.635	1.98857
821.528	7.97313
824.421	1.49147
827.314	1.36165
830.206	3.37148
833.099	3.10419
835.992	1.87643
838.884	1.5264
841.777	0.482666
844.67	0.792603
847.562	1.01651
850.455	2.91852
853.348	0.188721
856.241	2.95253
859.133	1.1532
862.026	5.61331
864.919	9.13919
867.811	7.03864
870.704	16.2986
873.597	19.552
876.49	25.3159
879.382	32.6189
882.275	42.7884
885.168	57.437
888.06	69.348
890.953	81.228
893.846	96.7955
896.738	110.369
899.631	117.654
902.524	109.839
905.417	93.5736
908.309	77.7725
911.202	59.4926
914.095	41.8873
916.987	27.3632
919.88	18.9496
922.773	10.6602
925.665	5.92624
928.558	3.50667
931.451	3.57509
934.343	4.80839
937.236	7.19232
940.129	12.9173
943.022	27.4962
945.914	37.893
948.807	52.2375
951.7	65.912
954.592	77.4234
957.485	91.1042
960.378	108.886
963.27	110.493
966.163	106.637
969.056	101.015
971.949	110.419
974.841	125.245
977.734	146.114
980.627	169.288
983.519	178.07
986.412	169.673
989.305	161.182
992.197	153.377
995.09	154.919
997.983	143.198
1000.88	130.832
1003.77	116.164
1006.66	102.25
1009.55	92.286
1012.45	68.799
1015.34	47.8271
1018.23	28.31
1021.12	16.4954
1024.02	7.67088
1026.91	3.04506
1029.8	2.49228
1032.69	4.42277
1035.59	2.3307
1038.48	4.15616
1041.37	2.32138
1044.27	3.47766
1047.16	4.03853
1050.05	5.00732
1052.94	13.8599
1055.84	19.3042
1058.73	22.4026
1061.62	18.7981
1064.52	12.7451
1067.41	8.19879
1070.3	5.88037
1073.19	2.79517
1076.09	7.49003
1078.98	7.13984
1081.87	16.1683
1084.76	15.203
1087.66	17.3968
1090.55	12.2846
1093.44	10.5188
1096.34	7.1828
1099.23	10.4578
1102.12	15.555
1105.01	14.2137
1107.91	12.9875
1110.8	12.8382
1113.69	7.14156
1116.58	4.636
1119.48	3.48458
1122.37	3.22052
1125.26	2.03745
1128.15	2.61432
1131.05	1.77866
1133.94	1.6394
1136.83	0.55706
1139.72	1.49996
1142.62	3.4506
1145.51	0.353241
1148.4	1.46073
1151.3	0.442795
1154.19	0.709496
1157.08	1.56184
1159.97	2.50562
1162.87	3.06946
1165.76	0.720924
1168.65	2.90367
1171.55	4.50011
1174.44	5.64146
1177.33	5.11832
1180.22	3.26325
1183.12	5.43893
1186.01	1.07404
1188.9	3.95036
1191.79	3.86232
1194.69	3.93502
1197.58	3.99974
1200.47	3.82008
1203.37	5.28444
1206.26	2.32334
1209.15	0.332878
1212.04	3.27296
1214.93	0.05468
1217.83	2.61134
1220.72	1.82823
1223.61	0.68885
1226.51	6.70611
1229.4	4.18022
1232.29	1.73613
1235.18	1.41251
1238.08	1.99847
1240.97	4.83765
1243.86	1.51244
1246.76	2.52689
1249.65	3.58072
1252.54	1.28229
1255.43	3.24341
1258.33	4.06824
1261.22	3.48525
1264.11	0.207703
1267	1.77924
1269.9	4.40098
1272.79	3.5181
1275.68	3.29282
1278.58	1.7022
1281.47	3.6367
1284.36	2.26195
