Measurement: Raman, 532 nm, unoriented, Raman Data Processed
Mineral: Tinzenite
Rruff sample: R050251
Ideal chemistry: Ca_6_Al_4_[B_2_Si_8_O_30_](OH)_2_
Locality: Tinzen, Sursass Valley, Switzerland
Source: Marcus Origlieri
Description: Aggregate of yellowish orange prismatic crystals associated with quartz
Measured chemistry: (Ca_2.96_Mn_2.84_Fe^2+^_0.14_Mg_0.06_)_Î£=6_Al_4.00_[B_2.00_Si_8.00_O_30_](OH)_2_; H_2_O assumed ideal from stoichiometry; B_2_O_3_ estimated by difference
Raman shift (cm-1)	intensity
151.942	0
154.834	9.33214
157.727	32.1911
160.62	35.0781
163.512	22.3031
166.405	26.643
169.298	46.2809
172.19	46.3809
175.083	30.4933
177.976	11.14
180.869	1.85478
183.761	1.15385
186.654	3.6662
189.547	20.3646
192.439	46.4744
195.332	61.2393
198.225	69.3695
201.118	77.2662
204.01	95.1846
206.903	103.547
209.796	93.6812
212.688	72.5873
215.581	51.7454
218.474	25.169
221.366	4.55391
224.259	3.09277
227.152	6.08737
230.044	4.78781
232.937	0.946014
235.83	8.70158
238.723	20.6087
241.615	38.3765
244.508	47.1872
247.401	50.6027
250.293	49.3965
253.186	46.6737
256.079	44.654
258.971	50.5066
261.864	61.6403
264.757	73.6295
267.65	69.8072
270.542	75.0797
273.435	75.3329
276.328	60.5359
279.22	45.562
282.113	42.8123
285.006	49.6704
287.898	63.0456
290.791	77.1209
293.684	100.185
296.577	132.171
299.469	160.314
302.362	166.882
305.255	177.398
308.147	170.677
311.04	136.002
313.933	109.71
316.825	108.673
319.718	124.709
322.611	124.948
325.503	110.487
328.396	96.3842
331.289	87.5213
334.182	95.3389
337.074	113.435
339.967	118.745
342.86	127.918
345.752	130.032
348.645	142.176
351.538	140.674
354.43	93.3838
357.323	32.0924
360.216	5.90143
363.109	6.38278
366.001	13.7948
368.894	6.72015
371.787	0.396606
374.679	9.05859
377.572	23.6227
380.465	45.141
383.358	70.6058
386.25	99.9574
389.143	103.373
392.036	93.7793
394.928	81.8615
397.821	72.6481
400.714	65.3707
403.606	62.8075
406.499	64.075
409.392	90.7413
412.284	118.784
415.177	127.606
418.07	111.254
420.963	92.8236
423.855	79.0026
426.748	65.1117
429.641	59.6412
432.533	59.4961
435.426	54.6059
438.319	60.9679
441.212	70.0255
444.104	72.7452
446.997	48.4452
449.89	23.8427
452.782	16.4601
455.675	10.776
458.568	0.236725
461.46	0.142303
464.353	9.84964
467.246	25.457
470.139	41.6141
473.031	51.0187
475.924	69.16
478.817	101.636
481.709	133.949
484.602	141.174
487.495	94.2426
490.387	47.4682
493.28	30.7222
496.173	28.7479
499.065	32.7995
501.958	40.8593
504.851	42.7086
507.744	37.128
510.636	19.7991
513.529	3.80389
516.422	2.24307
519.314	8.21225
522.207	5.95373
525.1	0.960602
527.992	4.32629
530.885	12.6315
533.778	21.9047
536.671	32.7271
539.563	38.9223
542.456	45.8907
545.349	49.5588
548.241	55.2647
551.134	58.1188
554.027	55.5001
556.919	62.7727
559.812	69.9769
562.705	79.4138
565.598	90.6553
568.49	105.109
571.383	118.614
574.276	121.632
577.168	124.889
580.061	126.799
582.954	139.873
585.846	156.109
588.739	153.671
591.632	127.495
594.525	96.6222
597.417	74.0531
600.31	63.6749
603.203	61.2115
606.095	56.6413
608.988	46.1135
611.881	39.6206
614.774	28.0236
617.666	21.7473
620.559	13.5465
623.452	7.03824
626.344	3.68451
629.237	0.324097
632.13	1.49884
635.022	0.148071
637.915	2.33636
640.808	7.65463
643.701	12.8001
646.593	11.8186
649.486	5.91275
652.379	0.375702
655.271	1.49606
658.164	2.99744
661.057	1.76126
663.949	3.3912
666.842	14.8908
669.735	31.4309
672.628	50.8034
675.52	83.2147
678.413	108.881
681.306	123.552
684.198	109.357
687.091	76.6546
689.984	49.9067
692.876	32.9313
695.769	27.5294
698.662	28.1073
701.554	43.6077
704.447	70.7316
707.34	113.319
710.232	173.143
713.125	248.481
716.018	336.723
718.911	406.911
721.803	430.844
724.696	392.462
727.589	295.344
730.481	190.823
733.374	107.838
736.267	64.1383
739.159	42.9426
742.052	27.1828
744.945	20.8958
747.838	17.9174
750.73	18.6833
753.623	19.3299
756.516	25.6805
759.408	29.5324
762.301	34.4161
765.194	41.2856
768.087	44.0031
770.979	40.6163
773.872	29.6146
776.765	20.9496
779.657	13.0078
782.55	10.7528
785.443	3.29633
788.335	0.577209
791.228	0.196075
794.121	3.18799
797.014	0.971649
799.906	1.55414
802.799	2.06946
805.692	3.12466
808.584	2.23727
811.477	6.22925
814.37	5.33185
817.263	3.62326
820.155	3.0932
823.048	4.00714
825.941	4.0087
828.833	4.80954
831.726	3.93063
834.619	6.42871
837.511	7.17368
840.404	6.34299
843.297	7.59552
846.189	7.6059
849.082	3.8346
851.975	3.32361
854.868	1.5278
857.76	2.35779
860.653	1.10333
863.546	6.19525
866.438	9.09134
869.331	10.8871
872.224	12.1703
875.116	15.7737
878.009	23.9193
880.902	31.8504
883.795	42.1686
886.687	59.3206
889.58	77.9759
892.473	94.4091
895.365	102.368
898.258	99.2751
901.151	90.9381
904.043	78.2067
906.936	64.9248
909.829	46.676
912.722	33.1392
915.614	18.8915
918.507	8.30359
921.4	3.30017
924.292	1.31808
927.185	1.7854
930.078	2.84186
932.971	1.60998
935.863	3.81515
938.756	7.73837
941.649	18.3532
944.541	32.9989
947.434	45.4492
950.327	64.675
953.219	80.1489
956.112	101.939
959.005	123.026
961.897	130.803
964.79	132.569
967.683	134.515
970.576	145.542
973.468	162.706
976.361	195.789
979.254	225.645
982.146	253.734
985.039	257.431
987.932	252.769
990.824	244.581
993.717	241.325
996.61	237.863
999.503	213.446
1002.39	172.696
1005.29	134.645
1008.18	114.692
1011.07	92.1622
1013.97	69.7924
1016.86	49.5738
1019.75	27.8205
1022.64	18.5408
1025.54	14.2865
1028.43	7.73334
1031.32	3.57077
1034.21	0.491699
1037.11	0.021942
1040	2.83469
1042.89	1.04981
1045.79	2.7662
1048.68	1.43613
1051.57	9.23236
1054.46	9.43503
1057.36	15.2156
1060.25	14.2795
1063.14	10.1957
1066.04	8.18439
1068.93	2.35419
1071.82	4.09137
1074.71	8.45685
1077.61	10.6421
1080.5	16.6597
1083.39	21.9216
1086.28	21.7659
1089.18	16.9336
1092.07	10.7919
1094.96	9.60342
1097.85	9.32904
1100.75	6.65375
1103.64	8.09979
1106.53	11.0299
1109.42	10.0859
1112.32	7.78012
1115.21	3.81903
1118.1	3.9393
1121	0.188812
1123.89	1.85654
1126.78	0.41214
1129.67	0.560425
1132.57	1.26498
1135.46	0.982208
1138.35	1.80188
1141.24	0.101959
1144.14	0.645477
1147.03	0.433228
1149.92	1.90433
1152.82	2.47549
1155.71	4.53961
1158.6	4.36356
1161.49	4.71436
1164.39	5.87115
1167.28	5.17856
1170.17	4.27283
1173.06	5.51822
1175.96	5.91775
1178.85	5.91806
1181.74	6.0282
1184.63	9.38751
1187.53	8.50244
1190.42	8.67657
1193.31	5.40735
1196.21	4.42932
1199.1	6.85022
1201.99	4.19617
1204.88	5.2724
1207.78	0.383667
1210.67	3.73041
1213.56	3.68097
1216.45	2.73236
1219.35	2.53033
1222.24	0.277283
1225.13	2.09607
1228.03	2.61731
1230.92	0.30426
1233.81	3.75903
1236.7	1.28461
1239.6	2.83173
1242.49	0.869873
1245.38	2.06726
1248.28	1.12372
1251.17	3.73663
1254.06	2.52869
1256.95	0.359375
1259.85	3.94757
1262.74	4.21503
1265.63	5.26788
1268.52	0.602905
1271.42	1.87286
1274.31	3.67639
1277.2	2.47101
1280.09	5.52161
1282.99	2.67822
1285.88	0.535156
1288.77	4.21814
1291.66	2.67224
1294.56	2.41473
1297.45	3.30249
1300.34	2.13239
1303.24	3.47192
