Measurement: Raman, 780 nm, unoriented, Raman Data Processed
Mineral: Tiptopite
Rruff sample: R070609
Ideal chemistry: K_2_(Li,Na,Ca)_6_(Be_6_P_6_)O_24_(OH)_2_1.3H_2_O
Locality: Tip Top mine, Custer County, South Dakota, USA
Source: Dakota Matrix Minerals
Description: Radiating colorless prismatic crystals
Raman shift (cm-1)	intensity
126.482	0
129.375	13.1177
132.267	36.3567
135.16	0.972168
138.053	35.1289
140.945	73.8009
143.838	68.3821
146.731	96.8806
149.623	154.154
152.516	201.232
155.409	228.4
158.302	285.244
161.194	311.536
164.087	299.488
166.98	325.701
169.872	311.786
172.765	290.856
175.658	228.552
178.55	147.701
181.443	153.272
184.336	80.6864
187.228	48.2545
190.121	40.7113
193.014	34.6781
195.907	41.5841
198.799	61.2434
201.692	70.3599
204.585	40.8512
207.477	59.6532
210.37	23.8191
213.263	13.411
216.155	7.9353
219.048	2.75537
221.941	26.7859
224.834	16.4155
227.726	86.9053
230.619	116.149
233.512	210.286
236.404	313.611
239.297	431.721
242.19	578.892
245.083	700.857
247.975	820.677
250.868	651.347
253.761	451.561
256.653	295.469
259.546	173.016
262.439	94.1091
265.332	25.4059
268.224	55.9206
271.117	5.35071
274.01	13.5978
276.902	6.93896
279.795	5.71362
282.688	13.0575
285.58	5.91852
288.473	45.2551
291.366	48.7095
294.259	92.5473
297.151	62.3876
300.044	85.4529
302.937	78.9789
305.829	130.912
308.722	175.684
311.615	237.827
314.507	344.134
317.4	475.897
320.293	621.948
323.185	781.779
326.078	949.427
328.971	1123.01
331.864	1154.68
334.756	1008.62
337.649	797.428
340.542	549.903
343.434	308.458
346.327	171.94
349.22	73.5098
352.113	54.1565
355.005	28.1782
357.898	0.909424
360.791	10.3378
363.683	52.8987
366.576	80.7725
369.469	80.6256
372.361	155.035
375.254	226.763
378.147	272.714
381.039	303.312
383.932	302.261
386.825	287.856
389.718	296.943
392.61	295.401
395.503	325.722
398.396	279.37
401.288	247.878
404.181	191.944
407.074	171.286
409.966	183.876
412.859	164.395
415.752	160.973
418.645	185.203
421.537	227.583
424.43	317.534
427.323	451.38
430.215	602.439
433.108	743.115
436.001	831.688
438.894	825.841
441.786	776.466
444.679	682.395
447.572	542.298
450.464	348.784
453.357	242.55
456.25	147.608
459.142	77.5411
462.035	64.3327
464.928	58.484
467.82	37.611
470.713	29.6505
473.606	16.8936
476.499	1.02002
479.391	5.25977
482.284	21.1259
485.177	14.192
488.069	8.89813
490.962	7.08636
493.855	15.6509
496.748	29.8746
499.64	5.07465
502.533	49.0001
505.426	52.0632
508.318	60.8658
511.211	111.166
514.104	167.256
516.996	229.536
519.889	249.204
522.782	252.536
525.674	215.255
528.567	178.103
531.46	98.8033
534.353	67.2182
537.245	70.8629
540.138	70.386
543.031	91.8241
545.923	178.098
548.816	264.777
551.709	409.392
554.601	638.87
557.494	866.52
560.387	1062.64
563.28	1222.59
566.172	1240.68
569.065	989.517
571.958	601.587
574.85	293.12
577.743	158.774
580.636	104.365
583.529	46.7828
586.421	52.4823
589.314	49.3852
592.207	84.6976
595.099	92.215
597.992	79.6401
600.885	80.8394
603.777	80.9949
606.67	80.3576
609.563	25.2258
612.456	29.5508
615.348	12.0883
618.241	20.3762
621.134	17.2812
624.026	78.1492
626.919	112.123
629.812	166.295
632.704	199.677
635.597	170.371
638.49	197.261
641.383	177.575
644.275	169.174
647.168	141.144
650.061	151.257
652.953	142.617
655.846	124.122
658.739	100.012
661.631	53.2286
664.524	16.8385
667.417	2.30273
670.309	1.29767
673.202	6.99768
676.095	10.993
678.988	5.13782
681.88	4.98596
684.773	11.9612
687.666	32.3962
690.558	34.2793
693.451	31.7682
696.344	64.0898
699.236	35.4854
702.129	69.7231
705.022	82.447
707.915	27.8286
710.807	53.6865
713.7	74.2075
716.593	70.9581
719.485	91.5041
722.378	92.7727
725.271	86.0182
728.163	127.717
731.056	102.13
733.949	114.441
736.842	85.6548
739.734	112.382
742.627	103.332
745.52	77.2915
748.412	73.353
751.305	65.9469
754.198	36.3972
757.091	47.245
759.983	38.8383
762.876	52.5414
765.769	38.1991
768.661	25.3126
771.554	20.9686
774.447	23.4804
777.339	5.26025
780.232	46.2772
783.125	15.3235
786.018	9.75525
788.91	1.14572
791.803	4.2417
794.696	18.5144
797.588	3.10669
800.481	5.24313
803.374	16.4021
806.266	18.0774
809.159	16.4936
812.052	12.0492
814.944	16.2569
817.837	3.24851
820.73	20.8495
823.623	37.0421
826.515	6.01965
829.408	50.0813
832.301	46.2482
835.193	51.9949
838.086	50.4963
840.979	94.3543
843.872	52.0967
846.764	62.9885
849.657	73.5872
852.55	70.6603
855.442	53.4572
858.335	82.8887
861.228	60.5095
864.12	73.6926
867.013	71.41
869.906	58.1354
872.799	67.2298
875.691	74.6557
878.584	51.8606
881.477	69.426
884.369	38.3843
887.262	43.5369
890.155	19.4919
893.048	22.4325
895.94	22.0914
898.833	14.471
901.726	16.6433
904.618	4.47644
907.511	18.2834
910.404	7.99033
913.296	19.6883
916.189	25.2264
919.082	12.2325
921.975	24.6806
924.867	28.001
927.76	2.76227
930.653	14.1167
933.545	8.77582
936.438	1.81995
939.331	37.798
942.223	64.5838
945.116	96.6957
948.009	101.16
950.902	115.919
953.794	154.581
956.687	208.772
959.58	249.499
962.472	320.449
965.365	434.214
968.258	582.159
971.15	719.505
974.043	869.397
976.936	1053.65
979.828	1165.84
982.721	1230.79
985.614	1222.52
988.507	1273.9
991.399	1366.74
994.292	1618.17
997.185	2022.84
1000.08	2641.51
1002.97	3403.25
1005.86	4224.57
1008.75	4828.13
1011.65	4774.5
1014.54	4081.29
1017.43	3233.69
1020.33	2551.82
1023.22	2076.09
1026.11	1743.42
1029	1457.55
1031.9	1182.16
1034.79	995.43
1037.68	837.297
1040.58	759.587
1043.47	660.111
1046.36	605.066
1049.25	468.256
1052.15	390.799
1055.04	304.711
1057.93	252.342
1060.82	190.771
1063.72	129.411
1066.61	79.0473
1069.5	53.8022
1072.39	34.6929
1075.29	20.8567
1078.18	6.11841
1081.07	11.6514
1083.97	23.5449
1086.86	18.5027
1089.75	17.4565
1092.64	37.3271
1095.54	9.47778
1098.43	28.8639
1101.32	31.8223
1104.21	38.3925
1107.11	42.5651
1110	2.52069
1112.89	13.4344
1115.79	1.67596
1118.68	28.4919
1121.57	9.59772
1124.46	33.8521
1127.36	2.64575
1130.25	8.17487
1133.14	46.4001
1136.03	44.7034
1138.93	41.3937
1141.82	43.1146
1144.71	58.6655
1147.61	69.0967
1150.5	47.9085
1153.39	56.9423
1156.28	58.5542
1159.18	26.0325
1162.07	24.7436
1164.96	29.0505
1167.85	42.5476
1170.75	32.7856
1173.64	21.1534
1176.53	35.4115
1179.42	4.21188
1182.32	26.0229
1185.21	17.8237
1188.1	21.8924
1191	45.6525
1193.89	28.8256
1196.78	29.0095
1199.67	34.6457
1202.57	24.7082
1205.46	34.2931
1208.35	20.1412
1211.24	49.6208
1214.14	44.4151
1217.03	23.2412
1219.92	16.4633
1222.82	28.3377
1225.71	12.2136
1228.6	10.1921
1231.49	17.1744
1234.39	16.7994
1237.28	14.5752
1240.17	24.7832
1243.06	6.43619
1245.96	3.59103
1248.85	15.5844
1251.74	22.4094
1254.63	28.9682
1257.53	6.41504
1260.42	28.187
1263.31	27.2203
1266.21	30.8238
1269.1	20.8284
1271.99	37.9089
1274.88	2.68954
1277.78	4.83929
