Measurement: Raman, 780 nm, unoriented, Raman Data Processed
Mineral: Tiragalloite
Rruff sample: R130101
Ideal chemistry: Mn^2+^_4_As^5+^Si_3_O_12_(OH)
Locality: Molinello Mine, Near Lavagna, Geona, Graveglia Valley, Italy
Source: Rock Currier
Raman shift (cm-1)	intensity
90.2353	0
93.6102	19.0597
96.985	12.4075
100.36	0.030201
103.735	5.66352
107.109	8.28277
110.484	1.67298
113.859	1.20144
117.234	7.64498
120.609	19.5991
123.984	26.5962
127.358	40.7088
130.733	38.3496
134.108	37.4035
137.483	33.8685
140.858	29.9862
144.232	21.4292
147.607	14.2804
150.982	10.9565
154.357	5.06614
157.732	1.30196
161.107	0.519844
164.481	1.27898
167.856	0.104613
171.231	0.208094
174.606	3.98992
177.981	8.34793
181.355	7.86841
184.73	8.4319
188.105	8.37366
191.48	12.2559
194.855	15.1093
198.229	16.3997
201.604	18.2977
204.979	18.685
208.354	13.3573
211.729	14.0301
215.103	15.4067
218.478	12.9097
221.853	9.12628
225.228	3.9745
228.603	4.10415
231.978	3.71448
235.352	1.38996
238.727	0.281721
242.102	0.278885
245.477	1.08686
248.852	0.606314
252.226	0.319198
255.601	1.37359
258.976	0.069424
262.351	1.25394
265.726	0.427837
269.101	2.47739
272.475	5.29045
275.85	9.70913
279.225	12.7327
282.6	11.6442
285.975	13.3626
289.349	14.2913
292.724	13.6952
296.099	12.2325
299.474	10.3532
302.849	10.5413
306.224	10.3527
309.598	9.38087
312.973	11.997
316.348	13.6159
319.723	18.337
323.098	14.0518
326.472	12.6142
329.847	10.5841
333.222	7.80168
336.597	6.89775
339.972	6.0247
343.346	6.09123
346.721	6.06855
350.096	8.7065
353.471	10.6541
356.846	12.6325
360.221	10.0976
363.595	8.72461
366.97	5.76041
370.345	5.75373
373.72	5.4797
377.095	5.57187
380.469	5.90548
383.844	7.22309
387.219	9.45484
390.594	13.1859
393.969	17.8298
397.344	17.561
400.718	18.6862
404.093	16.345
407.468	14.8344
410.843	12.3406
414.217	9.03849
417.592	7.74446
420.967	1.64679
424.342	1.03639
427.717	0.660539
431.092	0.090269
434.466	1.14028
437.841	0.815498
441.216	1.43532
444.591	5.8265
447.966	11.0848
451.341	14.6934
454.715	21.1147
458.09	27.7556
461.465	39.9511
464.84	40.1797
468.215	27.4259
471.589	21.7017
474.964	20.3015
478.339	19.8422
481.714	16.3997
485.089	11.1343
488.463	9.90268
491.838	10.3264
495.213	4.26418
498.588	3.33874
501.963	5.46329
505.337	10.128
508.712	9.68673
512.087	7.12003
515.462	6.67806
518.837	6.13515
522.212	7.48057
525.586	5.88782
528.961	6.15201
532.336	4.89177
535.711	5.61738
539.086	8.43641
542.46	12.0468
545.835	14.1274
549.21	10.5634
552.585	6.01384
555.96	0.891996
559.335	1.70303
562.709	0.332024
566.084	0.093647
569.459	0.545181
572.834	0.464718
576.209	0.172526
579.583	0.032225
582.958	0.868482
586.333	0.950337
589.708	0.289352
593.083	0.239069
596.457	0.161959
599.832	1.0026
603.207	1.77883
606.582	0.864541
609.957	4.768
613.332	6.34459
616.706	10.4835
620.081	14.3366
623.456	20.1709
626.831	29.5422
630.206	40.4987
633.58	58.0157
636.955	73.2361
640.33	97.6159
643.705	119.089
647.08	126.637
650.455	116.377
653.829	112.481
657.204	123.572
660.579	130.299
663.954	107.061
667.329	66.1098
670.703	38.885
674.078	22.97
677.453	14.6628
680.828	11.9061
684.203	7.92889
687.577	7.90491
690.952	9.37072
694.327	9.64468
697.702	12.2677
701.077	10.2157
704.452	8.11948
707.826	7.26884
711.201	6.78152
714.576	5.27661
717.951	3.65869
721.326	0.961544
724.7	1.35454
728.075	0.590786
731.45	0.834694
734.825	0.4958
738.2	0.201317
741.574	0.863959
744.949	0.306697
748.324	0.228601
751.699	0.428675
755.074	0.691725
758.449	0.552894
761.823	0.604129
765.198	2.1175
768.573	3.62617
771.948	8.58662
775.323	14.0441
778.697	20.7478
782.072	24.5204
785.447	22.6784
788.822	21.9642
792.197	18.6998
795.572	20.9395
798.946	22.5633
802.321	21.0381
805.696	12.2939
809.071	4.50276
812.446	0.355208
815.82	3.12017
819.195	1.72249
822.57	7.96025
825.945	17.2264
829.32	29.966
832.694	42.0464
836.069	41.5988
839.444	33.3889
842.819	30.2994
846.194	27.437
849.569	35.7977
852.943	52.2225
856.318	74.8518
859.693	103.085
863.068	127.67
866.443	133.431
869.817	119.279
873.192	94.2513
876.567	79.9202
879.942	68.1933
883.317	67.1179
886.692	65.3728
890.066	70.0276
893.441	81.1362
896.816	100.111
900.191	111.81
903.566	88.586
906.94	54.6243
910.315	32.1376
913.69	21.7134
917.065	14.7157
920.44	4.10545
923.814	1.09507
927.189	0.937129
930.564	0.568392
933.939	0.133027
937.314	1.6607
940.689	0.747808
944.063	8.29925
947.438	18.4579
950.813	33.1892
954.188	54.7416
957.563	81.0585
960.937	80.3716
964.312	52.4885
967.687	40.4895
971.062	43.2519
974.437	43.8241
977.812	28.1991
981.186	15.519
984.561	9.2889
987.936	8.81599
991.311	8.75633
994.686	11.9338
998.06	14.1082
1001.43	15.4128
1004.81	14.7158
1008.18	11.6727
1011.56	7.93647
1014.93	8.00821
1018.31	5.87587
1021.68	4.28502
1025.06	4.90468
1028.43	4.36048
1031.81	0.940858
1035.18	0.280171
1038.56	0.515846
1041.93	0.32168
1045.31	0.094893
1048.68	0.548438
1052.06	0.53574
1055.43	1.49381
1058.81	3.07531
1062.18	1.11386
1065.56	1.89594
1068.93	3.18291
1072.31	6.62327
1075.68	10.4984
1079.06	16.2068
1082.43	22.932
1085.81	26.3429
1089.18	20.457
1092.56	12.6437
1095.93	6.15084
1099.31	2.83117
1102.68	1.35346
1106.05	0.359495
1109.43	0.635277
1112.8	0.4032
1116.18	0.224887
1119.55	0.525783
1122.93	0.155899
1126.3	0.524945
1129.68	0.795078
1133.05	0.12334
1136.43	0.279101
1139.8	0.991558
1143.18	0.788962
1146.55	0.128441
1149.93	1.7633
1153.3	0.802784
1156.68	1.70144
1160.05	1.13026
1163.43	2.39259
1166.8	2.03909
1170.18	0.878178
1173.55	1.94847
1176.93	1.48759
1180.3	0.564514
1183.67	1.011
1187.05	0.697796
1190.42	2.13874
1193.8	0.378422
1197.17	2.93596
1200.55	1.45801
1203.92	1.3314
1207.3	1.76832
1210.67	0.927065
1214.05	1.67435
1217.42	1.5718
1220.8	0.999638
1224.17	1.4141
1227.55	1.49443
1230.92	0.19342
1234.3	0.872246
1237.67	1.40516
1241.05	0.691987
1244.42	1.35912
1247.8	0.655386
1251.17	2.69409
1254.55	1.01534
1257.92	1.82175
1261.3	0.115707
1264.67	2.15621
1268.05	0.994529
1271.42	1.38121
1274.8	1.09159
1278.17	0.562719
1281.55	0.8476
