Measurement: Raman, 532 nm, unoriented, Raman Data Processed
Mineral: Tiragalloite
Rruff sample: R130101
Ideal chemistry: Mn^2+^_4_As^5+^Si_3_O_12_(OH)
Locality: Molinello Mine, Near Lavagna, Geona, Graveglia Valley, Italy
Source: Rock Currier
Raman shift (cm-1)	intensity
205.07	0
207.962	0.303031
210.855	1.36101
213.748	6.43609
216.64	14.9871
219.533	19.086
222.426	18.1941
225.319	14.5499
228.211	17.6311
231.104	17.9738
233.997	17.7749
236.889	15.7307
239.782	13.8184
242.675	8.95049
245.567	5.8759
248.46	2.75358
251.353	1.81524
254.245	0.315314
257.138	0.313927
260.031	1.81885
262.924	1.36406
265.816	1.97968
268.709	2.56105
271.602	0.393843
274.494	4.51591
277.387	6.7574
280.28	8.44628
283.173	10.5032
286.065	13.6705
288.958	14.4604
291.851	18.9019
294.743	21.2014
297.636	20.4694
300.529	23.1429
303.421	23.9529
306.314	21.9596
309.207	19.5096
312.099	20.3656
314.992	23.5883
317.885	31.212
320.778	32.42
323.67	33.1323
326.563	29.4668
329.456	31.8015
332.348	32.1385
335.241	26.8461
338.134	22.222
341.027	21.6588
343.919	24.0636
346.812	24.3165
349.705	28.432
352.597	33.3679
355.49	40.0569
358.383	46.745
361.276	48.4294
364.168	47.974
367.061	46.2479
369.954	36.8614
372.846	29.4221
375.739	24.6497
378.632	20.5981
381.524	15.2038
384.417	16.7734
387.31	19.3822
390.202	24.4107
393.095	33.5192
395.988	38.2133
398.881	37.4099
401.773	37.7078
404.666	37.444
407.559	37.7179
410.451	40.5084
413.344	42.5736
416.237	40.2825
419.13	31.0236
422.022	18.3251
424.915	6.28591
427.808	3.97959
430.7	2.37001
433.593	2.16719
436.486	0.759081
439.378	1.04337
442.271	3.01851
445.164	3.27454
448.057	4.74897
450.949	8.80246
453.842	8.50217
456.735	9.76858
459.627	14.4731
462.52	15.4962
465.413	20.2618
468.305	17.963
471.198	17.0327
474.091	21.4109
476.983	23.6923
479.876	24.0934
482.769	22.8025
485.662	14.4405
488.554	10.055
491.447	6.10062
494.34	3.61541
497.232	2.03933
500.125	4.08635
503.018	7.05899
505.911	11.9312
508.803	14.4774
511.696	14.1095
514.589	10.3389
517.481	10.4651
520.374	10.005
523.267	10.3949
526.159	10.9512
529.052	9.72682
531.945	10.8757
534.837	13.8893
537.73	23.0449
540.623	23.8406
543.516	30.7776
546.408	34.0341
549.301	33.3911
552.194	22.3367
555.086	13.6708
557.979	6.26727
560.872	3.18976
563.764	0.283997
566.657	0.484332
569.55	0.236302
572.443	1.80482
575.335	0.750778
578.228	0.930577
581.121	1.29511
584.013	0.407478
586.906	1.75733
589.799	0.414769
592.692	0.059906
595.584	0.147133
598.477	0.185431
601.37	0.993293
604.262	3.21768
607.155	4.07963
610.048	6.58984
612.94	8.6819
615.833	13.0622
618.726	20.9342
621.619	27.8196
624.511	39.1647
627.404	51.692
630.297	71.3643
633.189	95.1098
636.082	123.471
638.975	157.357
641.867	195.073
644.76	230.805
647.653	247.449
650.545	234.563
653.438	219.745
656.331	217.13
659.224	229.975
662.116	230.732
665.009	195.716
667.902	142.168
670.794	97.6633
673.687	70.1725
676.58	50.4528
679.472	36.2264
682.365	27.0045
685.258	24.1354
688.151	25.811
691.043	26.9927
693.936	31.6835
696.829	34.7542
699.721	36.8782
702.614	35.5959
705.507	30.1155
708.399	22.3703
711.292	16.8291
714.185	13.2829
717.078	10.7415
719.97	6.70017
722.863	3.49713
725.756	2.01489
728.648	1.02031
731.541	0.576514
734.434	0.510673
737.327	2.33239
740.219	2.17555
743.112	0.246897
746.005	0.118755
748.897	0.125778
751.79	0.225122
754.683	4.76936
757.575	4.6344
760.468	4.56646
763.361	3.00056
766.254	14.1129
769.146	22.3237
772.039	39.2348
774.932	59.1013
777.824	83.0569
780.717	103.492
783.61	110.375
786.502	103.033
789.395	79.8745
792.288	52.8224
795.181	36.6969
798.073	23.4801
800.966	22.066
803.859	13.5679
806.751	3.63004
809.644	3.72968
812.537	6.88725
815.429	1.06985
818.322	14.2747
821.215	39.034
824.107	67.5267
827	97.0647
829.893	133.395
832.786	166.734
835.678	182.211
838.571	169.159
841.464	154.924
844.356	146.083
847.249	151.97
850.142	174.347
853.034	213.655
855.927	269.722
858.82	345.668
861.713	419.342
864.605	452.751
867.498	428.638
870.391	377.875
873.283	325.065
876.176	294.147
879.069	280.351
881.962	278.423
884.854	275.1
887.747	256.925
890.64	231.493
893.532	223.196
896.425	229.538
899.318	237.887
902.21	217.223
905.103	166.53
907.996	110.316
910.889	72.5485
913.781	48.138
916.674	37.3151
919.567	24.6962
922.459	8.02245
925.352	2.05708
928.245	4.71405
931.137	0.979751
934.03	0.073937
936.923	0.253735
939.816	0.519897
942.708	2.01044
945.601	2.02847
948.494	16.2425
951.386	37.4278
954.279	63.4418
957.172	101.395
960.064	129.573
962.957	110.282
965.85	72.0384
968.742	53.5874
971.635	58.3209
974.528	68.494
977.421	54.8867
980.313	32.9011
983.206	18.2802
986.099	12.4888
988.991	12.6967
991.884	11.5007
994.777	14.4287
997.669	21.2801
1000.56	21.3709
1003.46	21.4647
1006.35	20.4408
1009.24	17.4753
1012.13	18.3343
1015.03	14.3744
1017.92	11.2073
1020.81	9.39993
1023.7	6.60923
1026.6	0.913651
1029.49	2.72498
1032.38	0.504394
1035.28	1.56225
1038.17	1.29777
1041.06	1.28914
1043.95	5.71189
1046.85	7.61658
1049.74	7.69867
1052.63	8.07368
1055.52	7.3089
1058.42	9.22364
1061.31	10.0913
1064.2	9.19722
1067.09	5.36602
1069.99	5.59042
1072.88	4.93112
1075.77	5.34457
1078.66	4.52016
1081.56	7.67734
1084.45	14.4996
1087.34	18.1173
1090.24	12.7128
1093.13	7.82398
1096.02	6.51276
1098.91	3.00648
1101.81	1.27639
1104.7	0.238878
1107.59	0.139464
1110.48	0.340703
1113.38	0.295968
1116.27	0.121062
1119.16	0.069875
1122.06	0.201546
1124.95	0.991183
1127.84	0.101573
1130.73	1.64087
1133.63	1.8027
1136.52	0.41376
1139.41	0.474337
1142.3	0.384713
1145.2	0.565564
1148.09	2.77956
1150.98	2.00651
1153.88	1.70211
1156.77	1.42769
1159.66	0.889001
1162.55	3.14479
1165.45	2.87534
1168.34	2.00573
1171.23	3.429
1174.12	2.79698
1177.02	3.90896
1179.91	2.87426
1182.8	2.46671
1185.69	3.91886
1188.59	1.06971
1191.48	1.65797
1194.37	3.66826
1197.27	4.27515
1200.16	3.31775
1203.05	2.12548
1205.94	3.13147
1208.84	3.24745
1211.73	1.94079
1214.62	3.93141
1217.52	1.62364
1220.41	0.2051
1223.3	1.91757
1226.19	0.133272
1229.09	2.17316
1231.98	2.49975
1234.87	0.255267
1237.76	0.346508
1240.66	2.946
1243.55	0.216694
1246.44	1.45551
1249.33	0.329968
1252.23	1.90231
1255.12	0.41777
1258.01	0.771375
1260.9	2.98907
1263.8	2.30632
1266.69	1.13774
1269.58	1.51406
1272.48	1.36267
1275.37	0.667118
1278.26	0.761199
1281.15	1.42542
1284.05	0.969958
1286.94	2.85417
1289.83	1.37082
1292.72	1.00445
1295.62	2.40941
1298.51	0.982487
1301.4	0.370644
