Measurement: Raman, 532 nm, unoriented, Raman Data Processed
Mineral: Titanite
Rruff sample: R120030
Ideal chemistry: CaTiSiO_5_
Locality: Zagi Mountain, Hameed Abad Kafoor Dheri, Peshawar, Khyber Pakhtunkhwa, Pakistan
Source: Donald Doell
Description: Brown flattened octahedra
Raman shift (cm-1)	intensity
209.093	0
211.986	8.26514
214.878	76.5117
217.771	310.698
220.664	638.434
223.556	1132.76
226.449	1746.22
229.342	2562
232.234	3542.77
235.127	4410.33
238.02	5157.17
240.913	6061.53
243.805	7119.87
246.698	8004.1
249.591	8266.13
252.483	7659.99
255.376	6368.41
258.269	5109.83
261.161	4200.37
264.054	3600.62
266.947	3044.7
269.84	2312.35
272.732	1463.17
275.625	739.875
278.518	286.861
281.41	62.8418
284.303	19
287.196	37.1123
290.089	47.873
292.981	83.2407
295.874	75.9292
298.767	59.602
301.659	328.766
304.552	652.321
307.445	964.11
310.337	1395.89
313.23	2176.15
316.123	3152.93
319.015	3647.78
321.908	3246.27
324.801	2794.19
327.694	2699.9
330.586	2875.97
333.479	3089.25
336.372	3130.91
339.264	2960.79
342.157	2738.54
345.05	2701.54
347.942	2865.38
350.835	2982.12
353.728	2559.5
356.621	1704.46
359.513	972.097
362.406	490.543
365.299	164.871
368.191	9.36035
371.084	86.728
373.977	47.5059
376.87	71.1387
379.762	297.451
382.655	596.595
385.548	950.59
388.44	1324.41
391.333	1644.48
394.226	1875.12
397.118	2039.24
400.011	2105.34
402.904	2101.3
405.796	2098.85
408.689	2122.03
411.582	2194.55
414.475	2322.07
417.367	2506.74
420.26	2711.5
423.153	2823.97
426.045	2607.22
428.938	2056.23
431.831	1432.61
434.724	1005.56
437.616	833.415
440.509	894.625
443.402	1197.23
446.294	1617.96
449.187	1928.68
452.08	1906.31
454.972	1589.02
457.865	1208.11
460.758	937.903
463.651	766.752
466.543	653.732
469.436	547.472
472.329	435.202
475.221	294.331
478.114	200.486
481.007	167.317
483.899	147.094
486.792	147.049
489.685	134.137
492.577	108.405
495.47	41.0742
498.363	37.4194
501.256	137.773
504.148	229.446
507.041	262.488
509.934	213.981
512.826	63.4228
515.719	222.174
518.612	666.106
521.505	1328.59
524.397	2205.52
527.29	3288.35
530.183	4356.19
533.075	5201.81
535.968	5561.39
538.861	5393.22
541.753	4811.54
544.646	4221.7
547.539	3938.4
550.432	4022.51
553.324	4263.54
556.217	4344.56
559.11	3996.96
562.002	3201.23
564.895	2311.79
567.788	1655.2
570.68	1388.58
573.573	1433.48
576.466	1703.68
579.359	2184.53
582.251	2821.37
585.144	3513.32
588.037	4290.38
590.929	4926.11
593.822	5346.11
596.715	5484.42
599.607	5380.71
602.5	5082.01
605.393	4696
608.285	4232
611.178	3688.03
614.071	3086.09
616.964	2536.28
619.856	2053.71
622.749	1665.84
625.642	1378.31
628.534	1174.79
631.427	1093.48
634.32	1070.79
637.212	1066.21
640.105	1064.2
642.998	1107.26
645.891	1205.57
648.783	1381.59
651.676	1596.8
654.569	1859.69
657.461	2055.71
660.354	2142.41
663.247	2070.7
666.139	1847.21
669.032	1517.38
671.925	1123.8
674.818	763.394
677.71	440.891
680.603	166.71
683.496	24.0415
686.388	154.234
689.281	216.439
692.174	195.093
695.067	132.54
697.959	15.4233
700.852	109.345
703.745	225.032
706.637	359.659
709.53	497.399
712.423	621.798
715.315	725.59
718.208	804.158
721.101	856.188
723.994	897.965
726.886	876.499
729.779	805.856
732.672	697.396
735.564	556.677
738.457	406.896
741.35	284.723
744.242	160.26
747.135	43.7461
750.028	46.4739
752.92	83.9331
755.813	84.3928
758.706	26.5652
761.599	52.7576
764.491	176.46
767.384	313.997
770.277	448.497
773.169	598.824
776.062	749.467
778.955	912.098
781.847	1086.37
784.74	1238.12
787.633	1370.29
790.526	1531.15
793.418	1697.83
796.311	1865.4
799.204	2019.28
802.096	2144.59
804.989	2167.47
807.882	2114.84
810.774	1929.27
813.667	1694.75
816.56	1425.79
819.453	1176.56
822.345	973.855
825.238	820.24
828.131	741.768
831.023	729.584
833.916	772.648
836.809	880.746
839.702	1020.43
842.594	1197.88
845.487	1390.9
848.38	1586.42
851.272	1738.35
854.165	1814.77
857.058	1731.58
859.95	1512.69
862.843	1217.55
865.736	962.009
868.629	760.688
871.521	596.546
874.414	418.613
877.307	234.633
880.199	102.414
883.092	31.9963
885.985	33.7625
888.877	100.359
891.77	229.054
894.663	415.083
897.556	650.114
900.448	918.633
903.341	1217.09
906.234	1499.83
909.126	1728.91
912.019	1857.79
914.912	1859.15
917.804	1722.22
920.697	1483.6
923.59	1211.86
926.482	933.832
929.375	685.132
932.268	456.881
935.161	284.148
938.053	152.446
940.946	58.7849
943.839	5.63257
946.731	43.6559
949.624	57.5627
952.517	58.28
955.409	49.7125
958.302	36.4423
961.195	17.4956
964.088	7.09558
966.98	40.1893
969.873	73.7944
972.766	112.865
975.658	154.885
978.551	201.629
981.444	253.651
984.337	302.938
987.229	362.53
990.122	409.692
993.015	429.084
995.907	425.947
998.8	413.405
1001.69	404.956
1004.59	385
1007.48	373.774
1010.37	346.757
1013.26	310.595
1016.16	270.276
1019.05	227.237
1021.94	188.598
1024.83	146.089
1027.73	117.097
1030.62	88.4786
1033.51	70.2803
1036.4	61.4683
1039.3	53.9387
1042.19	61.7437
1045.08	85.4736
1047.98	130.232
1050.87	197.112
1053.76	306.856
1056.65	462.465
1059.55	674.195
1062.44	945.232
1065.33	1249.64
1068.22	1501.44
1071.12	1635.62
1074.01	1579.59
1076.9	1373.16
1079.8	1108.84
1082.69	853.203
1085.58	637.18
1088.47	465.057
1091.37	333.754
1094.26	229.596
1097.15	148.105
1100.04	94.2621
1102.94	55.1
1105.83	34.3131
1108.72	21.8742
1111.62	10.0842
1114.51	7.77121
1117.4	1.1141
1120.29	1.28302
1123.19	3.7887
1126.08	4.25977
1128.97	5.9043
1131.86	5.18924
1134.76	2.52286
1137.65	3.17334
1140.54	3.71414
1143.43	4.74881
1146.33	8.79538
1149.22	11.041
1152.11	12.4033
1155.01	14.5868
1157.9	17.6768
1160.79	20.0053
1163.68	22.221
1166.58	25.05
1169.47	33.7816
1172.36	26.3025
1175.26	25.0972
1178.15	28.3663
1181.04	25.2552
1183.93	24.3146
1186.83	20.8235
1189.72	18.3001
1192.61	16.9825
1195.5	15.0081
1198.4	18.6255
1201.29	14.6996
1204.18	11.3541
1207.07	11.9367
1209.97	15.537
1212.86	9.85149
1215.75	9.8903
1218.64	4.06897
1221.54	8.16563
1224.43	5.21878
1227.32	6.34729
1230.22	4.50368
1233.11	3.41815
1236	1.99611
1238.89	0.843872
1241.79	3.09027
1244.68	3.35321
1247.57	1.51912
1250.46	3.57025
1253.36	2.07629
1256.25	1.30823
1259.14	4.24571
1262.04	3.07491
1264.93	1.49538
1267.82	2.48244
1270.71	3.19344
1273.61	1.25925
1276.5	2.35078
1279.39	1.82054
1282.29	0.460449
1285.18	0.394958
1288.07	0.389114
1290.96	1.28012
1293.86	0.998138
1296.75	0.503906
1299.64	0.377197
1302.53	0.424561
