Measurement: Raman, 780 nm, unoriented, Raman Data Processed
Mineral: Titanite
Rruff sample: R050472
Ideal chemistry: CaTiSiO_5_
Locality: Turner's Island, Lake Clear, Wadawaska, Ontario, Canada
Source: California Institute of Technology
Description: Brown flattened wedge-shaped crystal
Measured chemistry: (Ca_0.99_Na_0.01_)(Ti_0.81_Al_0.09_Fe^3+^_0.07_Nb_0.03_)Si_1.00_O_4_(O_0.80_F_0.20_)
Raman shift (cm-1)	intensity
153.566	0
156.458	2.71487
159.351	3.32873
162.244	5.28744
165.137	10.1521
168.029	5.72159
170.922	4.08041
173.815	0.423157
176.707	1.15335
179.6	0.861633
182.493	1.00293
185.385	2.58838
188.278	7.19894
191.171	11.9887
194.064	21.2707
196.956	31.2522
199.849	41.8441
202.742	53.5181
205.634	64.7495
208.527	76.0415
211.42	94.6977
214.312	104.992
217.205	116.579
220.098	127.796
222.991	135.297
225.883	138.95
228.776	139.202
231.669	135.674
234.561	121.781
237.454	102.564
240.347	81.1018
243.239	61.5951
246.132	46.6541
249.025	32.6971
251.918	18.1697
254.81	11.5964
257.703	5.73212
260.596	1.60687
263.488	1.40024
266.381	0.526947
269.274	5.1456
272.166	17.811
275.059	26.6042
277.952	43.7856
280.845	63.8303
283.737	89.6345
286.63	115.848
289.523	140.518
292.415	153.883
295.308	165.286
298.201	168.239
301.094	172.861
303.986	168.246
306.879	157.084
309.772	150.698
312.664	138.226
315.557	122.225
318.45	100.335
321.342	77.4203
324.235	58.3979
327.128	45.4391
330.021	34.9209
332.913	33.4457
335.806	23.5521
338.699	21.3902
341.591	22.7336
344.484	22.525
347.377	22.3252
350.269	19.8294
353.162	15.2169
356.055	3.63263
358.947	3.09625
361.84	5.03555
364.733	6.9841
367.626	1.22568
370.518	4.67731
373.411	18.706
376.304	38.5574
379.197	63.4319
382.089	99.6109
384.982	142.264
387.875	190.159
390.767	241.904
393.66	297.192
396.553	355.984
399.445	404.94
402.338	447.316
405.231	473.99
408.123	477.991
411.016	462.033
413.909	429.288
416.802	384.897
419.694	329.281
422.587	276.227
425.48	221.583
428.372	182.088
431.265	141.898
434.158	109.897
437.05	84.0263
439.943	66.7364
442.836	46.9109
445.729	33.0359
448.621	21.2153
451.514	17.019
454.407	8.69382
457.299	5.37311
460.192	0.065948
463.085	0.144623
465.978	1.9335
468.87	0.721313
471.763	2.60504
474.656	4.42422
477.548	12.5017
480.441	18.8372
483.334	27.1292
486.226	35.8883
489.119	41.6652
492.012	48.7797
494.904	52.1288
497.797	56.1168
500.69	54.5998
503.583	51.9739
506.475	48.8766
509.368	44.5149
512.261	38.1542
515.153	29.9452
518.046	27.5466
520.939	20.8228
523.832	17.494
526.724	11.0115
529.617	4.15299
532.51	0.941254
535.402	1.1441
538.295	3.32117
541.188	3.16949
544.081	2.41113
546.973	2.45502
549.866	0.567749
552.759	1.94235
555.651	3.26456
558.544	6.52203
561.437	8.47238
564.329	16.5875
567.222	30.024
570.115	39.3237
573.008	43.7384
575.9	52.2731
578.793	58.3585
581.686	73.3846
584.578	85.3932
587.471	100.657
590.364	120.868
593.256	143.61
596.149	163.069
599.042	181.199
601.934	202.689
604.827	223.185
607.72	240.874
610.613	252.994
613.505	260.08
616.398	265.111
619.291	270.858
622.183	270.232
625.076	263.651
627.969	249.423
630.861	233.674
633.754	220.082
636.647	203.943
639.54	184.928
642.432	166.112
645.325	142.472
648.218	125.927
651.111	104.256
654.003	87.5927
656.896	71.9307
659.789	58.9268
662.681	48.7809
665.574	39.1245
668.467	30.8511
671.359	20.7784
674.252	14.5594
677.145	6.37714
680.038	3.50793
682.93	3.52618
685.823	1.69168
688.716	3.73846
691.608	2.32401
694.501	4.13419
697.394	2.59821
700.286	1.78497
703.179	6.78732
706.072	13.4831
708.965	16.9807
711.857	21.3873
714.75	32.823
717.643	39.6215
720.535	46.2197
723.428	53.4481
726.321	63.4299
729.213	71.3417
732.106	78.4691
734.999	79.7835
737.891	87.474
740.784	89.6723
743.677	88.1988
746.57	89.0685
749.462	86.3864
752.355	79.4373
755.248	76.6578
758.14	69.6296
761.033	59.2577
763.926	53.8227
766.818	45.6798
769.711	39.2107
772.604	31.583
775.497	27.5663
778.389	20.7494
781.282	15.7831
784.175	15.9788
787.067	13.6629
789.96	10.5026
792.853	9.00931
795.745	5.9859
798.638	4.30823
801.531	1.25354
804.424	1.11414
807.316	3.4971
810.209	3.22565
813.102	3.31583
815.994	1.50464
818.887	1.50324
821.78	4.05737
824.673	7.38528
827.565	12.5644
830.458	17.3045
833.351	21.1872
836.243	25.0498
839.136	33.7398
842.029	43.1685
844.922	51.7641
847.814	60.4136
850.707	71.94
853.6	80.4365
856.492	85.6063
859.385	94.6785
862.278	99.6869
865.17	107.056
868.063	110.043
870.956	112.749
873.848	110.513
876.741	109.869
879.634	106.728
882.527	100.892
885.419	95.2249
888.312	89.1398
891.205	80.9293
894.097	76.8702
896.99	73.7428
899.883	70.2186
902.775	67.3028
905.668	62.6056
908.561	64.3337
911.454	58.8376
914.346	56.7835
917.239	50.1742
920.132	42.6339
923.024	38.9659
925.917	31.149
928.81	28.9319
931.703	22.9718
934.595	18.3586
937.488	14.4778
940.381	11.8956
943.273	10.0182
946.166	6.46005
949.059	5.91223
951.952	2.96936
954.844	1.64597
957.737	1.23492
960.63	0.581299
963.522	1.3468
966.415	2.59868
969.308	0.13092
972.2	2.17612
975.093	0.852448
977.986	1.41742
980.879	1.92038
983.771	0.713699
986.664	1.88214
989.557	0.606033
992.449	2.84828
995.342	4.20175
998.235	3.13432
1001.13	3.72578
1004.02	5.21619
1006.91	3.1808
1009.8	3.54518
1012.7	3.83524
1015.59	3.64462
1018.48	4.85693
1021.38	3.46608
1024.27	2.84741
1027.16	2.49849
1030.05	3.09384
1032.95	3.20252
1035.84	0.432281
1038.73	2.49631
1041.62	0.215149
1044.52	2.40362
1047.41	1.31339
1050.3	2.26392
1053.2	0.54837
1056.09	0.230103
1058.98	2.15054
1061.87	0.088013
1064.77	2.03296
1067.66	0.492737
1070.55	0.178467
1073.44	0.408661
1076.34	1.25824
1079.23	0.103668
1082.12	0.318604
1085.02	0.047729
1087.91	0.500793
1090.8	0.956451
1093.69	1.646
1096.59	0.436279
1099.48	1.90861
1102.37	2.5306
1105.27	3.34183
1108.16	3.66448
1111.05	3.67594
1113.94	2.64733
1116.84	2.91736
1119.73	3.5157
1122.62	3.41297
1125.51	2.53919
1128.41	2.27205
1131.3	2.3136
1134.19	3.29381
1137.08	2.33848
1139.98	3.3334
1142.87	3.20179
1145.76	2.26872
1148.65	3.92721
1151.55	3.02055
1154.44	3.30871
1157.33	2.50272
1160.23	3.63622
1163.12	2.49503
1166.01	3.75786
1168.9	2.8216
1171.8	2.87048
1174.69	3.15763
1177.58	3.85713
1180.47	2.7993
1183.37	3.36107
1186.26	4.25846
1189.15	2.49754
1192.05	3.98177
1194.94	3.22504
1197.83	4.2245
1200.72	4.222
1203.62	3.13855
1206.51	2.88157
1209.4	2.92818
1212.3	4.11137
1215.19	3.08427
1218.08	4.24114
1220.97	2.65141
1223.87	2.91738
1226.76	4.01879
1229.65	4.42196
1232.54	1.60176
1235.44	3.92273
1238.33	3.88462
1241.22	3.79861
1244.11	2.1113
1247.01	2.66337
1249.9	0.894507
1252.79	2.4683
1255.68	3.26157
1258.58	1.75421
1261.47	2.06185
1264.36	1.76761
1267.26	3.11422
1270.15	2.82289
1273.04	2.75624
1275.93	3.89463
1278.83	5.08271
1281.72	3.71902
1284.61	4.86493
1287.51	0
