Measurement: Raman, 780 nm, unoriented, Raman Data Processed
Mineral: Titanite
Rruff sample: R100136
Ideal chemistry: CaTiSiO_5_
Locality: Baja California, Mexico
Source: William W. Pinch
Description: Yellow cut gemstone, full of inclusions
Raman shift (cm-1)	intensity
131.103	0
133.996	226.214
136.889	39.4307
139.781	143.118
142.674	982.923
145.567	1093.46
148.459	26.4893
151.352	118.305
154.245	1383.09
157.137	4587.52
160.03	8599.67
162.923	10741
165.816	9073.24
168.708	5730.34
171.601	3323.68
174.494	2272.38
177.386	2012.39
180.279	1984.35
183.172	2116.16
186.065	1935.87
188.957	1491.09
191.85	1524.51
194.743	2026.28
197.635	2683.03
200.528	3368.26
203.421	4372.99
206.313	5376.01
209.206	5928.47
212.099	6106.29
214.992	6160.9
217.884	6415.07
220.777	7051.22
223.67	7750.19
226.562	8268.51
229.455	8502.38
232.348	8456.59
235.24	8050.81
238.133	7298.32
241.026	7423.31
243.918	9119.03
246.811	11869.8
249.704	14366
252.597	15525
255.489	15176.6
258.382	13467.7
261.275	10437.1
264.167	7196.17
267.06	4477.8
269.953	2476.52
272.846	1043.88
275.738	159.307
278.631	280.921
281.524	345.737
284.416	131.925
287.309	353.616
290.202	608.431
293.094	106.912
295.987	27.6475
298.88	1290.47
301.772	3344.04
304.665	5133.03
307.558	6280.55
310.45	7092.28
313.343	8001.6
316.236	8517.33
319.129	7718.67
322.021	6232.55
324.914	5466.82
327.807	5787.28
330.699	6634.86
333.592	7345.02
336.485	7309.49
339.377	6359.99
342.27	5137.61
345.163	4172.52
348.056	3582.63
350.948	3297.13
353.841	2949.19
356.734	2545.78
359.626	2248.33
362.519	2023.38
365.412	1782.15
368.305	1459.27
371.197	1096.97
374.09	715.405
376.983	358.209
379.875	4.55176
382.768	174.613
385.661	110.519
388.553	49.9111
391.446	74.7168
394.339	16.9697
397.231	20.436
400.124	98.2485
403.017	276.6
405.909	471.261
408.802	706.541
411.695	1071.55
414.588	1691.8
417.48	2723.51
420.373	4181.37
423.266	5364.86
426.158	5343.93
429.051	4454.87
431.944	3653.36
434.837	3242.43
437.729	3087.59
440.622	2971.93
443.515	2946.57
446.407	3001.75
449.3	3319.42
452.193	3936.69
455.085	5037.77
457.978	6788.75
460.871	9424.89
463.764	12787.4
466.656	15636.3
469.549	15222.8
472.442	10972.2
475.334	6317.58
478.227	3198.71
481.12	1472.06
484.012	565.755
486.905	142.362
489.798	0.425781
492.69	9.09326
495.583	4.36035
498.476	20.5493
501.369	73.0449
504.261	70.2485
507.154	25.7021
510.047	165.135
512.939	465.494
515.832	898.564
518.725	1265.63
521.617	1648.34
524.51	2072.53
527.403	2613.93
530.296	3344.49
533.188	4330.57
536.081	5437.99
538.974	6455.45
541.866	7109.47
544.759	7392.42
547.652	7463
550.544	7149.1
553.437	6264.53
556.33	4923.69
559.222	3626.49
562.115	2464.5
565.008	1268.32
567.901	167.056
570.793	381.693
573.686	273.791
576.579	348.259
579.471	1334.13
582.364	2664.26
585.257	4400.8
588.149	6459.29
591.042	8879.76
593.935	11670.5
596.828	14782.5
599.72	17810.2
602.613	20477.1
605.506	22282.4
608.398	22890.9
611.291	22379.3
614.184	20771.3
617.077	18757.4
619.969	16579.6
622.862	14534.8
625.755	12666.7
628.647	10931.5
631.54	9388.58
634.433	8055.25
637.325	6844.69
640.218	5761.79
643.111	4819.6
646.004	4037.52
648.896	3417.61
651.789	2882.63
654.682	2423.63
657.574	2043.04
660.467	1720.03
663.36	1419.59
666.252	1184.17
669.145	974.328
672.038	785.894
674.931	628.402
677.823	481.292
680.716	359.787
683.609	260.521
686.501	181.025
689.394	102.98
692.287	53.5112
695.179	5.58789
698.072	21.2012
700.965	41.8223
703.857	60.9656
706.75	63.8186
709.643	66.6023
712.535	62.7356
715.428	44.3855
718.321	33.5068
721.214	17.3914
724.106	16.238
726.999	58.3091
729.892	79.7256
732.784	106.967
735.677	138.196
738.57	155.421
741.462	186.578
744.355	201.986
747.248	221.865
750.141	246.711
753.033	256.36
755.926	264.47
758.819	259.166
761.711	260.292
764.604	231.901
767.497	207.064
770.389	181.099
773.282	140.226
776.175	102.86
779.068	70.8215
781.96	47.9866
784.853	35.1617
787.746	24.5219
790.638	13.7103
793.531	10.1688
796.424	4.48865
799.317	4.9353
802.209	6.82458
805.102	13.8129
807.995	21.9397
810.887	46.4418
813.78	63.7042
816.673	89.9853
819.565	99.8575
822.458	107.867
825.351	115.89
828.244	130.691
831.136	148.475
834.029	177.692
836.922	244.808
839.814	349.805
842.707	500.471
845.6	709.425
848.492	991.805
851.385	1314.01
854.278	1595.09
857.17	1694.33
860.063	1549.95
862.956	1272.75
865.849	1040.19
868.741	924.661
871.634	857.744
874.527	748.713
877.419	575.874
880.312	413.432
883.205	289.724
886.097	200.112
888.99	149.008
891.883	126.461
894.775	119.68
897.668	135.305
900.561	176.089
903.454	233.495
906.346	332.889
909.239	442.144
912.132	508.056
915.024	457.276
917.917	323.94
920.81	201.807
923.702	113.758
926.595	58.4764
929.488	32.7736
932.381	19.1828
935.273	4.51715
938.166	5.87543
941.059	10.6283
943.951	14.8334
946.844	11.3631
949.737	7.01782
952.63	1.72638
955.522	15.5937
958.415	23.7435
961.308	37.5826
964.2	58.3051
967.093	51.6771
969.986	58.4818
972.878	72.529
975.771	94.1047
978.664	128.425
981.557	173.887
984.449	215.969
987.342	258.439
990.235	296.79
993.127	307.913
996.02	297.775
998.913	265.34
1001.8	237.239
1004.7	223.11
1007.59	228.929
1010.48	229.91
1013.38	227.294
1016.27	210.854
1019.16	196.528
1022.05	150.474
1024.95	111.67
1027.84	60.5687
1030.73	8.84894
1033.62	23.8026
1036.52	35.0633
1039.41	36.0547
1042.3	29.0604
1045.2	24.4383
1048.09	6.82416
1050.98	12.5806
1053.87	26.7172
1056.77	55.763
1059.66	83.8044
1062.55	132.867
1065.44	186.969
1068.34	263.614
1071.23	351.937
1074.12	480.807
1077.02	656.689
1079.91	864.853
1082.8	1112.55
1085.69	1392.51
1088.59	1669.88
1091.48	1927.12
1094.37	2140.95
1097.26	2316.53
1100.16	2444.33
1103.05	2533.8
1105.94	2573.32
1108.84	2582.96
1111.73	2559.99
1114.62	2506.92
1117.51	2440.14
1120.41	2362.34
1123.3	2253.14
1126.19	2119.65
1129.08	1991.85
1131.98	1841.38
1134.87	1679.32
1137.76	1502.84
1140.65	1333.74
1143.55	1152.36
1146.44	994.592
1149.33	830.9
1152.23	712.042
1155.12	587.753
1158.01	478.032
1160.9	380.621
1163.8	312.181
1166.69	253.684
1169.58	211.12
1172.47	181.478
1175.37	156.964
1178.26	132.859
1181.15	119.838
1184.05	103.874
1186.94	89.7429
1189.83	87.3314
1192.72	72.6397
1195.62	69.3292
1198.51	51.5917
1201.4	36.6187
1204.29	26.2067
1207.19	23.5908
1210.08	15.6097
1212.97	5.58832
1215.87	6.80566
1218.76	11.072
1221.65	20.3562
1224.54	27.8568
1227.44	35.5106
1230.33	21.3011
1233.22	3.63269
1236.11	17.1013
1239.01	32.658
1241.9	55.6345
1244.79	71.8234
1247.68	96.5952
1250.58	119.689
1253.47	134.951
1256.36	115.102
1259.26	80.9191
1262.15	72.8528
1265.04	60.0165
1267.93	60.8837
1270.83	43.509
1273.72	42.4846
1276.61	24.8644
1279.5	10.2072
1282.4	3.2124
