Measurement: Raman, 532 nm, unoriented, Raman Data Processed
Mineral: Titantaramellite
Rruff sample: R060315
Ideal chemistry: Ba_4_(Ti,Fe^3+^,Mg)_4_(O,OH)_2_[B_2_Si_8_O_27_]Cl_x_
Locality: Esquire #1 claim, Rush Creek, Fresno County, California, USA
Source: Michael Scott
Description: Brown colored subhedral blebs associated with quartz, diopside and sanbornite
Raman shift (cm-1)	intensity
146.418	0
149.31	0.659439
152.203	6.03704
155.096	10.2316
157.988	12.2265
160.881	12.4655
163.774	15.5694
166.667	17.934
169.559	17.652
172.452	18.8653
175.345	20.67
178.237	18.2934
181.13	15.2345
184.023	14.3011
186.916	12.7315
189.808	13.2531
192.701	11.9233
195.594	11.0736
198.486	10.6996
201.379	9.9277
204.272	8.23997
207.164	9.45471
210.057	8.04461
212.95	5.74289
215.843	3.58635
218.735	1.31583
221.628	2.25711
224.521	0.706303
227.413	0.682888
230.306	0.514862
233.199	0.970818
236.091	0.17886
238.984	0.546875
241.877	1.58573
244.769	4.52644
247.662	3.91311
250.555	6.52113
253.448	8.9772
256.34	9.425
259.233	10.0441
262.126	12.2514
265.018	16.1754
267.911	20.085
270.804	19.9927
273.697	23.2269
276.589	22.0465
279.482	20.2795
282.375	16.1156
285.267	15.4141
288.16	7.92736
291.053	5.50739
293.945	1.68391
296.838	1.02876
299.731	0.196091
302.623	0.048981
305.516	0.993713
308.409	0.322189
311.302	2.2317
314.194	2.66951
317.087	5.31265
319.98	7.07308
322.872	6.58514
325.765	8.41505
328.658	8.84985
331.55	9.39306
334.443	13.0856
337.336	15.1678
340.229	17.7244
343.121	18.4431
346.014	19.0803
348.907	20.9321
351.799	23.922
354.692	25.6692
357.585	26.4301
360.478	26.7931
363.37	27.0703
366.263	25.4386
369.156	21.8364
372.048	17.1852
374.941	16.9562
377.834	13.8263
380.726	11.8001
383.619	9.21638
386.512	6.80735
389.404	8.25684
392.297	5.92979
395.19	2.54702
398.083	0.732117
400.975	0.188366
403.868	1.02191
406.761	0.31937
409.653	0.589916
412.546	2.36285
415.439	1.34862
418.332	0.542091
421.224	1.11669
424.117	3.3572
427.01	6.08166
429.902	7.55192
432.795	9.30215
435.688	10.7397
438.58	12.6897
441.473	13.3068
444.366	13.0698
447.259	16.9931
450.151	18.6122
453.044	20.2608
455.937	25.2928
458.829	31.1861
461.722	39.4981
464.615	46.6604
467.507	48.8342
470.4	45.5986
473.293	40.5465
476.185	33.471
479.078	28.9156
481.971	24.5837
484.864	23.0383
487.756	19.7791
490.649	18.5962
493.542	18.4295
496.434	17.6019
499.327	20.1528
502.22	19.8466
505.113	17.0584
508.005	14.7118
510.898	13.2428
513.791	11.2902
516.683	9.48842
519.576	7.97703
522.469	9.22527
525.361	9.23423
528.254	8.12446
531.147	10.7684
534.04	11.6027
536.932	12.0518
539.825	12.1181
542.718	10.7969
545.61	12.1263
548.503	12.7439
551.396	12.5749
554.288	13.2297
557.181	15.2417
560.074	15.1868
562.967	13.2057
565.859	10.9539
568.752	8.11254
571.645	5.63611
574.537	2.83641
577.43	0.038216
580.323	2.78571
583.216	2.32248
586.108	0.937485
589.001	0.924561
591.894	3.41713
594.786	6.3187
597.679	11.0371
600.572	14.5706
603.464	16.7979
606.357	20.2639
609.25	22.8909
612.142	23.6522
615.035	23.0093
617.928	22.862
620.821	19.2052
623.713	15.9958
626.606	9.56715
629.499	4.72994
632.391	1.16149
635.284	1.092
638.177	0.478771
641.069	0.34549
643.962	1.10781
646.855	0.108757
649.747	0.478874
652.64	0.135223
655.533	0.437645
658.426	1.45558
661.318	2.5375
664.211	2.60877
667.104	4.42793
669.996	4.68191
672.889	4.2425
675.782	4.41847
678.674	0.862503
681.567	1.24814
684.46	0.454536
687.353	2.70583
690.245	1.20779
693.138	2.05097
696.031	1.52229
698.923	4.63261
701.816	4.2748
704.709	6.35578
707.601	8.40424
710.494	12.5726
713.387	15.1005
716.28	19.2976
719.172	21.4773
722.065	21.888
724.958	22.0977
727.85	23.8834
730.743	26.7183
733.636	29.7519
736.529	32.6495
739.421	39.0055
742.314	42.1198
745.207	45.9768
748.099	53.6631
750.992	60.8005
753.885	71.889
756.777	80.4105
759.67	93.0257
762.563	103.03
765.456	109.158
768.348	114.063
771.241	108.885
774.134	101.119
777.026	92.3359
779.919	80.919
782.812	68.5296
785.704	58.0472
788.597	48.5982
791.49	40.7627
794.383	33.5328
797.275	27.3177
800.168	22.4218
803.061	15.2592
805.953	12.6007
808.846	6.12109
811.739	2.58769
814.631	0.267883
817.524	0.879532
820.417	1.86441
823.309	1.87689
826.202	1.1719
829.095	1.76597
831.988	3.62848
834.88	5.87035
837.773	7.74371
840.666	8.79509
843.558	9.973
846.451	11.332
849.344	13.5319
852.236	12.7941
855.129	11.465
858.022	13.0816
860.915	12.8603
863.807	14.662
866.7	15.6579
869.593	16.2056
872.485	17.7551
875.378	17.1863
878.271	16.7045
881.163	17.1309
884.056	17.2948
886.949	16.6183
889.842	17.8971
892.734	16.3567
895.627	16.34
898.52	15.171
901.412	13.6902
904.305	9.6708
907.198	6.6595
910.091	7.01438
912.983	3.61194
915.876	2.55869
918.769	0.824604
921.661	2.00172
924.554	0.416698
927.447	0.203209
930.339	0.760826
933.232	0.289833
936.125	0.141529
939.018	0.753151
941.91	1.37058
944.803	1.63288
947.696	2.00311
950.588	3.31372
953.481	5.27425
956.374	8.47448
959.266	9.97149
962.159	12.414
965.052	13.7504
967.944	14.2012
970.837	14.8487
973.73	16.8048
976.623	17.0088
979.515	18.7748
982.408	16.3693
985.301	17.6643
988.193	17.413
991.086	15.4966
993.979	14.7036
996.871	11.353
999.764	8.82419
1002.66	8.99307
1005.55	7.41549
1008.44	5.35462
1011.34	4.34131
1014.23	2.05768
1017.12	2.93409
1020.01	2.70521
1022.91	3.36583
1025.8	4.52824
1028.69	5.87566
1031.58	5.87778
1034.48	6.73909
1037.37	7.09409
1040.26	7.82758
1043.15	8.01092
1046.05	8.09111
1048.94	6.53439
1051.83	5.82272
1054.73	5.5732
1057.62	3.7999
1060.51	2.63782
1063.4	0.488522
1066.3	1.12924
1069.19	1.67753
1072.08	3.42197
1074.97	4.02748
1077.87	4.47885
1080.76	4.08537
1083.65	6.08136
1086.55	4.68468
1089.44	5.82933
1092.33	4.23558
1095.22	4.5805
1098.12	4.2038
1101.01	4.56598
1103.9	2.98411
1106.79	2.39725
1109.69	4.72925
1112.58	3.67958
1115.47	1.4253
1118.37	1.33566
1121.26	0.259968
1124.15	2.01292
1127.04	2.02697
1129.94	1.71614
1132.83	1.36952
1135.72	0.232868
1138.61	0.424652
1141.51	0.630016
1144.4	0.739372
1147.29	0.447498
1150.18	0.120846
1153.08	1.02045
1155.97	0.712193
1158.86	0.709572
1161.76	0.170933
1164.65	0.421253
1167.54	0.238094
1170.43	2.13043
1173.33	2.23909
1176.22	1.76298
1179.11	1.71787
1182	1.90889
1184.9	3.07869
1187.79	2.5831
1190.68	3.19844
1193.58	3.05307
1196.47	4.5589
1199.36	4.12386
1202.25	2.81066
1205.15	3.01612
1208.04	3.78171
1210.93	4.41453
1213.82	5.21741
1216.72	4.44577
1219.61	4.43722
1222.5	3.87482
1225.39	2.39182
1228.29	2.68892
1231.18	3.3522
1234.07	3.14053
1236.97	3.75493
1239.86	3.03361
1242.75	3.40618
1245.64	2.84351
1248.54	3.45707
1251.43	2.94036
1254.32	1.98039
1257.21	2.54402
1260.11	3.11291
1263	3.04491
1265.89	2.46216
1268.79	2.45505
1271.68	1.67249
1274.57	1.97147
1277.46	2.12577
1280.36	0.608456
1283.25	1.73424
1286.14	1.49709
1289.03	0.628517
1291.93	1.24571
1294.82	0.918762
1297.71	0.387707
1300.61	1.134
