Measurement: Raman, 532 nm, unoriented, Raman Data Processed
Mineral: Titanite
Rruff sample: R100136
Ideal chemistry: CaTiSiO_5_
Locality: Baja California, Mexico
Source: William W. Pinch
Description: Yellow cut gemstone, full of inclusions
Raman shift (cm-1)	intensity
127.194	0
130.569	285.504
133.944	63.3905
137.318	73.2056
140.693	867.453
144.068	2281.89
147.443	2334.83
150.818	2610.83
154.192	4818.92
157.567	7407.39
160.942	8593.3
164.317	9097.21
167.692	8949.26
171.067	7820.43
174.441	6369.85
177.816	5542.55
181.191	5079.89
184.566	4977.65
187.941	4617.14
191.315	4197.9
194.69	4157.76
198.065	4466.4
201.44	4998.62
204.815	5586.71
208.19	5984.68
211.565	6080.14
214.939	6155.64
218.314	6648.49
221.689	7602.88
225.064	8822.99
228.439	10085.8
231.813	11316.5
235.188	12199.8
238.563	11895.7
241.938	12816.2
245.313	15091
248.688	16924.3
252.062	16507
255.437	14080
258.812	10805.6
262.187	7327.77
265.562	4327.84
268.936	2139.1
272.311	649.194
275.686	203.007
279.061	567.408
282.436	504.863
285.81	48.3174
289.185	706.899
292.56	1053.47
295.935	1189.45
299.31	2364.57
302.685	4393.62
306.059	6283.94
309.434	7453.88
312.809	8793.45
316.184	10938.5
319.559	11005.1
322.933	8642.74
326.308	7311.39
329.683	7380.47
333.058	7737.73
336.433	7357.33
339.808	6126.7
343.183	4969.67
346.557	4577.47
349.932	4891.47
353.307	4629.75
356.682	3082.81
360.057	1853.82
363.431	1165.86
366.806	670.451
370.181	278.097
373.556	23.2075
376.931	182.495
380.305	164.811
383.68	60.3179
387.055	472.302
390.43	764.729
393.805	744.637
397.18	630.051
400.554	595.497
403.929	642.134
407.304	800.898
410.679	1201.12
414.054	1970.69
417.428	3166.27
420.803	4566.89
424.178	5115.25
427.553	4047.31
430.928	2607.86
434.303	1669.63
437.677	1247.22
441.052	1217.49
444.427	1467.76
447.802	2022.67
451.177	2693.62
454.551	3534.2
457.926	4515.49
461.301	5843.8
464.676	7554.73
468.051	8444.5
471.426	6880.6
474.8	3906.53
478.175	1801.78
481.55	758.8
484.925	318.291
488.3	209.78
491.675	185.248
495.049	142.911
498.424	8.08789
501.799	217.69
505.174	358.039
508.549	315.299
511.923	18.0415
515.298	439.569
518.673	1020.4
522.048	1707.56
525.423	2435.85
528.798	3426.9
532.172	4950.15
535.547	6917.17
538.922	8431.53
542.297	8507.75
545.672	7278.81
549.047	6002.44
552.421	4936.64
555.796	3785.01
559.171	2597.93
562.546	1365.98
565.921	392.023
569.295	59.7432
572.67	386.72
576.045	964.538
579.42	1861.13
582.795	3361.77
586.17	5616.18
589.544	8426.97
592.919	11604.2
596.294	14984
599.669	18472.4
603.044	21237.4
606.418	22672.4
609.793	22327
613.168	20359.2
616.543	17476.7
619.918	14469.2
623.293	11786.4
626.667	9496.42
630.042	7501.91
633.417	5790.02
636.792	4427.07
640.167	3344.44
643.542	2552.93
646.916	1959
650.291	1609.46
653.666	1463.12
657.041	1375.7
660.416	1269.51
663.79	1080.34
667.165	881.385
670.54	737.753
673.915	646.695
677.29	617.543
680.664	559.887
684.039	453.841
687.414	288.698
690.789	106.509
694.164	30.0718
697.539	112.612
700.913	110.107
704.288	99.2822
707.663	79.9556
711.038	71.8013
714.413	65.1797
717.788	60.2256
721.162	58.0022
724.537	38.9658
727.912	23.2375
731.287	2.04907
734.662	25.9551
738.036	37.6428
741.411	42.9883
744.786	43.2073
748.161	60.4333
751.536	84.3933
754.91	94.8852
758.285	102.115
761.66	126.643
765.035	160.848
768.41	192.56
771.785	222.565
775.159	250.65
778.534	271.64
781.909	297.541
785.284	318.923
788.659	351.18
792.034	393.206
795.408	435.575
798.783	475.637
802.158	537.828
805.533	597.655
808.908	690.48
812.283	786.716
815.657	857.081
819.032	876.386
822.407	878.676
825.782	863.338
829.157	902.026
832.531	1010.65
835.906	1180.77
839.281	1511.98
842.656	2044.65
846.031	2768.47
849.405	3658.46
852.78	4553.75
856.155	4973.61
859.53	4552.88
862.905	3688.36
866.28	2960.02
869.654	2518.32
873.029	2065.24
876.404	1414.25
879.779	809.39
883.154	387.67
886.529	189.164
889.903	137.265
893.278	199.8
896.653	364.877
900.028	626.062
903.403	972.198
906.778	1367.58
910.152	1747.58
913.527	1830.77
916.902	1544.62
920.277	1142.05
923.652	792.04
927.026	518.116
930.401	315.018
933.776	162.324
937.151	44.489
940.526	39.7302
943.9	85.6036
947.275	89.636
950.65	73.84
954.025	42.176
957.4	2.24573
960.775	36.0048
964.149	81.1104
967.524	128.892
970.899	186.064
974.274	257.613
977.649	335.587
981.024	439.933
984.398	557.681
987.773	698.964
991.148	806.927
994.523	840.119
997.898	788.269
1001.27	719.036
1004.65	645.492
1008.02	609.094
1011.4	576.817
1014.77	536.22
1018.15	472.615
1021.52	408.506
1024.9	326.355
1028.27	221.954
1031.65	127.385
1035.02	66.9697
1038.4	34.3409
1041.77	19.0828
1045.14	17.5051
1048.52	27.7145
1051.89	42.1614
1055.27	72.9604
1058.64	111.743
1062.02	141.601
1065.39	169.019
1068.77	189.019
1072.14	188.625
1075.52	177.421
1078.89	176.142
1082.27	176.112
1085.64	178.303
1089.02	174.526
1092.39	136.342
1095.77	90.5047
1099.14	39.4017
1102.52	17.297
1105.89	2.42285
1109.27	1.28928
1112.64	5.50763
1116.02	3.72406
1119.39	3.40961
1122.77	1.58026
1126.14	0.736938
1129.52	2.07254
1132.89	1.38187
1136.27	10.9796
1139.64	12.8649
1143.02	17.6761
1146.39	20.8463
1149.77	24.674
1153.14	26.3356
1156.51	32.1556
1159.89	27.9813
1163.26	34.6749
1166.64	35.2083
1170.01	32.9612
1173.39	31.6495
1176.76	33.4738
1180.14	30.6576
1183.51	29.5116
1186.89	29.993
1190.26	30.069
1193.64	27.6275
1197.01	29.1796
1200.39	23.5308
1203.76	24.5902
1207.14	20.867
1210.51	20.3128
1213.89	15.4861
1217.26	14.1234
1220.64	11.4692
1224.01	12.1057
1227.38	10.0526
1230.76	5.5683
1234.13	3.25563
1237.51	4.11565
1240.88	0.331161
1244.26	0.644684
1247.63	2.3645
1251.01	2.16339
1254.38	1.57193
1257.76	3.37627
1261.13	0.597107
1264.51	1.31631
1267.88	3.87418
1271.26	4.8958
1274.63	7.62404
1278.01	2.72136
1281.38	2.61568
1284.76	2.06184
1288.13	3.04684
1291.51	3.45354
1294.88	0.812119
1298.26	0.150009
1301.63	0.264908
