Measurement: Raman, 532 nm, unoriented, Raman Data Processed
Mineral: Titanite
Rruff sample: R050124
Ideal chemistry: CaTiSiO_5_
Locality: Capelinha, Minas Gerais, Brazil
Source: Carlos and Paulo Vasconcelos
Description: Yellow tabular crystal
Measured chemistry: Ca_1.00_(Ti_0.93_Al_0.05_Fe^3+^_0.02_)Si_1.00_O_4_(O)_1.00_
Raman shift (cm-1)	intensity
150.234	0
153.127	48.1426
156.019	1632.51
158.912	5776.51
161.805	9784.34
164.698	10343.8
167.59	6955.97
170.483	3172.75
173.376	921.119
176.268	579.65
179.161	904.443
182.054	1408.61
184.946	1773.79
187.839	1238.31
190.732	554.83
193.625	985.215
196.517	1963.06
199.41	2943.44
202.303	4258.78
205.195	6047.02
208.088	7494.14
210.981	7951.14
213.874	7649.92
216.766	7594.28
219.659	8089.11
222.552	9204.78
225.444	10435.6
228.337	11766.6
231.23	13075.1
234.122	14171.6
237.015	14384.9
239.908	14307
242.8	15975.4
245.693	19839.2
248.586	24601.7
251.479	28531.3
254.371	30063.7
257.264	28825.5
260.157	24494.9
263.049	17963.5
265.942	11366.6
268.835	6085.31
271.727	2644.62
274.62	505.338
277.513	680.438
280.406	938.271
283.298	421.656
286.191	575.467
289.084	1957.68
291.976	2457.78
294.869	1691.12
297.762	1805.39
300.654	4363.68
303.547	7898.4
306.44	10410.6
309.333	11760.4
312.225	12934
315.118	15202.7
318.011	16842.1
320.903	15744
323.796	13644.8
326.689	13220.5
329.581	14459.5
332.474	16291
335.367	17149.3
338.26	16175.9
341.152	14281
344.045	12453.2
346.938	11540.6
349.83	11291.2
352.723	11038.5
355.616	9430.72
358.508	7670.06
361.401	6404.84
364.294	5657.69
367.187	4982.63
370.079	4237.14
372.972	3423.59
375.865	2512.13
378.757	1576.35
381.65	752.193
384.543	378.618
387.435	388.022
390.328	416.329
393.221	134.865
396.113	255.782
399.006	462.713
401.899	360.966
404.792	33.2598
407.684	529.608
410.577	1351.05
413.47	2363.72
416.362	3816.77
419.255	5615.01
422.148	7469.6
425.041	8545.17
427.933	8360.41
430.826	7744.66
433.719	7302.32
436.611	7240.5
439.504	7456.71
442.397	7830.84
445.289	8441.3
448.182	9507.58
451.075	11273.5
453.967	13589
456.86	16505.1
459.753	20506.6
462.646	25655.5
465.538	31101.2
468.431	33546
471.324	29056.6
474.216	19857.4
477.109	11736.5
480.002	6665.55
482.894	3836.48
485.787	2301.79
488.68	1495
491.573	1049.43
494.465	690.612
497.358	394.526
500.251	132.361
503.143	189.721
506.036	383.288
508.929	299.494
511.821	51.3584
514.714	646.473
517.607	1307.06
520.5	1892.74
523.392	2742.55
526.285	3721.78
529.178	5065.17
532.07	6705.27
534.963	8705.75
537.856	10709.9
540.748	12336.7
543.641	13297.7
546.534	13620.5
549.427	13261.1
552.319	12158.6
555.212	10170.6
558.105	7656.65
560.997	5336.54
563.89	3275.66
566.783	1221.41
569.675	388.41
572.568	834.117
575.461	76.6914
578.354	1725.51
581.246	4278.53
584.139	7607.15
587.032	11693.8
589.924	16694.3
592.817	22399.1
595.71	28819
598.602	35972.3
601.495	42793.7
604.388	48850.4
607.28	52906.9
610.173	54444.6
613.066	53528.4
615.959	50303.5
618.851	45801.5
621.744	40756.8
624.637	35616.6
627.529	30938.5
630.422	26521.8
633.315	22448.3
636.207	18840.4
639.1	15828.2
641.993	13252.5
644.886	11190.7
647.778	9612.4
650.671	8220.98
653.564	7023.42
656.456	5960.66
659.349	5116.68
662.242	4239.6
665.135	3573.88
668.027	2867.88
670.92	2346.84
673.813	1929.86
676.705	1496.36
679.598	1146.37
682.491	779.546
685.383	570.436
688.276	335.881
691.169	216.82
694.062	106.831
696.954	28.9473
699.847	36.8652
702.74	59.5459
705.632	156.847
708.525	143.102
711.418	173.19
714.31	138.974
717.203	132.775
720.096	124.973
722.989	95.1387
725.881	18.6953
728.774	15.353
731.667	1.79883
734.559	18.8267
737.452	80.0024
740.345	11.4131
743.237	12.1758
746.13	25.1211
749.023	55.7612
751.915	54.666
754.808	120.424
757.701	171.174
760.594	203.091
763.486	267.512
766.379	292.231
769.272	316.231
772.164	343.445
775.057	326.75
777.95	346.912
780.842	303.601
783.735	301.448
786.628	278.971
789.52	285.299
792.413	294.329
795.306	359.873
798.199	398.332
801.091	439.159
803.984	549.231
806.877	680.116
809.769	881.623
812.662	1072.08
815.555	1210
818.447	1310.49
821.34	1286.48
824.233	1207.34
827.126	1136.45
830.018	1075.98
832.911	1080.97
835.804	1209.97
838.696	1478.89
841.589	1912.05
844.482	2538.41
847.375	3273.16
850.267	4090.47
853.16	4834.98
856.053	5146.73
858.945	4813.5
861.838	4034.49
864.731	3270.05
867.623	2747.93
870.516	2557.28
873.409	2453.69
876.302	2346.24
879.194	2211.59
882.087	2091.86
884.98	1900.42
887.872	1556.67
890.765	1176.23
893.658	874.766
896.55	728.927
899.443	783.141
902.336	930.139
905.229	1226.34
908.121	1562.11
911.014	1837.49
913.907	1786.91
916.799	1387.34
919.692	843.258
922.585	431.194
925.477	166.015
928.37	10.6123
931.263	59.1306
934.155	86.316
937.048	103.625
939.941	93.5179
942.834	65.9966
945.726	38.0597
948.619	17.4048
951.512	63.0444
954.404	156.896
957.297	235.131
960.19	288.457
963.082	337.893
965.975	403.079
968.868	446.181
971.761	509.911
974.653	590.339
977.546	682.388
980.439	786.701
983.331	898.554
986.224	1002.63
989.117	1096.63
992.01	1168.85
994.902	1155.69
997.795	1097.08
1000.69	1055.2
1003.58	1051.06
1006.47	1077.7
1009.37	1115.61
1012.26	1145.58
1015.15	1106.26
1018.04	1024.42
1020.94	916.141
1023.83	776.058
1026.72	588.753
1029.62	400.971
1032.51	243.417
1035.4	136.011
1038.29	71.6934
1041.18	36.5486
1044.08	7.27979
1046.97	3.9386
1049.86	9.3877
1052.76	15.6867
1055.65	33.3212
1058.54	61.28
1061.43	95.1766
1064.33	118.333
1067.22	165.696
1070.11	175.204
1073.01	166.67
1075.9	158.395
1078.79	147.807
1081.68	116.306
1084.58	106.686
1087.47	104.163
1090.36	93.9655
1093.25	64.7585
1096.15	41.3281
1099.04	32.7655
1101.93	18.9979
1104.83	9.03198
1107.72	1.22485
1110.61	2.94263
1113.5	2.66919
1116.4	3.53052
1119.29	10.6027
1122.18	1.98206
1125.07	1.89978
1127.97	1.64673
1130.86	14.2551
1133.75	13.4683
1136.64	15.4934
1139.54	19.7469
1142.43	21.6433
1145.32	27.3462
1148.21	35.3929
1151.11	34.6271
1154	40.3204
1156.89	41.4336
1159.79	49.495
1162.68	50.9088
1165.57	47.7236
1168.46	55.9517
1171.36	43.7986
1174.25	46.1052
1177.14	48.9427
1180.04	45.7828
1182.93	39.3543
1185.82	41.9559
1188.71	37.067
1191.61	49.7848
1194.5	37.1619
1197.39	85.1822
1200.28	31.8462
1203.18	33.0247
1206.07	36.4169
1208.96	36.6566
1211.85	17.3937
1214.75	24.7204
1217.64	25.2514
1220.53	23.2048
1223.42	30.2475
1226.32	24.8536
1229.21	9.71814
1232.1	8.44159
1235	11.1991
1237.89	7.13672
1240.78	3.68274
1243.67	4.92749
1246.57	4.5838
1249.46	0.199158
1252.35	5.41943
1255.24	8.42749
1258.14	1.4372
1261.03	2.70673
1263.92	0.065796
1266.82	11.1738
1269.71	3.22064
1272.6	7.68353
1275.49	2.41382
1278.39	12.1598
1281.28	4.922
1284.17	7.78058
1287.07	11.8427
1289.96	9.14313
1292.85	4.11053
1295.74	11.1968
1298.63	3.16894
1301.53	3.60242
1304.42	2.08521
