Measurement: Raman, 532 nm, unoriented, Raman Data Processed
Mineral: Titantaramellite
Rruff sample: R080041
Ideal chemistry: Ba_4_(Ti,Fe^3+^,Mg)_4_(O,OH)_2_[B_2_Si_8_O_27_]Cl_x_
Locality: La Madrelena mine, Tres Pozos, Municipio de Tecate, Baja California Norte, Mexico
Source: Michael Scott
Description: Black grains associated with pink gillespite and quartz
Raman shift (cm-1)	intensity
133.9	0
136.793	0.037519
139.686	0.18359
142.578	0.178885
145.471	0.041701
148.364	0.565832
151.257	0.589622
154.149	0.684877
157.042	0.86429
159.935	0.524991
162.827	0.989304
165.72	0.372571
168.613	0.633685
171.506	0.970901
174.398	0.509482
177.291	0.584967
180.184	0.348862
183.076	0.269928
185.969	0.242706
188.862	0.165566
191.754	0.23212
194.647	0.30839
197.54	0.043018
200.433	0.051103
203.325	0.302154
206.218	0.1349
209.111	0.213531
212.003	0.067906
214.896	0.042051
217.789	0.251684
220.681	0.097186
223.574	0.257046
226.467	0.174746
229.359	0.053502
232.252	0.243838
235.145	0.077933
238.038	0.316051
240.93	0.56213
243.823	1.02286
246.716	1.14621
249.608	1.29359
252.501	1.25034
255.394	1.74475
258.286	1.81386
261.179	1.73147
264.072	2.22317
266.965	2.26622
269.857	2.96351
272.75	2.95779
275.643	3.04149
278.535	3.29771
281.428	3.04475
284.321	2.77459
287.214	2.27324
290.106	1.78178
292.999	0.955647
295.892	0.777819
298.784	0.444682
301.677	0.625813
304.57	0.669142
307.462	0.838616
310.355	0.995934
313.248	1.1619
316.14	1.27841
319.033	1.31895
321.926	1.50285
324.819	1.7734
327.711	2.0715
330.604	2.22512
333.497	2.57294
336.389	3.10004
339.282	2.90766
342.175	3.23314
345.067	3.57063
347.96	4.07872
350.853	4.11375
353.746	4.38652
356.638	4.27416
359.531	4.40832
362.424	4.47113
365.316	3.75766
368.209	3.39268
371.102	2.93617
373.995	2.364
376.887	2.00724
379.78	1.84209
382.673	1.03832
385.565	1.41342
388.458	1.25626
391.351	1.02399
394.243	0.736309
397.136	0.302904
400.029	0.255456
402.921	0.097734
405.814	0.123751
408.707	0.210981
411.6	0.168054
414.492	0.149459
417.385	0.317617
420.278	0.169967
423.17	0.244296
426.063	0.211007
428.956	0.021508
431.849	0.268222
434.741	0.439945
437.634	0.525279
440.527	0.971968
443.419	1.42135
446.312	1.69748
449.205	1.97785
452.097	2.78753
454.99	3.39363
457.883	4.47403
460.776	5.52684
463.668	6.60716
466.561	7.70717
469.454	7.62062
472.346	6.8099
475.239	5.76416
478.132	4.60419
481.024	3.72754
483.917	3.54863
486.81	2.66728
489.702	2.35924
492.595	2.31712
495.488	2.38158
498.381	2.41394
501.273	2.21376
504.166	2.03788
507.059	2.01717
509.951	1.55532
512.844	1.63024
515.737	1.2212
518.63	1.41364
521.522	1.27363
524.415	0.93694
527.308	1.07889
530.2	1.3619
533.093	1.62101
535.986	1.56097
538.878	1.45374
541.771	1.60579
544.664	2.07786
547.557	1.88782
550.449	1.75836
553.342	2.20296
556.235	2.21643
559.127	1.49965
562.02	1.70636
564.913	1.29977
567.805	0.769076
570.698	0.53433
573.591	0.139048
576.484	0.108808
579.376	0.031361
582.269	0.101195
585.162	0.12897
588.054	0.388222
590.947	0.184081
593.84	0.642417
596.732	1.07912
599.625	1.81279
602.518	1.99375
605.41	2.35839
608.303	2.75195
611.196	3.04683
614.088	3.15962
616.981	2.95534
619.874	2.73251
622.767	2.09596
625.659	1.73346
628.552	0.940016
631.445	0.232365
634.337	0.134409
637.23	0.263007
640.123	0.138469
643.015	0.106388
645.908	0.171925
648.801	0.027225
651.694	0.086149
654.586	0.057013
657.479	0.152518
660.372	0.119876
663.264	0.447414
666.157	0.644777
669.05	1.07792
671.942	1.13723
674.835	1.15993
677.728	1.16169
680.621	1.20685
683.513	1.39919
686.406	1.37901
689.299	1.34067
692.191	1.66253
695.084	1.97063
697.977	2.16256
700.87	2.49788
703.762	2.5259
706.655	3.17294
709.548	3.64306
712.44	3.93295
715.333	4.77377
718.226	5.18595
721.118	5.57395
724.011	5.8984
726.904	6.21052
729.797	7.22735
732.689	7.58498
735.582	8.15761
738.475	8.57571
741.367	9.15071
744.26	9.53278
747.153	10.3917
750.045	11.3468
752.938	12.1258
755.831	13.0529
758.723	13.5566
761.616	14.4225
764.509	14.4208
767.402	14.6611
770.294	14.4928
773.187	13.8209
776.08	12.6209
778.972	11.8968
781.865	10.37
784.758	9.4369
787.65	8.07284
790.543	6.87067
793.436	5.98269
796.329	4.6878
799.221	3.67776
802.114	2.77428
805.007	1.69672
807.899	1.28285
810.792	0.711841
813.685	0.340646
816.577	0.265785
819.47	0.279821
822.363	0.409013
825.256	0.26946
828.148	0.143207
831.041	0.004352
833.934	0.226904
836.826	0.345912
839.719	0.458891
842.612	0.730079
845.505	0.829095
848.397	1.04722
851.29	1.22698
854.183	1.49925
857.075	1.57562
859.968	1.86996
862.861	2.05109
865.753	2.18902
868.646	2.27439
871.539	2.43317
874.432	2.42108
877.324	2.45384
880.217	2.41037
883.11	2.1901
886.002	2.06172
888.895	2.00302
891.788	1.81566
894.68	1.72748
897.573	1.62615
900.466	1.48768
903.359	1.30996
906.251	1.08734
909.144	0.735175
912.037	0.43356
914.929	0.19345
917.822	0.027015
920.715	0.118916
923.607	0.271641
926.5	0.135295
929.393	0.163439
932.285	0.023297
935.178	0.171625
938.071	0.007374
940.964	0.06449
943.856	0.017534
946.749	0.383391
949.642	0.292792
952.534	0.342395
955.427	0.770816
958.32	0.892411
961.212	1.26035
964.105	1.17643
966.998	1.39855
969.891	1.66235
972.783	1.54647
975.676	1.9757
978.569	2.12604
981.461	2.61302
984.354	2.48914
987.247	2.46052
990.139	2.68138
993.032	1.98417
995.925	1.57301
998.817	1.42923
1001.71	1.22942
1004.6	0.936853
1007.5	0.920607
1010.39	0.543643
1013.28	0.624016
1016.17	0.372125
1019.07	0.232504
1021.96	0.355535
1024.85	0.196919
1027.74	0.597429
1030.64	0.691149
1033.53	0.804084
1036.42	0.703356
1039.32	0.548631
1042.21	0.604777
1045.1	0.46651
1047.99	0.60766
1050.89	0.603584
1053.78	0.654681
1056.67	0.327931
1059.56	0.704201
1062.46	0.76554
1065.35	0.310829
1068.24	0.531678
1071.13	0.83908
1074.03	0.690968
1076.92	0.917648
1079.81	0.756848
1082.71	0.396324
1085.6	0.534513
1088.49	0.444532
1091.38	0.336458
1094.28	0.346621
1097.17	0.392769
1100.06	0.162326
1102.95	0.153415
1105.85	0.115402
1108.74	0.096926
1111.63	0.088317
1114.53	0.080706
1117.42	0.088149
1120.31	0.413888
1123.2	0.206353
1126.1	0.303838
1128.99	0.303031
1131.88	0.207243
1134.77	0.265118
1137.67	0.107024
1140.56	0.063807
1143.45	0.030772
1146.35	0.078282
1149.24	0.001039
1152.13	0.151811
1155.02	0.026368
1157.92	0.040849
1160.81	0.187709
1163.7	0.050447
1166.59	0.015971
1169.49	0.1662
1172.38	0.301985
1175.27	0.033098
1178.16	0.324924
1181.06	0.365535
1183.95	0.39737
1186.84	0.438596
1189.74	0.507574
1192.63	0.437128
1195.52	0.465503
1198.41	0.590013
1201.31	0.691084
1204.2	0.685231
1207.09	0.453465
1209.98	0.317905
1212.88	0.59575
1215.77	0.702854
1218.66	0.565278
1221.56	0.43329
1224.45	0.423626
1227.34	0.641065
1230.23	0.442575
1233.13	0.463139
1236.02	0.384591
1238.91	0.326338
1241.8	0.234291
1244.7	0.342334
1247.59	0.156458
1250.48	0.142542
1253.38	0.279855
1256.27	0.537422
1259.16	0.118326
1262.05	0.314751
1264.95	0.112163
1267.84	0.006235
1270.73	0.132982
1273.62	0.278551
1276.52	0.103419
1279.41	0.202367
1282.3	0.009646
1285.19	0.1148
