Measurement: Raman, 780 nm, unoriented, Raman Data Processed
Mineral: Titanite
Rruff sample: R120030
Ideal chemistry: CaTiSiO_5_
Locality: Zagi Mountain, Hameed Abad Kafoor Dheri, Peshawar, Khyber Pakhtunkhwa, Pakistan
Source: Donald Doell
Description: Brown flattened octahedra
Raman shift (cm-1)	intensity
96.9068	0
100.282	16.3706
103.656	101.814
107.031	209.806
110.406	319.041
113.781	397.112
117.156	492.405
120.531	394.44
123.905	303.723
127.28	155.175
130.655	31.6904
134.03	26.3862
137.405	21.2505
140.779	143.055
144.154	144.363
147.529	21.4097
150.904	17.3887
154.279	19.3023
157.654	123.437
161.028	209.24
164.403	160.357
167.778	39.7693
171.153	48.9089
174.528	46.5774
177.902	34.7156
181.277	118.044
184.652	209.062
188.027	270.541
191.402	386.307
194.776	494.331
198.151	666.336
201.526	864.976
204.901	1090.25
208.276	1309.18
211.651	1583.01
215.025	1997.28
218.4	2548.52
221.775	3221.45
225.15	3905.26
228.525	4436.98
231.899	4723.21
235.274	4627.13
238.649	4235.01
242.024	3655.72
245.399	3082.69
248.774	2464.35
252.148	1865.18
255.523	1290.66
258.898	809.081
262.273	387.736
265.648	85.7617
269.022	40.0063
272.397	31.8232
275.772	109.476
279.147	371.318
282.522	798.922
285.897	1341.92
289.271	1983.63
292.646	2562.99
296.021	3072.64
299.396	3447.32
302.771	3651.91
306.145	3585.46
309.52	3245.16
312.895	2792.6
316.27	2349.01
319.645	1786.19
323.019	1198.72
326.394	757.929
329.769	488.087
333.144	292.805
336.519	157.512
339.894	15.1606
343.268	32.4282
346.643	8.5542
350.018	120.329
353.393	188.836
356.768	167.097
360.142	120.15
363.517	76.5854
366.892	6.57373
370.267	43.188
373.642	51.9546
377.017	57.6372
380.391	352.435
383.766	927.999
387.141	1909.84
390.516	3352.99
393.891	5426.75
397.265	8125.08
400.64	11123.3
404.015	13743.9
407.39	15112.5
410.765	14694.2
414.14	12820.6
417.514	10249.4
420.889	7714.77
424.264	5499.88
427.639	3746.53
431.014	2454.04
434.389	1640.71
437.763	1126.03
441.138	845.363
444.513	681.22
447.888	599.795
451.263	529.576
454.637	444.682
458.012	377.863
461.387	302.804
464.762	240.97
468.137	169.034
471.512	53.1821
474.886	55.2207
478.261	92.3882
481.636	29.7158
485.011	228.077
488.386	484.437
491.76	747.043
495.135	987.878
498.51	1135.54
501.885	1236.42
505.26	1285.35
508.635	1238.92
512.009	1091.36
515.384	910.665
518.759	696.602
522.134	501.679
525.509	379.3
528.883	296.178
532.258	230.765
535.633	198.101
539.008	183.101
542.383	186.154
545.757	177.682
549.132	145.778
552.507	115.054
555.882	43.6973
559.257	41.667
562.631	88.7319
566.006	56.9907
569.381	14.8086
572.756	202.602
576.131	464.902
579.506	776.07
582.88	1220.51
586.255	1743.34
589.63	2346.95
593.005	3116.68
596.38	3959.9
599.755	4795.51
603.129	5611.35
606.504	6172.94
609.879	6581.92
613.254	6828.83
616.629	6818.85
620.003	6589.26
623.378	6110.98
626.753	5497.21
630.128	4850.01
633.503	4116.86
636.878	3446.41
640.252	2827.15
643.627	2352.18
647.002	1924.16
650.377	1661.73
653.752	1400.52
657.126	1232.28
660.501	1065.12
663.876	859.294
667.251	704.458
670.626	489.269
674	320.387
677.375	160.166
680.75	63.0298
684.125	20.9561
687.5	62.8374
690.875	78.8184
694.249	63.7139
697.624	7.14551
700.999	109.466
704.374	250.584
707.749	408.584
711.124	594.664
714.498	801.308
717.873	1044.13
721.248	1320.91
724.623	1608.67
727.998	1854.13
731.372	2141.88
734.747	2299.42
738.122	2409.37
741.497	2448.61
744.872	2367.94
748.246	2217.49
751.621	1934.45
754.996	1628.6
758.371	1305.22
761.746	993.521
765.12	705.385
768.495	529.235
771.87	339.243
775.245	283.845
778.62	297.234
781.995	310.925
785.369	368.728
788.744	429.16
792.119	554.138
795.494	614.043
798.869	585.555
802.244	596.557
805.618	533.495
808.993	453.893
812.368	339.604
815.743	233.167
819.118	125.834
822.492	29.8581
825.867	43.217
829.242	86.6179
832.617	103.783
835.992	99.1291
839.366	63.4307
842.741	3.64893
846.116	88.281
849.491	212.46
852.866	373.672
856.241	556.2
859.615	762.116
862.99	998.553
866.365	1264.16
869.74	1519.4
873.115	1808.77
876.49	2055.2
879.864	2217.21
883.239	2319.19
886.614	2359.74
889.989	2276.05
893.364	2177.34
896.738	2056.9
900.113	1965.95
903.488	1889.79
906.863	1874.32
910.238	1830.64
913.612	1774.58
916.987	1751.49
920.362	1691.36
923.737	1635.06
927.112	1599.86
930.487	1550.4
933.861	1510.61
937.236	1448.46
940.611	1373.94
943.986	1311.49
947.361	1238.33
950.736	1179.87
954.11	1104.73
957.485	1064.16
960.86	1044.51
964.235	1024.79
967.61	1055.95
970.984	1073.18
974.359	1098.62
977.734	1120.89
981.109	1121.41
984.484	1111.8
987.859	1080.04
991.233	1026.6
994.608	957.203
997.983	846.75
1001.36	734.932
1004.73	621.816
1008.11	503.238
1011.48	378.342
1014.86	269.609
1018.23	157.735
1021.61	27.7459
1024.98	68.0288
1028.36	160.7
1031.73	203.312
1035.11	262.488
1038.48	250.306
1041.86	272.107
1045.23	203.803
1048.61	149.376
1051.98	112.931
1055.36	14.9805
1058.73	93.4394
1062.1	167.591
1065.48	343.305
1068.85	528.523
1072.23	932.218
1075.6	1493.86
1078.98	2427.36
1082.35	3825.17
1085.73	5710.85
1089.1	8337.84
1092.48	11429.4
1095.85	15120.7
1099.23	19284.7
1102.6	23937.9
1105.98	28845
1109.35	34039.7
1112.73	38717.7
1116.1	42822.6
1119.48	45823.6
1122.85	47771.6
1126.23	48504.8
1129.6	48126.1
1132.98	46634.1
1136.35	44271.8
1139.72	41079.2
1143.1	37308.9
1146.47	33100.8
1149.85	28704
1153.22	24493.9
1156.6	20617.8
1159.97	17110.3
1163.35	14086.4
1166.72	11409.7
1170.1	9167.91
1173.47	7431.38
1176.85	5940.17
1180.22	4934.02
1183.6	3907.14
1186.97	3250.51
1190.35	2738.64
1193.72	2260
1197.1	1877.72
1200.47	1503.49
1203.85	1144.14
1207.22	780.755
1210.6	497.835
1213.97	255.024
1217.35	35.456
1220.72	175.141
1224.1	385.33
1227.47	490.025
1230.85	412.165
1234.22	178.583
1237.6	92.4346
1240.97	375.019
1244.34	747.71
1247.72	1188.27
1251.09	1570.72
1254.47	1979.53
1257.84	1858.03
1261.22	1483.37
1264.59	1287.68
1267.97	1103.19
1271.34	826.556
1274.72	568.755
1278.09	372.331
1281.47	112.141
1284.84	9.24707
