Measurement: Raman, 780 nm, unoriented, Raman Data Processed
Mineral: Titanite
Rruff sample: R050124
Ideal chemistry: CaTiSiO_5_
Locality: Capelinha, Minas Gerais, Brazil
Source: Carlos and Paulo Vasconcelos
Description: Yellow tabular crystal
Measured chemistry: Ca_1.00_(Ti_0.93_Al_0.05_Fe^3+^_0.02_)Si_1.00_O_4_(O)_1.00_
Raman shift (cm-1)	intensity
100.367	0
103.742	88.1758
107.117	496.709
110.492	751.311
113.867	789
117.242	254.231
120.616	372.883
123.991	202.971
127.366	383.584
130.741	310.047
134.116	358.867
137.49	514.709
140.865	487.066
144.24	1965.28
147.615	1740.06
150.99	1972
154.364	4784.72
157.739	10272.3
161.114	15534.2
164.489	15188.3
167.864	10178.4
171.238	6222.34
174.613	4938.09
177.988	4928.31
181.363	5154.07
184.738	5422.61
188.113	4940.13
191.487	4710.09
194.862	5633.25
198.237	6869.15
201.612	8513.38
204.987	10592.7
208.362	12397
211.736	12964.1
215.111	12816.9
218.486	13326.8
221.861	14509.6
225.236	16015.9
228.61	17434.5
231.985	18513.4
235.36	18957.7
238.735	19998.7
242.11	22493.6
245.484	27265.9
248.859	32373.9
252.234	35143.4
255.609	34094.3
258.984	28803.7
262.358	20423.5
265.733	12122.5
269.108	6020.37
272.483	2391.04
275.858	130.775
279.233	712.639
282.607	609.387
285.982	130.367
289.357	782.621
292.732	27.0625
296.107	339.178
299.481	2298.87
302.856	6287.69
306.231	8573.77
309.606	9774.06
312.981	11502.7
316.356	13051.8
319.73	12915
323.105	12081.2
326.48	12656
329.855	14707.9
333.23	16459.9
336.604	16377.6
339.979	14256.2
343.354	11646.2
346.729	9635.64
350.104	8496.86
353.478	7691.8
356.853	7171.37
360.228	6816.79
363.603	6344.74
366.978	5716.72
370.353	4857.36
373.727	3848.38
377.102	2654.32
380.477	1200.08
383.852	273.093
387.227	38.0293
390.601	43.9683
393.976	259.049
397.351	345.607
400.726	25.1416
404.101	739.27
407.476	1774.99
410.85	3045.71
414.225	4679.77
417.6	6752.1
420.975	9070.13
424.35	10510.5
427.724	10289.4
431.099	9535.51
434.474	9388.94
437.849	9724.02
441.224	10452.7
444.599	11693.1
447.973	13791.5
451.348	16655.1
454.723	20123.5
458.098	24457.9
461.473	30159
464.847	36033.3
468.222	37265.8
471.597	28849.4
474.972	16817.5
478.347	8667.52
481.721	4284.37
485.096	2052.58
488.471	968.911
491.846	438.398
495.221	131.591
498.596	86.6982
501.97	230.287
505.345	256.259
508.72	19.6006
512.095	488.354
515.47	1352.26
518.844	2240.64
522.219	3383.92
525.594	4851.92
528.969	6683.71
532.344	8951.65
535.718	11294
539.093	13366.1
542.468	14636.1
545.843	14991.7
549.218	14503.1
552.593	12633.5
555.967	9705.54
559.342	6611.34
562.717	3863.26
566.092	1217.88
569.467	616.092
572.841	796.599
576.216	814.744
579.591	3615.65
582.966	7429.36
586.341	12277.5
589.716	17933.6
593.09	24410.3
596.465	31382.5
599.84	38387.1
603.215	44424.5
606.59	48503.6
609.964	49278.3
613.339	47293.6
616.714	43163.8
620.089	38035
623.464	32824.1
626.838	27925.8
630.213	23240.8
633.588	19215.5
636.963	15732
640.338	12893.6
643.713	10651.6
647.087	8789.5
650.462	7339.45
653.837	6111.6
657.212	5078.59
660.587	4185.24
663.962	3385.21
667.336	2715.97
670.711	2186.6
674.086	1636.17
677.461	1223.4
680.836	873.877
684.21	578.85
687.585	378.374
690.96	232.774
694.335	92.1348
697.71	5.74512
701.084	88.792
704.459	121.546
707.834	154.53
711.209	148.894
714.584	133.01
717.958	117.02
721.333	49.8721
724.708	8.04541
728.083	17.4868
731.458	64.0674
734.833	91.1309
738.207	108.633
741.582	177.807
744.957	193.981
748.332	262.802
751.707	328.846
755.082	384.066
758.456	449.991
761.831	508.548
765.206	529.359
768.581	567.027
771.956	563.871
775.33	575.999
778.705	530.238
782.08	521.761
785.455	500.137
788.83	455.522
792.204	440.484
795.579	428.045
798.954	427.012
802.329	410.798
805.704	402.352
809.078	412.532
812.453	412.425
815.828	413.472
819.203	392.89
822.578	339.385
825.953	291.05
829.327	234.588
832.702	231.231
836.077	253.181
839.452	295.983
842.827	362.078
846.202	455.403
849.576	531.462
852.951	647.499
856.326	639.424
859.701	539.578
863.076	423.643
866.45	317.125
869.825	277.234
873.2	225.331
876.575	168.054
879.95	153.488
883.324	142.02
886.699	119.058
890.074	106.023
893.449	147.644
896.824	278.724
900.198	458.088
903.573	693.151
906.948	937.285
910.323	1159.76
913.698	1096.39
917.073	764.305
920.447	413.258
923.822	170.485
927.197	57.7914
930.572	2.45776
933.947	34.86
937.322	48.1993
940.696	35.1816
944.071	23.6303
947.446	1.9071
950.821	46.8746
954.196	104.592
957.57	138.222
960.945	162.94
964.32	189.214
967.695	216.501
971.07	229.444
974.444	268.461
977.819	290.328
981.194	331.416
984.569	363.923
987.944	406.445
991.318	433.094
994.693	460.727
998.068	467.781
1001.44	513.795
1004.82	572.578
1008.19	640.323
1011.57	656.926
1014.94	640.689
1018.32	569.518
1021.69	479.88
1025.07	347.186
1028.44	207.996
1031.82	107.627
1035.19	49.8479
1038.57	4.23804
1041.94	6.62421
1045.32	0.098328
1048.69	5.08917
1052.07	8.10699
1055.44	3.42505
1058.82	16.7408
1062.19	47.5394
1065.56	56.7592
1068.94	89.1534
1072.31	116.888
1075.69	137.182
1079.06	164.535
1082.44	191.317
1085.81	231.803
1089.19	277.845
1092.56	314.116
1095.94	340.374
1099.31	359.729
1102.69	376.968
1106.06	388.052
1109.44	377.413
1112.81	391.572
1116.19	386.358
1119.56	379.939
1122.94	374.849
1126.31	364.994
1129.69	335.862
1133.06	300.053
1136.44	276.058
1139.81	229.931
1143.18	204.695
1146.56	172.443
1149.93	139.524
1153.31	106.793
1156.68	94.9246
1160.06	58.4481
1163.43	56.7918
1166.81	38.2335
1170.18	41.8255
1173.56	27.877
1176.93	33.9919
1180.31	25.1776
1183.68	20.4153
1187.06	24.4559
1190.43	25.8523
1193.81	30.9847
1197.18	19.0546
1200.56	17.0497
1203.93	13.9951
1207.31	10.4756
1210.68	6.50391
1214.06	2.04895
1217.43	1.33093
1220.81	2.46661
1224.18	9.04395
1227.56	8.25165
1230.93	3.51685
1234.31	1.99506
1237.68	3.2326
1241.06	7.3147
1244.43	9.16931
1247.8	21.3248
1251.18	31.0751
1254.55	35.2385
1257.93	25.5237
1261.3	15.402
1264.68	18.5335
1268.05	12.4023
1271.43	14.9915
1274.8	9.54419
1278.18	10.1613
1281.55	12.1542
1284.93	0.167053
