Measurement: Raman, 532 nm, unoriented, Raman Data Processed
Mineral: Titanite
Rruff sample: R100025
Ideal chemistry: CaTiSiO_5_
Locality: Kharan, Balochistan, Pakistan
Source: Ikram Mineralogy
Description: Bluish-gray flattened wedge-shaped crystals
Raman shift (cm-1)	intensity
90.9743	0
94.3491	17.3722
97.7239	64.0936
101.099	112.826
104.474	167.24
107.848	206.288
111.223	332.043
114.598	333.598
117.973	228.65
121.348	126.222
124.722	38.6296
128.097	28.5846
131.472	71.4661
134.847	41.6343
138.222	70.57
141.597	207.775
144.971	414.092
148.346	547.6
151.721	828.285
155.096	1152.64
158.471	1539.77
161.845	2009.6
165.22	2173.59
168.595	1817.82
171.97	1492.67
175.345	1357.07
178.72	1320.95
182.094	1293.9
185.469	1249.39
188.844	1189.59
192.219	1202.54
195.594	1288.32
198.968	1405.23
202.343	1562.75
205.718	1711.48
209.093	1767.7
212.468	1781.32
215.843	1836.48
219.217	1939.27
222.592	2063.8
225.967	2188.7
229.342	2332.63
232.717	2447.12
236.091	2414.67
239.466	2259.5
242.841	2345.55
246.216	2535.56
249.591	2575.96
252.965	2350.42
256.34	1905.61
259.715	1346.09
263.09	838.358
266.465	470.621
269.84	205.376
273.214	22.6785
276.589	74.896
279.964	105.705
283.339	71.803
286.714	23.77
290.089	147.627
293.463	230.019
296.838	376.428
300.213	649.055
303.588	918.679
306.963	1117.73
310.337	1223.05
313.712	1318.91
317.087	1431.88
320.462	1387.21
323.837	1243.5
327.212	1252.05
330.586	1364.88
333.961	1404.57
337.336	1294.7
340.711	1076.41
344.086	909.098
347.46	880.028
350.835	970.012
354.21	988.346
357.585	733.884
360.96	523.038
364.334	399.646
367.709	289.024
371.084	185.448
374.459	110.407
377.834	43.9548
381.209	6.56317
384.583	12.4215
387.958	3.93109
391.333	2.55316
394.708	9.81219
398.083	6.86523
401.457	13.2466
404.832	72.5826
408.207	158.613
411.582	302.008
414.957	480.995
418.332	699.834
421.706	928.75
425.081	995.765
428.456	844.251
431.831	646.526
435.206	569.962
438.58	576.582
441.955	594.582
445.33	641.921
448.705	714.563
452.08	811.586
455.454	956.087
458.829	1154.93
462.204	1399.92
465.579	1611.96
468.954	1639.14
472.329	1330.66
475.703	802.702
479.078	361.5
482.453	113.005
485.828	18.6178
489.203	8.00232
492.577	11.7213
495.952	13.3176
499.327	21.2546
502.702	32.7173
506.077	36.2534
509.452	1.19678
512.826	70.9705
516.201	168.895
519.576	290.37
522.951	440.771
526.326	615.59
529.701	816.947
533.075	1053
536.45	1266.79
539.825	1352.26
543.2	1288.53
546.575	1132.27
549.949	952.577
553.324	725.612
556.699	473.239
560.074	241.016
563.449	86.0591
566.823	17.9751
570.198	107.744
573.573	330.377
576.948	668.961
580.323	1124.37
583.697	1686.64
587.072	2318.47
590.447	2937.68
593.822	3508.81
597.197	3965.45
600.572	4227.81
603.946	4228.59
607.321	4002.73
610.696	3590.31
614.071	3086.74
617.446	2570.76
620.821	2105.6
624.195	1698.06
627.57	1381.4
630.945	1110.13
634.32	886.671
637.695	700.473
641.069	532.775
644.444	412.36
647.819	326.966
651.194	260.902
654.569	202.303
657.943	159.48
661.318	122
664.693	89.6766
668.068	58.0292
671.443	38.785
674.818	19.1484
678.192	7.93921
681.567	2.62488
684.942	11.1305
688.317	17.6036
691.692	18.2134
695.067	21.9692
698.441	13.5939
701.816	15.8779
705.191	8.89551
708.566	4.33325
711.941	0.77887
715.315	5.26642
718.69	4.12305
722.065	1.68701
725.44	3.59198
728.815	8.2832
732.189	10.783
735.564	8.84222
738.939	13.6281
742.314	9.28638
745.689	12.5992
749.063	8.86536
752.438	5.53803
755.813	5.56348
759.188	3.32275
762.563	8.03998
765.938	1.70911
769.312	2.99713
772.687	10.8106
776.062	20.9431
779.437	32.7374
782.812	38.523
786.187	52.9323
789.561	61.1718
792.936	73.9971
796.311	87.6816
799.686	92.0788
803.061	104.624
806.435	108.891
809.81	117.713
813.185	112.134
816.56	108.38
819.935	96.2301
823.309	88.6271
826.684	94.4086
830.059	109.476
833.434	131.613
836.809	160.065
840.184	213.992
843.558	292.592
846.933	410.841
850.308	558.614
853.683	701.122
857.058	782.704
860.433	745.073
863.807	669.191
867.182	637.511
870.557	647.702
873.932	626.958
877.307	534.492
880.681	421.599
884.056	316.461
887.431	241.654
890.806	186.286
894.181	162.257
897.556	162.982
900.93	189.244
904.305	237.899
907.68	293.934
911.055	342.949
914.43	333.232
917.804	271.615
921.179	183.044
924.554	105.145
927.929	48.1265
931.304	16.4801
934.678	5.27695
938.053	13.2691
941.428	16.3931
944.803	16.1388
948.178	10.6402
951.553	3.19559
954.927	9.1955
958.302	25.294
961.677	39.1863
965.052	52.6258
968.427	64.0103
971.802	77.0368
975.176	99.1928
978.551	115.592
981.926	136.981
985.301	163.559
988.676	189.082
992.05	202.298
995.425	194.998
998.8	169.802
1002.17	152.815
1005.55	146.569
1008.92	151.142
1012.3	159.692
1015.67	155.133
1019.05	146.065
1022.42	136.909
1025.8	109.649
1029.17	72.2788
1032.55	40.7186
1035.92	18.4033
1039.3	4.64217
1042.67	4.11647
1046.05	13.3512
1049.42	30.4575
1052.8	61.2947
1056.17	100.135
1059.55	143.494
1062.92	187.781
1066.3	228.303
1069.67	251.385
1073.05	231.202
1076.42	201.6
1079.8	175.005
1083.17	151.627
1086.55	129.145
1089.92	101.615
1093.3	69.1397
1096.67	38.4531
1100.04	20.0742
1103.42	6.96031
1106.79	4.25458
1110.17	1.52498
1113.54	1.92662
1116.92	1.01628
1120.29	3.17606
1123.67	1.43517
1127.04	0.322968
1130.42	0.841019
1133.79	0.027405
1137.17	1.89746
1140.54	11.659
1143.92	5.70467
1147.29	4.56432
1150.67	7.48579
1154.04	7.56186
1157.42	9.55086
1160.79	11.1049
1164.17	9.72809
1167.54	11.0561
1170.92	12.0548
1174.29	13.785
1177.66	11.6164
1181.04	9.82039
1184.41	8.26186
1187.79	8.78413
1191.16	8.0962
1194.54	6.64827
1197.91	7.82725
1201.29	8.49245
1204.66	6.04294
1208.04	6.2543
1211.41	4.52874
1214.79	3.37534
1218.16	3.39638
1221.54	3.08852
1224.91	1.83103
1228.29	1.15806
1231.66	2.18022
1235.04	1.35686
1238.41	0.41169
1241.79	0.123352
1245.16	0.214783
1248.54	0.11644
1251.91	0.360008
1255.29	1.36507
1258.66	0.351112
1262.04	0.255806
1265.41	0.693359
1268.79	1.28768
1272.16	0.831238
1275.54	0.281738
1278.91	3.23164
1282.29	0.123955
1285.66	0.83477
1289.03	0.002228
1292.41	0.900421
1295.78	1.56018
1299.16	0.67897
1302.53	1.32987
