Measurement: Raman, 532 nm, unoriented, Raman Data Processed
Mineral: Tlapallite
Rruff sample: R060888
Ideal chemistry: H_6_Ca_2_Cu_3_SO_4_(Te^4+^O_3_)_4_(Te^6+^O_6_)
Locality: La Oriental mine, Moctezuma, Sonora, Mexico
Source: Bob Jenkins
Description: Apple green botryoidal crust
Raman shift (cm-1)	intensity
138.397	0
141.29	874.275
144.183	2081.67
147.075	2762.5
149.968	1005
152.861	97.1094
155.753	178.231
158.646	1370.22
161.539	2886.11
164.431	3410.11
167.324	3539.59
170.217	3432.36
173.109	2809.86
176.002	2296.87
178.895	2405.04
181.788	2876.28
184.68	3387.43
187.573	3889.65
190.466	3791.59
193.358	2798.39
196.251	1519.03
199.144	567.182
202.036	57.8809
204.929	74.8223
207.822	32.4375
210.714	157.365
213.607	470.638
216.5	1556.67
219.393	2909.47
222.285	4435.19
225.178	5646.16
228.071	6269.28
230.963	5951.33
233.856	5386.41
236.749	4784.51
239.642	4371.48
242.534	3816.6
245.427	3962.11
248.32	4606.97
251.212	5435.02
254.105	6374
256.998	6681.75
259.89	6095.21
262.783	4307.1
265.676	2594.55
268.568	1529.29
271.461	1123.98
274.354	1214.34
277.247	1864.86
280.139	2613.01
283.032	3695.85
285.925	4576.02
288.817	5265.04
291.71	5277.98
294.603	4542.77
297.495	3389.15
300.388	2442.38
303.281	2027.32
306.174	2041.74
309.066	1927.26
311.959	1899.31
314.852	1635.17
317.744	1140.11
320.637	668.556
323.53	287.428
326.422	22.3867
329.315	190.873
332.208	228.919
335.101	158.466
337.993	239.52
340.886	20.3525
343.779	8.49316
346.671	43.9766
349.564	227.211
352.457	96.1348
355.349	6.86914
358.242	128.746
361.135	161.727
364.027	57.7793
366.92	33.9844
369.813	232.738
372.706	449.236
375.598	714.966
378.491	942.771
381.384	914.4
384.276	971.792
387.169	842.039
390.062	911.57
392.954	935.107
395.847	868.172
398.74	1096.2
401.633	1328.59
404.525	1522.17
407.418	1716.94
410.311	1959.53
413.203	2442.64
416.096	3090.94
418.989	4221.58
421.881	5573.83
424.774	7105.21
427.667	8345.98
430.56	9389.07
433.452	9974.21
436.345	10238
439.238	9757.85
442.13	8820.68
445.023	7393.71
447.916	5775.23
450.808	4552.77
453.701	3728
456.594	3384.3
459.486	3287.51
462.379	3325.95
465.272	3876.78
468.165	4296.7
471.057	4860.21
473.95	4849.19
476.843	4288.03
479.735	3543.6
482.628	3018.81
485.521	2898.84
488.413	2787.57
491.306	3128.86
494.199	3953.63
497.092	5273.66
499.984	6676.8
502.877	8063.25
505.77	9101.64
508.662	8936.94
511.555	7674.46
514.448	5612.13
517.341	4316.95
520.233	3465.85
523.126	2852.52
526.019	2174.97
528.911	1956.04
531.804	962.564
534.697	417.66
537.589	149.34
540.482	123.404
543.375	138.952
546.268	46.1523
549.16	201.307
552.053	148.645
554.946	154.873
557.838	142.832
560.731	97.2607
563.624	18.6182
566.516	34.0371
569.409	168.8
572.302	215.734
575.194	316.256
578.087	365.316
580.98	422.374
583.872	530.369
586.765	659.787
589.658	751.383
592.551	845.883
595.443	897.539
598.336	964.074
601.229	895.635
604.121	820.981
607.014	674.422
609.907	651.627
612.799	447.338
615.692	271.121
618.585	235.783
621.477	18.7676
624.37	72.4902
627.263	164.725
630.156	105.934
633.048	9.11914
635.941	367.859
638.834	884.012
641.726	1418.85
644.619	2012.09
647.512	2644.19
650.404	3028.72
653.297	2776.75
656.19	2640.04
659.083	2617.34
661.975	2581.91
664.868	2891.92
667.761	3073.84
670.653	3492.61
673.546	3701.15
676.439	3931.66
679.332	4113.7
682.224	4617.88
685.117	4773.48
688.01	4826.79
690.902	5289.75
693.795	6376.99
696.688	7882.16
699.58	9773.28
702.473	11720
705.366	13023.6
708.259	13043.2
711.151	11412.6
714.044	8338.4
716.937	5398.48
719.829	3062.52
722.722	1317.7
725.615	286.1
728.507	135.92
731.4	191.824
734.293	112.338
737.185	275.894
740.078	743.35
742.971	1133.3
745.864	1650.1
748.756	2530.18
751.649	3493.61
754.542	4900.89
757.434	6529.91
760.327	8139.74
763.22	9432.48
766.112	10652
769.005	11623.3
771.898	12848.9
774.79	14160.9
777.683	15730.2
780.576	18015.8
783.469	20016.6
786.361	22285.6
789.254	24171.8
792.147	25022.5
795.039	24617.4
797.932	22180.6
800.825	18471.8
803.717	14357.1
806.61	10634.6
809.503	7535.33
812.396	4982.27
815.288	3357.6
818.181	2176.14
821.074	1426.29
823.966	781.82
826.859	443.162
829.752	319.227
832.644	58.6152
835.537	20.5137
838.43	76.7695
841.323	87.5488
844.215	174.49
847.108	24.7344
850.001	106.84
852.893	26.791
855.786	19.1094
858.679	174.312
861.571	331.615
864.464	298.815
867.357	403.179
870.25	496.416
873.142	577.867
876.035	636.043
878.928	655.436
881.82	714.426
884.713	780.695
887.606	773.315
890.498	803.762
893.391	1029.86
896.284	1057.84
899.177	909.592
902.069	757.741
904.962	602.745
907.855	595.517
910.747	459.958
913.64	349.737
916.533	345.37
919.425	276.634
922.318	320.781
925.211	414.021
928.104	409.026
930.996	330.042
933.889	236.674
936.782	336.817
939.674	205.685
942.567	229.46
945.46	197.616
948.352	242.624
951.245	376.917
954.138	519.11
957.03	888.408
959.923	1475.8
962.816	2601.69
965.709	4230.35
968.601	6476.65
971.494	8630.17
974.387	8621.85
977.279	5279.27
980.172	2557.03
983.065	1612.31
985.957	1085.25
988.85	524.275
991.743	407.512
994.635	271.16
997.528	115.019
1000.42	230.281
1003.31	160.652
1006.21	36.582
1009.1	28.2578
1011.99	23.6504
1014.88	10.9414
1017.78	35.5469
1020.67	116.393
1023.56	79.0312
1026.45	5.28906
1029.35	14.3086
1032.24	51.4316
1035.13	20.4297
1038.03	66.9805
1040.92	81.2559
1043.81	9.58789
1046.7	121.531
1049.6	117.711
1052.49	134.301
1055.38	309.174
1058.28	390.365
1061.17	289.477
1064.06	124.033
1066.95	154.262
1069.85	122.543
1072.74	313.982
1075.63	190.023
1078.52	180.938
1081.42	253.275
1084.31	320.338
1087.2	516.111
1090.09	668.594
1092.99	836.451
1095.88	1073.36
1098.77	1442.87
1101.66	1584.37
1104.56	1682.52
1107.45	1346.16
1110.34	836.109
1113.24	443.109
1116.13	374.352
1119.02	139.166
1121.91	92.0215
1124.81	120.162
1127.7	41.4863
1130.59	153.861
1133.48	132.193
1136.38	140.16
1139.27	20.9922
1142.16	141.055
1145.06	77.7363
1147.95	21.1699
1150.84	12.0352
1153.73	45.3203
1156.63	143.555
1159.52	3.45508
1162.41	91.6582
1165.31	5.08984
1168.2	5.22656
1171.09	81.1621
1173.98	126.006
1176.88	210.09
1179.77	183.891
1182.66	240.801
1185.55	113.393
1188.45	222.127
1191.34	21.3672
1194.23	46.7266
1197.12	62
1200.02	70.5449
1202.91	78.4824
1205.8	2.40039
1208.69	24.2441
1211.59	117.998
1214.48	62.3926
1217.37	40.0039
1220.27	57.5215
1223.16	79.8965
1226.05	11.0801
1228.94	47.8535
1231.84	100.219
1234.73	145.518
1237.62	169.193
1240.52	204.383
1243.41	118.631
1246.3	203.869
1249.19	296.539
1252.09	71.0606
1254.98	166.455
1257.87	102.754
1260.76	82.3457
1263.66	17.5508
1266.55	21.6113
1269.44	153.166
1272.33	201.014
1275.23	232.184
1278.12	247.727
1281.01	67.6934
1283.9	78.9941
1286.8	136.803
1289.69	57.1074
