Measurement: Raman, 780 nm, unoriented, Raman Data Processed
Mineral: Tobermorite
Rruff sample: R060147
Ideal chemistry: Ca_5_Si_6_O_16_(OH)_2_nH_2_O
Locality: Crestmore Quarries, Riverside County, California
Source: University of Arizona Mineral Museum
Description: White fibers bundled in divergent tufts
Measured chemistry: (Ca_4.91_Al_0.06_[box]_0.03_)_Σ=5_Si_6.00_O_16_(OH)_2_·5H_2_O ; H not measured but estimated by difference
Raman shift (cm-1)	intensity
145.058	0
147.951	0.540268
150.844	6.20634
153.736	6.08417
156.629	5.99985
159.522	7.64548
162.414	10.4599
165.307	10.2442
168.2	10.0075
171.093	9.96468
173.985	8.85692
176.878	8.12422
179.771	1.89998
182.663	2.94173
185.556	3.81665
188.449	5.45564
191.341	9.2425
194.234	9.40321
197.127	4.29134
200.019	2.45519
202.912	1.44901
205.805	0.654129
208.697	1.18134
211.59	2.3606
214.483	1.50468
217.376	0.493172
220.268	0.44413
223.161	1.22338
226.054	2.8449
228.946	4.84406
231.839	6.55538
234.732	7.46762
237.625	8.89498
240.517	13.1271
243.41	13.2582
246.303	11.9912
249.195	12.5452
252.088	8.94356
254.981	6.05868
257.873	5.0117
260.766	2.68935
263.659	3.27007
266.551	4.48057
269.444	6.42908
272.337	9.74394
275.23	13.3319
278.122	13.8808
281.015	16.0158
283.908	16.5763
286.8	15.632
289.693	16.0336
292.586	16.2946
295.478	15.0583
298.371	14.411
301.264	13.2099
304.157	13.6227
307.049	13.729
309.942	13.9326
312.835	15.0772
315.727	14.9025
318.62	16.3503
321.513	14.9584
324.406	15.3022
327.298	14.0237
330.191	13.358
333.084	10.6043
335.976	6.24751
338.869	4.4537
341.762	3.26404
344.654	1.46596
347.547	2.15573
350.44	3.70621
353.332	4.80864
356.225	5.32771
359.118	5.95255
362.01	6.6183
364.903	4.63015
367.796	5.54435
370.689	3.02504
373.581	0.621811
376.474	1.0409
379.367	1.72559
382.259	0.669662
385.152	0.208015
388.045	0.121826
390.938	0.103439
393.83	0.110657
396.723	0.522331
399.616	1.35146
402.508	1.78852
405.401	1.97476
408.294	1.19781
411.186	1.36099
414.079	1.61792
416.972	0.684258
419.865	2.48993
422.757	2.96287
425.65	5.39899
428.543	7.84465
431.435	9.19751
434.328	11.0723
437.221	13.1873
440.113	15.7421
443.006	18.5917
445.899	17.7892
448.791	14.4411
451.684	14.478
454.577	12.5739
457.47	9.56128
460.362	6.41404
463.255	6.50819
466.148	5.81162
469.04	6.11039
471.933	7.21235
474.826	7.34452
477.719	8.75642
480.611	9.63656
483.504	8.40323
486.397	4.2511
489.289	4.20827
492.182	4.03089
495.075	3.53874
497.967	1.60029
500.86	1.12911
503.753	0.534492
506.645	0.223351
509.538	2.38506
512.431	2.88602
515.323	3.56298
518.216	4.44056
521.109	5.09251
524.002	5.63524
526.894	5.85866
529.787	6.36816
532.68	7.6992
535.572	6.8351
538.465	4.71236
541.358	4.72691
544.25	1.5435
547.143	1.47925
550.036	1.53132
552.929	1.64071
555.821	0.089821
558.714	1.08933
561.607	0.657845
564.499	0.071442
567.392	0.240677
570.285	0.73674
573.178	1.02104
576.07	0.668648
578.963	0.398697
581.856	0.702759
584.748	1.13886
587.641	0.094688
590.534	0.934578
593.426	1.77911
596.319	1.19054
599.212	1.61252
602.105	4.38725
604.997	4.32642
607.89	5.35855
610.783	7.7243
613.675	8.79259
616.568	8.81364
619.461	8.30398
622.353	6.18485
625.246	4.32544
628.139	6.83759
631.031	4.62208
633.924	6.39771
636.817	8.74506
639.71	9.48713
642.602	14.2938
645.495	19.2283
648.388	28.4795
651.28	42.7349
654.173	55.5591
657.066	71.9798
659.958	95.0778
662.851	112.003
665.744	118.793
668.636	109.4
671.529	92.5829
674.422	79.4122
677.315	69.6704
680.207	63.4676
683.1	51.6646
685.993	40.4579
688.885	28.7104
691.778	21.5419
694.671	13.0214
697.563	10.7289
700.456	7.78872
703.349	5.47407
706.242	5.33847
709.134	2.6773
712.027	2.73222
714.92	2.27565
717.812	2.16564
720.705	1.05638
723.598	0.614899
726.49	0.39682
729.383	0.702705
732.276	0.714256
735.169	0.624641
738.061	0.37101
740.954	1.01067
743.847	0.135025
746.739	0.342987
749.632	0.31646
752.525	1.24081
755.418	0.309021
758.31	0.005753
761.203	0.870052
764.096	0.014282
766.988	1.06899
769.881	0.836124
772.774	1.10546
775.666	0.912956
778.559	1.46053
781.452	2.6033
784.345	2.66767
787.237	1.49401
790.13	2.46259
793.023	1.50992
795.915	1.0308
798.808	2.12193
801.701	2.25663
804.593	2.41135
807.486	1.8085
810.379	1.04877
813.271	2.24074
816.164	2.38824
819.057	1.74554
821.949	1.78373
824.842	1.78656
827.735	3.90725
830.628	4.63331
833.52	4.39944
836.413	4.8245
839.306	5.57087
842.198	6.20451
845.091	6.63537
847.984	5.13332
850.876	5.64523
853.769	5.36613
856.662	3.5561
859.555	3.85844
862.447	4.26377
865.34	4.43717
868.233	4.34809
871.125	3.54538
874.018	3.29833
876.911	2.6035
879.803	4.01131
882.696	2.56091
885.589	3.76906
888.482	2.44945
891.374	2.55828
894.267	1.13101
897.16	1.86
900.052	2.87289
902.945	0.049026
905.838	0.294479
908.731	1.45188
911.623	3.3882
914.516	2.30233
917.409	1.23971
920.301	0.953949
923.194	0.746696
926.087	0.490089
928.979	0.573421
931.872	1.23624
934.765	1.57724
937.658	0.307522
940.55	0.623539
943.443	0.588116
946.336	0.079796
949.228	1.17597
952.121	0.304947
955.014	1.31655
957.906	1.8217
960.799	1.66681
963.692	0.45837
966.584	1.71721
969.477	2.2609
972.37	2.56785
975.263	3.81187
978.155	5.37116
981.048	8.73791
983.941	11.0068
986.833	16.8073
989.726	22.9507
992.619	28.3968
995.511	34.4976
998.404	34.6882
1001.3	31.5149
1004.19	29.5312
1007.08	26.7059
1009.98	25.037
1012.87	25.5288
1015.76	22.9467
1018.65	21.4278
1021.55	21.6499
1024.44	20.6052
1027.33	20.5142
1030.22	22.2393
1033.12	23.1961
1036.01	18.8795
1038.9	16.9953
1041.8	13.3693
1044.69	13.2814
1047.58	12.2389
1050.47	12.4439
1053.37	11.44
1056.26	12.0018
1059.15	8.86475
1062.04	10.1577
1064.94	7.77147
1067.83	5.97225
1070.72	7.38242
1073.61	4.8472
1076.51	3.94313
1079.4	2.98939
1082.29	2.16375
1085.18	1.61336
1088.08	2.30365
1090.97	2.87234
1093.86	0.328701
1096.76	1.03767
1099.65	0.250317
1102.54	2.1184
1105.43	0.119553
1108.33	0.343979
1111.22	1.36928
1114.11	0.727489
1117.01	1.35411
1119.9	1.29106
1122.79	0.393761
1125.68	0.764229
1128.58	1.98122
1131.47	0.356956
1134.36	1.69245
1137.25	1.8791
1140.15	2.47339
1143.04	2.23308
1145.93	1.81966
1148.82	0.026112
1151.72	1.10683
1154.61	0.895428
1157.5	2.67863
1160.39	2.17974
1163.29	1.57684
1166.18	1.01145
1169.07	1.1292
1171.97	0.026672
1174.86	1.50786
1177.75	0.432415
1180.64	0.384953
1183.54	3.04602
1186.43	1.73544
1189.32	3.53658
1192.21	1.56875
1195.11	1.92698
1198	1.38266
1200.89	0.247375
1203.79	1.74815
1206.68	1.50085
1209.57	1.5682
1212.46	2.4494
1215.36	0.640976
1218.25	0.080124
1221.14	0.361065
1224.04	2.81305
1226.93	3.20949
1229.82	2.47597
1232.71	0.018784
1235.61	0.241302
1238.5	0.595436
1241.39	0.829475
1244.28	3.13924
1247.18	0.005024
1250.07	2.7687
1252.96	3.37208
1255.85	2.50927
1258.75	2.43401
1261.64	2.50253
1264.53	0.086601
1267.42	1.74096
1270.32	1.99071
1273.21	5.24869
1276.1	1.81135
1279	0.032688
1281.89	1.11156
1284.78	1.42038
