Measurement: Raman, 532 nm, unoriented, Raman Data Processed
Mineral: Tobermorite
Rruff sample: R060147
Ideal chemistry: Ca_5_Si_6_O_16_(OH)_2_nH_2_O
Locality: Crestmore Quarries, Riverside County, California
Source: University of Arizona Mineral Museum
Description: White fibers bundled in divergent tufts
Measured chemistry: (Ca_4.91_Al_0.06_[box]_0.03_)_Σ=5_Si_6.00_O_16_(OH)_2_·5H_2_O ; H not measured but estimated by difference
Raman shift (cm-1)	intensity
146.189	0
149.082	9.1402
151.975	26.4391
154.867	29.006
157.76	28.1794
160.653	25.6087
163.546	27.439
166.438	25.7875
169.331	24.4006
172.224	24.0787
175.116	20.9236
178.009	17.6127
180.902	10.9068
183.794	8.26936
186.687	6.97151
189.58	5.27858
192.472	4.83592
195.365	5.06407
198.258	3.3277
201.151	3.81873
204.043	4.10648
206.936	2.14206
209.829	2.4771
212.721	0.473053
215.614	1.33008
218.507	0.152222
221.4	0.642639
224.292	1.08997
227.185	1.34576
230.078	1.05922
232.97	1.17987
235.863	1.45865
238.756	1.32919
241.649	1.26917
244.541	0.914154
247.434	0.069946
250.327	0.940735
253.219	0.359467
256.112	1.33615
259.005	0.4953
261.897	2.47122
264.79	4.43957
267.683	8.94238
270.576	9.6795
273.468	14.5135
276.361	14.5866
279.254	17.8178
282.146	18.7074
285.039	17.2343
287.932	19.5641
290.825	18.0615
293.717	21.2283
296.61	18.9721
299.503	19.033
302.395	19.3829
305.288	17.7824
308.181	20.0624
311.073	18.5257
313.966	19.8302
316.859	20.3987
319.752	19.8648
322.644	20.6371
325.537	17.8994
328.43	18.7206
331.322	19.2989
334.215	12.5151
337.108	9.98416
340	8.18832
342.893	5.81604
345.786	5.84924
348.679	6.4928
351.571	8.14465
354.464	7.6561
357.357	7.72629
360.249	8.67026
363.142	5.89264
366.035	6.87824
368.928	5.10996
371.82	3.58673
374.713	1.57355
377.606	0.547333
380.498	0.0665632
383.391	0.370605
386.284	0.730393
389.176	1.67941
392.069	3.18564
394.962	3.1311
397.854	4.32837
400.747	4.33908
403.64	4.45084
406.533	2.07346
409.425	2.32394
412.318	2.84558
415.211	1.08408
418.103	2.1586
420.996	4.57101
423.889	4.1471
426.782	7.79907
429.674	9.79703
432.567	12.6251
435.46	15.6137
438.352	16.9925
441.245	20.307
444.138	21.1655
447.031	18.3892
449.923	16.6683
452.816	13.2798
455.709	10.0122
458.601	10.301
461.494	7.03262
464.387	5.09546
467.279	6.24387
470.172	6.68823
473.065	6.62088
475.957	10.2069
478.85	9.95456
481.743	11.4849
484.636	9.5231
487.528	5.27142
490.421	4.14957
493.314	2.40366
496.207	1.67734
499.099	1.36209
501.992	0.371674
504.885	0.091156
507.777	0.685028
510.67	0.519714
513.563	0.795319
516.455	2.24725
519.348	4.37949
522.241	4.65448
525.134	6.0911
528.026	6.24826
530.919	8.8682
533.812	8.74991
536.704	7.21985
539.597	5.47809
542.49	3.41815
545.382	2.89264
548.275	2.25919
551.168	2.57605
554.061	1.38605
556.953	0.40036
559.846	0.123047
562.739	0.671478
565.631	0.62854
568.524	0.600555
571.417	0.003021
574.309	0.735596
577.202	0.62738
580.095	0.084656
582.987	0.021881
585.88	0.2323
588.773	0.624939
591.666	0.015594
594.558	1.02408
597.451	1.53989
600.344	4.1423
603.236	3.12649
606.129	7.12604
609.022	8.02188
611.915	7.98621
614.807	7.62006
617.7	8.52748
620.593	9.59303
623.485	8.29193
626.378	8.67874
629.271	8.57562
632.164	8.28
635.056	11.035
637.949	13.7611
640.842	18.1024
643.734	23.0572
646.627	35.0809
649.52	49.6921
652.413	70.3807
655.305	99.0939
658.198	131.333
661.091	160.675
663.983	173.738
666.876	168.706
669.769	144.972
672.661	119.066
675.554	98.2789
678.447	82.3453
681.34	68.5254
684.232	52.8941
687.125	39.4767
690.018	29.2689
692.91	18.593
695.803	12.5789
698.696	9.9249
701.588	7.68018
704.481	6.09851
707.374	4.9733
710.266	3.75409
713.159	1.46912
716.052	2.83664
718.945	1.32193
721.837	1.71594
724.73	0.150116
727.623	0.578186
730.515	0.16629
733.408	2.45401
736.301	0.638489
739.194	1.05231
742.086	0.037384
744.979	0.252228
747.872	0.766663
750.764	0.815521
753.657	0.246033
756.55	0.444427
759.442	0.992493
762.335	1.8699
765.228	0.275574
768.121	2.31125
771.013	0.904388
773.906	0.51947
776.799	0.827545
779.692	1.84522
782.584	1.55832
785.477	2.67853
788.37	0.780579
791.262	2.07138
794.155	0.529968
797.048	2.32803
799.94	2.12253
802.833	2.65674
805.726	2.26202
808.619	2.85852
811.511	3.28888
814.404	1.37482
817.297	2.26154
820.189	2.86496
823.082	3.75281
825.975	3.90472
828.867	3.65225
831.76	3.93112
834.653	4.48801
837.545	3.45346
840.438	3.54947
843.331	5.58154
846.224	5.79312
849.116	4.41714
852.009	6.06699
854.902	6.95566
857.794	5.18961
860.687	6.00522
863.58	2.4921
866.473	3.73767
869.365	2.61646
872.258	3.28961
875.151	2.1066
878.043	2.07596
880.936	2.27518
883.829	2.86612
886.721	1.22333
889.614	2.5867
892.507	0.890869
895.4	0.810333
898.292	0.434998
901.185	2.41177
904.078	3.50964
906.97	1.11319
909.863	2.48419
912.756	1.28394
915.649	2.48688
918.541	2.46924
921.434	0.866699
924.327	0.285736
927.219	0.619385
930.112	1.08978
933.005	1.29465
935.898	1.57892
938.79	5.23733
941.683	2.16031
944.576	2.10721
947.468	3.04382
950.361	3.80289
953.254	2.1358
956.146	0.699371
959.039	0.193359
961.932	0.667145
964.824	0.520935
967.717	1.53812
970.61	2.48703
973.503	4.5538
976.395	8.75607
979.288	15.4804
982.181	15.2189
985.073	23.3487
987.966	34.6053
990.859	43.8401
993.751	53.2071
996.644	56.9959
999.537	57.4502
1002.43	50.4878
1005.32	45.7766
1008.22	39.5849
1011.11	37.3843
1014	35.2414
1016.89	29.4247
1019.79	30.4266
1022.68	30.6035
1025.57	34.1624
1028.46	35.99
1031.36	37.7651
1034.25	34.0981
1037.14	30.5565
1040.04	26.8269
1042.93	23.3478
1045.82	21.3913
1048.71	21.4191
1051.61	20.3701
1054.5	19.2932
1057.39	17.4238
1060.28	16.3178
1063.18	12.4757
1066.07	12.7258
1068.96	10.9398
1071.85	7.94663
1074.75	5.54352
1077.64	3.12863
1080.53	3.8006
1083.42	2.11792
1086.32	0.515594
1089.21	1.70785
1092.1	0.094177
1095	1.04541
1097.89	0.706085
1100.78	0.242371
1103.67	0.856964
1106.57	0.47113
1109.46	1.8739
1112.35	0.556122
1115.24	2.01385
1118.14	0.370636
1121.03	1.50128
1123.92	0.499359
1126.82	1.72281
1129.71	2.69977
1132.6	1.07031
1135.49	2.01544
1138.39	3.94461
1141.28	3.47079
1144.17	2.60864
1147.07	4.66522
1149.96	3.15466
1152.85	3.84811
1155.74	1.66153
1158.64	0.970001
1161.53	0.262421
1164.42	2.20444
1167.31	3.33734
1170.21	1.36008
1173.1	2.29797
1175.99	1.70914
1178.88	0.013519
1181.78	1.4819
1184.67	2.905
1187.56	2.60159
1190.45	1.90552
1193.35	2.43524
1196.24	2.2536
1199.13	1.90414
1202.03	3.17841
1204.92	4.63235
1207.81	4.54385
1210.7	4.104
1213.6	3.21335
1216.49	2.69974
1219.38	3.50275
1222.28	2.52356
1225.17	2.38559
1228.06	3.1525
1230.95	1.3002
1233.85	1.9906
1236.74	2.95367
1239.63	4.37656
1242.52	3.14789
1245.42	1.26434
1248.31	2.78805
1251.2	2.68216
1254.1	1.50931
1256.99	0.87558
1259.88	0.44989
1262.77	2.27917
1265.67	1.39154
1268.56	3.92007
1271.45	3.0145
1274.34	1.9372
1277.24	4.72781
1280.13	3.4689
1283.02	2.71539
1285.91	1.87314
1288.81	2.31671
1291.7	2.24704
1294.59	3.90295
1297.48	3.12668
1300.38	1.65122
