Measurement: Raman, 780 nm, unoriented, Raman Data Processed
Mineral: Tocornalite
Rruff sample: R070693
Ideal chemistry: (Ag,Hg)I
Locality: Block 14 Opencut, Broken Hill, Yancowinna Co., New South Wales, Australia
Source: Michael Scott
Description: Pale yellow granular
Raman shift (cm-1)	intensity
149.377	0
152.27	105.525
155.163	401.357
158.055	672.426
160.948	771.13
163.841	944.515
166.733	994.734
169.626	1176.67
172.519	1285.84
175.411	1099.22
178.304	825.575
181.197	487.9
184.09	204.964
186.982	43.5718
189.875	58.1392
192.768	78.8374
195.66	1.01465
198.553	14.374
201.446	96.959
204.339	170.056
207.231	320.714
210.124	745.268
213.017	1107.85
215.909	1447.46
218.802	1758.68
221.695	1994.03
224.587	2147.74
227.48	2316.53
230.373	2441.74
233.266	2604.28
236.158	2674.92
239.051	2709.64
241.944	2625.49
244.836	2601.77
247.729	2549.7
250.622	2406.53
253.514	2322.08
256.407	2090.29
259.3	1933.05
262.193	1771.17
265.085	1606.14
267.978	1490.76
270.871	1337.1
273.763	1238.39
276.656	1074.47
279.549	980.086
282.442	865.894
285.334	755.021
288.227	633.049
291.12	547.171
294.012	488.381
296.905	416.512
299.798	345.819
302.69	318.699
305.583	284.837
308.476	217.326
311.368	174.348
314.261	161.151
317.154	163.413
320.047	98.2097
322.939	31.908
325.832	58.2073
328.725	31.8103
331.617	39.2598
334.51	27.2322
337.403	23.2495
340.296	55.0796
343.188	11.6165
346.081	42.4487
348.974	1.27612
351.866	17.2087
354.759	10.5007
357.652	41.1792
360.544	9.74658
363.437	15.6914
366.33	15.1785
369.223	42.5093
372.115	33.4299
375.008	26.1533
377.901	2.57837
380.793	58.3599
383.686	21.0117
386.579	6.78027
389.471	14.3887
392.364	4.41089
395.257	13.9419
398.149	29.3872
401.042	26.6184
403.935	0.927979
406.828	30.7576
409.72	14.9392
412.613	4.69629
415.506	38.9692
418.398	16.5127
421.291	46.8415
424.184	51.7683
427.077	74.0303
429.969	41.7441
432.862	23.3648
435.755	59.2068
438.647	33.532
441.54	33.7251
444.433	98.2449
447.325	81.6472
450.218	72.5061
453.111	70.4805
456.004	29.0549
458.896	82.7412
461.789	44.188
464.682	46.3911
467.574	83.4309
470.467	47.8408
473.36	13.3589
476.252	44.7353
479.145	32.2849
482.038	72.0608
484.931	43.9905
487.823	26.1572
490.716	72.146
493.609	66.9719
496.501	33.1645
499.394	57.8413
502.287	35.3547
505.18	43.5383
508.072	35.0134
510.965	36.5986
513.858	50.3281
516.75	63.4443
519.643	39.502
522.536	34.8342
525.428	48.7004
528.321	76.2539
531.214	62.5427
534.106	56.3962
536.999	42.4087
539.892	28.4058
542.785	33.082
545.677	46.5039
548.57	25.4429
551.463	43.5693
554.355	59.3208
557.248	55.7639
560.141	44.831
563.034	46.4609
565.926	44.0793
568.819	44.52
571.712	50.0696
574.604	39.5239
577.497	22.2847
580.39	54.3916
583.282	15.5737
586.175	32.7031
589.068	21.6179
591.961	30.4993
594.853	60.4307
597.746	16.28
600.639	25.6511
603.531	46.7334
606.424	2.80371
609.317	64.2251
612.209	0.336426
615.102	31.1887
617.995	17.207
620.888	37.8804
623.78	20.7986
626.673	22.523
629.566	1.51147
632.458	19.1118
635.351	19.0356
638.244	25.7707
641.136	44.1843
644.029	22.3591
646.922	0.954834
649.814	21.71
652.707	47.8355
655.6	36.0188
658.493	23.7373
661.385	50.6787
664.278	59.4651
667.171	10.8174
670.063	13.6126
672.956	36.5772
675.849	24.6274
678.742	67.3103
681.634	68.293
684.527	62.9138
687.42	50.2053
690.312	22.5283
693.205	7.12036
696.098	51.5859
698.99	21.22
701.883	37.3398
704.776	53.6511
707.669	10.5918
710.561	12.0935
713.454	39.6079
716.347	40.6858
719.239	46.4417
722.132	45.1184
725.025	29.739
727.918	13.4187
730.81	32.9893
733.703	39.925
736.596	58.272
739.488	49.1499
742.381	63.5967
745.274	38.8984
748.166	30.0818
751.059	33.5261
753.952	29.0586
756.845	25.7532
759.737	35.032
762.63	53.814
765.523	13.519
768.415	5.21362
771.308	25.0073
774.201	10.957
777.093	21.4985
779.986	27.1575
782.879	34.6794
785.771	11.4492
788.664	14.178
791.557	19.8826
794.45	0.651855
797.342	68.0596
800.235	43.7661
803.128	16.9038
806.02	37.675
808.913	26.0635
811.806	48.3115
814.698	37.7952
817.591	1.49609
820.484	3.87671
823.377	68.7183
826.269	25.4893
829.162	29.4688
832.055	53.7122
834.947	68.0125
837.84	18.0998
840.733	6.46997
843.625	48.1372
846.518	29.7432
849.411	56.8047
852.304	20.9856
855.196	62.5715
858.089	33.1089
860.982	18.5452
863.875	44.3762
866.767	43.031
869.66	16.511
872.553	48.0881
875.445	73.9373
878.338	19.1977
881.231	8.59326
884.123	5.09644
887.016	18.6814
889.909	57.113
892.802	17.4697
895.694	19.2773
898.587	46.4995
901.48	13.9377
904.372	67.3433
907.265	17.6055
910.158	40.8516
913.05	56.4402
915.943	18.7935
918.836	21.5032
921.729	50.3606
924.621	26.8481
927.514	10.9065
930.407	3.79834
933.299	71.1365
936.192	10.5185
939.085	25.4019
941.977	15.5427
944.87	42.063
947.763	44.0142
950.655	23.0034
953.548	11.6494
956.441	29.0808
959.334	49.644
962.226	54.2647
965.119	15.199
968.012	35.8831
970.904	32.8452
973.797	4.25439
976.69	3.12451
979.582	18.4944
982.475	41.5542
985.368	42.282
988.261	26.9717
991.153	46.1113
994.046	5.13135
996.939	16.6172
999.831	34.0725
1002.72	26.8186
1005.62	31.7646
1008.51	36.5239
1011.4	45.0159
1014.29	68.2561
1017.19	34.7339
1020.08	39.9895
1022.97	53.8259
1025.87	49.2895
1028.76	2.03784
1031.65	21.8914
1034.54	32.5547
1037.44	66.2251
1040.33	10.5239
1043.22	55.4495
1046.12	35.5823
1049.01	28.9248
1051.9	51.5952
1054.79	63.7852
1057.68	36.0383
1060.58	45.1645
1063.47	53.2398
1066.36	42.6069
1069.26	38.9148
1072.15	67.8748
1075.04	60.0037
1077.93	49.9241
1080.83	84.0947
1083.72	62.1804
1086.61	50.845
1089.51	36.8508
1092.4	44.8557
1095.29	49.5115
1098.18	21.0198
1101.08	39.041
1103.97	14.5337
1106.86	5.6145
1109.75	41.6873
1112.65	45.7842
1115.54	48.0842
1118.43	27.416
1121.33	21.2454
1124.22	4.08594
1127.11	17.3435
1130	43.1262
1132.9	30.9998
1135.79	2.80493
1138.68	0.730469
1141.57	44.8579
1144.47	50.4568
1147.36	0.588623
1150.25	53.2703
1153.14	27.1228
1156.04	28.51
1158.93	13.9253
1161.82	71.9456
1164.71	44.2158
1167.61	7.39282
1170.5	52.3599
1173.39	82.0398
1176.29	50.1145
1179.18	29.6545
1182.07	22.3972
1184.96	43.3726
1187.86	30.7922
1190.75	103.304
1193.64	45.0283
1196.54	10.967
1199.43	37.6338
1202.32	43.9707
1205.21	43.3638
1208.11	26.9136
1211	45.5654
1213.89	42.1008
1216.78	11.5501
1219.68	18.9209
1222.57	63.0742
1225.46	46.1484
1228.36	30.5188
1231.25	58.3013
1234.14	44.2092
1237.03	28.6924
1239.93	37.3591
1242.82	12.7046
