Measurement: Raman, 785 nm, unoriented, Raman Data Processed
Mineral: Topaz
Rruff sample: R040121
Ideal chemistry: Al_2_SiO_4_F_2_
Locality: Tepetate, San Luis Potosi, Mexico
Source: University of Arizona Mineral Museum
Description: Fragments of a prismatic single crystal
Measured chemistry: Al_2.00_(Si_0.99_Al_0.02_)(F_0.82_(OH)_0.18_)_2_
Raman shift (cm-1)	intensity
141.268	0
143.679	2.86582
146.089	56.4829
148.5	297.871
150.911	585.576
153.321	959.933
155.732	652.73
158.142	203.28
160.553	241.001
162.964	502.685
165.374	736.822
167.785	324.844
170.195	70.4084
172.606	98.1842
175.017	96.8988
177.427	84.5043
179.838	42.3972
182.248	17.1367
184.659	31.8596
187.069	42.7222
189.48	37.043
191.891	3.69275
194.301	2.12915
196.712	15.2729
199.122	6.49952
201.533	0.539872
203.944	8.49133
206.354	5.37434
208.765	0.209268
211.175	5.307
213.586	1.83655
215.996	7.13946
218.407	7.43869
220.818	69.8702
223.228	160.189
225.639	299.059
228.049	478.393
230.46	708.632
232.87	1269.74
235.281	2455.86
237.692	3735.18
240.102	5433.3
242.513	2056.13
244.923	565.555
247.334	343.046
249.745	331.414
252.155	522.56
254.566	765.658
256.976	1030.83
259.387	1461.22
261.798	2350.47
264.208	4412.12
266.619	9554.9
269.029	7476.55
271.44	1915.6
273.85	1223.24
276.261	1464.75
278.672	1752.26
281.082	2755.09
283.493	5437.16
285.903	9128.11
288.314	4871.36
290.724	1189.83
293.135	337.315
295.546	97.344
297.956	2.75853
300.367	7.38946
302.777	2.50914
305.188	2.53395
307.599	8.5717
310.009	34.9507
312.42	123.717
314.83	452.235
317.241	971.862
319.651	663.5
322.062	463.982
324.473	646.227
326.883	1171.34
329.294	2385.62
331.704	4706.06
334.115	3037.07
336.526	657.904
338.936	177.335
341.347	65.2955
343.757	36.3991
346.168	30.7571
348.579	16.4561
350.989	47.7648
353.4	112.157
355.81	256.873
358.221	506.631
360.631	214.225
363.042	5.97497
365.452	10.5477
367.863	12.1541
370.274	58.4917
372.684	50.8569
375.095	68.8523
377.505	6.33296
379.916	6.57439
382.327	9.6402
384.737	5.96826
387.148	1.56519
389.558	83.6459
391.969	228.357
394.38	390.024
396.79	680.082
399.201	1365.95
401.611	2816.39
404.022	3294.64
406.433	1237.38
408.843	370.131
411.254	154.284
413.664	115.461
416.075	55.5615
418.485	68.9645
420.896	66.7094
423.307	51.9045
425.717	61.4108
428.128	3.89401
430.538	2.78797
432.949	3.1608
435.36	3.41121
437.77	5.00496
440.181	57.3076
442.591	171.424
445.002	305.723
447.412	494.251
449.823	812.446
452.234	1538.75
454.644	3063.32
457.055	3881.39
459.465	1373.86
461.876	329.18
464.286	147.7
466.697	31.6457
469.108	3.98261
471.518	10.7987
473.929	4.46999
476.339	25.9002
478.75	22.6944
481.161	73.2359
483.571	52.3598
485.982	0.730045
488.392	28.0074
490.803	68.2555
493.214	79.6559
495.624	79.9726
498.035	41.6849
500.445	12.4266
502.856	6.01943
505.266	25.8528
507.677	55.7217
510.088	94.1305
512.498	116.261
514.909	76.9861
517.319	42.4401
519.73	40.6834
522.14	17.9195
524.551	0.914765
526.962	1.76806
529.372	4.07843
531.783	23.0735
534.193	2.70775
536.604	11.8684
539.015	48.6009
541.425	81.912
543.836	193.251
546.246	316.819
548.657	295.591
551.067	161.094
553.478	155.344
555.889	217.313
558.299	332.845
560.71	487.875
563.12	411.24
565.531	247.77
567.942	142.453
570.352	53.1989
572.763	40.1729
575.173	28.0371
577.584	25.4835
579.994	5.55429
582.405	29.0702
584.816	15.3238
587.226	8.97429
589.637	0.118029
592.047	1.25715
594.458	5.60736
596.869	17.9042
599.279	1.24689
601.69	39.018
604.1	27.0397
606.511	0.477498
608.921	7.16385
611.332	0.236411
613.743	15.3342
616.153	13.4838
618.564	0.160024
620.974	4.61476
623.385	28.2389
625.795	23.3836
628.206	12.5868
630.617	66.5477
633.027	61.8626
635.438	103.909
637.848	105.692
640.259	166.068
642.67	179.937
645.08	181.045
647.491	115.107
649.901	47.3411
652.312	13.2781
654.722	6.68522
657.133	22.5615
659.544	4.39542
661.954	1.1953
664.365	0.396674
666.775	9.47736
669.186	0.395127
671.597	3.65544
674.007	0.699965
676.418	2.49126
678.828	1.18574
681.239	22.0033
683.649	18.1172
686.06	35.5104
688.471	13.6372
690.881	21.9565
693.292	0.167952
695.702	12.0153
698.113	25.9242
700.524	39.0538
702.934	40.5567
705.345	59.6868
707.755	74.9374
710.166	58.4312
712.577	62.9673
714.987	34.7616
717.398	26.844
719.808	52.9572
722.219	19.4618
724.63	15.8552
727.04	5.62026
729.451	12.6279
731.861	11.4139
734.272	15.7788
736.682	3.05406
739.093	54.2301
741.504	22.8294
743.914	31.1253
746.325	37.4242
748.735	1.68697
751.146	35.3128
753.557	20.8553
755.967	34.9616
758.378	21.0864
760.788	48.0104
763.199	31.0135
765.609	31.0643
768.02	30.7247
770.431	28.1224
772.841	29.939
775.252	26.2815
777.662	19.2418
780.073	14.3891
782.484	13.2433
784.894	2.4677
787.305	1.38292
789.715	27.083
792.126	8.37335
794.536	10.676
796.947	28.7915
799.357	0.00517
801.768	0.104377
804.179	2.31029
806.589	1.56024
809	1.98266
811.41	1.51332
813.821	0.154767
816.232	0.819603
818.642	3.37852
821.053	5.39738
823.463	23.9998
825.874	32.2778
828.284	65.4926
830.695	90.1157
833.106	112.413
835.516	148.1
837.927	194.091
840.337	278.361
842.748	428.82
845.159	614.546
847.569	961.21
849.98	1351.95
852.39	1828.82
854.801	2128.67
857.212	1965.95
859.622	1390.2
862.033	922.209
864.443	506.88
866.854	287.18
869.264	174.578
871.675	96.8225
874.086	44.1897
876.496	7.49307
878.907	1.80381
881.317	4.06754
883.728	5.76996
886.139	6.95412
888.549	8.67392
890.96	38.0118
893.37	73.9176
895.781	155.613
898.192	217.73
900.602	318.652
903.013	455.166
905.423	574.318
907.834	791.378
910.244	997.347
912.655	1275.3
915.066	1722.09
917.476	2228.57
919.887	2876.94
922.297	3629.55
924.708	4166.36
927.119	4304.02
929.529	3954.78
931.94	3274.07
934.35	2591.11
936.761	1998.47
939.171	1398.41
941.582	972.631
943.993	638.274
946.403	441.624
948.814	319.334
951.224	186.449
953.635	132.165
956.045	52.5663
958.456	0.959564
960.867	6.44203
963.277	7.26964
965.688	7.74714
968.098	5.68085
970.509	1.75868
972.92	15.5488
975.33	18.0137
977.741	93.796
980.151	158.42
982.562	249.415
984.972	340.875
987.383	294.708
989.794	189.519
992.204	96.9305
994.615	84.0566
997.025	75.6626
999.436	143.717
1001.85	224.545
1004.26	378.812
1006.67	511.338
1009.08	652.834
1011.49	606.145
1013.9	428.813
1016.31	232.673
1018.72	171.218
1021.13	98.2786
1023.54	41.0972
1025.95	70.8828
1028.36	25.7891
1030.77	17.5727
1033.18	20.8755
1035.6	7.45046
1038.01	2.73824
1040.42	8.37674
1042.83	0.685496
1045.24	8.17209
1047.65	4.56153
1050.06	1.45294
1052.47	6.85753
1054.88	5.03178
1057.29	28.9046
1059.7	35.3665
1062.11	60.1367
1064.52	59.2052
1066.93	73.066
1069.34	55.9046
1071.75	91.0917
1074.16	62.9917
1076.58	7.39906
1078.98	37.1888
1081.4	5.2751
