Measurement: Raman, 514 nm, unoriented, Raman Data Processed
Mineral: Topaz
Rruff sample: R050404
Ideal chemistry: Al_2_SiO_4_F_2_
Locality: Minas Gerais, Brazil
Source: Gerry Gibbs
Description: Colorless cleavage fragments
Measured chemistry: Al_2.00_Si_1.00_O_4_(F_0.86_(OH)_0.14_)_2_
Raman shift (cm-1)	intensity
121.203	0
125.369	77.408
129.534	61.348
133.696	183.974
137.857	564.838
142.016	654.197
146.172	611.888
150.327	838.035
154.48	1641.52
158.63	834.177
162.779	382.566
166.926	399.036
171.07	261.02
175.213	89.074
179.354	61.494
183.493	34.717
187.63	55.309
191.765	32.465
195.898	176.894
200.029	121.358
204.158	141.927
208.285	249.951
212.41	112.3
216.533	54.115
220.654	10.561
224.773	110.28
228.891	316.65
233.006	1718.69
237.119	7030.27
241.231	10219.3
245.34	3051.9
249.448	1041.1
253.553	957.009
257.657	1240.59
261.758	4333.69
265.858	18979.2
269.956	22461.3
274.052	6071.22
278.146	5177.3
282.237	17689.9
286.327	33790.3
290.416	16115
294.502	4995.6
298.586	2327.1
302.668	1443.23
306.749	1204.35
310.827	1309.91
314.903	1373.93
318.978	1598.3
323.051	2368
327.121	7026.13
331.19	18836.7
335.257	14282.6
339.322	4831.65
343.385	2025.82
347.446	1019.13
351.505	821.561
355.563	604.428
359.618	550.633
363.672	371.203
367.723	416.119
371.773	470.299
375.821	356.34
379.866	527.008
383.91	603.182
387.952	763.076
391.992	2486.77
396.031	3386.65
400.067	8156.74
404.101	11280.1
408.134	5669.68
412.165	2125.58
416.193	614.684
420.22	330.398
424.245	4.445
428.268	218.062
432.289	113.533
436.309	166
440.326	652.678
444.342	691.512
448.355	2427.46
452.367	7360.97
456.377	16393
460.385	14965
464.391	6938.21
468.395	2956.35
472.398	1629.93
476.398	812.199
480.397	717.469
484.394	641.727
488.389	435.965
492.382	248.172
496.373	136.238
500.362	9.287
504.349	112.6
508.335	207.35
512.319	121.25
516.3	319.389
520.28	364.324
524.259	208.516
528.235	19.104
532.209	317.412
536.182	141.688
540.152	100.512
544.121	354.492
548.088	431.676
552.053	659.809
556.017	783.057
559.978	1324.63
563.938	1275.11
567.895	466.408
571.851	195.711
575.805	153.664
579.758	46.611
583.708	102.707
587.657	148.568
591.603	238.838
595.548	59.943
599.491	59.738
603.432	207.859
607.372	218.262
611.309	301.963
615.245	79.1
619.179	508.408
623.111	33.67
627.041	598.662
630.97	314.689
634.896	614.414
638.821	1238.85
642.744	1760.98
646.665	1141.82
650.584	550.359
654.502	412.592
658.418	36.6
662.331	314.645
666.244	358.521
670.154	128.947
674.062	32.064
677.969	1.584
681.874	35.438
685.777	197.723
689.678	116.797
693.577	35.066
697.475	71.775
701.371	294.762
705.265	344.434
709.157	222.266
713.047	20.039
716.936	269.527
720.823	391.492
724.708	121.076
728.591	337.307
732.472	340.104
736.352	32.492
740.23	242.617
744.106	90.469
747.98	165.072
751.853	41.07
755.723	9.459
759.592	258.621
763.459	196.471
767.325	43.271
771.188	247.447
775.05	389.922
778.91	189.561
782.768	103.859
786.625	229.328
790.479	480.389
794.332	412.387
798.183	322.4
802.033	522.381
805.88	668.33
809.726	376.363
813.57	681.135
817.413	665.1
821.253	960.389
825.092	1345.14
828.929	1577.47
832.764	2354.64
836.598	3551.64
840.429	6396.28
844.259	11053
848.088	16550.5
851.914	17493.2
855.739	17525.3
859.562	13400.9
863.383	8850.42
867.203	5661.88
871.02	4402.73
874.836	3427.64
878.65	3017.8
882.463	2410.66
886.274	2201.06
890.083	2442.15
893.89	2639.68
897.695	2611.3
901.499	3167.29
905.301	4188.35
909.102	6274.35
912.9	8512.7
916.697	13604.1
920.492	19788.8
924.285	23677.6
928.077	21583.7
931.867	15875.1
935.655	11334.8
939.442	8053.74
943.226	5291.81
947.009	3487.37
950.791	2525.25
954.57	1960.68
958.348	1663.56
962.124	1326.58
965.899	1079.07
969.671	873.527
973.442	643.273
977.211	637.859
980.979	938.648
984.745	1081.06
988.509	944.02
992.271	660.012
996.032	743.191
999.791	918.559
1003.55	693.246
1007.3	1324.77
1011.06	1290.73
1014.81	931.426
1018.56	692.48
1022.31	527.234
1026.06	705.957
1029.8	379.254
1033.55	556.855
1037.29	546.629
1041.03	711.879
1044.77	608.098
1048.5	391.32
1052.24	303.055
1055.97	433.699
1059.7	459.75
1063.43	574.516
1067.16	429.176
1070.89	187.5
1074.61	218.84
1078.34	319.551
1082.06	541.723
1085.78	633.32
1089.5	416.48
1093.21	377.496
1096.93	555.199
1100.64	451.754
1104.35	257.918
1108.06	2.207
1111.77	354.965
1115.48	78.082
1119.18	232.898
1122.89	225.34
1126.59	217.414
1130.29	230.453
1133.99	34.945
1137.68	433.398
1141.38	30.926
1145.07	227.008
1148.76	10.102
1152.45	145.363
1156.14	172.676
1159.83	13.59
1163.51	117.57
1167.19	560.719
1170.88	605.41
1174.56	300.289
1178.23	364.582
1181.91	134.219
1185.59	436.598
1189.26	435.793
1192.93	435.707
1196.6	88.629
1200.27	187.293
1203.94	686.719
1207.6	326.902
1211.27	365.797
1214.93	554.395
1218.59	585.465
1222.25	536.816
1225.9	543.152
1229.56	364.902
1233.21	524.035
1236.86	462.746
1240.51	247.836
1244.16	439.355
1247.81	676.492
1251.45	578.699
1255.1	477.516
1258.74	48.504
1262.38	112.809
1266.02	438.211
1269.66	503.379
1273.29	181.746
1276.93	257.445
1280.56	526.973
1284.19	404.309
1287.82	562.172
1291.45	39.547
1295.07	541.398
1298.7	579.258
1302.32	488.551
1305.94	408.184
1309.56	664.129
1313.18	328.738
1316.8	670.117
1320.41	206.879
1324.02	3
1327.63	468.02
1331.24	139.504
1334.85	0
