Measurement: Raman, 780 nm, unoriented, Raman Data Processed
Mineral: Topaz
Rruff sample: R050404
Ideal chemistry: Al_2_SiO_4_F_2_
Locality: Minas Gerais, Brazil
Source: Gerry Gibbs
Description: Colorless cleavage fragments
Measured chemistry: Al_2.00_Si_1.00_O_4_(F_0.86_(OH)_0.14_)_2_
Raman shift (cm-1)	intensity
100.051	0
103.425	0.089565
106.8	2.52017
110.175	1.29181
113.55	0.114595
116.925	1.16188
120.3	0.990807
123.674	1.76127
127.049	1.47821
130.424	0.79261
133.799	1.82923
137.174	1.33481
140.549	1.97426
143.923	1.26819
147.298	1.19777
150.673	2.72075
154.048	9.28195
157.423	21.4148
160.798	2.04947
164.172	1.72911
167.547	1.61054
170.922	1.849
174.297	1.44371
177.672	1.22126
181.046	1.01913
184.421	0.378424
187.796	0.837301
191.171	0.518112
194.546	0.06273
197.921	0.132326
201.295	0.020675
204.67	0.310194
208.045	0.233675
211.42	0.722176
214.795	0.505447
218.169	1.57381
221.544	3.69822
224.919	5.7318
228.294	7.69954
231.669	13.4071
235.043	29.0098
238.418	83.5843
241.793	142.306
245.168	33.5169
248.543	12.6188
251.918	16.1528
255.292	15.3801
258.667	20.8732
262.042	33.6382
265.417	84.0489
268.792	334.451
272.166	139.457
275.541	45.789
278.916	45.8795
282.291	84.9971
285.666	245.602
289.041	276.431
292.415	63.0415
295.79	19.3209
299.165	8.66056
302.54	3.39262
305.915	1.02855
309.289	0.969767
312.664	4.02041
316.039	9.3916
319.414	12.0169
322.789	18.3534
326.164	31.082
329.538	71.2472
332.913	178.034
336.288	106.01
339.663	26.7327
343.038	9.31259
346.413	3.18925
349.787	1.79209
353.162	1.40084
356.537	3.21881
359.912	9.10917
363.287	2.36078
366.661	1.47395
370.036	0.922838
373.411	0.569921
376.786	0.023933
380.161	1.81849
383.536	3.82422
386.91	7.09137
390.285	10.675
393.66	17.198
397.035	29.5851
400.41	53.4361
403.784	91.8241
407.159	67.6886
410.534	24.2045
413.909	8.2798
417.284	3.9842
420.659	1.47225
424.033	1.00802
427.408	0.491966
430.783	0.353903
434.158	0.518798
437.533	2.58436
440.907	7.945
444.282	12.9154
447.657	20.7372
451.032	36.7038
454.407	76.5826
457.781	139.188
461.156	115.404
464.531	51.9499
467.906	23.5331
471.281	13.2508
474.656	8.42629
478.031	5.48556
481.405	4.04376
484.78	3.22132
488.155	3.42278
491.53	3.38732
494.904	2.03774
498.279	0.888839
501.654	0.093971
505.029	0.199188
508.404	0.455302
511.779	0.45431
515.153	1.42629
518.528	4.92687
521.903	6.9381
525.278	2.19851
528.653	1.27836
532.028	0.423783
535.402	0.920315
538.777	1.05971
542.152	2.28688
545.527	5.34361
548.902	9.62666
552.277	8.99454
555.651	7.38187
559.026	8.29544
562.401	6.55355
565.776	3.15837
569.151	1.52486
572.525	0.300975
575.9	0.656049
579.275	0.090878
582.65	0.350463
586.025	0.118021
589.399	0.091869
592.774	0.148376
596.149	0.637884
599.524	0.690267
602.899	1.00672
606.274	0.326456
609.648	1.40835
613.023	1.0319
616.398	1.65168
619.773	1.08554
623.148	1.70073
626.523	2.2846
629.897	3.74276
633.272	4.09085
636.647	5.1505
640.022	7.35348
643.397	9.2805
646.771	7.74716
650.146	3.49407
653.521	1.85371
656.896	1.44271
660.271	0.478536
663.645	0.483232
667.02	0.577012
670.395	0.11076
673.77	0.737872
677.145	0.570584
680.52	0.304194
683.894	0.607711
687.269	0.322257
690.644	0.742866
694.019	0.460419
697.394	0.351727
700.769	0.721872
704.143	0.299051
707.518	1.01507
710.893	0.585623
714.268	0.508069
717.643	0.368161
721.017	0.317463
724.392	0.099109
727.767	0.585812
731.142	1.21529
734.517	0.689029
737.891	0.874521
741.266	1.07019
744.641	0.935802
748.016	0.490064
751.391	1.12208
754.766	0.441443
758.14	0.990962
761.515	1.04624
764.89	0.734114
768.265	0.715988
771.64	0.696995
775.014	0.079016
778.389	0.711243
781.764	0.294652
785.139	0.211872
788.514	0.548838
791.889	0.073606
795.263	0.396706
798.638	0.071881
802.013	0.02414
805.388	0.374868
808.763	0.050899
812.138	0.427922
815.512	0.153858
818.887	0.464491
822.262	2.08063
825.637	3.03274
829.012	5.85448
832.386	10.1342
835.761	17.1949
839.136	28.8427
842.511	47.7227
845.886	71.9763
849.261	88.1075
852.635	86.838
856.01	83.1964
859.385	65.7414
862.76	41.3729
866.135	25.9934
869.51	16.6837
872.884	11.7426
876.259	7.65064
879.634	4.87913
883.009	4.32383
886.384	3.23356
889.758	3.72893
893.133	5.37025
896.508	8.72521
899.883	13.777
903.258	20.1404
906.632	29.0551
910.007	40.0519
913.382	55.7385
916.757	78.5142
920.132	106.602
923.506	127.518
926.881	122.659
930.256	93.8521
933.631	66.1911
937.006	47.2373
940.381	30.5949
943.755	19.1228
947.13	12.4047
950.505	8.10645
953.88	5.36775
957.255	3.50923
960.63	1.43468
964.004	0.599783
967.379	0.554417
970.754	0.604256
974.129	0.756107
977.504	0.671935
980.879	0.428344
984.253	0.509063
987.628	0.551124
991.003	0.52989
994.378	1.56479
997.753	2.86743
1001.13	4.93843
1004.5	7.66609
1007.88	10.5039
1011.25	9.34531
1014.63	6.79973
1018	4.49961
1021.38	2.58668
1024.75	2.06628
1028.13	1.67129
1031.5	1.43452
1034.88	0.728027
1038.25	1.0102
1041.62	0.238831
1045	0.79077
1048.38	0.566162
1051.75	0.026877
1055.12	0.269388
1058.5	0.305449
1061.87	0.614974
1065.25	0.701604
1068.62	0.322669
1072	0.310217
1075.37	1.01996
1078.75	0.455212
1082.12	0.474452
1085.5	0.084177
1088.87	0.649089
1092.25	0.813118
1095.62	0.465305
1099	0.481217
1102.37	0.41601
1105.75	0.402551
1109.12	0.094052
1112.5	0.036304
1115.87	0.359576
1119.25	0.661168
1122.62	0.085259
1126	0.623528
1129.37	0.027704
1132.74	0.229903
1136.12	0.110646
1139.49	0.485155
1142.87	0.487856
1146.24	0.303936
1149.62	0.391557
1152.99	0.690144
1156.37	0.599261
1159.74	1.68358
1163.12	1.43653
1166.49	1.25605
1169.87	1.03879
1173.24	0.700562
1176.62	0.463882
1179.99	0.528562
1183.37	0.705559
1186.74	0.196532
1190.12	0.696718
1193.49	0.353209
1196.87	0.483417
1200.24	0.045276
1203.62	0.1568
1206.99	0.075114
1210.37	0.300949
1213.74	0.216897
1217.12	0.614629
1220.49	0.789386
1223.87	0.459584
1227.24	0.267284
1230.62	0.663198
1233.99	0.552799
1237.37	0.295305
1240.74	0.005568
1244.11	0.224279
1247.49	0.570628
1250.86	0.205876
1254.24	0.791966
1257.61	0.412451
1260.99	0.480216
1264.36	0.697133
1267.74	0.606107
1271.11	0.297643
1274.49	0.295779
1277.86	0.387707
1281.24	0.457906
1284.61	0.280129
