Measurement: Raman, 532 nm, unoriented, Raman Data Processed
Mineral: Topaz
Rruff sample: R050405
Ideal chemistry: Al_2_SiO_4_F_2_
Locality: Amelia, Virginia, USA
Source: Gerry Gibbs
Description: Colorless cleavage fragment
Measured chemistry: Al_2.00_Si_1.00_O_4_(F_0.75_(OH)_0.25_)_2_
Raman shift (cm-1)	intensity
120.417	0
123.792	1.65867
127.167	0.562454
130.541	1.78472
133.916	0.459688
137.291	4.46364
140.666	7.20572
144.041	7.80059
147.416	9.2247
150.79	13.8382
154.165	33.5746
157.54	27.6195
160.915	3.65782
164.29	4.37982
167.664	5.25642
171.039	4.93915
174.414	3.54403
177.789	2.27244
181.164	2.24489
184.538	1.63155
187.913	1.66353
191.288	0.240322
194.663	0.331673
198.038	0.314623
201.412	0.584013
204.787	1.14988
208.162	1.20106
211.537	0.738031
214.912	0.111902
218.287	3.26911
221.661	15.9192
225.036	33.1844
228.411	47.5697
231.786	78.5659
235.161	157.011
238.536	315.376
241.91	378.957
245.285	60.7998
248.66	26.5912
252.035	55.6487
255.41	68.2981
258.784	101.593
262.159	160.926
265.534	379.533
268.909	936.261
272.284	214.933
275.659	130.492
279.033	129.864
282.408	226.773
285.783	522.09
289.158	370.766
292.533	73.2908
295.907	24.088
299.282	10.9355
302.657	4.87307
306.032	0.822056
309.407	1.34724
312.781	2.83181
316.156	16.4756
319.531	28.516
322.906	46.1794
326.281	78.02
329.656	166.883
333.03	319.209
336.405	123.667
339.78	27.3268
343.155	10.2803
346.53	5.20667
349.904	5.06702
353.279	9.75764
356.654	23.4557
360.029	46.3596
363.404	7.60921
366.779	1.55861
370.153	2.1732
373.528	0.701019
376.903	2.27407
380.278	5.38904
383.653	7.95643
387.027	14.2862
390.402	24.1943
393.777	38.2408
397.152	64.6295
400.527	116.913
403.901	175.104
407.276	99.9917
410.651	29.5063
414.026	10.2611
417.401	4.88109
420.776	2.14004
424.15	0.298285
427.525	1.18863
430.9	0.927822
434.275	0.350897
437.65	3.18175
441.024	14.1589
444.399	29.8707
447.774	48.4341
451.149	87.9069
454.524	171.488
457.899	260.044
461.273	151.617
464.648	56.2438
468.023	24.6101
471.398	14.3839
474.773	9.23695
478.147	6.97768
481.522	5.57813
484.897	5.55187
488.272	5.85168
491.647	8.3869
495.022	6.49074
498.396	3.67851
501.771	0.8568
505.146	2.76133
508.521	6.93051
511.896	13.8764
515.27	28.7517
518.645	57.4059
522.02	63.378
525.395	19.5179
528.77	5.2059
532.145	1.58764
535.519	2.34626
538.894	4.62507
542.269	8.94054
545.644	19.2341
549.019	32.152
552.394	21.7614
555.768	19.7491
559.143	27.2516
562.518	25.0998
565.893	12.2574
569.268	4.3526
572.642	2.09749
576.017	0.697689
579.392	0.149511
582.767	0.078478
586.142	0.178724
589.516	0.422089
592.891	0.198589
596.266	0.023197
599.641	0.173731
603.016	0.792126
606.39	0.40506
609.765	1.71919
613.14	2.00266
616.515	2.51309
619.89	1.8676
623.265	2.37496
626.639	4.51213
630.014	6.04964
633.389	7.72475
636.764	9.61338
640.139	13.3086
643.514	16.6968
646.888	13.4308
650.263	5.68413
653.638	2.78159
657.013	1.57341
660.388	0.827433
663.762	0.643522
667.137	0.607517
670.512	0.809027
673.887	0.277121
677.262	0.878866
680.636	1.17467
684.011	0.625572
687.386	1.4467
690.761	1.9286
694.136	0.848909
697.511	1.16221
700.885	1.00828
704.26	1.52731
707.635	1.54356
711.01	1.10131
714.385	0.990574
717.76	0.350769
721.134	0.987457
724.509	1.1855
727.884	1.31634
731.259	1.86626
734.634	1.79166
738.008	1.4836
741.383	1.71093
744.758	2.15596
748.133	2.41158
751.508	2.0164
754.882	2.78257
758.257	2.22294
761.632	2.88924
765.007	2.4745
768.382	2.68255
771.756	2.43337
775.131	1.47072
778.506	1.00286
781.881	0.687159
785.256	0.149561
788.631	0.288422
792.005	0.107964
795.38	0.362183
798.755	1.25965
802.13	0.366669
805.505	0.573212
808.88	0.647945
812.254	0.500069
815.629	0.153927
819.004	0.68359
822.379	1.34972
825.754	4.55662
829.128	9.14993
832.503	16.3614
835.878	30.1442
839.253	53.0388
842.628	92.1592
846.003	140.29
849.377	178.761
852.752	195.256
856.127	193.396
859.502	145.548
862.877	85.5449
866.251	49.7688
869.626	31.2156
873.001	20.2203
876.376	14.2022
879.751	9.73597
883.125	7.1855
886.5	7.38358
889.875	10.8386
893.25	16.9773
896.625	24.601
900	38.0262
903.374	56.1079
906.749	78.6782
910.124	111.438
913.499	155.113
916.874	223.503
920.249	302.986
923.623	370.369
926.998	363.565
930.373	294.911
933.748	217.57
937.123	161.748
940.497	104.63
943.872	63.7651
947.247	39.2245
950.622	26.4013
953.997	16.5273
957.371	10.6559
960.746	5.83842
964.121	2.45346
967.496	1.37832
970.871	0.409058
974.245	0.842392
977.62	1.67476
980.995	0.862011
984.37	1.24932
987.745	0.483624
991.12	0.375351
994.494	2.98027
997.869	6.70308
1001.24	12.941
1004.62	19.417
1007.99	27.1531
1011.37	26.4166
1014.74	16.5143
1018.12	9.9209
1021.49	6.12364
1024.87	4.16598
1028.24	2.77485
1031.62	2.27532
1034.99	1.25113
1038.37	1.69553
1041.74	0.579729
1045.12	0.459072
1048.49	0.519169
1051.87	0.387419
1055.24	0.597183
1058.62	0.876308
1061.99	0.947933
1065.37	0.679358
1068.74	1.42672
1072.12	1.01508
1075.49	0.476385
1078.87	0.505947
1082.24	0.606768
1085.62	0.268812
1088.99	1.18717
1092.36	0.984503
1095.74	1.06932
1099.11	0.976742
1102.49	0.326214
1105.86	0.248968
1109.24	0.647045
1112.61	0.825445
1115.99	0.479349
1119.36	1.14973
1122.74	0.634367
1126.11	0.596094
1129.49	1.34423
1132.86	0.415524
1136.24	1.1004
1139.61	0.864216
1142.99	0.886368
1146.36	1.04272
1149.74	2.30671
1153.11	2.3163
1156.49	3.39117
1159.86	6.65909
1163.23	8.51282
1166.61	7.48344
1169.98	4.37265
1173.36	2.13613
1176.73	1.36702
1180.11	0.637537
1183.48	0.291512
1186.86	0.650404
1190.23	0.407358
1193.61	0.107483
1196.98	0.129063
1200.36	0.840378
1203.73	0.396595
1207.11	0.415527
1210.48	0.441345
1213.86	0.689688
1217.23	0.001207
1220.61	0.287447
1223.98	0.037996
1227.36	0.504032
1230.73	0.582432
1234.11	0.565506
1237.48	0.377434
1240.86	0.646875
1244.23	1.17891
1247.61	0.090456
1250.98	1.08661
1254.36	0.060522
1257.73	0.682997
1261.11	1.82274
1264.48	0.533525
1267.86	1.12142
1271.23	0.567091
1274.6	1.24349
1277.98	0.702412
1281.35	0.585674
1284.73	0.853205
1288.1	0.127201
1291.48	0.600437
1294.85	0.451618
1298.23	0.003498
1301.6	0.43301
