Measurement: Raman, 780 nm, unoriented, Raman Data Processed
Mineral: Topaz
Rruff sample: R050405
Ideal chemistry: Al_2_SiO_4_F_2_
Locality: Amelia, Virginia, USA
Source: Gerry Gibbs
Description: Colorless cleavage fragment
Measured chemistry: Al_2.00_Si_1.00_O_4_(F_0.75_(OH)_0.25_)_2_
Raman shift (cm-1)	intensity
101.497	0
104.872	0.002998
108.247	2.29697
111.621	3.2708
114.996	0.42448
118.371	0.469425
121.746	0.720659
125.121	1.0767
128.496	2.03779
131.87	1.63303
135.245	2.14684
138.62	1.79523
141.995	1.63314
145.37	0.867142
148.744	0.868731
152.119	3.43775
155.494	17.821
158.869	4.25882
162.244	0.521818
165.619	1.22487
168.994	1.14806
172.368	0.826294
175.743	0.360537
179.118	0.660406
182.493	0.621487
185.868	0.601665
189.242	0.254625
192.617	0.240561
195.992	0.694246
199.367	0.208769
202.742	0.011187
206.117	0.451731
209.491	0.049698
212.866	0.917028
216.241	1.34522
219.616	4.90296
222.991	8.96188
226.365	10.4808
229.74	15.7309
233.115	30.5754
236.49	96.2427
239.865	148.144
243.239	99.0066
246.614	18.5661
249.989	16.398
253.364	17.4878
256.739	20.0855
260.114	29.3876
263.488	52.6409
266.863	183.629
270.238	324.476
273.613	52.7287
276.988	51.7723
280.363	40.0366
283.737	90.9228
287.112	230.419
290.487	90.4157
293.862	18.6915
297.237	6.84687
300.611	2.70025
303.986	0.618557
307.361	0.266438
310.736	0.491573
314.111	2.03472
317.486	5.62146
320.86	7.3205
324.235	13.2346
327.61	24.7896
330.985	73.774
334.36	121
337.734	29.5319
341.109	7.57815
344.484	3.5228
347.859	1.63756
351.234	1.29481
354.608	5.47185
357.983	18.4307
361.358	26.6704
364.733	2.5504
368.108	0.632599
371.483	0.234602
374.857	0.022671
378.232	1.89717
381.607	3.58034
384.982	4.27782
388.357	5.6464
391.731	7.04151
395.106	12.2843
398.481	24.5051
401.856	50.9898
405.231	70.6789
408.606	28.3519
411.98	8.61651
415.355	2.40931
418.73	1.19585
422.105	0.152313
425.48	0.473799
428.854	0.144062
432.229	0.20175
435.604	0.631517
438.979	2.55015
442.354	6.45982
445.729	9.86186
449.103	16.2755
452.478	32.3104
455.853	77.5344
459.228	103.064
462.603	45.7109
465.978	17.6608
469.352	8.70284
472.727	4.86082
476.102	3.3909
479.477	2.02846
482.852	1.89107
486.226	2.18707
489.601	3.20426
492.976	3.96267
496.351	3.84339
499.726	1.36384
503.101	0.680019
506.475	1.1359
509.85	3.09139
513.225	4.13044
516.6	8.25525
519.975	18.9886
523.349	12.6474
526.724	3.22134
530.099	0.958649
533.474	0.598902
536.849	1.48217
540.223	2.1964
543.598	5.15848
546.973	14.1137
550.348	19.5258
553.723	9.05667
557.098	7.24421
560.472	10.5131
563.847	6.65763
567.222	3.27336
570.597	0.833829
573.972	0.454048
577.346	0.244023
580.721	0.196301
584.096	0.158927
587.471	0.064077
590.846	0.174376
594.221	0.095805
597.596	0.266734
600.97	0.955218
604.345	0.28029
607.72	0.66659
611.095	0.295203
614.47	0.554209
617.844	1.01862
621.219	1.12172
624.594	1.74004
627.969	2.86741
631.344	2.6732
634.718	3.32407
638.093	4.38276
641.468	6.78923
644.843	7.7462
648.218	4.34204
651.592	1.85111
654.967	1.0754
658.342	0.037293
661.717	0.703552
665.092	0.792008
668.467	1.2023
671.841	0.014096
675.216	0.207357
678.591	0.816397
681.966	0.297777
685.341	0.636258
688.716	0.443992
692.09	0.88072
695.465	0.440557
698.84	0.705653
702.215	0.859047
705.59	0.833108
708.965	1.02431
712.339	0.462235
715.714	0.295943
719.089	0.482931
722.464	0.7829
725.839	0.285678
729.213	0.343012
732.588	0.937498
735.963	1.29191
739.338	1.2108
742.713	0.624384
746.087	0.532053
749.462	1.0619
752.837	0.75869
756.212	1.09597
759.587	1.15496
762.962	1.56088
766.336	0.931922
769.711	0.458081
773.086	0.717528
776.461	0.671759
779.836	0.271155
783.21	0.156112
786.585	0.267011
789.96	0.442702
793.335	0.187119
796.71	0.139559
800.085	0.508074
803.459	0.505991
806.834	0.688774
810.209	0.817514
813.584	0.243515
816.959	0.33222
820.333	0.066832
823.708	0.806717
827.083	2.5592
830.458	4.59077
833.833	8.06258
837.208	12.5082
840.582	22.1696
843.957	37.1998
847.332	56.0889
850.707	68.2148
854.082	73.9222
857.457	70.9465
860.831	48.2025
864.206	27.9364
867.581	16.5539
870.956	10.4258
874.331	7.10966
877.705	5.13377
881.08	3.51605
884.455	2.82167
887.83	3.19699
891.205	4.65829
894.58	7.75663
897.954	11.2844
901.329	16.7174
904.704	24.098
908.079	33.003
911.454	44.3647
914.828	59.7961
918.203	80.9292
921.578	111.14
924.953	127.722
928.328	120.695
931.702	92.5864
935.077	66.8359
938.452	45.4203
941.827	28.0349
945.202	17.7104
948.577	12.1213
951.951	6.99264
955.326	3.93841
958.701	2.329
962.076	1.69542
965.451	0.113449
968.826	0.305101
972.2	0.016598
975.575	0.363819
978.95	0.749817
982.325	0.705227
985.7	0.003755
989.074	0.130252
992.449	1.33668
995.824	2.69862
999.199	5.22358
1002.57	7.73785
1005.95	12.0726
1009.32	15.3979
1012.7	13.742
1016.07	7.45564
1019.45	4.66986
1022.82	3.41731
1026.2	2.67875
1029.57	1.73604
1032.95	1.42644
1036.32	0.976901
1039.7	1.48434
1043.07	0.550243
1046.45	0.015148
1049.82	0.669562
1053.2	0.043483
1056.57	0.889225
1059.95	0.447289
1063.32	0.759691
1066.69	0.642015
1070.07	0.497703
1073.44	1.09155
1076.82	0.408408
1080.19	0.33836
1083.57	0.205207
1086.94	0.835155
1090.32	0.032258
1093.69	0.245568
1097.07	0.682647
1100.44	0.649408
1103.82	0.680982
1107.19	0.38999
1110.57	0.985207
1113.94	0.811459
1117.32	0.323578
1120.69	0.346726
1124.07	0.490527
1127.44	0.323895
1130.82	0.807749
1134.19	0.494738
1137.57	0.457517
1140.94	0.2563
1144.32	0.080595
1147.69	0.16662
1151.07	0.683748
1154.44	1.14355
1157.82	1.084
1161.19	1.98039
1164.57	2.37876
1167.94	1.68606
1171.32	0.611306
1174.69	1.14814
1178.06	0.295547
1181.44	0.453014
1184.81	0.012763
1188.19	0.640674
1191.56	1.07468
1194.94	0.082358
1198.31	0.408147
1201.69	0.690161
1205.06	0.182968
1208.44	0.694463
1211.81	0.261094
1215.19	0.177081
1218.56	0.407147
1221.94	0.327381
1225.31	0.392594
1228.69	0.093947
1232.06	1.02487
1235.44	0.51796
1238.81	0.790146
1242.19	0.825356
1245.56	0.338703
1248.93	0.620279
1252.31	0.888105
1255.68	0.082097
1259.06	0.502486
1262.43	0.687079
1265.81	0.802878
1269.18	0.539498
1272.56	0.210257
1275.93	0.917686
1279.31	0.096931
1282.68	0.305584
1286.06	0.165773
