Measurement: Raman, 514 nm, unoriented, Raman Data Processed
Mineral: Topaz
Rruff sample: R040121
Ideal chemistry: Al_2_SiO_4_F_2_
Locality: Tepetate, San Luis Potosi, Mexico
Source: University of Arizona Mineral Museum
Description: Fragments of a prismatic single crystal
Measured chemistry: Al_2.00_(Si_0.99_Al_0.02_)(F_0.82_(OH)_0.18_)_2_
Raman shift (cm-1)	intensity
87.798	0
91.981	50.057
96.161	35.5
100.34	15.625
104.516	68.427
108.691	109.502
112.864	97.438
117.034	212.256
121.203	47.844
125.369	1.46
129.534	3.244
133.696	47.784
137.857	63.343
142.016	149.233
146.172	979.367
150.327	3220.68
154.48	3036.89
158.63	799.598
162.779	180.052
166.926	84.95
171.07	47.678
175.213	38.718
179.354	4.139
183.493	24.664
187.63	33.629
191.765	83.537
195.898	155.359
200.029	205.118
204.158	343.823
208.285	463.471
212.41	121.063
216.533	163.5
220.654	257.339
224.773	623.089
228.891	1988.25
233.006	17814
237.119	35615.3
241.231	35527.7
245.34	5006.02
249.448	1816.34
253.553	1634.66
257.657	3654.45
261.758	24985.5
265.858	37844.3
269.956	22242.2
274.052	4651.49
278.146	11198.5
282.237	34457.3
286.327	42900.8
290.416	8459.02
294.502	1966.26
298.586	922.917
302.668	515.908
306.749	358.979
310.827	312.216
314.903	305.245
318.978	270.211
323.051	283.157
327.121	931.078
331.19	1475.97
335.257	672.823
339.322	152.764
343.385	110.501
347.446	17.736
351.505	29.94
355.563	10.463
359.618	17.052
363.672	24.52
367.723	42.95
371.773	125.345
375.821	50.703
379.866	8.966
383.91	25.755
387.952	32.24
391.992	153.172
396.031	1431.08
400.067	5407.9
404.101	6469.6
408.134	1328.31
412.165	463.021
416.193	278.763
420.22	145.517
424.245	80.286
428.268	22.037
432.289	18.754
436.309	34.607
440.326	16.901
444.342	26.335
448.355	272.775
452.367	1686.21
456.377	2486.63
460.385	583.01
464.391	153.352
468.395	73.659
472.398	85.927
476.398	82.147
480.397	182.323
484.394	456.458
488.389	1586.55
492.382	1952.6
496.373	442.598
500.362	164.569
504.349	88.54
508.335	110.699
512.319	127.62
516.3	570.729
520.28	872.6
524.259	389.145
528.235	165.75
532.209	121.406
536.182	160.118
540.152	203.971
544.121	408.826
548.088	631.593
552.053	1459.93
556.017	4090.33
559.978	8377.98
563.938	6478.88
567.895	2144.69
571.851	894.835
575.805	481.766
579.758	307.105
583.708	199.982
587.657	139.427
591.603	165.657
595.548	99.753
599.491	122.924
603.432	84.577
607.372	199.758
611.309	368.908
615.245	240.949
619.179	94.595
623.111	86.313
627.041	117.799
630.97	106.067
634.896	326.429
638.821	931.896
642.744	1805.53
646.665	1504.79
650.584	532.989
654.502	296.138
658.418	218.329
662.331	59.282
666.244	49.285
670.154	37.303
674.062	28.302
677.969	55.293
681.874	83.208
685.777	109.138
689.678	43.99
693.577	40.795
697.475	53.527
701.371	3.733
705.265	60.998
709.157	141.692
713.047	9.656
716.936	7.924
720.823	0.16
724.708	5.859
728.591	14.162
732.472	64.324
736.352	11.374
740.23	17.299
744.106	0.616
747.98	9.063
751.853	1.356
755.723	9.315
759.592	34.089
763.459	24.638
767.325	3.584
771.188	29.019
775.05	0.698
778.91	14.442
782.768	1.769
786.625	31.753
790.479	32.133
794.332	65.291
798.183	59.429
802.033	13.554
805.88	66.67
809.726	67.785
813.57	44.899
817.413	57.008
821.253	106.114
825.092	128.023
828.929	78.046
832.764	184.148
836.598	173.252
840.429	204.364
844.259	301.492
848.088	480.548
851.914	811.612
855.739	1001.9
859.562	833.057
863.383	634.344
867.203	448.502
871.02	427.507
874.836	497.933
878.65	460.084
882.463	475.682
886.274	553.481
890.083	566.688
893.89	707.394
897.695	776.704
901.499	941.807
905.301	1249.13
909.102	1692.72
912.9	2363.95
916.697	3657.9
920.492	5426.66
924.285	7857.49
928.077	10230.3
931.867	13785.5
935.655	26506.3
939.442	30296.4
943.226	14232.6
947.009	6691.76
950.791	3793.04
954.57	2463.39
958.348	1818.83
962.124	1366.2
965.899	1210.78
969.671	1043.43
973.442	1029.14
977.211	1243.9
980.979	1781.73
984.745	2661.66
988.509	2144.93
992.271	1147.92
996.032	665.246
999.791	531.506
1003.55	427.039
1007.3	580.351
1011.06	562.22
1014.81	379.872
1018.56	228.339
1022.31	245.745
1026.06	249.379
1029.8	199.981
1033.55	193.63
1037.29	184.782
1041.03	90.721
1044.77	155.567
1048.5	122.675
1052.24	138.372
1055.97	150.954
1059.7	102.393
1063.43	163.061
1067.16	146.229
1070.89	76.608
1074.61	49.833
1078.34	65.695
1082.06	60.066
1085.78	76.631
1089.5	81.716
1093.21	36.801
1096.93	10.396
1100.64	7.865
1104.35	13.068
1108.06	26.757
1111.77	43.712
1115.48	6.067
1119.18	69.499
1122.89	450.215
1126.59	130.56
1130.29	6.396
1133.99	75.633
1137.68	107.307
1141.38	8.607
1145.07	2.734
1148.76	20.458
1152.45	57.234
1156.14	30.157
1159.83	2.728
1163.51	21.54
1167.19	38.749
1170.88	44.407
1174.56	11.696
1178.23	20.434
1181.91	7.837
1185.59	33.797
1189.26	59.544
1192.93	35.682
1196.6	2.423
1200.27	1.97
1203.94	12.417
1207.6	37.595
1211.27	104.648
1214.93	78.61
1218.59	6.365
1222.25	22.357
1225.9	72.951
1229.56	84.449
1233.21	108.852
1236.86	59.173
1240.51	18.32
1244.16	8.181
1247.81	80.915
1251.45	17.661
1255.1	38.392
1258.74	69.82
1262.38	34.872
1266.02	96.314
1269.66	76.317
1273.29	66.211
1276.93	70.979
1280.56	54.591
1284.19	48.75
1287.82	60.304
1291.45	26.032
1295.07	83.841
1298.7	95.581
1302.32	63.53
1305.94	155.273
1309.56	87.792
1313.18	43.278
1316.8	122.711
1320.41	7.754
1324.02	10.073
1327.63	91.945
1331.24	56.614
1334.85	54.43
1338.46	44.171
1342.06	146.398
1345.67	67.238
1349.27	160.563
1352.87	131.811
1356.47	100.824
1360.07	62.616
1363.66	111.992
1367.25	180.645
1370.85	139.707
1374.44	74.801
1378.03	114.38
1381.61	94.073
1385.2	139.115
1388.78	139.642
1392.37	132.247
1395.95	134.999
1399.53	93.077
1403.1	71.884
1406.68	110.247
1410.26	140.901
1413.83	142.222
1417.4	131.924
1420.97	154.412
1424.54	143.247
1428.1	163.966
1431.67	85.94
1435.23	91.335
1438.8	146.929
1442.36	205.547
1445.91	114.965
1449.47	109.483
1453.03	142.801
1456.58	115.145
1460.13	169.647
1463.68	111.206
1467.23	120.775
1470.78	117.515
1474.33	176.287
1477.87	37.357
1481.42	86.717
1484.96	127.197
1488.5	27.851
1492.04	75.758
1495.57	95.973
1499.11	105.578
1502.64	51.651
1506.17	114.791
1509.71	15.03
1513.23	132.172
1516.76	46.026
1520.29	0.14
