Measurement: Raman, 780 nm, unoriented, Raman Data Processed
Mineral: Topaz
Rruff sample: R060024
Ideal chemistry: Al_2_SiO_4_F_2_
Locality: Antonio Peireira Topaz mine, Minas Gerais, Brazil, GPS coordinates: 20 18 18 S, 43 28 37 W, 2697 ASL
Source: Eric Van Valkenburg
Description: Smoky brown single crystal
Measured chemistry: Al_2.00_Si_1.00_O_4_(F_0.68_(OH)_0.32_)_2_
Raman shift (cm-1)	intensity
116.629	0
120.004	1.06758
123.379	2.40008
126.754	0.750633
130.129	2.19261
133.504	1.92225
136.878	1.66077
140.253	2.54592
143.628	0.451347
147.003	2.57116
150.378	3.06169
153.752	6.74552
157.127	19.4913
160.502	9.73178
163.877	4.7593
167.252	4.46268
170.627	4.85613
174.001	3.53476
177.376	3.06345
180.751	2.3557
184.126	2.87351
187.501	2.5712
190.875	1.89269
194.25	1.68234
197.625	1.53001
201	0.610374
204.375	0.030991
207.75	0.775925
211.124	0.333786
214.499	0.980301
217.874	0.62635
221.249	0.706528
224.624	0.235161
227.998	1.74183
231.373	7.08028
234.748	21.402
238.123	62.7646
241.498	104.291
244.873	47.0528
248.247	13.9436
251.622	6.29949
254.997	3.78159
258.372	6.04878
261.747	13.3902
265.121	45.8797
268.496	179.907
271.871	347.77
275.246	79.1102
278.621	39.6763
281.995	67.6687
285.37	158.904
288.745	258.752
292.12	156.233
295.495	64.0344
298.87	30.5057
302.244	17.8978
305.619	10.1843
308.994	8.1012
312.369	7.43317
315.744	9.27786
319.118	14.2271
322.493	20.1109
325.868	32.8028
329.243	55.8297
332.618	97.4117
335.993	111.759
339.367	62.8331
342.742	26.7557
346.117	11.9421
349.492	4.2475
352.867	2.11638
356.241	1.65831
359.616	6.19618
362.991	8.76841
366.366	1.70215
369.741	0.09597
373.115	0.267326
376.49	0.330864
379.865	1.56499
383.24	1.42074
386.615	3.0288
389.99	5.78661
393.364	9.7697
396.739	16.117
400.114	23.7909
403.489	28.0606
406.864	26.2177
410.238	15.3224
413.613	6.04135
416.988	1.13613
420.363	1.73133
423.738	1.86091
427.113	1.05377
430.487	0.075348
433.862	1.76588
437.237	2.91475
440.612	4.87299
443.987	8.8302
447.361	12.6245
450.736	20.1581
454.111	34.9952
457.486	52.0641
460.861	65.5589
464.236	67.482
467.61	52.7896
470.985	37.7037
474.36	27.2741
477.735	21.1183
481.11	17.544
484.484	15.9014
487.859	13.3998
491.234	10.2041
494.609	7.51585
497.984	5.83998
501.358	4.11239
504.733	3.66379
508.108	5.29182
511.483	7.01799
514.858	10.7556
518.232	15.0925
521.607	11.8632
524.982	7.69966
528.357	4.43313
531.732	2.95093
535.107	2.84373
538.481	2.87433
541.856	3.78621
545.231	7.20244
548.606	10.465
551.981	13.1191
555.356	10.7605
558.73	5.40436
562.105	2.64858
565.48	0.463295
568.855	0.102913
572.23	0.550148
575.604	0.73912
578.979	0.112106
582.354	0.593155
585.729	0.148857
589.104	0.142242
592.479	0.56208
595.853	1.40522
599.228	1.90065
602.603	1.40372
605.978	2.28587
609.352	2.31836
612.727	2.33137
616.102	2.73023
619.477	3.5351
622.852	3.38461
626.227	4.94895
629.601	7.50711
632.976	7.15527
636.351	9.75922
639.726	11.4233
643.101	9.6342
646.476	7.43954
649.85	4.43573
653.225	2.69089
656.6	2.71286
659.975	1.98826
663.35	1.8063
666.724	2.08519
670.099	2.10337
673.474	2.37068
676.849	2.43385
680.224	2.58603
683.598	3.1858
686.973	2.89265
690.348	2.87386
693.723	3.35333
697.098	3.60549
700.473	3.74825
703.847	2.8352
707.222	2.85721
710.597	2.82776
713.972	2.80544
717.347	2.92665
720.721	1.71167
724.096	1.80871
727.471	1.79903
730.846	1.14296
734.221	0.67308
737.596	0.042572
740.97	0.303169
744.345	0.63839
747.72	0.412933
751.095	0.112007
754.47	0.186989
757.844	0.085129
761.219	0.271461
764.594	0.18782
767.969	0.642494
771.344	0.154678
774.718	0.653481
778.093	0.221054
781.468	0.894287
784.843	1.31039
788.218	1.21838
791.593	2.12773
794.967	1.99165
798.342	3.56757
801.717	4.63286
805.092	4.72969
808.467	6.08647
811.841	7.27499
815.216	7.1931
818.591	6.89676
821.966	9.23724
825.341	13.574
828.716	19.9847
832.09	34.2353
835.465	57.8716
838.84	81.3966
842.215	88.7262
845.59	74.1687
848.965	58.9212
852.339	44.0071
855.714	34.0269
859.089	25.1042
862.464	18.4649
865.839	12.404
869.213	7.51819
872.588	3.64648
875.963	1.11591
879.338	0.042725
882.713	1.25157
886.087	2.12051
889.462	6.30541
892.837	13.1668
896.212	21.2573
899.587	33.2885
902.962	48.8559
906.336	72.0175
909.711	98.595
913.086	124.453
916.461	129.599
919.836	114.805
923.21	92.0595
926.585	74.6914
929.96	60.5347
933.335	45.1683
936.71	28.8207
940.085	18.2307
943.459	10.7646
946.834	7.31244
950.209	4.05942
953.584	1.76097
956.959	1.1225
960.333	1.27162
963.708	0.62471
967.083	0.061264
970.458	1.52431
973.833	2.75215
977.207	5.61559
980.582	8.27536
983.957	10.0247
987.332	16.8575
990.707	21.1814
994.082	26.9885
997.456	32.9415
1000.83	34.647
1004.21	34.5891
1007.58	34.3244
1010.96	32.5115
1014.33	32.1226
1017.71	30.7574
1021.08	29.7465
1024.45	29.1485
1027.83	25.444
1031.2	25.383
1034.58	22.5031
1037.95	21.7237
1041.33	17.6659
1044.7	14.6617
1048.08	12.8526
1051.45	10.0284
1054.83	8.94792
1058.2	7.1699
1061.58	5.36731
1064.95	4.4418
1068.33	2.32493
1071.7	1.79617
1075.08	0.082184
1078.45	0.575867
1081.83	0.048706
1085.2	0.095581
1088.58	0.367386
1091.95	0.899178
1095.33	1.2432
1098.7	0.85701
1102.08	0.53759
1105.45	1.11387
1108.83	0.281181
1112.2	0.571785
1115.58	0.634636
1118.95	1.68143
1122.32	1.92297
1125.7	2.28941
1129.07	1.54117
1132.45	1.91482
1135.82	2.03194
1139.2	2.31469
1142.57	2.98356
1145.95	4.81634
1149.32	7.64648
1152.7	10.5456
1156.07	12.9539
1159.45	11.3597
1162.82	9.3993
1166.2	6.91705
1169.57	4.16597
1172.95	3.35375
1176.32	2.84859
1179.7	3.00613
1183.07	2.71097
1186.45	2.15689
1189.82	2.32175
1193.2	1.96924
1196.57	1.96507
1199.94	2.35957
1203.32	2.81064
1206.69	2.58872
1210.07	1.69531
1213.44	1.25638
1216.82	1.07815
1220.19	1.51889
1223.57	1.41734
1226.94	0.665894
1230.32	1.21723
1233.69	0.66851
1237.07	1.00725
1240.44	0.526642
1243.82	0.735985
1247.19	0.080666
1250.57	1.30019
1253.94	0.68177
1257.32	0.736427
1260.69	1.01559
1264.07	1.20447
1267.44	0.576736
1270.82	0.932426
1274.19	1.73206
1277.57	1.91901
1280.94	0.652138
1284.32	0.114044
