Measurement: Raman, 532 nm, unoriented, Raman Data Processed
Mineral: Topaz
Rruff sample: R040121
Ideal chemistry: Al_2_SiO_4_F_2_
Locality: Tepetate, San Luis Potosi, Mexico
Source: University of Arizona Mineral Museum
Description: Fragments of a prismatic single crystal
Measured chemistry: Al_2.00_(Si_0.99_Al_0.02_)(F_0.82_(OH)_0.18_)_2_
Raman shift (cm-1)	intensity
127.484	0
130.859	0.307808
134.234	12.2705
137.609	26.585
140.984	36.884
144.358	53.6422
147.733	100.082
151.108	286.301
154.483	1036.98
157.858	122.007
161.233	98.2874
164.607	288.793
167.982	60.5382
171.357	33.1747
174.732	25.1496
178.107	17.1431
181.482	11.1171
184.856	12.4177
188.231	16.3782
191.606	0.851349
194.981	0.404099
198.356	8.52396
201.731	5.88042
205.105	11.6385
208.48	6.38332
211.855	8.60898
215.23	13.8974
218.605	18.12
221.979	87.7342
225.354	252.205
228.729	483.86
232.104	1098.2
235.479	2816.78
238.853	8840.66
242.228	2679.05
245.603	504.994
248.978	258.491
252.353	331.671
255.727	507.032
259.102	1030.87
262.477	2485.58
265.852	8080.17
269.227	5439.28
272.602	885.793
275.976	1036.11
279.351	1920.17
282.726	4274.18
286.101	11171.1
289.476	1803.31
292.851	394.238
296.225	133.197
299.6	46.1551
302.975	18.6326
306.35	6.2785
309.725	34.2421
313.099	94.4924
316.474	396.041
319.849	134.275
323.224	147.912
326.599	392.466
329.974	1061.69
333.348	1605.39
336.723	151.433
340.098	18.2273
343.473	0.059692
346.848	10.6354
350.223	18.1256
353.597	17.4476
356.972	126.409
360.347	67.6151
363.722	5.6306
367.097	24.7938
370.471	63.3408
373.846	48.6664
377.221	9.1239
380.596	23.4274
383.971	0.494904
387.346	16.8503
390.72	77.8596
394.095	212.367
397.47	509.589
400.845	1384.34
404.219	2011.87
407.594	353.453
410.969	136.928
414.344	71.0069
417.719	65.2614
421.094	43.2128
424.469	46.7761
427.843	13.294
431.218	6.78851
434.593	0.666199
437.968	5.29633
441.343	27.9982
444.717	80.8673
448.092	236.669
451.467	502.671
454.842	1528.36
458.217	1016.02
461.591	147.847
464.966	29.9216
468.341	8.15256
471.716	11.8865
475.091	4.74733
478.466	28.114
481.84	65.0329
485.215	75.7562
488.59	168.646
491.965	319.343
495.34	93.4695
498.714	21.3291
502.089	2.66487
505.464	9.08874
508.839	35.1007
512.214	66.1124
515.589	50.6654
518.963	103.047
522.338	72.9132
525.713	13.1329
529.088	7.85339
532.463	3.12521
535.837	9.50668
539.212	26.0122
542.587	66.6382
545.962	159.665
549.337	186.404
552.712	282.452
556.086	542.888
559.461	1027.87
562.836	1100.48
566.211	409.8
569.586	171.066
572.96	79.7615
576.335	39.0069
579.71	31.8664
583.085	5.5822
586.46	0.197556
589.835	5.52618
593.209	6.32159
596.584	2.41458
599.959	15.4111
603.334	11.0707
606.709	24.6515
610.083	23.2075
613.458	38.2078
616.833	3.48644
620.208	7.50957
623.583	16.3645
626.958	9.09099
630.332	21.745
633.707	49.7358
637.082	98.3291
640.457	187.213
643.832	314.022
647.207	191.898
650.581	66.7186
653.956	30.9526
657.331	13.9048
660.706	7.21204
664.081	4.34767
667.455	8.70212
670.83	6.68707
674.205	5.41174
677.58	9.50534
680.955	15.7409
684.33	11.1942
687.704	8.73703
691.079	13.3498
694.454	13.1987
697.829	18.1598
701.204	27.3558
704.578	40.9243
707.953	40.4262
711.328	44.6195
714.703	36.8242
718.078	13.218
721.452	12.2861
724.827	7.93025
728.202	9.54938
731.577	10.6381
734.952	24.0062
738.327	10.1031
741.701	18.4728
745.076	20.7062
748.451	18.5287
751.826	5.76154
755.201	19.1444
758.576	15.2768
761.95	18.9075
765.325	31.7113
768.7	19.4724
772.075	23.8897
775.45	25.3943
778.824	13.3478
782.199	19.679
785.574	0.088104
788.949	21.5099
792.324	21.7317
795.698	16.6511
799.073	3.2897
802.448	12.0976
805.823	3.80508
809.198	1.79865
812.573	2.6662
815.947	2.80365
819.322	18.7444
822.697	14.2016
826.072	31.0265
829.447	27.8953
832.822	51.1982
836.196	76.9214
839.571	83.492
842.946	177.78
846.321	338.877
849.696	568.725
853.07	887.476
856.445	938.9
859.82	599.017
863.195	298.24
866.57	137.986
869.944	70.5079
873.319	26.996
876.694	14.9566
880.069	1.65891
883.444	2.19855
886.819	29.7596
890.193	33.6076
893.568	61.9809
896.943	116.845
900.318	193.008
903.693	286.774
907.067	412.94
910.442	617.894
913.817	898.654
917.192	1354.29
920.567	2008.11
923.942	2621.62
927.316	3034.64
930.691	3168.47
934.066	3693.8
937.441	4388.06
940.816	2637.01
944.191	1242.34
947.565	682.426
950.94	378.099
954.315	212.659
957.69	116.668
961.065	56.4642
964.439	20.1561
967.814	17.2392
971.189	3.45441
974.564	17.1599
977.939	90.8119
981.313	156.947
984.688	251.364
988.063	177.881
991.438	73.1268
994.813	29.9088
998.188	38.7938
1001.56	89.1174
1004.94	182.202
1008.31	307.117
1011.69	266.174
1015.06	134.412
1018.44	42.585
1021.81	4.02429
1025.19	11.5003
1028.56	1.59961
1031.94	10.631
1035.31	4.72266
1038.68	11.6868
1042.06	5.82965
1045.43	5.97668
1048.81	0.738556
1052.18	12.7268
1055.56	10.9216
1058.93	22.9276
1062.31	19.7406
1065.68	11.9109
1069.06	18.7923
1072.43	35.8514
1075.81	12.9598
1079.18	30.0711
1082.56	23.2183
1085.93	16.4185
1089.31	33.3139
1092.68	27.3911
1096.06	14.8617
1099.43	25.6069
1102.81	16.3324
1106.18	18.6454
1109.56	23.1617
1112.93	3.52451
1116.31	21.0027
1119.68	8.62567
1123.06	29.2812
1126.43	14.7469
1129.81	6.74988
1133.18	16.6755
1136.56	26.7528
1139.93	17.5335
1143.31	13.5541
1146.68	18.7971
1150.05	23.418
1153.43	12.8455
1156.8	14.6982
1160.18	3.63922
1163.55	26.3434
1166.93	8.92856
1170.3	18.9405
1173.68	20.2148
1177.05	27.6455
1180.43	25.1913
1183.8	7.07562
1187.18	11.521
1190.55	2.39868
1193.93	8.66211
1197.3	16.1211
1200.68	7.59949
1204.05	14.8121
1207.43	12.228
1210.8	28.4682
1214.18	17.2956
1217.55	11.0881
1220.93	12.679
1224.3	0.254944
1227.67	24.7437
1231.05	26.2149
1234.42	15.9581
1237.8	17.8868
1241.17	2.44333
1244.55	2.13467
1247.92	14.4164
1251.3	11.371
1254.67	12.8565
1258.05	11.1457
1261.42	17.0183
1264.8	3.31854
1268.17	0.973114
1271.55	25.4294
1274.92	4.15634
1278.3	9.93634
1281.67	12.0976
1285.05	5.12051
1288.42	5.00626
1291.8	16.1457
1295.17	12.2184
1298.55	24.3304
1301.92	14.1552
1305.3	5.44513
1308.67	8.06332
