Measurement: Raman, 514 nm, unoriented, Raman Data Processed
Mineral: Topaz
Rruff sample: R050405
Ideal chemistry: Al_2_SiO_4_F_2_
Locality: Amelia, Virginia, USA
Source: Gerry Gibbs
Description: Colorless cleavage fragment
Measured chemistry: Al_2.00_Si_1.00_O_4_(F_0.75_(OH)_0.25_)_2_
Raman shift (cm-1)	intensity
111.473	0
115.644	164.514
119.813	278.61
123.981	174.845
128.146	168.191
132.309	333.131
136.47	463.272
140.63	1093.87
144.787	874.069
148.942	747.946
153.096	1116.36
157.247	1359.5
161.396	425.418
165.544	390.319
169.689	207.902
173.833	161.207
177.974	135.672
182.114	138.246
186.251	79.843
190.387	139.604
194.52	116.904
198.652	95.846
202.782	21.175
206.909	215.978
211.035	108.278
215.159	106.934
219.281	110.315
223.4	12.986
227.518	210.15
231.634	885.851
235.748	4275.94
239.86	10455.5
243.97	5718.85
248.079	1659.62
252.185	789.745
256.289	831.284
260.391	2439.22
264.492	10721.6
268.59	27571.3
272.687	9315.02
276.781	3936.15
280.874	9460.75
284.964	26341.2
289.053	24108.7
293.14	6969.83
297.225	2420.5
301.308	1265.58
305.389	1008.03
309.468	827.823
313.545	1087.79
317.62	1295.82
321.693	1552.08
325.765	4082.67
329.834	11765.4
333.902	19519.3
337.967	6428.54
342.031	2111.06
346.093	1006.64
350.153	624.013
354.21	522.682
358.267	595.375
362.321	417.488
366.373	249.764
370.423	330.875
374.471	228.973
378.518	233.359
382.563	331.986
386.605	511.752
390.646	688.833
394.685	2025.15
398.722	5590.64
402.757	11112.4
406.79	8436.29
410.821	2864.54
414.851	914.685
418.878	387.942
422.904	257.945
426.927	57.894
430.949	66.562
434.969	327.079
438.987	277.562
443.003	521.998
447.018	1250.54
451.03	4098.24
455.041	12776
459.049	17023.2
463.056	7642.1
467.061	2804.19
471.064	1199.18
475.065	909.078
479.064	604.961
483.062	900.824
487.057	172.66
491.051	378.459
495.043	205.217
499.032	83.379
503.02	108.533
507.007	93.225
510.991	43.523
514.973	81.119
518.954	301.893
522.933	151.605
526.91	84.057
530.885	13.184
534.858	4.004
538.829	166.48
542.799	44.555
546.766	452.471
550.732	551.031
554.696	781.719
558.658	1200.63
562.618	1037.49
566.576	427.561
570.533	393.76
574.488	127.793
578.44	41.023
582.391	73.91
586.341	53.709
590.288	21.75
594.233	17.584
598.177	136.41
602.119	137.686
606.059	240.91
609.997	303.59
613.933	194.551
617.868	215.76
621.801	211.395
625.731	244.773
629.66	509.889
633.588	724.824
637.513	624.455
641.437	1076.8
645.358	1123.88
649.278	765.701
653.196	189.266
657.113	262.57
661.027	466.605
664.94	55.945
668.851	175.248
672.76	63.664
676.667	44.803
680.572	61.928
684.476	157.217
688.378	20.117
692.278	145.215
696.176	422.398
700.072	80.711
703.967	181.758
707.86	466.373
711.751	355.68
715.64	17.594
719.527	280.105
723.413	93.238
727.297	55.947
731.179	165.631
735.059	155.842
738.937	116.414
742.814	143.482
746.689	242.297
750.562	73.109
754.433	3.455
758.303	0.066
762.17	93.664
766.036	157.91
769.901	1.1
773.763	148.416
777.624	180.137
781.482	219.594
785.339	25.07
789.195	29.549
793.048	96.961
796.9	381.322
800.75	145.729
804.598	96.146
808.445	599.492
812.289	390.605
816.132	643.727
819.973	603.193
823.813	804.096
827.65	1012.87
831.486	1875.94
835.32	2150.81
839.152	3626.37
842.983	6765.35
846.812	11346.8
850.639	14501.6
854.464	16347.4
858.288	15589
862.11	9953.67
865.93	6339.08
869.748	4315.31
873.564	3228.14
877.379	2395.56
881.192	2171.82
885.004	1886.86
888.813	1552.24
892.621	1873.75
896.427	2325.52
900.232	2854.56
904.034	3395.98
907.835	4628.27
911.634	6252.46
915.432	9373.93
919.227	14405.7
923.021	20692.1
926.813	22795.2
930.604	18137.6
934.393	13081.8
938.18	8944.24
941.965	5740.88
945.749	3750.35
949.53	2939.19
953.311	2200.25
957.089	1750.73
960.866	1230.32
964.641	996.123
968.414	1026.12
972.185	884.426
975.955	786.273
979.723	473.104
983.49	628.717
987.254	887.842
991.017	712.287
994.779	627.979
998.538	633.66
1002.3	933.893
1006.05	1156.72
1009.81	1323.94
1013.56	1142.18
1017.31	592.309
1021.06	280.557
1024.81	462.102
1028.55	442.658
1032.3	597.861
1036.04	579.781
1039.78	456.238
1043.52	500.805
1047.26	367.002
1050.99	748.824
1054.73	534.506
1058.46	248.557
1062.19	425.848
1065.92	356.652
1069.65	559.24
1073.37	532.762
1077.1	603.639
1080.82	541.588
1084.54	135.861
1088.26	319.713
1091.97	241.965
1095.69	39.006
1099.4	8.295
1103.12	49.771
1106.83	34.486
1110.54	207.838
1114.24	126.771
1117.95	42.396
1121.65	45.475
1125.35	107.146
1129.06	106.533
1132.75	289.059
1136.45	55.998
1140.15	312.354
1143.84	59.828
1147.53	264.289
1151.22	96.684
1154.91	187.633
1158.6	70.055
1162.28	285.633
1165.97	405.355
1169.65	601.18
1173.33	331.566
1177.01	461.328
1180.69	268.887
1184.36	414.227
1188.04	220.281
1191.71	267.066
1195.38	71.555
1199.05	604.559
1202.71	62.219
1206.38	365.871
1210.04	171.734
1213.71	320.598
1217.37	410.453
1221.03	436.016
1224.68	176.363
1228.34	279.035
1231.99	570.027
1235.65	450.355
1239.3	545.844
1242.95	493.219
1246.59	228.348
1250.24	78.996
1253.88	297.566
1257.53	413.188
1261.17	379.938
1264.81	345.773
1268.45	372.227
1272.08	108.156
1275.72	159.781
1279.35	297.863
1282.98	539.094
1286.61	549.895
1290.24	316.312
1293.87	224.723
1297.49	302.449
1301.11	474.742
1304.73	256.613
1308.36	201.508
1311.97	0
