Measurement: Raman, 780 nm, unoriented, Raman Data Processed
Mineral: Topaz
Rruff sample: R060026
Ideal chemistry: Al_2_SiO_4_F_2_
Locality: Capao Topaz mine, Minas Gerais, Brazil, GPS Coordinates: 20 25 58 S, 43 38 25 W, 3694 ft. ASL
Source: Eric Van Valkenburg
Description: Transparent brown prismatic crystal
Measured chemistry: Al_2.00_Si_1.00_O_4_(F_0.60_(OH)_0.40_)_2_
Raman shift (cm-1)	intensity
98.7912	0
102.166	0.07452
105.541	0.939575
108.916	0.450809
112.29	1.11875
115.665	1.93982
119.04	0.611187
122.415	1.18323
125.79	0.674328
129.165	0.826321
132.539	1.03226
135.914	1.77354
139.289	3.62417
142.664	3.51069
146.039	6.73049
149.413	10.7655
152.788	17.2047
156.163	31.2698
159.538	51.908
162.913	18.8288
166.287	17.462
169.662	24.0603
173.037	18.0668
176.412	8.5649
179.787	3.94601
183.162	2.36872
186.536	0.669209
189.911	0.616371
193.286	0.724018
196.661	0.382313
200.036	0.601845
203.411	2.31735
206.785	2.12891
210.16	1.35198
213.535	2.34822
216.91	10.8214
220.285	27.2564
223.659	45.4575
227.034	64.8087
230.409	100.104
233.784	161.324
237.159	268.418
240.533	409.72
243.908	295.971
247.283	108.927
250.658	61.0964
254.033	57.992
257.408	58.7177
260.782	85.6219
264.157	141.211
267.532	294.894
270.907	712.39
274.282	390.934
277.656	174.498
281.031	186.315
284.406	279.243
287.781	415.44
291.156	369.948
294.531	183.131
297.905	89.6774
301.28	50.9576
304.655	34.396
308.03	23.5532
311.405	17.7369
314.779	12.3966
318.154	7.62302
321.529	7.94436
324.904	13.9721
328.279	21.9732
331.654	35.8334
335.028	52.2788
338.403	49.0269
341.778	30.8153
345.153	18.2347
348.527	8.29151
351.902	2.77858
355.277	0.043106
358.652	0.180252
362.027	1.80839
365.402	0.931709
368.776	0.426758
372.151	0.004517
375.526	0.262718
378.901	3.47761
382.276	3.65696
385.651	1.69525
389.025	0.29287
392.4	2.413
395.775	5.41267
399.15	9.21339
402.525	11.9398
405.899	12.7753
409.274	11.2295
412.649	7.57687
416.024	4.12122
419.399	2.57705
422.774	1.648
426.148	0.573826
429.523	0.298786
432.898	1.90225
436.273	2.63921
439.648	1.37153
443.022	1.01093
446.397	1.93362
449.772	4.77325
453.147	8.51984
456.522	12.4943
459.897	16.9914
463.271	19.4305
466.646	17.3029
470.021	13.7335
473.396	12.7935
476.771	14.9059
480.145	19.849
483.52	23.327
486.895	20.507
490.27	14.1527
493.645	9.53165
497.019	5.78452
500.394	4.4959
503.769	4.88917
507.144	5.11935
510.519	7.79394
513.894	12.3882
517.268	17.2687
520.643	18.63
524.018	15.646
527.393	12.8884
530.768	11.1037
534.142	11.1521
537.517	12.3208
540.892	13.9955
544.267	16.7307
547.642	20.1038
551.016	22.589
554.391	20.2736
557.766	15.4291
561.141	10.2433
564.516	5.62057
567.891	3.27422
571.265	1.1082
574.64	0.385498
578.015	0.134647
581.39	0.192741
584.765	0.092697
588.139	0.43816
591.514	0.627594
594.889	0.869637
598.264	0.285286
601.639	0.206505
605.014	0.115757
608.388	0.237938
611.763	0.794918
615.138	0.263988
618.513	0.51099
621.888	0.122509
625.262	0.683285
628.637	1.55015
632.012	3.11457
635.387	4.80525
638.762	6.93975
642.136	10.7419
645.511	7.68083
648.886	6.13562
652.261	4.96592
655.636	4.33707
659.011	3.78327
662.385	3.37772
665.76	3.22096
669.135	3.4035
672.51	3.38834
675.885	3.29032
679.26	2.89598
682.634	2.79851
686.009	2.79197
689.384	3.6439
692.759	3.60227
696.134	3.50977
699.508	2.64996
702.883	1.84411
706.258	1.22663
709.633	0.708092
713.008	0.578808
716.382	0.066074
719.757	0.134781
723.132	0.24831
726.507	0.070004
729.882	0.324734
733.256	0.814018
736.631	0.768429
740.006	0.742954
743.381	1.56023
746.756	2.26747
750.131	2.259
753.505	2.38776
756.88	2.99159
760.255	3.64106
763.63	3.45543
767.005	3.34628
770.38	3.2824
773.754	2.27312
777.129	1.29763
780.504	1.20033
783.879	0.577019
787.254	0.860561
790.628	0.009197
794.003	0.200813
797.378	0.241161
800.753	0.017159
804.128	0.057579
807.502	0.075535
810.877	0.420616
814.252	0.451817
817.627	1.58969
821.002	2.95121
824.376	4.35414
827.751	7.54432
831.126	11.4883
834.501	16.8995
837.876	19.7851
841.251	19.2359
844.625	15.3201
848	11.4335
851.375	7.7987
854.75	5.12584
858.125	2.71039
861.5	1.94957
864.874	4.73124
868.249	0.5252
871.624	0.903099
874.999	0.951473
878.374	0.084198
881.748	0.392242
885.123	3.32069
888.498	7.04683
891.873	12.2746
895.248	19.0424
898.622	29.0313
901.997	42.2437
905.372	57.4528
908.747	74.77
912.122	90.1677
915.496	103.95
918.871	124.937
922.246	159.159
925.621	187.845
928.996	167.393
932.371	110.1
935.745	62.4162
939.12	35.3556
942.495	19.9674
945.87	11.1761
949.245	4.87606
952.62	1.70599
955.994	0.316048
959.369	1.15931
962.744	3.85098
966.119	8.68601
969.494	16.3753
972.868	26.1201
976.243	26.2201
979.618	14.3174
982.993	7.55315
986.368	5.78661
989.742	7.21445
993.117	8.51505
996.492	10.0732
999.867	8.31966
1003.24	5.58377
1006.62	4.1236
1009.99	3.27183
1013.37	2.85953
1016.74	2.70029
1020.12	2.63471
1023.49	3.19521
1026.87	2.68221
1030.24	2.51304
1033.62	1.88248
1036.99	1.78301
1040.37	1.53483
1043.74	0.654575
1047.11	0.702465
1050.49	0.510639
1053.86	0.285458
1057.24	0.025276
1060.61	0.262871
1063.99	0.570454
1067.36	0.473118
1070.74	0.484432
1074.11	0.57151
1077.49	0.010006
1080.86	0.099865
1084.24	0.511456
1087.61	0.254776
1090.99	0.626461
1094.36	1.58414
1097.74	1.42134
1101.11	1.58994
1104.49	2.58893
1107.86	2.16069
1111.24	2.61041
1114.61	2.9645
1117.98	3.36792
1121.36	3.72497
1124.73	3.95922
1128.11	4.0646
1131.48	4.92945
1134.86	6.14679
1138.23	7.4692
1141.61	11.1156
1144.98	16.2668
1148.36	23.7337
1151.73	30.637
1155.11	32.7559
1158.48	30.723
1161.86	28.1145
1165.23	25.0831
1168.61	23.8192
1171.98	22.1854
1175.36	18.3429
1178.73	12.3404
1182.11	6.47496
1185.48	3.44992
1188.86	3.02397
1192.23	1.72018
1195.61	4.26029
1198.98	1.6824
1202.36	1.47901
1205.73	1.0675
1209.11	1.4788
1212.48	0.873508
1215.86	0.588104
1219.23	0.445477
1222.61	0.209217
1225.98	0.430511
1229.35	0.428375
1232.73	0.160484
1236.1	0.349125
1239.48	0.651184
1242.85	0.136333
1246.23	0.107475
1249.6	0.596302
1252.98	0.497398
1256.35	1.07422
1259.73	0.536484
1263.1	0.965408
1266.48	0.637703
1269.85	0.395832
1273.23	0.806641
1276.6	0.892185
1279.98	0.49361
1283.35	0.350693
