Measurement: Raman, 532 nm, unoriented, Raman Data Processed
Mineral: Topaz
Rruff sample: R050176
Ideal chemistry: Al_2_SiO_4_F_2_
Locality: Jos Plateau, Nigeria
Source: Marcus Origlieri
Description: Colorless prismatic crystal
Measured chemistry: Al_2.000_Si_1.000_O_4.000_(F_1.438_(OH)_0.562_)
Raman shift (cm-1)	intensity
92.4542	0
95.829	0.595296
99.2038	0.497476
102.579	0.754179
105.953	0.815563
109.328	0.009862
112.703	0.744495
116.078	2.24954
119.453	2.03369
122.828	4.78347
126.202	5.66685
129.577	7.07876
132.952	6.96574
136.327	7.57081
139.702	12.4705
143.076	12.0237
146.451	15.6649
149.826	22.7147
153.201	42.467
156.576	87.8684
159.951	19.7185
163.325	29.6811
166.7	61.2094
170.075	13.4138
173.45	5.82126
176.825	4.16053
180.199	3.17609
183.574	3.58666
186.949	3.42971
190.324	3.12435
193.699	1.36774
197.073	0.525566
200.448	0.301373
203.823	1.11552
207.198	1.21666
210.573	1.83421
213.948	1.43038
217.322	0.730824
220.697	9.40242
224.072	33.6629
227.447	48.484
230.822	78.4248
234.196	143.948
237.571	349.392
240.946	635.956
244.321	133.408
247.696	36.2571
251.071	49.4525
254.445	67.0395
257.82	95.0666
261.195	147.094
264.57	310.254
267.945	924.521
271.32	406.58
274.694	122.443
278.069	132.421
281.444	199.672
284.819	487.752
288.193	610.493
291.568	131.126
294.943	38.2572
298.318	17.4619
301.693	9.79718
305.068	6.1884
308.442	5.2395
311.817	9.37553
315.192	28.9061
318.567	49.5623
321.942	23.4389
325.317	35.8041
328.691	77.9511
332.066	194.806
335.441	130.356
338.816	18.557
342.191	2.64083
345.565	1.37643
348.94	2.51719
352.315	0.306149
355.69	8.61932
359.065	31.9743
362.44	11.8364
365.814	1.76346
369.189	3.03125
372.564	9.05732
375.939	7.59767
379.314	1.07149
382.688	1.8287
386.063	2.91131
389.438	10.3109
392.813	18.6595
396.188	34.7217
399.562	69.947
402.937	128.115
406.312	103.66
409.687	28.1061
413.062	7.77147
416.437	3.03629
419.811	1.41561
423.186	2.41779
426.561	1.6278
429.936	1.46658
433.311	1.28528
436.685	0.11636
440.06	4.1485
443.435	11.1466
446.81	15.289
450.185	29.1641
453.56	62.6318
456.934	117.28
460.309	88.4591
463.684	30.0103
467.059	12.6864
470.434	8.47121
473.808	7.22452
477.183	7.25572
480.558	9.33655
483.933	12.7636
487.308	10.819
490.683	13.4092
494.057	10.1935
497.432	7.10676
500.807	2.52112
504.182	2.64514
507.557	5.20726
510.931	9.70839
514.306	9.66206
517.681	13.2901
521.056	19.7649
524.431	6.3678
527.806	1.35092
531.18	0.321072
534.555	1.46756
537.93	3.02738
541.305	6.86494
544.68	15.2024
548.054	31.2007
551.429	28.5929
554.804	27.489
558.179	42.2467
561.554	52.2079
564.928	29.6107
568.303	11.9271
571.678	4.96693
575.053	1.91772
578.428	0.214142
581.803	0.03101
585.177	0.303699
588.552	0.41983
591.927	0.630804
595.302	0.303839
598.677	0.273975
602.052	1.24378
605.426	0.978849
608.801	0.611992
612.176	0.93067
615.551	1.0137
618.926	0.356558
622.3	0.191368
625.675	1.12445
629.05	2.40644
632.425	3.64827
635.8	5.77996
639.174	9.63806
642.549	13.2732
645.924	12.4663
649.299	5.61563
652.674	2.14583
656.048	0.622921
659.423	0.135416
662.798	0.11791
666.173	0.359255
669.548	0.668732
672.923	0.317013
676.297	0.307936
679.672	1.11828
683.047	1.2854
686.422	1.82627
689.797	1.82272
693.172	1.66264
696.546	2.02767
699.921	2.17652
703.296	3.46934
706.671	4.76119
710.046	4.1422
713.42	2.36538
716.795	1.3389
720.17	0.982583
723.545	1.0162
726.92	0.642517
730.294	1.14403
733.669	1.02077
737.044	1.07429
740.419	0.884886
743.794	1.21914
747.169	1.22052
750.543	1.38929
753.918	2.38362
757.293	1.67414
760.668	2.79419
764.043	3.08693
767.418	3.64244
770.792	4.02127
774.167	3.31105
777.542	2.53186
780.917	2.26184
784.292	2.16447
787.666	2.15715
791.041	1.50303
794.416	1.22903
797.791	0.683353
801.166	1.08216
804.54	0.560163
807.915	0.025826
811.29	0.731657
814.665	0.074232
818.04	0.58942
821.415	0.333935
824.789	0.232227
828.164	0.676256
831.539	2.60451
834.914	5.26919
838.289	10.8289
841.663	20.5418
845.038	35.6522
848.413	51.0507
851.788	61.0161
855.163	63.029
858.538	52.1215
861.912	31.7185
865.287	16.8132
868.662	8.52917
872.037	5.20591
875.412	3.55603
878.786	0.049313
882.161	0.286144
885.536	0.716869
888.911	2.07695
892.286	7.43712
895.66	14.0377
899.035	25.2144
902.41	36.9646
905.785	56.6427
909.16	79.2626
912.535	112.09
915.909	159.332
919.284	224.565
922.659	294.72
926.034	322.404
929.409	287.339
932.784	233.116
936.158	204.311
939.533	146.799
942.908	80.0348
946.283	46.1636
949.658	25.0556
953.032	12.944
956.407	6.1673
959.782	2.07198
963.157	0.360046
966.532	0.770657
969.907	0.987946
973.281	6.3129
976.656	15.3869
980.031	32.8584
983.406	53.0576
986.781	47.0107
990.155	21.8165
993.53	9.82727
996.905	8.99978
1000.28	13.6789
1003.65	25.6454
1007.03	40.9287
1010.4	42.0365
1013.78	25.4918
1017.15	11.9801
1020.53	5.5661
1023.9	1.86069
1027.28	1.37994
1030.65	0.037497
1034.03	0.140688
1037.4	0.222589
1040.78	0.715034
1044.15	0.023825
1047.53	0.221115
1050.9	0.618593
1054.28	0.994011
1057.65	1.17911
1061.03	1.22955
1064.4	1.81408
1067.78	1.85569
1071.15	2.18062
1074.53	1.76694
1077.9	2.05214
1081.28	2.62002
1084.65	2.88381
1088.03	2.91021
1091.4	2.20977
1094.78	2.71409
1098.15	2.7408
1101.52	2.77372
1104.9	2.14431
1108.27	2.23476
1111.65	1.80081
1115.02	1.84674
1118.4	1.35462
1121.77	1.73988
1125.15	1.44676
1128.52	1.7055
1131.9	1.31448
1135.27	1.93267
1138.65	1.04923
1142.02	1.5354
1145.4	2.05286
1148.77	2.15083
1152.15	2.66955
1155.52	4.88835
1158.9	7.87956
1162.27	11.1063
1165.65	12.8619
1169.02	9.20134
1172.4	5.12253
1175.77	3.41563
1179.14	1.74093
1182.52	0.906292
1185.89	0.93248
1189.27	0.009048
1192.64	0.102964
1196.02	0.448498
1199.39	0.007314
1202.77	0.099674
1206.14	0.294217
1209.52	0.314947
1212.89	0.333784
1216.27	0.431844
1219.64	0.295342
1223.02	0.502013
1226.39	0.081077
1229.77	0.120727
1233.14	0.411217
1236.52	0.110845
1239.89	0.183314
1243.27	0.092917
1246.64	0.235596
1250.02	0.206406
1253.39	0.785134
1256.77	0.461013
1260.14	0.576215
1263.52	0.301002
1266.89	0.552992
1270.27	0.524271
1273.64	0.59697
1277.02	0.386466
1280.39	0.452003
1283.76	0.452422
1287.14	0.670211
1290.51	1.13523
1293.89	0.101284
1297.26	0.372853
1300.64	0.132563
