Measurement: Raman, 532 nm, unoriented, Raman Data Processed
Mineral: Topaz
Rruff sample: R060026
Ideal chemistry: Al_2_SiO_4_F_2_
Locality: Capao Topaz mine, Minas Gerais, Brazil, GPS Coordinates: 20 25 58 S, 43 38 25 W, 3694 ft. ASL
Source: Eric Van Valkenburg
Description: Transparent brown prismatic crystal
Measured chemistry: Al_2.00_Si_1.00_O_4_(F_0.60_(OH)_0.40_)_2_
Raman shift (cm-1)	intensity
132.766	0
136.141	0.090576
139.516	3.76001
142.891	2.36836
146.266	6.16036
149.64	11.309
153.015	19.4167
156.39	35.959
159.765	57.6623
163.14	30.4198
166.514	35.6082
169.889	52.9033
173.264	52.5403
176.639	32.1589
180.014	19.5396
183.388	14.2029
186.763	8.59789
190.138	4.17114
193.513	3.40967
196.888	2.57848
200.263	1.24238
203.637	0.816605
207.012	4.02551
210.387	5.81837
213.762	5.72687
217.137	4.22173
220.512	3.35799
223.886	16.8415
227.261	33.4215
230.636	57.9892
234.011	102.631
237.386	188.589
240.76	306.909
244.135	243.584
247.51	85.9326
250.885	36.6499
254.26	46.3608
257.635	62.889
261.009	94.0002
264.384	164.055
267.759	342.393
271.134	755.653
274.509	534.209
277.883	201.815
281.258	198.156
284.633	296.327
288.008	457.874
291.383	466.721
294.757	267.506
298.132	147.302
301.507	101.052
304.882	80.986
308.257	69.3167
311.632	62.8415
315.006	60.1159
318.381	55.3353
321.756	62.1981
325.131	71.1708
328.506	90.0953
331.88	113.76
335.255	135.806
338.63	118.902
342.005	69.9152
345.38	35.4162
348.755	17.5508
352.129	9.41808
355.504	8.64774
358.879	18.0625
362.254	32.5563
365.629	25.1061
369.003	12.1477
372.378	4.13413
375.753	2.37227
379.128	5.14685
382.503	5.74203
385.877	3.38919
389.252	1.30263
392.627	6.4968
396.002	11.3086
399.377	17.7186
402.752	21.5214
406.126	20.22
409.501	14.8047
412.876	5.97697
416.251	0.009781
419.626	0.986023
423	1.43985
426.375	0.973663
429.75	0.500183
433.125	4.33382
436.5	5.78346
439.875	5.81097
443.249	7.04829
446.624	11.6255
449.999	17.2824
453.374	24.1068
456.749	33.3811
460.123	40.1687
463.498	46.8531
466.873	41.6921
470.248	34.1124
473.623	29.822
476.998	27.9049
480.372	30.5101
483.747	32.8894
487.122	29.6428
490.497	23.2926
493.872	18.5572
497.246	14.8155
500.621	12.9609
503.996	13.3807
507.371	14.3155
510.746	16.3018
514.12	19.0866
517.495	21.207
520.87	18.4992
524.245	14.8828
527.62	11.0132
530.995	10.6608
534.369	11.0914
537.744	13.8484
541.119	18.0909
544.494	23.9452
547.869	30.5204
551.244	35.6613
554.618	32.9166
557.993	22.1743
561.368	11.5698
564.743	5.32811
568.118	1.40492
571.492	0.393387
574.867	0.997452
578.242	0.916092
581.617	0.350037
584.992	0.37323
588.366	0.821198
591.741	1.71715
595.116	0.063141
598.491	1.13188
601.866	1.53755
605.24	1.84451
608.615	0.0923
611.99	0.074066
615.365	0.855057
618.74	1.01599
622.115	1.00424
625.489	1.49397
628.864	2.38618
632.239	3.73105
635.614	5.2839
638.989	5.75867
642.364	10.9424
645.738	6.47046
649.113	5.4928
652.488	3.22888
655.863	2.63382
659.237	2.64342
662.612	2.83366
665.987	2.62248
669.362	1.88797
672.737	2.59468
676.112	3.70604
679.486	4.16939
682.861	3.54753
686.236	3.95912
689.611	4.47112
692.986	4.66458
696.361	4.53276
699.735	3.14098
703.11	1.93658
706.485	1.10466
709.86	1.16934
713.235	0.270035
716.609	0.672089
719.984	0.365082
723.359	1.03893
726.734	0.08786
730.109	0.688141
733.484	0.499878
736.858	1.69252
740.233	2.75023
743.608	4.09898
746.983	4.48126
750.358	6.19519
753.732	7.84154
757.107	8.75232
760.482	9.34004
763.857	10.1728
767.232	11.136
770.606	9.36684
773.981	7.33473
777.356	5.34679
780.731	3.69237
784.106	1.84073
787.481	2.20242
790.855	0.858185
794.23	0.596634
797.605	0.147324
800.98	0.292923
804.355	1.36151
807.729	0.983292
811.104	0.706802
814.479	0.060776
817.854	1.52022
821.229	4.81638
824.604	13.1547
827.978	24.5884
831.353	42.5353
834.728	65.1562
838.103	80.8269
841.478	79.5898
844.852	66.8194
848.227	51.1906
851.602	37.5322
854.977	28.3138
858.352	21.2971
861.726	14.8375
865.101	10.3631
868.476	6.56541
871.851	3.20728
875.226	3.6326
878.601	4.16307
881.975	7.84354
885.35	15.9247
888.725	28.3314
892.1	45.8056
895.475	70.376
898.85	106.607
902.224	149.29
905.599	203.018
908.974	250.94
912.349	267.183
915.724	254.557
919.098	237.076
922.473	231.967
925.848	229.091
929.223	196.104
932.598	131.669
935.972	77.5942
939.347	42.2929
942.722	22.4484
946.097	10.7535
949.472	3.63284
952.847	1.28729
956.221	2.93854
959.596	1.73022
962.971	6.83493
966.346	19.6674
969.721	37.9312
973.096	63.4569
976.47	67.9423
979.845	44.246
983.22	27.6915
986.595	24.2286
989.97	28.2084
993.344	34.4031
996.719	36.5425
1000.09	29.226
1003.47	20.1528
1006.84	11.2472
1010.22	7.04073
1013.59	3.13083
1016.97	2.26407
1020.34	0.145599
1023.72	0.049713
1027.09	1.34135
1030.47	0.712997
1033.84	0.401367
1037.22	0.57753
1040.59	0.135193
1043.97	0.60936
1047.34	1.57558
1050.72	1.24921
1054.09	1.57259
1057.47	1.12418
1060.84	2.23541
1064.21	2.18983
1067.59	2.6161
1070.96	2.82904
1074.34	3.11757
1077.71	2.96719
1081.09	3.7009
1084.46	3.52493
1087.84	3.85361
1091.21	7.4442
1094.59	4.17622
1097.96	3.16251
1101.34	3.93228
1104.71	3.27271
1108.09	4.56494
1111.46	3.84666
1114.84	4.59523
1118.21	4.0311
1121.59	4.88821
1124.96	4.85796
1128.34	4.75409
1131.71	6.46646
1135.09	7.92606
1138.46	11.2249
1141.84	16.8178
1145.21	26.6528
1148.59	40.9243
1151.96	56.7582
1155.34	63.8016
1158.71	62.5089
1162.09	55.9425
1165.46	52.1594
1168.84	48.6249
1172.21	45.7266
1175.58	37.8012
1178.96	25.0028
1182.33	12.2168
1185.71	10.6074
1189.08	3.90276
1192.46	2.05985
1195.83	2.6816
1199.21	1.5553
1202.58	1.03833
1205.96	0.8927
1209.33	0.43219
1212.71	0.398468
1216.08	0.045868
1219.46	0.911118
1222.83	0.286957
1226.21	1.00232
1229.58	0.602219
1232.96	0.499863
1236.33	0.10112
1239.71	0.832642
1243.08	0.128204
1246.46	0.435867
1249.83	0.832886
1253.2	1.48056
1256.58	1.28618
1259.95	0.840057
1263.33	1.92543
1266.7	2.01257
1270.08	2.00861
1273.45	2.07755
1276.83	1.24351
1280.2	1.89319
1283.58	0.771255
1286.95	0.941147
1290.33	0.433472
1293.7	0.297211
1297.08	0.008606
1300.45	0.566879
