Measurement: Raman, 532 nm, unoriented, Raman Data Processed
Mineral: Topaz
Rruff sample: R060024
Ideal chemistry: Al_2_SiO_4_F_2_
Locality: Antonio Peireira Topaz mine, Minas Gerais, Brazil, GPS coordinates: 20 18 18 S, 43 28 37 W, 2697 ASL
Source: Eric Van Valkenburg
Description: Smoky brown single crystal
Measured chemistry: Al_2.00_Si_1.00_O_4_(F_0.68_(OH)_0.32_)_2_
Raman shift (cm-1)	intensity
133.731	0
137.105	2.63643
140.48	6.44224
143.855	1.12924
147.23	3.52997
150.605	5.76598
153.979	15.014
157.354	34.5685
160.729	12.0464
164.104	4.60644
167.479	5.2964
170.853	10.7806
174.228	10.0397
177.603	9.90187
180.978	7.41928
184.353	7.01422
187.728	6.79088
191.102	3.70789
194.477	1.33063
197.852	1.94307
201.227	0.017639
204.602	0.516403
207.976	1.2348
211.351	1.24123
214.726	3.22053
218.101	1.50768
221.476	0.099274
224.851	1.58389
228.225	8.93227
231.6	19.4585
234.975	53.2769
238.35	133.512
241.725	222.593
245.099	115.724
248.474	43.8447
251.849	22.6129
255.224	21.9955
258.599	25.8116
261.974	49.9079
265.348	132.8
268.723	437.067
272.098	718.073
275.473	153.936
278.848	69.3117
282.222	85.7383
285.597	166.062
288.972	254.934
292.347	163.436
295.722	80.778
299.096	48.698
302.471	34.4271
305.846	28.0091
309.221	23.2043
312.596	21.5512
315.971	23.6144
319.345	28.9073
322.72	35.014
326.095	41.5449
329.47	56.2463
332.845	81.0799
336.219	79.2946
339.594	46.7473
342.969	19.4295
346.344	9.44296
349.719	6.07428
353.094	6.17496
356.468	8.15653
359.843	17.5409
363.218	20.3483
366.593	7.95758
369.968	2.23157
373.342	0.297852
376.717	1.17206
380.092	0.810059
383.467	1.60687
386.842	1.52335
390.216	3.05325
393.591	5.84738
396.966	8.58817
400.341	13.3094
403.716	18.7313
407.091	14.0165
410.465	6.68365
413.84	1.13846
417.215	0.714111
420.59	2.94727
423.965	2.01028
427.339	1.39069
430.714	0.624634
434.089	1.86372
437.464	2.63316
440.839	2.8716
444.214	6.56558
447.588	9.30849
450.963	15.2532
454.338	22.3875
457.713	32.1212
461.088	40.8407
464.462	40.1533
467.837	34.8011
471.212	26.8822
474.587	20.7217
477.962	17.1455
481.337	15.5351
484.711	15.4385
488.086	14.7079
491.461	10.8411
494.836	9.88144
498.211	8.55258
501.585	10.8428
504.96	15.0998
508.335	24.8122
511.71	37.0241
515.085	55.5445
518.46	66.3752
521.834	50.7897
525.209	25.6368
528.584	11.7069
531.959	6.69296
535.334	4.92465
538.708	3.18253
542.083	5.29236
545.458	9.05869
548.833	17.7278
552.208	25.5201
555.582	22.4383
558.957	14.0517
562.332	9.37546
565.707	4.20883
569.082	3.32565
572.457	0.585449
575.831	0.512085
579.206	0.22641
582.581	0.608093
585.956	0.742462
589.331	0.820435
592.705	1.74707
596.08	0.092407
599.455	0.869781
602.83	2.3103
606.205	2.25159
609.58	1.45648
612.954	0.25708
616.329	1.16934
619.704	0.929016
623.079	1.47031
626.454	2.58826
629.828	2.38211
633.203	4.5535
636.578	5.8259
639.953	5.54028
643.328	5.34311
646.702	3.58188
650.077	2.60303
653.452	0.598938
656.827	0.717682
660.202	0.194397
663.577	0.651184
666.951	0.356934
670.326	0.172485
673.701	2.12488
677.076	1.81073
680.451	0.704071
683.826	1.45789
687.2	1.91763
690.575	1.6535
693.95	3.7211
697.325	0.763489
700.7	1.0278
704.074	2.21704
707.449	2.23416
710.824	1.76807
714.199	2.37805
717.574	0.491608
720.948	1.94278
724.323	3.53159
727.698	4.17804
731.073	2.84662
734.448	0.499695
737.823	2.33566
741.197	0.710022
744.572	2.6727
747.947	3.43622
751.322	2.37009
754.697	2.47369
758.072	3.88739
761.446	3.10785
764.821	3.46732
768.196	4.44687
771.571	3.46387
774.946	3.75705
778.32	2.54858
781.695	0.289032
785.07	0.114746
788.445	0.093262
791.82	0.855988
795.194	1.68247
798.569	1.05393
801.944	0.39624
805.319	1.26868
808.694	1.33316
812.068	3.48321
815.443	0.61264
818.818	0.484314
822.193	0.052948
825.568	3.62003
828.943	6.1684
832.317	16.1578
835.692	29.9417
839.067	44.0403
842.442	46.8291
845.817	41.187
849.192	32.6158
852.566	25.2423
855.941	20.6239
859.316	16.9715
862.691	12.247
866.066	10.5431
869.44	7.19992
872.815	6.67102
876.19	5.13943
879.565	7.72461
882.94	11.5873
886.314	13.2807
889.689	21.0667
893.064	30.2475
896.439	42.8321
899.814	62.1268
903.188	88.3615
906.563	120.14
909.938	159.208
913.313	187.554
916.688	187.757
920.063	165.527
923.437	143.581
926.812	134.203
930.187	121.843
933.562	87.7582
936.937	55.1322
940.312	33.5717
943.686	20.7399
947.061	12.2158
950.436	6.47174
953.811	1.59543
957.186	0.414001
960.56	0.002533
963.935	1.15595
967.31	1.35367
970.685	1.15753
974.06	1.16016
977.434	0.80426
980.809	1.54102
984.184	3.12381
987.559	5.63217
990.934	10.6137
994.308	14.8516
997.683	17.8993
1001.06	18.0775
1004.43	14.0365
1007.81	10.6896
1011.18	6.66351
1014.56	4.13074
1017.93	5.27054
1021.31	1.90668
1024.68	0.949097
1028.06	0.536102
1031.43	0.865936
1034.81	1.14658
1038.18	0.684692
1041.56	0.130524
1044.93	2.51111
1048.31	0.35025
1051.68	1.89612
1055.06	0.464752
1058.43	0.071869
1061.81	2.16284
1065.18	0.354767
1068.56	1.5145
1071.93	1.01434
1075.3	1.00946
1078.68	1.05514
1082.05	2.83646
1085.43	2.39383
1088.8	3.43542
1092.18	5.50159
1095.55	6.23303
1098.93	5.07288
1102.3	3.98984
1105.68	3.28934
1109.05	6.23285
1112.43	5.53613
1115.8	3.55359
1119.18	4.70773
1122.55	3.87704
1125.93	5.54343
1129.3	3.96652
1132.68	3.95755
1136.05	4.31018
1139.43	5.37341
1142.8	8.08746
1146.17	13.4381
1149.55	23.0846
1152.92	36.3914
1156.3	40.9147
1159.67	35.3693
1163.05	24.1507
1166.42	15.0717
1169.8	10.6008
1173.17	6.85147
1176.55	4.21289
1179.92	2.99963
1183.3	0.911957
1186.67	0.405853
1190.05	0.338348
1193.42	0.49353
1196.8	0.800903
1200.17	0.342224
1203.55	0.549377
1206.92	1.33426
1210.3	1.20239
1213.67	0.453156
1217.05	0.150848
1220.42	0.210693
1223.8	0.972382
1227.17	2.22485
1230.55	0.002533
1233.92	0.932709
1237.3	0.072113
1240.67	0.517487
1244.05	1.36758
1247.42	1.84396
1250.8	1.58905
1254.17	2.04504
1257.54	2.18652
1260.92	2.88647
1264.29	1.04651
1267.67	0.145752
1271.04	2.16504
1274.42	1.10452
1277.79	0.668091
1281.17	1.15518
1284.54	0.859436
1287.92	0.619293
1291.29	0.308929
1294.67	1.44574
1298.04	0.060303
1301.42	0.015289
