Measurement: Raman, 780 nm, unoriented, Raman Data Processed
Mineral: Topaz
Rruff sample: R050176
Ideal chemistry: Al_2_SiO_4_F_2_
Locality: Jos Plateau, Nigeria
Source: Marcus Origlieri
Description: Colorless prismatic crystal
Measured chemistry: Al_2.000_Si_1.000_O_4.000_(F_1.438_(OH)_0.562_)
Raman shift (cm-1)	intensity
98.1222	0
101.497	3.56167
104.872	0.125877
108.247	3.28585
111.621	0.610624
114.996	0.456556
118.371	0.606731
121.746	0.769209
125.121	1.64532
128.496	1.2234
131.87	0.500025
135.245	1.84805
138.62	3.58716
141.995	4.23291
145.37	5.62557
148.744	8.3311
152.119	18.3301
155.494	94.7247
158.869	21.7265
162.244	6.17492
165.619	16.746
168.994	9.63638
172.368	1.70474
175.743	0.251341
179.118	0.202499
182.493	0.516783
185.868	0.274199
189.242	0.456682
192.617	0.283764
195.992	0.436573
199.367	0.486002
202.742	0.481083
206.117	0.656603
209.491	0.237238
212.866	0.193296
216.241	3.04808
219.616	10.5612
222.991	29.6005
226.365	32.1853
229.74	48.2492
233.115	79.9971
236.49	181.341
239.865	624.143
243.239	393.028
246.614	62.1658
249.989	46.5365
253.364	41.394
256.739	47.4859
260.114	67.3419
263.488	124.585
266.863	461.315
270.238	736.617
273.613	104.45
276.988	80.8917
280.363	115.453
283.737	291.508
287.112	699.405
290.487	224.597
293.862	51.2476
297.237	21.1887
300.611	11.3429
303.986	6.18773
307.361	3.55451
310.736	3.5695
314.111	7.15954
317.486	18.4538
320.86	5.95117
324.235	3.25926
327.61	6.17181
330.985	27.4487
334.36	46.0396
337.734	10.0173
341.109	1.67526
344.484	0.35865
347.859	0.937668
351.234	0.954828
354.608	0.092817
357.983	1.57374
361.358	2.43385
364.733	0.289883
368.108	0.053816
371.483	4.52278
374.857	5.23767
378.232	2.35703
381.607	0.949842
384.982	2.17366
388.357	4.39468
391.731	5.88469
395.106	10.0557
398.481	21.5446
401.856	49.3197
405.231	70.1819
408.606	27.1459
411.98	9.63168
415.355	3.98991
418.73	2.69009
422.105	2.45168
425.48	2.9578
428.854	0.059797
432.229	0.581717
435.604	0.160013
438.979	0.162564
442.354	3.13664
445.729	2.9919
449.103	3.61874
452.478	10.1543
455.853	26.7023
459.228	34.9661
462.603	13.8771
465.978	4.66786
469.352	3.26335
472.727	2.55171
476.102	2.70222
479.477	3.94444
482.852	6.4267
486.226	7.9526
489.601	17.2928
492.976	16.0972
496.351	4.36442
499.726	0.361384
503.101	0.278457
506.475	0.928941
509.85	1.95668
513.225	3.29203
516.6	3.51258
519.975	9.4
523.349	7.82047
526.724	2.27779
530.099	0.623238
533.474	1.18889
536.849	1.6868
540.224	2.39738
543.598	4.82453
546.973	9.9655
550.348	14.8188
553.723	21.3092
557.098	38.8091
560.472	62.404
563.847	47.2434
567.222	20.295
570.597	9.27994
573.972	4.18168
577.347	2.23791
580.721	1.18605
584.096	0.13403
587.471	0.34988
590.846	0.54298
594.221	0.068725
597.596	0.535125
600.97	1.07701
604.345	1.16849
607.72	0.941141
611.095	1.21142
614.47	1.3178
617.844	0.619207
621.219	0.231222
624.594	0.203392
627.969	0.376944
631.344	0.958235
634.718	2.3033
638.093	4.56077
641.468	9.58164
644.843	13.5441
648.218	9.40879
651.593	4.17785
654.967	1.89483
658.342	0.641566
661.717	0.957418
665.092	0.763681
668.467	0.819732
671.841	0.318594
675.216	0.439841
678.591	0.815928
681.966	0.877439
685.341	0.995305
688.716	0.56487
692.09	0.794858
695.465	0.076476
698.84	0.590268
702.215	0.918326
705.59	1.46447
708.965	1.91257
712.339	1.83543
715.714	0.45547
719.089	0.466041
722.464	0.241214
725.839	0.391464
729.213	0.270048
732.588	0.517447
735.963	0.580726
739.338	0.351039
742.713	0.629969
746.087	0.417615
749.462	0.457545
752.837	0.505987
756.212	0.488695
759.587	0.790892
762.962	1.18411
766.336	1.61633
769.711	1.511
773.086	1.25055
776.461	1.09085
779.836	0.892797
783.211	0.598379
786.585	0.518003
789.96	0.226233
793.335	0.740549
796.71	0.675757
800.085	0.525987
803.459	0.305824
806.834	0.153592
810.209	0.197835
813.584	0.283335
816.959	0.170658
820.333	0.221612
823.708	0.120898
827.083	0.670835
830.458	0.38017
833.833	1.3501
837.208	1.25204
840.582	3.42881
843.957	5.94393
847.332	9.14617
850.707	12.0639
854.082	12.6646
857.457	12.9031
860.831	8.32526
864.206	4.93905
867.581	2.14657
870.956	0.704775
874.331	0.650108
877.705	0.040251
881.08	0.003122
884.455	0.8179
887.83	0.217209
891.205	0.267574
894.58	1.18862
897.954	3.91914
901.329	6.27373
904.704	10.4951
908.079	16.0264
911.454	23.5428
914.828	33.9573
918.203	49.7101
921.578	74.7537
924.953	95.3017
928.328	108.098
931.702	123.922
935.077	171.328
938.452	175.038
941.827	95.4176
945.202	47.5753
948.577	24.5925
951.952	14.2309
955.326	7.72481
958.701	4.60375
962.076	2.58852
965.451	1.3438
968.826	2.40566
972.2	4.05248
975.575	6.6444
978.95	10.4124
982.325	20.3976
985.7	26.1446
989.074	14.4714
992.449	5.62797
995.824	2.38926
999.199	3.08892
1002.57	5.25192
1005.95	8.62137
1009.32	12.6432
1012.7	8.70923
1016.07	2.56561
1019.45	1.14348
1022.82	0.137075
1026.2	0.25808
1029.57	0.164856
1032.95	0.345255
1036.32	0.242125
1039.7	0.291498
1043.07	0.020951
1046.45	0.420398
1049.82	0.493872
1053.2	0.296233
1056.57	0.617503
1059.95	0.718585
1063.32	0.976384
1066.69	0.497889
1070.07	0.663827
1073.44	0.916522
1076.82	1.07213
1080.19	0.693743
1083.57	1.06895
1086.94	0.72273
1090.32	0.780863
1093.69	1.27367
1097.07	0.791074
1100.44	1.16331
1103.82	0.650121
1107.19	0.625342
1110.57	1.15459
1113.94	0.844851
1117.32	0.478893
1120.69	0.359541
1124.07	0.488672
1127.44	0.638062
1130.82	1.16134
1134.19	0.644568
1137.57	0.896015
1140.94	0.674184
1144.32	0.208238
1147.69	0.860485
1151.07	1.55545
1154.44	2.28936
1157.82	2.66906
1161.19	4.71266
1164.57	6.70614
1167.94	5.65139
1171.32	3.20531
1174.69	2.231
1178.06	0.653738
1181.44	0.579718
1184.81	0.054497
1188.19	0.659904
1191.56	0.558142
1194.94	0.241992
1198.31	0.03283
1201.69	0.625674
1205.06	0.024267
1208.44	0.871226
1211.81	0.076903
1215.19	0.152637
1218.56	0.025977
1221.94	0.210246
1225.31	0.078135
1228.69	0.112219
1232.06	0.868013
1235.44	0.29073
1238.81	0.79348
1242.19	0.818497
1245.56	0.632192
1248.94	0.303865
1252.31	0.258162
1255.68	0.121757
1259.06	0.644576
1262.43	0.592793
1265.81	0.130151
1269.18	0.284623
1272.56	0.307124
1275.93	0.669944
1279.31	0.131337
1282.68	0.585683
1286.06	0.336352
