Measurement: Raman, 532 nm, unoriented, Raman Data Processed
Mineral: Topaz
Rruff sample: R050404
Ideal chemistry: Al_2_SiO_4_F_2_
Locality: Minas Gerais, Brazil
Source: Gerry Gibbs
Description: Colorless cleavage fragments
Measured chemistry: Al_2.00_Si_1.00_O_4_(F_0.86_(OH)_0.14_)_2_
Raman shift (cm-1)	intensity
94.3826	0
97.7575	0.227164
101.132	0.184091
104.507	0.081192
107.882	0.05366
111.257	0.051235
114.632	1.18064
118.006	1.40542
121.381	2.97897
124.756	4.12802
128.131	4.541
131.506	5.13744
134.88	4.49957
138.255	7.08347
141.63	6.82613
145.005	7.77114
148.38	9.4246
151.755	14.4075
155.129	36.0269
158.504	16.1618
161.879	6.41169
165.254	4.65114
168.629	5.03153
172.003	3.97486
175.378	3.54798
178.753	3.11799
182.128	2.42972
185.503	2.36721
188.877	1.79336
192.252	1.12779
195.627	0.954617
199.002	0.394313
202.377	0.217564
205.752	1.10379
209.126	0.805661
212.501	0.96822
215.876	0.550162
219.251	3.51699
222.626	15.2224
226	28.3818
229.375	42.7806
232.75	74.767
236.125	160.837
239.5	313.396
242.875	245.301
246.249	44.0139
249.624	26.9825
252.999	51.0663
256.374	62.5422
259.749	94.0079
263.123	157.176
266.498	409.127
269.873	804.811
273.248	129.353
276.623	80.2858
279.998	73.9652
283.372	140.713
286.747	285.037
290.122	138.199
293.497	35.7829
296.872	14.6811
300.247	7.71972
303.621	4.1273
306.996	1.39635
310.371	1.03828
313.746	3.19341
317.12	8.31667
320.495	14.1458
323.87	21.5459
327.245	37.3
330.62	80.7299
333.995	119.751
337.369	33.2041
340.744	7.0121
344.119	1.79086
347.494	1.27164
350.869	3.49659
354.243	7.42069
357.618	18.6386
360.993	30.1773
364.368	2.89178
367.743	1.67111
371.118	0.973042
374.492	0.168634
377.867	0.682985
381.242	2.34764
384.617	3.50985
387.992	5.57565
391.366	9.4696
394.741	16.1605
398.116	28.5601
401.491	48.6031
404.866	59.6234
408.241	27.3457
411.615	8.35504
414.99	2.89896
418.365	0.659431
421.74	0.171445
425.115	0.247714
428.49	0.827639
431.864	0.619473
435.239	0.054056
438.614	1.78711
441.989	5.0061
445.364	9.97752
448.738	16.7142
452.113	32.3494
455.488	60.2355
458.863	76.9691
462.238	46.5237
465.613	20.6337
468.987	10.594
472.362	6.61767
475.737	5.50018
479.112	4.11972
482.486	4.0822
485.861	4.92319
489.236	7.18983
492.611	7.03317
495.986	5.67799
499.361	4.33334
502.735	4.5306
506.11	9.86823
509.485	16.9284
512.86	29.3923
516.235	52.8464
519.61	87.8022
522.984	64.7537
526.359	21.7029
529.734	6.71542
533.109	3.11138
536.484	2.96108
539.859	4.05525
543.233	8.07487
546.608	17.1083
549.983	25.1548
553.358	17.9693
556.732	19.3257
560.107	24.1515
563.482	17.5727
566.857	8.29241
570.232	3.85897
573.607	1.61769
576.981	0.580576
580.356	0.294874
583.731	0.545095
587.106	0.42415
590.481	0.620955
593.856	0.305276
597.23	0.168691
600.605	0.125825
603.98	0.131953
607.355	0.090815
610.73	0.658609
614.104	0.84426
617.479	0.588101
620.854	1.19786
624.229	1.41816
627.604	2.07276
630.979	3.08001
634.353	4.24485
637.728	5.04659
641.103	5.81825
644.478	6.25098
647.852	4.12321
651.227	1.69658
654.602	1.0995
657.977	0.735255
661.352	0.400015
664.727	0.189614
668.101	0.093457
671.476	0.342729
674.851	0.385445
678.226	0.672071
681.601	0.446166
684.976	0.698729
688.35	0.549706
691.725	0.452278
695.1	0.530787
698.475	0.616797
701.85	1.30305
705.224	0.331551
708.599	0.761654
711.974	0.552912
715.349	0.4884
718.724	0.05385
722.098	0.795623
725.473	0.670187
728.848	1.2212
732.223	1.32411
735.598	1.28431
738.973	1.53693
742.347	1.30319
745.722	1.27886
749.097	1.58563
752.472	1.03973
755.847	1.93907
759.221	2.0003
762.596	1.89574
765.971	2.35149
769.346	2.45514
772.721	2.44893
776.096	1.63731
779.47	1.32746
782.845	0.710988
786.22	0.343206
789.595	0.510583
792.97	0.175097
796.345	0.253086
799.719	0.004897
803.094	0.454524
806.469	0.488063
809.844	0.321225
813.219	0.967113
816.593	0.401233
819.968	0.298355
823.343	0.508705
826.718	1.37165
830.093	3.7867
833.467	7.9327
836.842	14.8559
840.217	25.7069
843.592	42.0945
846.967	57.1036
850.342	64.0267
853.716	64.3559
857.091	57.2572
860.466	39.7222
863.841	24.1738
867.216	14.4236
870.591	8.95198
873.965	6.48492
877.34	5.14829
880.715	4.16883
884.09	4.95018
887.465	6.97842
890.839	10.7401
894.214	16.4477
897.589	23.8985
900.964	34.8447
904.339	51.0652
907.713	69.6328
911.088	96.2053
914.463	132.662
917.838	184.061
921.213	235.206
924.587	255.934
927.962	222.682
931.337	174.657
934.712	142.15
938.087	105.137
941.462	66.3564
944.836	40.8076
948.211	26.0104
951.586	16.5863
954.961	10.0188
958.336	6.30687
961.711	3.44273
965.085	1.43575
968.46	0.60368
971.835	0.586458
975.21	1.00669
978.585	0.616808
981.959	0.135378
985.334	0.550323
988.709	0.380177
992.084	0.788883
995.459	3.61539
998.833	7.16979
1002.21	11.8238
1005.58	16.6965
1008.96	19.2938
1012.33	15.3576
1015.71	8.67018
1019.08	4.85966
1022.46	3.54996
1025.83	2.67866
1029.21	1.27963
1032.58	1.03764
1035.96	0.486746
1039.33	0.968337
1042.71	0.028035
1046.08	0.494661
1049.46	0.143138
1052.83	0.013719
1056.2	0.317166
1059.58	0.330176
1062.95	0.298765
1066.33	0.668209
1069.7	0.41751
1073.08	0.152512
1076.45	0.844348
1079.83	0.687779
1083.2	0.528739
1086.58	0.644331
1089.95	0.643388
1093.33	0.804406
1096.7	1.10999
1100.08	0.929494
1103.45	1.38775
1106.83	0.894858
1110.2	0.769405
1113.58	0.922302
1116.95	0.365902
1120.33	0.808011
1123.7	0.655524
1127.08	0.488281
1130.45	1.01649
1133.83	0.880152
1137.2	0.971433
1140.58	1.05098
1143.95	1.49813
1147.33	1.97241
1150.7	3.87483
1154.08	6.302
1157.45	10.2732
1160.83	13.9584
1164.2	15.2551
1167.57	9.93345
1170.95	5.36578
1174.32	2.75441
1177.7	1.92381
1181.07	1.21938
1184.45	0.827648
1187.82	0.093421
1191.2	0.367425
1194.57	0.465069
1197.95	0.021425
1201.32	0.246622
1204.7	0.66204
1208.07	0.099504
1211.45	0.157764
1214.82	0.118221
1218.2	0.217968
1221.57	0.44245
1224.95	0.174047
1228.32	0.127802
1231.7	0.014683
1235.07	0.215243
1238.44	0.695462
1241.82	0.116652
1245.19	0.362412
1248.57	0.336399
1251.94	0.324433
1255.32	0.183526
1258.69	0.462326
1262.07	0.669809
1265.44	0.401296
1268.82	0.501725
1272.19	0.54469
1275.57	0.542278
1278.94	0.37281
1282.32	0.581017
1285.69	0.438775
1289.07	0.430202
1292.44	0.526616
1295.82	0.411832
1299.19	0.744458
1302.57	0.302638
