Measurement: Raman, 514 nm, unoriented, Raman Data Processed
Mineral: Topaz
Rruff sample: R050199
Ideal chemistry: Al_2_SiO_4_F_2_
Locality: Madagascar
Source: Marcus Origlieri
Description: Transparent colorless crystal fragment
Measured chemistry: Al_2.000_Si_1.000_O_4.000_(F_1.340_(OH)_0.660_)
Raman shift (cm-1)	intensity
52.866	0
57.065	6.573
61.262	44.191
65.458	26.975
69.651	107.778
73.842	343.178
78.031	571.712
82.218	959.253
86.404	794.061
90.587	1091.62
94.768	983.531
98.947	948.427
103.124	833.892
107.3	932.691
111.473	729.813
115.644	910.187
119.813	773.282
123.981	541.182
128.146	495.598
132.309	374.889
136.47	450.992
140.63	347.456
144.787	369.93
148.942	870.631
153.096	5058.67
157.247	1766.1
161.396	433.345
165.544	326.99
169.689	141.053
173.833	88.59
177.974	27.431
182.114	58.576
186.251	136.027
190.387	175.781
194.52	196.831
198.652	230.17
202.782	195.981
206.909	316.248
211.035	146.876
215.159	188.736
219.281	336.834
223.4	574.862
227.518	1374.06
231.634	4711.16
235.748	23350.7
239.86	45527.2
243.97	9430.19
248.079	2955.71
252.185	1903.68
256.289	1962.06
260.391	4850.71
264.492	31536.9
268.59	53745.5
272.687	8176.46
276.781	5351.47
280.874	15226.7
284.964	42398.2
289.053	16188.5
293.14	4923.49
297.225	2688.64
301.308	1817
305.389	1344.56
309.468	1104.34
313.545	995.309
317.62	948.452
321.693	851.761
325.765	1066.23
329.834	2825.84
333.902	2557.58
337.967	925.437
342.031	592.417
346.093	485.241
350.153	463.261
354.21	276.223
358.267	257.149
362.321	316.819
366.373	516.394
370.423	1124.04
374.471	786.751
378.518	224.524
382.563	133.385
386.605	111.39
390.646	266.549
394.685	739.865
398.722	2097.34
402.757	3693.99
406.79	1850.79
410.821	575.768
414.851	190.889
418.878	42.162
422.904	21.856
426.927	57.962
430.949	126.749
434.969	14.065
438.987	128.341
443.003	90.152
447.018	48.892
451.03	203.912
455.041	860.812
459.049	1011.66
463.056	457.809
467.061	268.421
471.064	212.178
475.065	257.328
479.064	575.167
483.062	1088.99
487.057	1838.8
491.051	1118.59
495.043	344.364
499.032	118.133
503.02	27.137
507.007	17.424
510.991	71.135
514.973	27.519
518.954	60.71
522.933	61.717
526.91	75.651
530.885	67.52
534.858	200.381
538.829	207.591
542.799	461.593
546.766	830.721
550.732	1721.07
554.696	3825.77
558.658	5456.24
562.618	3518.7
566.576	1613.53
570.533	827.009
574.488	465.704
578.44	280.17
582.391	284.687
586.341	113.721
590.288	128.181
594.233	63.858
598.177	36.257
602.119	58.546
606.059	96.973
609.997	107.755
613.933	79.323
617.868	31.889
621.801	17.303
625.731	132.46
629.66	91.959
633.588	206.908
637.513	601.784
641.437	1085.17
645.358	865.569
649.278	417.997
653.196	303.888
657.113	246.023
661.027	149.219
664.94	147.603
668.851	98.177
672.76	80.786
676.667	115.448
680.572	251.287
684.476	284.169
688.378	90.919
692.278	78.537
696.176	7.985
700.072	4.561
703.967	14.364
707.86	81.288
711.751	106.076
715.64	30.648
719.527	46.94
723.413	21
727.297	41.757
731.179	39.242
735.059	66.538
738.937	48.333
742.814	101.075
746.689	44.859
750.562	13.348
754.433	13.792
758.303	19.5
762.17	0.464
766.036	14.655
769.901	105.65
773.763	90.036
777.624	76.077
781.482	59.216
785.339	88.969
789.195	47.228
793.048	79.695
796.9	36.065
800.75	58.353
804.598	68.604
808.445	40.762
812.289	37.888
816.132	78.105
819.973	82.218
823.813	122.31
827.65	85.412
831.486	170.656
835.32	238.899
839.152	180.102
842.983	373.26
846.812	418.728
850.639	439.917
854.464	438.418
858.288	489.216
862.11	463.026
865.93	528.705
869.748	487.154
873.564	574.927
877.379	624.826
881.192	755.451
885.004	674.492
888.813	853.631
892.621	1089.92
896.427	1242.55
900.232	1600.98
904.034	2157.54
907.835	2860.49
911.634	3875.23
915.432	5985.8
919.227	8450.51
923.021	10321.4
926.813	12668.4
930.604	18802.4
934.393	26183.5
938.18	18953.2
941.965	9866.28
945.749	5475.43
949.53	3578.58
953.311	2498.16
957.089	2062.48
960.866	1812.89
964.641	1728.09
968.414	1859.12
972.185	2187.1
975.955	3568.87
979.723	6914.03
983.49	9222.05
987.254	5144.02
991.017	2426.19
994.779	1460.8
998.538	1071.8
1002.3	1000.83
1006.05	1111.92
1009.81	872.053
1013.56	584.242
1017.31	500.483
1021.06	381.81
1024.81	328.27
1028.55	238.83
1032.3	171.466
1036.04	212.397
1039.78	264.493
1043.52	197.75
1047.26	170.204
1050.99	160.6
1054.73	153.742
1058.46	130.758
1062.19	134.584
1065.92	63.086
1069.65	96.471
1073.37	159.814
1077.1	64.129
1080.82	144.687
1084.54	88.025
1088.26	118.023
1091.97	90.017
1095.69	4.802
1099.4	13.535
1103.12	98.52
1106.83	54.107
1110.54	25.176
1114.24	7.848
1117.95	8.257
1121.65	200.938
1125.35	134.428
1129.06	24.233
1132.75	18.508
1136.45	79.531
1140.15	9.979
1143.84	89.892
1147.53	146.102
1151.22	251.496
1154.91	339.444
1158.6	610.871
1162.28	890.013
1165.97	1060.28
1169.65	860.23
1173.33	554.625
1177.01	372.696
1180.69	161.818
1184.36	73.497
1188.04	58.042
1191.71	30.794
1195.38	93.172
1199.05	157.464
1202.71	174.275
1206.38	99.438
1210.04	15.277
1213.71	72.898
1217.37	118.484
1221.03	141.672
1224.68	81.629
1228.34	112.389
1231.99	87.12
1235.65	51.763
1239.3	55.181
1242.95	76.985
1246.59	121.199
1250.24	65.409
1253.88	43.8
1257.53	41.456
1261.17	32.545
1264.81	60.989
1268.45	71.263
1272.08	22.567
1275.72	53.795
1279.35	32.212
1282.98	77.674
1286.61	94.314
1290.24	9.805
1293.87	120.433
1297.49	70.877
1301.11	63.138
1304.73	33.195
1308.36	78.031
1311.97	20.66
1315.59	111.078
1319.2	53.259
1322.82	92.614
1326.43	60.047
1330.04	51.133
1333.65	53.434
1337.26	60.726
1340.86	109.148
1344.47	20.861
1348.07	80.592
1351.67	75.193
1355.27	190.465
1358.87	180.126
1362.46	103.091
1366.06	114.349
1369.65	193.229
1373.24	88.216
1376.83	124.635
1380.42	106.686
1384	116.378
1387.59	153.849
1391.17	258.857
1394.75	225.456
1398.33	133.562
1401.91	136.218
1405.49	221.386
1409.06	162.269
1412.64	135.072
1416.21	203.126
1419.78	141.495
1423.35	138.58
1426.91	204.205
1430.48	138.405
1434.05	92.794
1437.61	319.623
1441.17	150.656
1444.73	214.704
1448.29	223.938
1451.84	220.936
1455.4	215.926
1458.95	309.075
1462.5	258.829
1466.05	240.686
1469.6	179.412
1473.15	110.5
1476.69	148.139
1480.24	126.309
1483.78	245.883
1487.32	142.697
1490.86	289.901
1494.39	218.783
1497.93	160.485
1501.46	175.177
1505	88.001
1508.53	149.345
1512.06	55.811
1515.59	61.228
1519.11	108.823
1522.64	75.78
