Measurement: Raman, 514 nm, unoriented, Raman Data Processed
Mineral: Topaz
Rruff sample: R050176
Ideal chemistry: Al_2_SiO_4_F_2_
Locality: Jos Plateau, Nigeria
Source: Marcus Origlieri
Description: Colorless prismatic crystal
Measured chemistry: Al_2.000_Si_1.000_O_4.000_(F_1.438_(OH)_0.562_)
Raman shift (cm-1)	intensity
26.288	0
30.504	43.337
34.717	53.7811
38.929	57.4352
43.138	53.6531
47.345	85.5663
51.551	65.7737
55.754	19.9586
59.955	39.5567
64.154	24.9509
68.351	20.5138
72.546	23.9723
76.739	23.2841
80.93	32.986
85.119	51.1249
89.306	58.4683
93.49	89.3694
97.673	80.3929
101.854	88.7749
106.032	68.8415
110.209	61.5815
114.384	79.9092
118.556	35.4016
122.727	58.616
126.895	54.8348
131.062	46.2728
135.226	37.5928
139.388	36.8038
143.549	31.9067
147.707	55.9086
151.863	431.793
156.018	344.532
160.17	49.1085
164.32	17.5056
168.469	9.28033
172.615	7.22675
176.759	4.7265
180.901	16.4786
185.041	16.9268
189.18	8.27115
193.316	3.1745
197.45	14.9074
201.582	33.3121
205.712	38.4453
209.84	27.7729
213.967	49.4874
218.091	63.5254
222.213	86.4956
226.333	108.215
230.451	300.106
234.567	1436.65
238.682	6381.89
242.794	1756.71
246.904	426.662
251.012	218.562
255.118	198.164
259.223	371.071
263.325	1951.77
267.425	6973.22
271.523	1180.48
275.62	529.242
279.714	1192.94
283.806	5366.27
287.897	2966.38
291.985	692.115
296.072	285.801
300.156	164.226
304.239	115.514
308.319	104.635
312.398	95.0708
316.474	95.4905
320.549	87.9049
324.622	93.8184
328.692	168.696
332.761	269.694
336.828	117.918
340.893	63.0194
344.956	57.1503
349.017	25.0727
353.076	28.5846
357.133	24.6239
361.188	42.2017
365.241	20.7656
369.292	23.379
373.341	22.9044
377.388	17.6552
381.434	11.3597
385.477	12.3928
389.519	24.6737
393.558	51.9715
397.596	207.238
401.631	692.476
405.665	408.689
409.697	108.874
413.727	49.0362
417.755	36.1709
421.781	35.2756
425.805	6.35297
429.827	1.60062
433.847	0.4245
437.865	5.66208
441.882	5.36231
445.896	1.6023
449.909	32.5497
453.919	209.504
457.928	233.464
461.935	79.4077
465.94	11.5735
469.943	1.828
473.944	10.8564
477.943	19.7811
481.94	25.6909
485.935	96.5986
489.929	256.507
493.92	92.4335
497.91	17.3861
501.898	11.3706
505.883	9.29794
509.867	11.1173
513.849	24.9643
517.829	97.7988
521.808	96.6979
525.784	39.5331
529.758	25.6032
533.731	37.4821
537.701	23.3858
541.67	36.405
545.637	66.6113
549.602	130.047
553.565	278.217
557.526	715.668
561.486	765.447
565.443	330.971
569.399	133.756
573.352	76.3344
577.304	40.608
581.254	19.0543
585.202	17.9706
589.148	11.8265
593.093	6.48279
597.035	19.4421
600.976	16.3722
604.914	13.991
608.851	5.55194
612.786	37.6717
616.719	21.7891
620.651	5.90408
624.58	3.10114
628.507	8.08374
632.433	27.0942
636.357	57.1549
640.279	147.048
644.199	177.136
648.117	99.2293
652.034	41.306
655.948	25.4465
659.861	12.5729
663.772	18
667.681	5.0798
671.588	9.26697
675.493	8.32309
679.397	17.3761
683.298	8.42453
687.198	1.46609
691.096	5.50189
694.992	1.53299
698.886	4.5564
702.779	5.43167
706.669	8.55984
710.558	5.54272
714.445	4.48767
718.33	2.54156
722.214	5.38495
726.095	5.70789
729.975	8.17233
733.852	8.04367
737.728	3.9025
741.603	2.74985
745.475	2.59277
749.345	1.81653
753.214	2.01117
757.081	5.83441
760.946	0.633545
764.809	13.4163
768.671	10.1926
772.53	10.945
776.388	4.6994
780.244	16.2162
784.098	0.667084
787.951	3.32285
791.801	9.06958
795.65	1.80301
799.497	9.51788
803.342	9.23154
807.186	0.059326
811.027	0.357452
814.867	5.66305
818.705	1.01623
822.541	4.65781
826.375	19.3245
830.208	15.9734
834.039	15.5903
837.868	29.2505
841.695	47.7079
845.521	51.3601
849.344	66.9152
853.166	84.3828
856.986	100.279
860.804	66.7426
864.621	57.3222
868.436	48.3573
872.248	35.4919
876.06	34.9658
879.869	52.5608
883.677	58.188
887.482	60.707
891.287	54.0301
895.089	69.6711
898.889	91.3154
902.688	122.791
906.485	162.416
910.28	231.853
914.074	336.666
917.865	521.854
921.655	757.682
925.443	1037.38
929.23	1474.08
933.014	2822.65
936.797	3277.34
940.578	1708.42
944.358	825.462
948.135	493.356
951.911	332.341
955.685	235.238
959.458	158.951
963.228	134.617
966.997	116.002
970.764	114.745
974.529	126.526
978.293	147.162
982.055	230.185
985.815	201.305
989.573	113.275
993.33	72.4096
997.085	56.3459
1000.84	37.3108
1004.59	75.2371
1008.34	48.0778
1012.09	40.9262
1015.83	26.7772
1019.58	25.6341
1023.32	30.4998
1027.06	29.3754
1030.8	17.6258
1034.54	26.6664
1038.27	10.1043
1042.01	14.2248
1045.74	11.1935
1049.47	17.3049
1053.2	26.4935
1056.93	13.829
1060.65	12.0677
1064.38	7.23563
1068.1	10.4408
1071.82	24.4505
1075.54	14.623
1079.25	9.7128
1082.97	6.75623
1086.68	4.09299
1090.39	5.01529
1094.11	10.7844
1097.81	8.08402
1101.52	0.233124
1105.22	8.56363
1108.93	15.6535
1112.63	23.7871
1116.33	21.6231
1120.03	61.1119
1123.72	22.1896
1127.42	15.7998
1131.11	25.7928
1134.8	5.89954
1138.49	21.3262
1142.18	15.2233
1145.87	11.283
1149.55	6.43805
1153.23	27.2478
1156.91	41.1069
1160.59	63.9678
1164.27	59.7547
1167.95	46.546
1171.62	21.3524
1175.3	2.56412
1178.97	32.3185
1182.64	0.891418
1186.3	8.24228
1189.97	16.6135
1193.63	12.3074
1197.3	3.20328
1200.96	11.9236
1204.62	25.1368
1208.27	13.8412
1211.93	11.4909
1215.58	17.372
1219.24	7.11243
1222.89	12.8041
1226.54	5.58612
1230.18	14.2323
1233.83	11.5414
1237.47	7.83942
1241.12	10.4798
1244.76	10.1288
1248.4	15.2814
1252.04	17.7646
1255.67	13.3271
1259.31	0.816864
1262.94	9.37073
1266.57	1.84863
1270.2	4.45349
1273.83	5.90399
1277.45	22.1107
1281.08	17.1802
1284.7	8.51797
1288.32	15.1038
1291.94	3.63272
1295.56	6.74823
1299.17	8.24225
1302.79	11.627
1306.4	19.0174
1310.01	22.4188
1313.62	2.83551
1317.23	18.2763
1320.84	7.61356
1324.44	1.95004
1328.04	8.0625
1331.64	14.2107
1335.24	8.60413
1338.84	2.83639
1342.44	11.4739
1346.03	8.18591
1349.63	3.70596
1353.22	15.5247
1356.81	1.28598
1360.4	10.3472
1363.98	18.1049
1367.57	3.51041
1371.15	13.0778
1374.73	8.79843
1378.32	4.04282
1381.89	13.1081
1385.47	9.58429
1389.05	9.42032
1392.62	12.292
1396.19	2.8859
1399.76	1.17175
1403.33	5.0863
1406.9	0.124023
1410.46	16.8223
1414.03	1.2085
1417.59	2.58224
1421.15	3.3331
1424.71	15.5367
1428.27	1.24731
1431.82	5.63535
1435.38	5.14633
1438.93	2.05585
1442.48	6.12207
1446.03	7.57062
1449.58	3.15192
1453.13	11.0541
1456.67	6.03217
1460.21	6.81839
1463.76	24.9304
1467.3	9.33008
1470.83	18.4098
1474.37	16.6322
1477.91	38.0419
1481.44	12.5485
1484.97	37.8959
1488.5	40.7904
1492.03	59.4614
1495.56	86.3224
1499.08	110.947
1502.61	160.582
