Measurement: Raman, 514 nm, unoriented, Raman Data Processed
Mineral: Topaz
Rruff sample: R050200
Ideal chemistry: Al_2_SiO_4_F_2_
Locality: Jos Plateau, Nigeria
Source: Marcus Origlieri
Description: Colorless water-worn single crystal
Measured chemistry: Al_2.000_Si_1.000_O_4.000_F_1.488_(OH)_0.512_
Raman shift (cm-1)	intensity
100.216	0
104.405	36.18
108.592	30.652
112.777	92.827
116.959	87.374
121.14	64.532
125.318	49.337
129.495	73.618
133.669	75.107
137.841	41.7
142.011	70.018
146.179	93.878
150.345	551.343
154.509	2804.4
158.671	518.971
162.83	738.987
166.988	637.405
171.144	79.201
175.297	14.561
179.449	6.028
183.598	6.231
187.745	19.708
191.891	0.902
196.034	53.646
200.175	44.285
204.314	80.033
208.451	82.905
212.586	0.906
216.719	61.04
220.85	113.307
224.979	224.732
229.105	528.278
233.23	2114.95
237.353	15494.8
241.474	17177.9
245.592	2743.72
249.709	949.835
253.823	693.066
257.936	915.411
262.046	2953.87
266.155	25571.5
270.261	13981.7
274.365	2326.53
278.468	2664.11
282.568	12426.1
286.666	25677.6
290.762	6237.32
294.857	1624.22
298.949	844.283
303.039	581.505
307.127	462.901
311.213	531.421
315.297	1311.07
319.379	711.841
323.46	312.72
327.538	635.702
331.614	2644.78
335.688	1163.96
339.76	340.967
343.83	147.332
347.898	136.557
351.964	98.784
356.028	56.349
360.09	99.002
364.15	66.733
368.208	197.53
372.264	258.393
376.318	98.318
380.37	24.694
384.42	4.652
388.468	7.44
392.514	128.587
396.558	554.789
400.6	2589.04
404.641	3755.34
408.679	1139.68
412.715	333.094
416.749	122.574
420.781	108.113
424.811	140.707
428.84	15.517
432.866	16.505
436.89	40.724
440.913	16.984
444.933	4.786
448.951	119.647
452.968	979.581
456.982	2631.56
460.995	1169.97
465.005	292.258
469.014	108.384
473.02	49.129
477.025	65.373
481.027	112.643
485.028	208.942
489.027	572.267
493.024	442.62
497.019	148.001
501.012	7.59
505.002	33.818
508.992	205.236
512.979	196.674
516.964	215.136
520.947	506.008
524.928	203.488
528.907	82.976
532.885	70.471
536.86	109.974
540.834	113.331
544.805	198.096
548.775	345.61
552.742	632.125
556.708	1747.64
560.672	3353.16
564.634	1916.69
568.594	699.547
572.552	266.894
576.508	118.02
580.462	88.92
584.414	26.261
588.365	10.612
592.313	19.059
596.26	42.573
600.204	79.599
604.147	94.211
608.088	60.342
612.026	57.719
615.963	47.025
619.898	46.639
623.832	4.166
627.763	24.38
631.692	24.008
635.619	181.98
639.545	415.921
643.469	844.82
647.39	686.804
651.31	318.82
655.228	122.07
659.144	47.241
663.058	35.295
666.97	54.977
670.881	33.622
674.789	3.23
678.696	25.619
682.6	60.26
686.503	58.714
690.404	50.13
694.303	38.508
698.2	36.844
702.095	101.14
705.989	127.403
709.88	120.626
713.77	67.811
717.658	45.957
721.543	15.063
725.427	4.913
729.31	0.01
733.19	9.132
737.068	55.652
740.945	23.626
744.819	0.63
748.692	2.844
752.563	13.322
756.432	4.663
760.299	9.436
764.165	47.649
768.028	43.799
771.89	46.915
775.749	24.619
779.607	21.568
783.463	11.434
787.318	21.779
791.17	19.642
795.02	16.479
798.869	20.298
802.716	12.094
806.561	40.873
810.404	44.654
814.245	20.426
818.085	51.197
821.922	77.952
825.758	80.726
829.592	86.925
833.424	136.848
837.254	222.605
841.083	419.351
844.909	722.086
848.734	1025.81
852.557	1282.67
856.378	1377.38
860.197	995.089
864.015	594.789
867.83	450.483
871.644	358.174
875.456	295.711
879.266	318.223
883.074	284.39
886.881	318.89
890.686	365.361
894.488	415.632
898.29	504.499
902.089	655.808
905.886	927.36
909.682	1289.62
913.476	1803.94
917.268	2680.13
921.058	3909.92
924.846	5155.81
928.633	5696.42
932.418	7253.4
936.201	10868.9
939.982	8031.36
943.761	3981.44
947.539	2243.55
951.315	1379.27
955.089	993.088
958.861	803.914
962.631	672.76
966.4	592.46
970.167	543.812
973.932	617.669
977.695	921.81
981.456	1538.67
985.216	2048.2
988.974	1211.77
992.73	656.366
996.484	492.998
1000.24	471.782
1003.99	742.487
1007.74	1097.22
1011.48	829.977
1015.23	407.762
1018.97	244.59
1022.72	156.449
1026.45	185.335
1030.19	157.277
1033.93	141.276
1037.66	100.329
1041.4	97.424
1045.13	79.562
1048.86	68.771
1052.59	73.976
1056.31	90.592
1060.04	95.493
1063.76	100.981
1067.48	5.676
1071.2	2.713
1074.92	79.931
1078.63	15.572
1082.35	60.941
1086.06	86.65
1089.77	50.606
1093.47	2.445
1097.18	16.618
1100.89	8.004
1104.59	33.84
1108.29	62.566
1111.99	29.341
1115.69	69.4
1119.38	13.033
1123.08	31.797
1126.77	11.69
1130.46	32.792
1134.15	46.456
1137.84	17.807
1141.53	90.241
1145.21	0.717
1148.89	34.302
1152.57	38.579
1156.25	124.011
1159.93	242.295
1163.61	374.181
1167.28	333.335
1170.95	152.808
1174.62	164.862
1178.29	90.112
1181.96	68.671
1185.62	34.747
1189.28	50.717
1192.95	46.807
1196.61	85.697
1200.26	56.282
1203.92	35.139
1207.58	39.112
1211.23	50.972
1214.88	21.584
1218.53	56.1
1222.18	61.664
1225.82	63.067
1229.47	54.492
1233.11	7.833
1236.75	12.209
1240.39	7.702
1244.03	2.027
1247.66	55.892
1251.3	90.159
1254.93	31.156
1258.56	89.315
1262.19	74.891
1265.82	68.383
1269.45	28.664
1273.07	18.985
1276.69	33.151
1280.31	56.997
1283.93	32.033
1287.55	31.143
1291.16	72.93
1294.78	62.792
1298.39	21.532
1302	22.285
1305.61	1.173
1309.22	23.725
1312.82	50.655
1316.43	52.936
1320.03	91.149
1323.63	47.299
1327.23	44.365
1330.83	44.359
1334.42	28.027
1338.02	34.245
1341.61	6.966
1345.2	34.812
1348.79	32.825
1352.38	45.549
1355.96	66.182
1359.55	70.492
1363.13	18.155
1366.71	68.653
1370.29	55.288
1373.86	14.806
1377.44	4.344
1381.01	75.727
1384.59	29.839
1388.16	70.77
1391.72	79.044
1395.29	124.301
1398.86	122.358
1402.42	106.394
1405.98	70.628
1409.55	26.631
1413.11	67.83
1416.66	51.606
1420.22	38.429
1423.77	94.615
1427.32	107.364
1430.88	92.879
1434.42	108.199
1437.97	159.546
1441.52	90.838
1445.06	91.834
1448.61	77.748
1452.15	19.555
1455.68	33.295
1459.22	87.069
1462.76	60.299
1466.29	74.422
1469.83	116.734
1473.36	87.188
1476.89	100.292
1480.41	89.691
1483.94	135.307
1487.47	81.728
1490.99	30.651
1494.51	27.041
1498.03	54.618
1501.55	27.399
1505.07	46.583
1508.58	58.148
1512.09	52.729
1515.61	104.457
1519.12	0
