Measurement: Raman, 780 nm, unoriented, Raman Data Processed
Mineral: Tourmaline
Rruff sample: R110133
Locality: Crystal Palace, King County, Washington, USA
Source: Bart Cannon
Description: Masses of green acicular crystals associated with quartz
Raman shift (cm-1)	intensity
184.17	0
187.063	0.13031
189.955	1.26004
192.848	5.02066
195.741	9.54431
198.633	20.2534
201.526	32.8563
204.419	45.5583
207.311	63.3104
210.204	82.2907
213.097	99.8648
215.99	107.927
218.882	115.394
221.775	114.57
224.668	105.72
227.56	102.639
230.453	96.0707
233.346	97.5829
236.238	96.7931
239.131	95.7631
242.024	78.5763
244.917	66.4411
247.809	56.1047
250.702	44.1658
253.595	39.5245
256.487	37.5819
259.38	39.7765
262.273	39.9269
265.166	35.1183
268.058	31.8181
270.951	29.5395
273.844	20.9034
276.736	17.4396
279.629	10.0923
282.522	4.91803
285.414	2.41794
288.307	2.43933
291.2	2.3959
294.092	2.45895
296.985	0.524139
299.878	1.66869
302.771	7.43477
305.663	13.6511
308.556	18.6516
311.449	24.3644
314.341	23.2186
317.234	17.3082
320.127	13.0077
323.019	7.89436
325.912	7.4679
328.805	7.41113
331.698	10.7475
334.59	14.2795
337.483	19.8684
340.376	33.9073
343.268	42.0203
346.161	61.2497
349.054	75.8868
351.947	99.7619
354.839	120.027
357.732	137.791
360.625	141.578
363.517	135.041
366.41	115.253
369.303	95.0524
372.195	76.0485
375.088	57.9034
377.981	47.1559
380.873	38.5043
383.766	31.3838
386.659	27.2327
389.552	24.58
392.444	23.3229
395.337	18.4697
398.23	16.3658
401.122	13.908
404.015	13.8182
406.908	10.8971
409.8	9.70547
412.693	7.11023
415.586	6.77058
418.479	5.65801
421.371	2.41135
424.264	0.063751
427.157	1.38513
430.049	0.878677
432.942	4.55942
435.835	0.897873
438.728	1.58502
441.62	1.66983
444.513	0.042175
447.406	1.02025
450.298	1.47406
453.191	3.16138
456.084	2.53209
458.976	5.63638
461.869	4.24606
464.762	4.42629
467.654	2.22545
470.547	5.2739
473.44	4.63513
476.333	9.03361
479.225	9.40169
482.118	12.6333
485.011	17.3941
487.903	19.9756
490.796	22.261
493.689	24.0393
496.582	26.9639
499.474	30.8758
502.367	30.207
505.26	29.5256
508.152	29.0114
511.045	31.0002
513.938	28.0277
516.83	28.4739
519.723	27.9747
522.616	28.8464
525.509	27.8049
528.401	27.3202
531.294	30.5449
534.187	28.5327
537.079	29.3559
539.972	24.6972
542.865	20.0592
545.757	17.265
548.65	13.6758
551.543	8.02235
554.436	6.74663
557.328	7.52066
560.221	3.69748
563.114	2.619
566.006	1.42091
568.899	0.826248
571.792	1.26035
574.684	1.29096
577.577	1.67462
580.47	1.48242
583.362	0.94487
586.255	1.789
589.148	1.04135
592.041	0.977509
594.933	0.16478
597.826	1.313
600.719	1.00351
603.611	0.204071
606.504	1.23119
609.397	0.829132
612.29	1.46927
615.182	0.274109
618.075	2.69212
620.968	1.83675
623.86	5.14597
626.753	8.67326
629.646	10.0544
632.538	13.1499
635.431	19.1471
638.324	21.4042
641.217	25.7212
644.109	29.7401
647.002	31.4826
649.895	31.1621
652.787	33.0033
655.68	27.6965
658.573	24.3145
661.466	23.4148
664.358	22.3608
667.251	21.7773
670.144	23.312
673.036	23.1847
675.929	23.8562
678.822	23.2685
681.714	25.3523
684.607	28.5377
687.5	35.6932
690.393	39.5936
693.285	47.9384
696.178	54.0904
699.071	59.0712
701.963	57.7617
704.856	51.9567
707.749	44.1547
710.641	33.15
713.534	25.2894
716.427	18.5469
719.319	14.7616
722.212	12.0195
725.105	6.43256
727.998	8.34665
730.89	7.98978
733.783	9.43349
736.676	5.45221
739.568	8.01648
742.461	6.6143
745.354	5.63686
748.246	5.68051
751.139	4.54198
754.032	1.72916
756.925	0.11438
759.817	1.80966
762.71	0.189514
765.603	0.015839
768.495	0.643631
771.388	2.06648
774.281	1.08568
777.173	0.678192
780.066	1.15662
782.959	2.06685
785.852	2.50989
788.744	0.034195
791.637	3.47313
794.53	0.656036
797.422	2.45956
800.315	3.57201
803.208	2.50739
806.101	4.31789
808.993	4.13043
811.886	4.6396
814.779	6.34798
817.671	3.51811
820.564	5.57323
823.457	6.67177
826.349	6.3336
829.242	5.52731
832.135	3.17062
835.028	3.58131
837.92	4.59901
840.813	6.11035
843.706	6.59851
846.598	5.52764
849.491	5.97473
852.384	6.22359
855.276	6.25948
858.169	5.53397
861.062	5.5213
863.955	4.83594
866.847	4.79598
869.74	5.19083
872.633	7.05049
875.525	3.68665
878.418	3.32584
881.311	2.88855
884.203	2.68963
887.096	2.29698
889.989	3.2972
892.881	1.95444
895.774	1.19627
898.667	1.0419
901.56	0.942307
904.452	0.42234
907.345	0.58931
910.238	0.113503
913.13	0.575958
916.023	2.4279
918.916	1.45464
921.808	0.46003
924.701	0.54081
927.594	1.32827
930.487	0.440971
933.379	0.357269
936.272	0.88134
939.165	0.359802
942.057	2.23379
944.95	1.00126
947.843	0.762779
950.736	4.32052
953.628	3.50352
956.521	7.14703
959.414	7.25697
962.306	5.84921
965.199	4.14077
968.092	9.32112
970.984	4.36713
973.877	6.21405
976.77	5.61332
979.663	5.91817
982.555	4.9073
985.448	8.46986
988.341	9.05957
991.233	9.19212
994.126	11.8334
997.019	12.3778
999.911	15.0715
1002.8	16.5025
1005.7	18.1028
1008.59	19.499
1011.48	18.9718
1014.38	22.2178
1017.27	21.5403
1020.16	16.8962
1023.05	18.8597
1025.95	16.914
1028.84	15.0036
1031.73	14.8941
1034.62	10.8828
1037.52	13.7415
1040.41	10.8965
1043.3	11.2366
1046.19	12.0076
1049.09	8.87286
1051.98	11.9149
1054.87	11.0212
1057.77	10.9396
1060.66	12.0719
1063.55	12.6301
1066.44	11.544
1069.34	9.3362
1072.23	8.15672
1075.12	8.2458
1078.01	5.52004
1080.91	4.13298
1083.8	3.8651
1086.69	4.64503
1089.59	1.29956
1092.48	2.61696
1095.37	1.67622
1098.26	1.975
1101.16	1.78397
1104.05	0.404327
1106.94	0.194992
1109.83	0.02533
1112.73	0.380798
1115.62	1.53982
1118.51	0.701225
1121.4	1.50684
1124.3	1.38361
1127.19	0.462425
1130.08	0.457108
1132.98	0.849129
1135.87	0.821747
1138.76	2.28422
1141.65	0.926224
1144.55	1.03815
1147.44	0.578537
1150.33	0.529533
1153.22	1.81911
1156.12	1.26055
1159.01	0.87265
1161.9	1.23633
1164.8	1.94177
1167.69	4.1947
1170.58	3.98269
1173.47	5.18029
1176.37	3.14608
1179.26	3.05893
1182.15	4.29836
1185.04	2.88069
1187.94	4.54291
1190.83	4.90964
1193.72	2.97598
1196.62	0.976082
1199.51	1.86444
1202.4	1.08829
1205.29	3.94937
1208.19	3.16615
1211.08	1.757
1213.97	1.23183
1216.86	3.43433
1219.76	3.35668
1222.65	2.32004
1225.54	4.41367
1228.43	0.941414
1231.33	2.99908
1234.22	4.19036
1237.11	2.75511
1240.01	3.72282
1242.9	3.73686
1245.79	1.86873
1248.68	2.24577
1251.58	2.12727
1254.47	1.7752
1257.36	1.54585
1260.25	0.829971
1263.15	1.9307
1266.04	3.67264
1268.93	1.18733
1271.83	2.81267
1274.72	2.30537
1277.61	3.18783
1280.5	3.48351
1283.4	1.34586
