Measurement: Raman, 780 nm, unoriented, Raman Data Processed
Mineral: Tourmaline
Rruff sample: R110132
Locality: Blue Mountain Saddle, King County, Washington, USA
Source: Bart Cannon
Description: Sprays of green parallel acicular crystals
Raman shift (cm-1)	intensity
178.867	0
181.759	0.147308
184.652	0.992584
187.545	3.48038
190.437	9.36014
193.33	19.4792
196.223	31.3348
199.115	45.8032
202.008	65.5259
204.901	83.4625
207.794	106.037
210.686	126.096
213.579	144.649
216.472	149.401
219.364	154.031
222.257	151.964
225.15	139.08
228.043	134.455
230.935	130.496
233.828	132.199
236.721	131.381
239.613	123.178
242.506	105.159
245.399	91.1863
248.292	80.5461
251.184	64.4283
254.077	60.3545
256.969	56.3017
259.862	55.2387
262.755	52.7693
265.648	46.7096
268.54	41.0035
271.433	32.1421
274.326	23.18
277.218	17.1465
280.111	9.61047
283.004	2.52655
285.897	2.85349
288.789	2.9422
291.682	1.38174
294.575	1.38892
297.467	1.86386
300.36	2.68985
303.253	9.65851
306.145	14.5142
309.038	18.6839
311.931	21.2024
314.824	19.1163
317.716	13.1508
320.609	6.32623
323.502	2.04666
326.394	3.02664
329.287	3.80896
332.18	7.1893
335.072	15.7748
337.965	23.2796
340.858	39.3044
343.751	51.5026
346.643	69.92
349.536	87.8052
352.429	116.941
355.321	138.522
358.214	156.454
361.107	157.404
364	147.021
366.892	125.72
369.785	101.965
372.678	81.9733
375.57	63.9385
378.463	51.4555
381.356	42.067
384.248	33.3329
387.141	31.6759
390.034	26.6234
392.926	25.4053
395.819	20.3146
398.712	20.2987
401.605	17.4187
404.497	13.1926
407.39	11.4321
410.283	10.1953
413.175	5.38123
416.068	6.01599
418.961	5.58841
421.853	1.09976
424.746	0.555176
427.639	0.384827
430.532	1.06772
433.424	3.81955
436.317	1.28604
439.21	1.93576
442.102	1.03287
444.995	3.80624
447.888	6.79224
450.781	8.89822
453.673	14.1995
456.566	19.4434
459.459	25.2388
462.351	21.3917
465.244	16.4477
468.137	8.59964
471.029	8.35571
473.922	6.10117
476.815	10.2021
479.707	8.7471
482.6	12.3043
485.493	16.9844
488.386	16.0201
491.278	19.1989
494.171	18.9874
497.064	22.3505
499.956	23.0241
502.849	21.6102
505.742	21.9129
508.635	23.9033
511.527	21.0422
514.42	21.1526
517.313	19.5209
520.205	17.6834
523.098	19.6036
525.991	18.1302
528.883	18.1398
531.776	20.5877
534.669	18.9814
537.562	18.604
540.454	13.6758
543.347	11.2214
546.24	7.58521
549.132	8.43722
552.025	3.48102
554.918	3.92859
557.81	4.10794
560.703	2.60005
563.596	1.78993
566.489	0.147507
569.381	0.371552
572.274	1.57191
575.167	0.210083
578.059	0.106476
580.952	0.206818
583.845	2.83841
586.737	0.266312
589.63	1.15843
592.523	1.6003
595.415	0.736343
598.308	2.0417
601.201	0.012833
604.094	2.83195
606.986	2.30562
609.879	2.4133
612.772	1.19588
615.664	1.90288
618.557	3.86067
621.45	4.45349
624.342	7.27403
627.235	12.1697
630.128	13.4388
633.021	17.2237
635.913	21.5416
638.806	23.7475
641.699	27.588
644.591	29.6498
647.484	30.1238
650.377	29.2244
653.269	28.9459
656.162	24.297
659.055	23.0192
661.948	22.4035
664.84	21.5215
667.733	21.2521
670.626	21.9019
673.518	23.6379
676.411	23.3839
679.304	23.2917
682.197	27.6807
685.089	30.4531
687.982	37.3943
690.875	39.7961
693.767	46.648
696.66	48.1008
699.553	49.7675
702.445	45.419
705.338	37.473
708.231	31.79
711.124	24.3206
714.016	17.5674
716.909	13.8398
719.802	10.9473
722.694	8.46478
725.587	3.79575
728.48	5.57683
731.372	4.77713
734.265	5.517
737.158	3.2673
740.051	4.07544
742.943	4.86534
745.836	3.21458
748.729	3.69629
751.621	2.74824
754.514	1.76274
757.407	0.587097
760.299	2.43927
763.192	0.807663
766.085	0.773438
768.977	0.316559
771.87	0.671371
774.763	0.838547
777.656	0.406006
780.548	2.36494
783.441	1.93681
786.334	2.53679
789.226	0.720139
792.119	4.76085
795.012	2.00617
797.904	3.2207
800.797	4.7312
803.69	4.6333
806.583	4.38545
809.475	3.76961
812.368	6.16574
815.261	7.34312
818.153	6.08673
821.046	6.67459
823.939	7.3682
826.832	7.38463
829.724	5.16746
832.617	3.76413
835.51	5.80852
838.402	6.53262
841.295	7.10516
844.188	7.01132
847.08	5.98561
849.973	7.07237
852.866	6.21903
855.759	7.70781
858.651	6.23471
861.544	7.65301
864.437	6.56978
867.329	5.48883
870.222	6.75021
873.115	7.60953
876.007	5.105
878.9	4.25693
881.793	5.14879
884.686	4.71611
887.578	3.69286
890.471	2.61211
893.364	1.69757
896.256	2.69517
899.149	0.225876
902.042	1.66556
904.934	1.02026
907.827	0.221176
910.72	0.584061
913.612	1.88419
916.505	1.93013
919.398	1.92342
922.291	0.022598
925.183	0.967789
928.076	1.18561
930.969	1.35277
933.861	1.35716
936.754	0.361511
939.647	1.04994
942.54	1.3017
945.432	0.664642
948.325	0.374817
951.218	3.84355
954.11	3.12732
957.003	3.08986
959.896	4.46816
962.788	2.88135
965.681	2.74535
968.574	4.62811
971.467	2.3047
974.359	3.98393
977.252	3.67262
980.145	5.85033
983.037	3.91502
985.93	6.54323
988.823	6.51512
991.716	6.9243
994.608	9.56996
997.501	8.33223
1000.39	11.4484
1003.29	11.8318
1006.18	13.0772
1009.07	12.9256
1011.96	15.4677
1014.86	17.1036
1017.75	16.8745
1020.64	13.3819
1023.53	13.1639
1026.43	11.4298
1029.32	10.642
1032.21	11.4609
1035.11	7.52974
1038	8.71745
1040.89	7.89864
1043.78	8.13649
1046.68	8.35237
1049.57	6.51689
1052.46	9.74866
1055.36	7.77426
1058.25	8.48833
1061.14	7.72961
1064.03	11.3417
1066.93	8.61253
1069.82	6.97667
1072.71	5.48698
1075.6	5.63705
1078.5	4.00474
1081.39	2.31784
1084.28	1.99925
1087.17	4.5309
1090.07	1.45657
1092.96	3.70586
1095.85	2.55847
1098.74	0.815598
1101.64	2.33163
1104.53	1.75738
1107.42	2.9391
1110.32	0.261749
1113.21	0.896408
1116.1	2.45126
1118.99	0.188934
1121.89	1.06407
1124.78	2.11415
1127.67	0.035248
1130.57	0.463867
1133.46	1.57742
1136.35	2.77827
1139.24	1.19185
1142.14	2.39188
1145.03	2.1534
1147.92	1.23708
1150.81	1.13574
1153.71	2.88738
1156.6	1.10701
1159.49	2.64899
1162.38	3.59167
1165.28	2.25461
1168.17	6.62354
1171.06	4.73645
1173.96	5.84882
1176.85	3.84059
1179.74	4.64627
1182.63	4.59485
1185.53	1.96501
1188.42	2.88365
1191.31	4.90741
1194.2	2.54018
1197.1	0.298126
1199.99	2.41707
1202.88	0.317413
1205.78	3.93413
1208.67	3.72937
1211.56	2.66785
1214.45	0.992859
1217.35	2.78116
1220.24	3.28331
1223.13	3.2812
1226.02	4.90677
1228.92	0.158936
1231.81	2.10896
1234.7	2.97337
1237.6	2.9135
1240.49	1.83073
1243.38	4.10586
1246.27	2.02455
1249.17	3.49016
1252.06	1.45892
1254.95	1.15567
1257.84	4.2538
1260.74	1.70104
1263.63	2.40108
1266.52	2.24785
1269.41	1.10844
1272.31	3.38733
1275.2	2.01904
1278.09	2.18805
1280.98	3.50136
1283.88	0.029068
