Measurement: Raman, 780 nm, unoriented, Raman Data Processed
Mineral: Tourmaline
Rruff sample: R070563
Locality: unknown
Source: Gemological Institute of America
Description: White portion of a zoned watermelon tourmaline slice, see also R060566 (pink) and R070564 (green)
Raman shift (cm-1)	intensity
102.943	0
106.318	0.520378
109.693	3.60919
113.068	1.39973
116.443	6.12419
119.817	6.4967
123.192	6.41931
126.567	4.80103
129.942	1.36928
133.317	6.65248
136.692	9.62526
140.066	9.66325
143.441	7.5707
146.816	11.4056
150.191	12.8559
153.566	15.5557
156.94	6.85841
160.315	1.27133
163.69	3.14931
167.065	2.04036
170.44	0.165024
173.815	2.12383
177.189	3.33096
180.564	0.580826
183.939	0.917603
187.314	11.4116
190.689	22.0517
194.064	48.2065
197.438	76.1522
200.813	114.477
204.188	169.94
207.563	238.008
210.938	316.398
214.312	417.334
217.687	572.535
221.062	742.813
224.437	758.471
227.812	600.241
231.186	460.433
234.561	387.036
237.936	355.711
241.311	376.648
244.686	393.975
248.061	402.438
251.435	360.643
254.81	315.064
258.185	291.157
261.56	270.483
264.935	263.956
268.31	255.889
271.684	236.547
275.059	196.357
278.434	143.097
281.809	94.3294
285.184	50.8117
288.558	22.2709
291.933	1.34631
295.308	3.17076
298.683	12.2179
302.058	9.84227
305.433	2.09221
308.807	10.9482
312.182	32.3554
315.557	51.7192
318.932	34.6621
322.307	20.8199
325.682	22.9058
329.056	28.166
332.431	30.2156
335.806	34.9751
339.181	38.1432
342.556	52.0209
345.93	68.9262
349.305	98.6903
352.68	130.651
356.055	193.693
359.43	268.515
362.805	362.406
366.179	487.514
369.554	673.973
372.929	873.229
376.304	833.432
379.679	582.85
383.053	385.672
386.428	278.281
389.803	226.432
393.178	209.368
396.553	217.443
399.928	240.083
403.302	248.176
406.677	250.253
410.052	229.634
413.427	192.883
416.802	141.832
420.176	88.0781
423.551	51.7541
426.926	28.6817
430.301	12.7155
433.676	5.90695
437.05	2.42603
440.425	0.064011
443.8	1.15234
447.175	2.39078
450.55	0.104019
453.925	0.983276
457.299	2.50861
460.674	4.06001
464.049	0.609291
467.424	1.9867
470.799	3.08387
474.173	1.88852
477.548	7.42116
480.923	5.87103
484.298	14.2513
487.673	25.2239
491.048	32.8879
494.422	45.9293
497.797	57.9182
501.172	71.6441
504.547	88.2412
507.922	98.6919
511.296	106.249
514.671	112.72
518.046	104.918
521.421	93.5089
524.796	72.7439
528.171	58.7789
531.545	52.7212
534.92	48.2074
538.295	45.891
541.67	39.9045
545.045	32.9664
548.419	23.3438
551.794	17.2855
555.169	11.9003
558.544	12.0218
561.919	2.73692
565.294	3.45394
568.668	3.04382
572.043	0.555527
575.418	0.451653
578.793	1.04757
582.168	3.85426
585.543	3.39696
588.917	4.57196
592.292	4.73698
595.667	2.84492
599.042	0.340515
602.417	0.52684
605.791	0.530609
609.166	1.36871
612.541	0.645966
615.916	4.56157
619.291	11.5691
622.665	21.8556
626.04	37.9619
629.415	55.4184
632.79	85.712
636.165	116.621
639.54	145.535
642.914	151.77
646.289	134.176
649.664	104.941
653.039	88.418
656.414	70.129
659.788	49.8601
663.163	33.816
666.538	20.7103
669.913	7.43662
673.288	0.480995
676.663	2.9671
680.037	1.34988
683.412	5.74459
686.787	19.2905
690.162	41.5006
693.537	72.7053
696.912	116.456
700.286	167.814
703.661	234.577
707.036	284.314
710.411	283.436
713.786	231.132
717.16	160.017
720.535	101.566
723.91	67.5534
727.285	49.4604
730.66	42.4256
734.034	39.6103
737.409	46.68
740.784	57.7984
744.159	72.6034
747.534	92.3618
750.909	94.2326
754.283	72.7356
757.658	48.362
761.033	30.5842
764.408	18.8143
767.783	9.61022
771.158	7.79333
774.532	5.58134
777.907	1.57851
781.282	2.60521
784.657	0.823082
788.032	1.72871
791.406	0.981892
794.781	1.05203
798.156	1.3152
801.531	0.443863
804.906	1.92477
808.281	2.31056
811.655	1.4201
815.03	0.66468
818.405	1.59205
821.78	3.7905
825.155	5.30804
828.529	7.64543
831.904	8.64448
835.279	9.96275
838.654	7.91003
842.029	11.9345
845.404	12.47
848.778	12.5886
852.153	14.2136
855.528	15.5571
858.903	16.0919
862.278	17.3988
865.653	18.1878
869.027	19.5288
872.402	19.1147
875.777	18.816
879.152	16.0977
882.527	13.8972
885.901	12.5884
889.276	12.7161
892.651	8.62908
896.026	6.01511
899.401	6.56689
902.775	6.06497
906.15	4.79444
909.525	3.26811
912.9	0.060001
916.275	0.399071
919.65	1.86114
923.024	1.03304
926.399	2.20319
929.774	0.882393
933.149	0.904045
936.524	2.69302
939.899	4.68967
943.273	4.69636
946.648	5.39968
950.023	9.92528
953.398	15.9247
956.773	18.7417
960.147	21.3275
963.522	28.2073
966.897	32.5014
970.272	37.1016
973.647	36.7174
977.021	36.3333
980.396	30.9933
983.771	28.8441
987.146	28.5429
990.521	25.2061
993.896	26.5554
997.27	24.0337
1000.64	20.1448
1004.02	17.5497
1007.39	13.2772
1010.77	11.6643
1014.14	9.92261
1017.52	6.99173
1020.89	10.6704
1024.27	5.85574
1027.64	4.92728
1031.02	4.24986
1034.39	1.06149
1037.77	0.070885
1041.14	4.2389
1044.52	3.98576
1047.89	11.6123
1051.27	16.2495
1054.64	22.85
1058.02	31.6922
1061.39	35.0705
1064.77	39.6651
1068.14	41.8974
1071.52	45.0969
1074.89	50.8686
1078.27	55.4387
1081.64	56.7774
1085.02	61.3088
1088.39	61.895
1091.77	60.021
1095.14	48.6355
1098.52	37.1838
1101.89	30.6902
1105.27	23.2492
1108.64	19.681
1112.01	12.0131
1115.39	7.72035
1118.76	6.93835
1122.14	5.07547
1125.51	5.44223
1128.89	4.64335
1132.26	1.90361
1135.64	0.605343
1139.01	1.31706
1142.39	0.29937
1145.76	0.907661
1149.14	2.29054
1152.51	1.01689
1155.89	1.47773
1159.26	0.943459
1162.64	1.67456
1166.01	3.33671
1169.39	1.2045
1172.76	4.73052
1176.14	2.01513
1179.51	3.46775
1182.88	5.89294
1186.26	5.9294
1189.63	6.41858
1193.01	7.83017
1196.38	7.20251
1199.76	9.52519
1203.13	9.33831
1206.51	8.80226
1209.88	9.1746
1213.26	7.68413
1216.63	5.44522
1220.01	6.09178
1223.38	6.64576
1226.76	6.66287
1230.13	4.41432
1233.51	2.2954
1236.88	4.65655
1240.26	3.20602
1243.63	6.36202
1247.01	4.7243
1250.38	4.56733
1253.76	5.19276
1257.13	4.42126
1260.51	4.73139
1263.88	1.485
1267.26	1.39288
1270.63	2.93493
1274.01	4.45244
1277.38	0.351536
1280.76	1.51669
1284.13	1.4272
