Measurement: Raman, 532 nm, unoriented, Raman Data Processed
Mineral: Tourmaline
Rruff sample: R110132
Locality: Blue Mountain Saddle, King County, Washington, USA
Source: Bart Cannon
Description: Sprays of green parallel acicular crystals
Raman shift (cm-1)	intensity
178.72	0
181.612	2.36438
184.505	0.700714
187.398	2.23817
190.29	4.15712
193.183	13.1282
196.076	23.7868
198.968	37.0774
201.861	51.631
204.754	62.2716
207.647	79.7447
210.539	94.2639
213.432	106.736
216.325	116.381
219.217	120.992
222.11	120.711
225.003	111.547
227.895	102.074
230.788	96.4044
233.681	96.4801
236.573	94.9981
239.466	88.7649
242.359	74.6201
245.252	62.6041
248.144	52.5563
251.037	44.823
253.93	41.6363
256.822	40.3394
259.715	35.2203
262.608	34.5986
265.5	32.3458
268.393	29.0931
271.286	23.5493
274.179	19.7188
277.071	14.9444
279.964	9.62114
282.857	1.09088
285.75	2.15347
288.642	3.54161
291.535	3.19054
294.428	0.622345
297.32	0.925354
300.213	4.50487
303.106	7.81358
305.998	10.7506
308.891	17.0615
311.784	16.5693
314.676	15.8594
317.569	13.8223
320.462	6.72014
323.355	3.88286
326.247	4.31432
329.14	6.6582
332.033	10.5153
334.925	14.9152
337.818	21.3749
340.711	31.668
343.603	42.1376
346.496	57.2856
349.389	71.2251
352.281	93.8979
355.174	113.328
358.067	128.254
360.96	136.858
363.852	134.437
366.745	110.254
369.638	88.2479
372.53	67.3588
375.423	53.4486
378.316	41.3174
381.209	32.4282
384.101	27.2558
386.994	25.5901
389.887	20.2182
392.779	19.6325
395.672	16.3295
398.565	17.2295
401.457	13.1464
404.35	14.3375
407.243	11.6036
410.135	9.70554
413.028	7.11961
415.921	7.72322
418.814	6.25055
421.706	2.06668
424.599	2.50807
427.492	0.472687
430.384	1.18208
433.277	1.29304
436.17	2.09312
439.062	0.12677
441.955	1.21944
444.848	1.66922
447.741	1.16499
450.633	0.340881
453.526	1.01338
456.419	1.8046
459.311	3.69901
462.204	3.59007
465.097	1.87061
467.99	0.998779
470.882	2.04454
473.775	2.58189
476.668	6.75098
479.56	8.01291
482.453	10.6683
485.346	14.3505
488.238	16.57
491.131	18.1162
494.024	19.4987
496.916	20.4413
499.809	23.6909
502.702	20.4533
505.595	20.2155
508.487	20.5286
511.38	20.6938
514.273	18.6348
517.165	17.6024
520.058	18.5915
522.951	17.6899
525.844	18.425
528.736	18.1544
531.629	20.4129
534.522	20.9171
537.414	21.5747
540.307	17.3565
543.2	14.8945
546.092	12.1846
548.985	9.52458
551.878	6.44438
554.771	4.34273
557.663	4.44656
560.556	2.0099
563.449	3.33087
566.341	0.776276
569.234	0.44458
572.127	0.759598
575.019	2.23033
577.912	2.06973
580.805	0.628143
583.697	0.587952
586.59	0.548965
589.483	0.862396
592.376	1.17647
595.268	0.746902
598.161	0.986099
601.054	0.627563
603.946	0.591034
606.839	0.808105
609.732	0.464142
612.625	1.46658
615.517	0.448975
618.41	2.29942
621.303	1.24661
624.195	3.56731
627.088	5.10498
629.981	8.4848
632.873	13.5356
635.766	17.2225
638.659	20.1802
641.552	23.36
644.444	25.9643
647.337	28.8832
650.23	31.2191
653.122	30.0474
656.015	27.3394
658.908	23.95
661.8	22.2447
664.693	20.4346
667.586	20.565
670.479	21.3297
673.371	20.1872
676.264	20.7452
679.157	21.8583
682.049	23.1022
684.942	26.5067
687.835	30.8199
690.727	37.5812
693.62	43.4714
696.513	48.9081
699.405	49.4749
702.298	47.0742
705.191	40.4639
708.084	33.0823
710.976	23.6836
713.869	15.0119
716.762	9.78178
719.654	4.83382
722.547	2.66997
725.44	1.94977
728.332	2.02501
731.225	2.32936
734.118	2.45775
737.011	2.7233
739.903	2.0348
742.796	2.26356
745.689	2.252
748.581	1.66351
751.474	2.81996
754.367	0.302017
757.26	0.378662
760.152	1.09099
763.045	1.53851
765.938	0.551071
768.83	0.112335
771.723	1.77982
774.616	2.18282
777.508	4.30838
780.401	5.20552
783.294	5.91353
786.187	5.77721
789.079	3.80855
791.972	3.56082
794.865	2.81335
797.757	0.951355
800.65	0.185089
803.543	1.57315
806.435	0.990601
809.328	3.1972
812.221	2.32529
815.114	1.81007
818.006	2.56751
820.899	1.63574
823.792	1.04115
826.684	0.718613
829.577	0.249466
832.47	0.735352
835.362	0.601852
838.255	0.362335
841.148	0.377167
844.04	0.64447
846.933	3.21791
849.826	2.97734
852.719	2.13162
855.611	2.47803
858.504	2.54466
861.397	4.06877
864.289	3.17918
867.182	2.88478
870.075	1.01887
872.967	2.151
875.86	2.94954
878.753	2.13887
881.646	1.50842
884.538	1.3519
887.431	1.48148
890.324	1.94443
893.216	1.15607
896.109	1.33148
899.002	0.475708
901.894	0.616074
904.787	0.234772
907.68	0.065735
910.573	1.45575
913.465	0.81044
916.358	0.306625
919.251	0.493454
922.143	0.797302
925.036	0.704086
927.929	0.100037
930.822	0.111755
933.714	0.511383
936.607	0.849213
939.5	0.943405
942.392	1.37462
945.285	1.63484
948.178	1.53873
951.07	0.403442
953.963	5.04362
956.856	2.30222
959.749	3.28651
962.641	3.94612
965.534	4.84953
968.427	5.04718
971.319	5.91106
974.212	5.04034
977.105	5.03516
979.997	5.83615
982.89	5.80013
985.783	6.34387
988.676	6.72549
991.568	8.70984
994.461	10.1846
997.354	11.4177
1000.25	13.5196
1003.14	14.4194
1006.03	15.6401
1008.92	19.6135
1011.82	20.8468
1014.71	21.607
1017.6	20.8386
1020.5	20.6629
1023.39	19.7732
1026.28	18.8119
1029.17	12.903
1032.07	14.9609
1034.96	12.8007
1037.85	12.2931
1040.74	7.74144
1043.64	8.49023
1046.53	9.06249
1049.42	7.6687
1052.32	7.94482
1055.21	8.61325
1058.1	11.4586
1060.99	9.78885
1063.89	10.1875
1066.78	8.90726
1069.67	7.24182
1072.56	6.29698
1075.46	5.49475
1078.35	5.1447
1081.24	2.14101
1084.13	0.823547
1087.03	1.42751
1089.92	0.457352
1092.81	0.206696
1095.7	0.549454
1098.6	1.85062
1101.49	0.182205
1104.38	1.19086
1107.28	1.40183
1110.17	1.32899
1113.06	1.31439
1115.95	0.7883
1118.85	1.0506
1121.74	0.238358
1124.63	0.58522
1127.53	1.39531
1130.42	0.324249
1133.31	1.6302
1136.2	0.628525
1139.1	1.76735
1141.99	1.33479
1144.88	0.856873
1147.77	0.829514
1150.67	2.37489
1153.56	0.194351
1156.45	1.65034
1159.35	1.58865
1162.24	1.38562
1165.13	2.58212
1168.02	2.97078
1170.92	0.725494
1173.81	2.85835
1176.7	2.92154
1179.59	3.86273
1182.49	3.48891
1185.38	3.89674
1188.27	3.03279
1191.16	2.70081
1194.06	1.71629
1196.95	1.56262
1199.84	1.38599
1202.73	1.71425
1205.63	2.44038
1208.52	2.26062
1211.41	2.82625
1214.31	2.97981
1217.2	1.685
1220.09	3.0665
1222.98	2.52567
1225.88	2.80173
1228.77	3.64362
1231.66	3.31065
1234.56	3.47315
1237.45	1.78908
1240.34	1.9241
1243.23	1.39117
1246.13	2.65193
1249.02	3.29593
1251.91	3.23543
1254.8	2.61104
1257.7	3.05244
1260.59	3.16215
1263.48	1.33472
1266.38	2.6404
1269.27	1.10388
1272.16	0.497757
1275.05	2.39998
1277.95	1.3
1280.84	1.18657
1283.73	2.12271
1286.62	1.43379
1289.52	1.9111
1292.41	1.75117
1295.3	2.15305
1298.19	2.07604
1301.09	0.624847
