Measurement: Raman, 780 nm, unoriented, Raman Data Processed
Mineral: Tourmaline
Rruff sample: R110131
Locality: Bald Hornet area, King County, Washington, USA
Source: Bart Cannon
Description: Green acicular crystals associated with quartz, supposed to be the new mineral luinaite
Raman shift (cm-1)	intensity
158.618	0
161.51	0.933517
164.403	1.13632
167.296	2.23694
170.189	0.93457
173.081	1.98801
175.974	1.3927
178.867	0.027084
181.759	1.60976
184.652	3.03126
187.545	4.45364
190.437	7.36353
193.33	12.0176
196.223	17.9735
199.115	28.0443
202.008	37.1693
204.901	48.2877
207.794	59.0682
210.686	71.2195
213.579	80.3767
216.472	92.6906
219.364	97.4963
222.257	96.9323
225.15	93.3036
228.042	86.9039
230.935	81.4232
233.828	77.6035
236.721	77.9318
239.613	72.2284
242.506	67.9411
245.399	54.6307
248.291	48.9604
251.184	40.2571
254.077	36.9623
256.969	35.3057
259.862	38.28
262.755	34.275
265.648	32.4693
268.54	31.0479
271.433	27.6922
274.326	21.9474
277.218	17.877
280.111	11.7235
283.004	7.44783
285.897	2.33412
288.789	0.60701
291.682	1.84296
294.575	1.04134
297.467	0.476685
300.36	1.56583
303.253	4.07045
306.145	7.86133
309.038	11.6726
311.931	14.7242
314.824	16.1165
317.716	11.5572
320.609	6.37512
323.502	4.27403
326.394	1.61262
329.287	0.139664
332.18	3.27695
335.072	7.09119
337.965	9.28667
340.858	17.5564
343.75	26.6431
346.643	35.3223
349.536	48.4373
352.429	60.9462
355.321	75.6295
358.214	88.7013
361.107	97.5439
364	100.691
366.892	91.0612
369.785	75.3102
372.678	60.1373
375.57	43.4632
378.463	33.1003
381.356	27.3888
384.248	20.7971
387.141	18.8294
390.034	17.0382
392.926	13.4484
395.819	14.114
398.712	14.4829
401.605	9.93617
404.497	8.94746
407.39	8.65036
410.283	8.01494
413.175	8.42003
416.068	5.98883
418.961	4.33917
421.853	7.85638
424.746	4.07465
427.639	1.50864
430.532	0.44545
433.424	0.06134
436.317	0.316208
439.21	0.932068
442.102	1.16696
444.995	0.941315
447.888	0.200882
450.781	0.695633
453.673	0.430527
456.566	0.680557
459.459	0.459
462.351	1.22293
465.244	3.70921
468.137	1.78407
471.029	3.53159
473.922	6.19473
476.815	2.85729
479.707	6.54088
482.6	8.72746
485.493	9.52087
488.386	10.4894
491.278	15.2354
494.171	18.2279
497.064	19.6284
499.956	20.6705
502.849	21.9974
505.742	21.7265
508.635	20.8569
511.527	22.7954
514.42	21.6934
517.313	22.9694
520.205	20.1052
523.098	21.0516
525.991	17.8253
528.883	20.2868
531.776	21.2631
534.669	20.4757
537.562	19.1704
540.454	17.7421
543.347	16.5303
546.24	12.2775
549.132	8.94037
552.025	6.41498
554.918	7.95241
557.81	5.16705
560.703	4.29713
563.596	3.89474
566.489	1.29329
569.381	1.55943
572.274	0.781136
575.167	1.18728
578.059	1.59096
580.952	1.45754
583.845	0.612
586.737	1.29952
589.63	1.48593
592.523	0.88987
595.415	0.403481
598.308	0.136238
601.201	1.08353
604.094	0.974701
606.986	2.16399
609.879	2.89384
612.772	1.12898
615.664	1.82598
618.557	3.10813
621.45	3.95873
624.342	3.36641
627.235	5.61181
630.128	8.89876
633.021	7.30841
635.913	12.0539
638.806	12.5961
641.699	15.1906
644.591	15.1412
647.484	15.0976
650.377	16.9196
653.269	17.5024
656.162	16.4784
659.055	13.2702
661.948	12.2542
664.84	9.20493
667.733	10.8135
670.626	11.4292
673.518	8.97266
676.411	9.51746
679.304	11.5614
682.197	11.6147
685.089	13.2217
687.982	15.2132
690.875	21.5075
693.767	23.919
696.66	29.1554
699.553	33.9038
702.445	35.9592
705.338	36.607
708.231	35.9363
711.124	29.6824
714.016	23.3167
716.909	19.1663
719.802	14.9072
722.694	10.864
725.587	7.4005
728.48	5.54166
731.372	6.26079
734.265	6.00039
737.158	5.3764
740.051	4.13512
742.943	4.94019
745.836	4.09499
748.729	4.91515
751.621	3.85532
754.514	4.18414
757.407	0.728432
760.299	0.150963
763.192	1.06328
766.085	0.858337
768.977	1.26949
771.87	1.38938
774.763	0.488434
777.656	0.342224
780.548	3.45477
783.441	2.40412
786.334	0.234581
789.226	0.670731
792.119	2.46809
795.012	1.94152
797.904	0.212456
800.797	2.15473
803.69	0.166374
806.583	3.41229
809.475	2.85841
812.368	3.4069
815.261	4.28451
818.153	5.61877
821.046	2.84865
823.939	4.70194
826.832	3.50432
829.724	3.10052
832.617	4.43736
835.51	3.82946
838.402	4.88925
841.295	3.95485
844.188	3.68706
847.08	4.11921
849.973	4.58822
852.866	4.44054
855.759	4.59407
858.651	3.27958
861.544	5.47793
864.437	3.3918
867.329	3.44471
870.222	4.07608
873.115	4.40808
876.007	3.33477
878.9	2.06422
881.793	2.7514
884.686	1.23198
887.578	2.07707
890.471	0.520432
893.364	2.74984
896.256	1.23319
899.149	1.347
902.042	0.343552
904.934	0.936447
907.827	0.11438
910.72	0.259216
913.612	0.909569
916.505	0.536148
919.398	1.64372
922.291	0.240402
925.183	0.416527
928.076	0.870377
930.969	0.779747
933.861	2.79857
936.754	0.664917
939.647	0.767982
942.539	1.91155
945.432	0.71727
948.325	2.5088
951.218	0.008995
954.11	1.17728
957.003	0.1436
959.896	3.87001
962.788	2.20721
965.681	3.08869
968.574	3.99091
971.466	3.08336
974.359	1.70124
977.252	3.51347
980.145	2.79951
983.037	4.29976
985.93	2.12357
988.823	4.06456
991.715	4.84177
994.608	4.73758
997.501	6.5453
1000.39	6.13351
1003.29	9.4494
1006.18	10.3398
1009.07	9.07642
1011.96	11.3809
1014.86	10.0432
1017.75	10.7004
1020.64	9.16863
1023.53	9.28706
1026.43	7.40007
1029.32	6.27513
1032.21	6.15272
1035.11	6.32032
1038	5.51511
1040.89	5.48478
1043.78	4.51879
1046.68	4.73759
1049.57	6.48061
1052.46	8.68498
1055.36	7.55544
1058.25	8.39972
1061.14	6.38625
1064.03	6.35649
1066.93	5.86993
1069.82	7.08328
1072.71	6.2039
1075.6	5.19669
1078.5	4.15138
1081.39	2.5994
1084.28	2.96751
1087.17	1.34535
1090.07	2.6963
1092.96	1.37106
1095.85	0.85434
1098.74	1.16293
1101.64	0.588692
1104.53	0.15892
1107.42	0.45047
1110.32	1.09471
1113.21	2.19501
1116.1	1.19851
1118.99	3.3081
1121.89	0.782997
1124.78	0.34639
1127.67	0.224289
1130.57	0.097122
1133.46	0.728828
1136.35	0.226501
1139.24	0.004257
1142.14	0.358017
1145.03	3.54718
1147.92	0.281693
1150.81	1.44839
1153.71	0.786469
1156.6	0.680733
1159.49	2.57654
1162.38	2.87299
1165.28	0.898781
1168.17	3.03051
1171.06	1.11457
1173.96	1.22915
1176.85	3.74709
1179.74	2.90414
1182.63	2.64909
1185.53	3.60304
1188.42	3.15427
1191.31	4.15196
1194.2	4.9102
1197.1	1.46224
1199.99	3.03944
1202.88	1.9499
1205.78	3.21257
1208.67	3.49345
1211.56	1.49857
1214.45	1.31943
1217.35	2.98411
1220.24	2.50365
1223.13	1.32072
1226.02	2.49791
1228.92	2.9726
1231.81	1.21368
1234.7	3.69901
1237.6	3.61422
1240.49	0.645302
1243.38	2.4609
1246.27	0.25341
1249.17	1.83089
1252.06	0.430504
1254.95	3.17337
1257.84	0.056435
1260.74	1.00999
1263.63	0.441032
1266.52	2.12315
1269.41	1.977
1272.31	1.07126
1275.2	0.731789
1278.09	1.06634
1280.98	0.993347
1283.88	3.5451
