Measurement: Raman, 532 nm, unoriented, Raman Data Processed
Mineral: Tourmaline
Rruff sample: R110131
Locality: Bald Hornet area, King County, Washington, USA
Source: Bart Cannon
Description: Green acicular crystals associated with quartz, supposed to be the new mineral luinaite
Raman shift (cm-1)	intensity
171.006	0
173.898	2.32951
176.791	11.8735
179.684	16.3597
182.577	19.2052
185.469	21.2601
188.362	22.823
191.255	23.426
194.147	29.0748
197.04	35.7653
199.933	46.4719
202.825	58.3923
205.718	68.9602
208.611	81.011
211.504	90.7281
214.396	100.847
217.289	107.386
220.182	110.231
223.074	108.271
225.967	103.696
228.86	97.7415
231.752	92.7338
234.645	93.6425
237.538	88.4914
240.43	83.8823
243.323	65.2669
246.216	58.6598
249.109	47.3595
252.001	39.7043
254.894	36.879
257.787	38.7983
260.679	36.2233
263.572	35.6636
266.465	31.5032
269.358	27.7643
272.25	23.9676
275.143	19.602
278.036	15.2308
280.928	7.46651
283.821	1.2639
286.714	1.34393
289.606	3.72719
292.499	4.06043
295.392	3.95343
298.284	0.735397
301.177	3.5006
304.07	7.463
306.963	12.047
309.855	15.0372
312.748	17.5342
315.641	12.5759
318.533	11.4299
321.426	10.8386
324.319	6.75291
327.212	5.65375
330.104	10.3231
332.997	12.0453
335.89	17.945
338.782	23.8614
341.675	32.6998
344.568	42.2699
347.46	51.2022
350.353	66.1025
353.246	81.8072
356.139	96.5946
359.031	113.536
361.924	119.609
364.817	117.311
367.709	103.997
370.602	82.0709
373.495	66.4651
376.387	50.0757
379.28	39.06
382.173	31.9994
385.065	27.5889
387.958	24.537
390.851	21.0895
393.744	18.3313
396.636	16.985
399.529	17.0478
402.422	14.6435
405.314	13.9531
408.207	11.6877
411.1	12.0662
413.993	8.40636
416.885	7.17424
419.778	7.06981
422.671	4.9267
425.563	3.76448
428.456	1.12158
431.349	0.306686
434.241	0.655243
437.134	0.578255
440.027	0.14856
442.92	2.43706
445.812	1.74686
448.705	1.61118
451.598	0.081894
454.49	1.30992
457.383	1.69303
460.276	2.61353
463.168	2.02567
466.061	2.7477
468.954	2.21685
471.846	4.45668
474.739	6.40111
477.632	5.91406
480.525	10.3579
483.417	13.1263
486.31	14.8788
489.203	20.6236
492.095	23.4502
494.988	25.2611
497.881	26.3037
500.774	26.0204
503.666	27.9068
506.559	25.2005
509.452	23.6696
512.344	23.6035
515.237	21.4678
518.13	22.0756
521.022	20.106
523.915	21.2353
526.808	20.1039
529.701	23.6263
532.593	25.8062
535.486	24.1387
538.379	22.0618
541.271	20.717
544.164	17.6389
547.057	13.9541
549.949	9.62357
552.842	7.81805
555.735	6.47744
558.628	6.68906
561.52	5.33309
564.413	4.53718
567.306	2.99658
570.198	2.28814
573.091	1.81413
575.984	2.32903
578.876	0.366837
581.769	2.28923
584.662	0.692009
587.554	0.498062
590.447	2.74735
593.34	1.17489
596.232	2.26472
599.125	0.359924
602.018	0.289597
604.911	0.720787
607.803	0.567436
610.696	0.162003
613.589	0.486343
616.481	1.03138
619.374	0.10907
622.267	0.530266
625.159	0.19017
628.052	1.34064
630.945	1.06503
633.838	3.11656
636.73	3.44538
639.623	5.64919
642.516	9.03651
645.408	10.8794
648.301	11.5659
651.194	12.8481
654.087	14.3991
656.979	13.1789
659.872	10.4565
662.765	10.5361
665.657	7.46674
668.55	8.92748
671.443	8.39293
674.335	7.49417
677.228	6.62837
680.121	5.89565
683.014	7.42656
685.906	9.61369
688.799	13.7648
691.692	18.688
694.584	27.9511
697.477	35.036
700.37	40.3007
703.263	43.1817
706.155	44.4622
709.048	40.25
711.941	36.0635
714.833	24.5389
717.726	18.6571
720.619	12.4807
723.511	8.20982
726.404	4.44289
729.297	3.2319
732.189	0.831177
735.082	1.96698
737.975	3.24112
740.868	2.01454
743.76	3.83174
746.653	3.50868
749.546	2.38957
752.438	4.79567
755.331	3.15474
758.224	3.33803
761.116	2.03117
764.009	2.95619
766.902	4.51466
769.795	5.97129
772.687	7.60175
775.58	9.28941
778.473	10.7192
781.365	12.1536
784.258	11.8603
787.151	12.6749
790.043	7.91158
792.936	5.99509
795.829	4.30861
798.722	3.92007
801.614	0.782417
804.507	2.82918
807.4	1.97431
810.292	3.8195
813.185	2.7184
816.078	2.93343
818.971	1.41184
821.863	0.167862
824.756	0.112274
827.649	0.5224
830.541	1.4067
833.434	1.15454
836.327	1.12345
839.219	0.38681
842.112	0.257729
845.005	1.18934
847.898	0.122086
850.79	0.718056
853.683	1.36887
856.576	2.74032
859.468	2.87338
862.361	3.47352
865.254	2.09473
868.146	3.1703
871.039	1.00185
873.932	2.28735
876.824	4.07548
879.717	1.44866
882.61	1.15492
885.503	0.356728
888.395	1.05599
891.288	0.839615
894.181	0.295441
897.073	0.552216
899.966	0.764221
902.859	0.325256
905.751	1.38686
908.644	0.414474
911.537	0.454628
914.43	0.20874
917.322	0.598793
920.215	2.11098
923.108	0.691704
926	1.13989
928.893	1.11284
931.786	0.059807
934.678	1.60337
937.571	1.16676
940.464	0.218719
943.357	0.043266
946.249	0.901405
949.142	1.14541
952.035	1.84197
954.927	1.40815
957.82	0.091484
960.713	2.98949
963.606	3.85667
966.498	2.12019
969.391	5.83478
972.284	5.61604
975.176	2.82636
978.069	3.30374
980.962	2.75986
983.854	2.30777
986.747	4.9073
989.64	4.55802
992.533	3.32659
995.425	2.65196
998.318	3.91721
1001.21	5.97425
1004.1	4.92928
1007	7.50237
1009.89	8.72317
1012.78	10.5164
1015.67	11.4331
1018.57	10.273
1021.46	11.8343
1024.35	8.171
1027.24	8.22832
1030.14	6.96697
1033.03	7.07635
1035.92	6.15448
1038.82	6.36557
1041.71	6.06175
1044.6	5.07129
1047.49	6.6763
1050.39	8.9978
1053.28	9.41911
1056.17	10.801
1059.07	10.984
1061.96	11.9264
1064.85	13.2201
1067.74	12.1089
1070.63	11.5542
1073.53	7.93079
1076.42	7.27488
1079.31	5.95282
1082.21	2.59415
1085.1	1.44209
1087.99	1.09831
1090.88	2.05504
1093.78	2.03503
1096.67	0.061821
1099.56	0.473152
1102.45	2.5927
1105.35	2.37798
1108.24	1.28404
1111.13	2.80834
1114.03	2.7508
1116.92	0.650429
1119.81	1.33263
1122.7	1.17345
1125.6	1.03597
1128.49	0.448235
1131.38	2.3751
1134.28	0.268654
1137.17	0.078079
1140.06	1.39904
1142.95	0.135193
1145.85	0.84948
1148.74	1.60663
1151.63	0.594627
1154.52	0.194244
1157.42	1.27806
1160.31	0.455246
1163.2	0.913582
1166.09	0.957199
1168.99	0.86396
1171.88	3.60715
1174.77	0.117584
1177.66	2.93525
1180.56	1.94086
1183.45	1.67623
1186.34	4.09116
1189.24	3.45233
1192.13	3.01772
1195.02	4.47003
1197.91	3.72913
1200.81	3.50116
1203.7	3.64786
1206.59	3.94257
1209.48	2.81167
1212.38	2.71191
1215.27	3.22614
1218.16	2.82843
1221.06	3.44515
1223.95	4.02335
1226.84	3.04062
1229.73	3.41505
1232.63	4.39357
1235.52	4.23949
1238.41	4.25003
1241.31	4.93365
1244.2	4.66917
1247.09	3.50012
1249.98	5.61742
1252.88	4.03046
1255.77	3.40717
1258.66	4.76419
1261.55	2.53545
1264.45	3.73724
1267.34	2.94907
1270.23	4.12679
1273.12	1.41767
1276.02	1.12546
1278.91	0.797943
1281.8	1.92209
1284.69	2.29459
1287.59	1.86513
1290.48	1.1824
1293.37	0.07856
1296.27	2.91631
1299.16	1.22511
1302.05	1.65789
