Measurement: Raman, 532 nm, unoriented, Raman Data Processed
Mineral: Tourmaline
Rruff sample: R110133
Locality: Crystal Palace, King County, Washington, USA
Source: Bart Cannon
Description: Masses of green acicular crystals associated with quartz
Raman shift (cm-1)	intensity
187.398	0
190.29	0.448006
193.183	4.78413
196.076	12.0138
198.968	24.5275
201.861	39.3511
204.754	50.6535
207.647	68.9201
210.539	82.1049
213.432	92.9843
216.325	99.0667
219.217	103.619
222.11	103.324
225.003	93.114
227.895	89.1283
230.788	84.7538
233.681	81.3108
236.573	78.4942
239.466	76.1274
242.359	63.7871
245.252	51.7397
248.144	43.3886
251.037	35.8355
253.93	34.7982
256.822	36.5231
259.715	31.9105
262.608	31.4941
265.5	29.5851
268.393	26.5392
271.286	20.5258
274.179	18.2053
277.071	13.4685
279.964	8.34217
282.857	2.82143
285.75	1.09172
288.642	3.03761
291.535	3.49533
294.428	1.77653
297.32	0.87664
300.213	3.73294
303.106	6.80595
305.998	9.67812
308.891	14.9407
311.784	14.6188
314.676	13.0784
317.569	10.0283
320.462	3.96568
323.355	0.748596
326.247	1.0114
329.14	1.48002
332.033	5.71409
334.925	11.0416
337.818	17.5351
340.711	30.0912
343.603	42.7099
346.496	58.4944
349.389	74.7354
352.281	96.376
355.174	114.015
358.067	125.844
360.96	129.827
363.852	119.997
366.745	99.7233
369.638	78.5996
372.53	60.5243
375.423	48.6123
378.316	38.2753
381.209	30.0511
384.101	25.3173
386.994	23.0424
389.887	19.5387
392.779	17.815
395.672	14.5831
398.565	16.1039
401.457	13.2382
404.35	11.6759
407.243	10.4639
410.135	10.0043
413.028	7.70876
415.921	7.45535
418.814	6.75926
421.706	1.89612
424.599	1.97691
427.492	0.94548
430.384	1.10681
433.277	1.05008
436.17	1.32118
439.062	1.42646
441.955	1.14252
444.848	0.609695
447.741	0.206215
450.633	0.14521
453.526	1.33604
456.419	1.60721
459.311	2.70003
462.204	1.59273
465.097	1.0176
467.99	0.039421
470.882	1.33544
473.775	0.967125
476.668	3.9812
479.56	4.92847
482.453	8.14534
485.346	13.1634
488.238	15.3877
491.131	17.6859
494.024	19.8753
496.916	20.4338
499.809	24.864
502.702	23.6088
505.595	22.4436
508.487	21.6659
511.38	21.9736
514.273	21.1347
517.165	20.1495
520.058	20.2684
522.951	19.6043
525.844	21.223
528.736	21.7229
531.629	24.2463
534.522	23.7982
537.414	23.6446
540.307	19.016
543.2	16.3684
546.092	12.565
548.985	7.95451
551.878	6.86254
554.771	4.47222
557.663	4.22967
560.556	1.39319
563.449	1.27627
566.341	0.070351
569.234	0.067726
572.127	0.251503
575.019	0.303326
577.912	0.85247
580.805	0.098392
583.697	0.747051
586.59	0.473938
589.483	1.09585
592.376	0.367603
595.268	0.864574
598.161	0.880344
601.054	0.354019
603.946	0.591923
606.839	0.584873
609.732	0.832088
612.625	0.93428
615.517	0.293072
618.41	0.683197
621.303	1.88695
624.195	3.90084
627.088	4.94299
629.981	8.45533
632.873	12.9077
635.766	16.9066
638.659	21.1093
641.552	23.9356
644.444	27.6778
647.337	28.6709
650.23	30.5585
653.122	30.0475
656.015	29.5676
658.908	24.498
661.8	22.9047
664.693	21.6776
667.586	21.927
670.479	22.1069
673.371	20.6896
676.264	22.0444
679.157	23.0803
682.049	23.721
684.942	27.9317
687.835	32.6715
690.727	39.4201
693.62	45.8727
696.513	52.7223
699.405	55.9083
702.298	56.2704
705.191	51.1663
708.084	43.2673
710.976	34.986
713.869	23.3962
716.762	17.3811
719.654	12.1158
722.547	9.12217
725.44	7.95801
728.332	4.66754
731.225	5.88253
734.118	4.98575
737.011	4.96313
739.903	4.32893
742.796	5.3656
745.689	2.97655
748.581	2.68547
751.474	1.95793
754.367	0.067093
757.26	0.268707
760.152	2.0911
763.045	0.832745
765.938	0.082138
768.83	0.584972
771.723	0.052498
774.616	0.738804
777.508	2.84592
780.401	3.51097
783.294	2.6594
786.187	2.83323
789.079	1.55249
791.972	1.48302
794.865	1.24918
797.757	0.085163
800.65	0.643124
803.543	0.224754
806.435	1.48201
809.328	2.69386
812.221	2.15828
815.114	2.02231
818.006	2.28333
820.899	1.44358
823.792	1.63237
826.684	1.40773
829.577	1.62413
832.47	1.44514
835.362	1.04396
838.255	0.93903
841.148	1.81516
844.04	1.97871
846.933	3.14203
849.826	2.76954
852.719	3.13533
855.611	4.00393
858.504	3.94247
861.397	3.85577
864.289	3.05616
867.182	2.92124
870.075	3.14723
872.967	1.9978
875.86	3.32843
878.753	3.93785
881.646	1.79997
884.538	1.14256
887.431	1.33315
890.324	0.977764
893.216	1.34624
896.109	1.15757
899.002	0.001442
901.894	0.563221
904.787	1.02409
907.68	0.566044
910.573	1.3236
913.465	0.400589
916.358	0.672108
919.251	0.368008
922.143	0.22578
925.036	0.481567
927.929	0.196842
930.822	0.360649
933.714	0.327095
936.607	0.703548
939.5	1.16265
942.392	0.549934
945.285	0.996147
948.178	0.891571
951.07	0.187599
953.963	1.72813
956.856	1.97609
959.749	2.63365
962.641	3.73387
965.534	2.98133
968.427	2.64358
971.319	3.09723
974.212	2.27119
977.105	4.08631
979.997	3.5788
982.89	4.67395
985.783	5.28385
988.676	6.73873
991.568	7.19968
994.461	9.5057
997.354	12.0717
1000.25	13.4597
1003.14	15.8207
1006.03	18.2714
1008.92	20.3673
1011.82	21.8016
1014.71	22.8799
1017.6	22.2731
1020.5	21.4531
1023.39	20.0145
1026.28	16.9666
1029.17	14.4323
1032.07	15.4192
1034.96	13.198
1037.85	11.5129
1040.74	9.10108
1043.64	8.7743
1046.53	9.26444
1049.42	8.75459
1052.32	10.3424
1055.21	9.66778
1058.1	11.381
1060.99	12.615
1063.89	12.2937
1066.78	9.97486
1069.67	8.71287
1072.56	7.36712
1075.46	7.51455
1078.35	6.00761
1081.24	3.69056
1084.13	2.02871
1087.03	2.68104
1089.92	1.09329
1092.81	0.773777
1095.7	0.151104
1098.6	1.863
1101.49	0.307388
1104.38	0.931587
1107.28	0.480961
1110.17	0.726097
1113.06	0.916573
1115.95	0.148233
1118.85	0.753244
1121.74	0.629631
1124.63	0.179411
1127.53	0.531645
1130.42	0.05641
1133.31	0.659971
1136.2	0.17795
1139.1	0.150419
1141.99	1.36316
1144.88	1.34371
1147.77	0.02422
1150.67	1.73004
1153.56	0.117863
1156.45	1.58735
1159.35	1.15909
1162.24	1.89772
1165.13	1.66382
1168.02	1.58408
1170.92	1.19976
1173.81	1.01356
1176.7	2.54824
1179.59	2.53121
1182.49	2.25665
1185.38	3.49888
1188.27	3.00672
1191.16	2.46969
1194.06	2.01197
1196.95	1.47959
1199.84	1.04202
1202.73	1.91776
1205.63	2.85816
1208.52	1.39675
1211.41	0.941107
1214.31	1.54941
1217.2	1.91441
1220.09	1.96182
1222.98	2.07683
1225.88	2.23293
1228.77	1.18677
1231.66	1.3204
1234.56	2.71734
1237.45	1.67348
1240.34	1.65763
1243.23	1.1498
1246.13	2.36639
1249.02	2.35834
1251.91	1.7479
1254.8	2.83565
1257.7	1.8516
1260.59	2.04909
1263.48	1.42805
1266.38	2.57409
1269.27	1.64623
1272.16	0.536108
1275.05	2.11551
1277.95	1.19342
1280.84	0.462475
1283.73	1.31742
1286.62	1.06579
1289.52	2.23305
1292.41	1.23934
1295.3	1.67001
1298.19	2.53496
1301.09	0.802738
