Measurement: Raman, 532 nm, unoriented, Raman Data Processed
Mineral: Tourmaline
Rruff sample: R060123
Locality: San Bernardino County, California, USA
Source: University of Arizona Mineral Museum
Description: Dark green prismatic crystals
Raman shift (cm-1)	intensity
128.531	0
131.906	9.92871
135.281	19.196
138.656	35.0259
142.03	48.6444
145.405	46.2642
148.78	30.9252
152.155	26.1899
155.53	21.8151
158.905	14.0693
162.279	8.75714
165.654	5.62756
169.029	0.051727
172.404	1.8884
175.779	0.05838
179.153	1.17218
182.528	1.08511
185.903	2.29059
189.278	7.1655
192.653	15.6737
196.028	24.8857
199.402	37.6012
202.777	62.1932
206.152	72.5609
209.527	96.9151
212.902	131.893
216.276	153.151
219.651	142.784
223.026	120.277
226.401	103.641
229.776	111.85
233.15	124.206
236.525	149.113
239.9	167.849
243.275	136.271
246.65	89.1739
250.025	50.7704
253.399	28.4332
256.774	18.4467
260.149	12.4724
263.524	10.4631
266.899	10.0757
270.273	8.44745
273.648	5.95172
277.023	6.62799
280.398	6.19064
283.773	6.88705
287.147	6.65698
290.522	5.26535
293.897	1.53238
297.272	0.642853
300.647	1.92529
304.022	2.72354
307.396	2.56229
310.771	0.776154
314.146	1.6264
317.521	2.08279
320.896	2.92999
324.271	0.504547
327.645	3.51059
331.02	7.02225
334.395	15.1195
337.77	25.6876
341.145	45.7519
344.519	64.1753
347.894	87.3501
351.269	110.033
354.644	129.242
358.019	130.306
361.394	116.991
364.768	86.7672
368.143	60.7947
371.518	39.941
374.893	27.0531
378.267	23.6995
381.642	14.3812
385.017	9.10016
388.392	7.16714
391.767	6.99149
395.142	10.3235
398.516	7.58261
401.891	5.03204
405.266	8.44269
408.641	7.53851
412.016	7.08334
415.39	7.51361
418.765	8.29517
422.14	8.56436
425.515	5.90857
428.89	1.91522
432.265	0.228729
435.639	0.773224
439.014	1.03308
442.389	3.18527
445.764	2.647
449.139	3.33801
452.514	6.04831
455.888	9.38382
459.263	13.3169
462.638	15.7896
466.013	21.4015
469.388	23.2725
472.762	28.5491
476.137	30.6476
479.512	37.116
482.887	40.5637
486.262	51.1521
489.637	60.5222
493.011	68.0833
496.386	72.0357
499.761	65.647
503.136	55.7659
506.511	46.0781
509.885	42.7805
513.26	40.9373
516.635	42.1964
520.01	44.9874
523.385	50.9784
526.76	56.6933
530.134	59.9444
533.509	61.7323
536.884	57.068
540.259	46.3149
543.634	38.3041
547.008	28.5108
550.383	23.2586
553.758	16.6627
557.133	13.2381
560.508	7.23715
563.882	2.96414
567.257	4.11514
570.632	3.17059
574.007	1.29584
577.382	2.02618
580.756	1.66458
584.131	0.249512
587.506	1.59244
590.881	3.45789
594.256	4.07373
597.631	3.91827
601.005	2.85828
604.38	4.78238
607.755	5.80453
611.13	8.62247
614.505	7.2782
617.88	7.29214
621.254	5.46628
624.629	4.9017
628.004	4.71201
631.379	4.00269
634.754	1.70746
638.128	0.74057
641.503	0.481598
644.878	2.77158
648.253	1.28412
651.628	4.46213
655.002	10.887
658.377	11.6972
661.752	14.312
665.127	16.3275
668.502	19.2483
671.876	22.1123
675.251	26.2674
678.626	27.7868
682.001	33.3475
685.376	37.7835
688.751	45.284
692.125	52.7573
695.5	63.2548
698.875	76.0226
702.25	79.7539
705.625	80.5934
709	63.4654
712.374	45.3339
715.749	32.0026
719.124	20.5444
722.499	15.7754
725.874	10.9717
729.248	6.81308
732.623	8.15677
735.998	7.44659
739.373	3.16385
742.748	4.73419
746.122	2.74283
749.497	1.86282
752.872	1.58838
756.247	1.99911
759.622	1.41443
762.997	1.24881
766.371	0.279633
769.746	0.295258
773.121	0.441559
776.496	0.447235
779.871	0.899139
783.245	0.175903
786.62	0.251587
789.995	1.90134
793.37	4.17688
796.745	5.9541
800.12	6.68961
803.494	4.89856
806.869	6.96106
810.244	5.46762
813.619	8.07495
816.994	7.15695
820.368	7.86499
823.743	4.61578
827.118	8.26483
830.493	6.67539
833.868	4.21677
837.242	2.35171
840.617	3.83194
843.992	3.35339
847.367	5.39304
850.742	6.75061
854.117	4.54001
857.491	5.82999
860.866	5.36343
864.241	5.38495
867.616	5.22058
870.991	5.53888
874.365	3.01446
877.74	2.50024
881.115	3.2948
884.49	0.202026
887.865	1.52564
891.24	0.07547
894.614	0.164886
897.989	0.603241
901.364	0.82077
904.739	0.651337
908.114	0.032898
911.489	0.992096
914.863	0.424255
918.238	3.96509
921.613	2.46384
924.988	3.89902
928.362	2.08112
931.737	3.22354
935.112	2.40778
938.487	2.62979
941.862	3.07886
945.237	2.93079
948.611	3.16248
951.986	1.13107
955.361	0.206146
958.736	1.60068
962.111	1.51502
965.486	1.98364
968.86	0.723724
972.235	0.65921
975.61	2.71799
978.985	1.34912
982.36	2.03607
985.734	1.44528
989.109	3.39362
992.484	1.07999
995.859	2.63736
999.234	2.39594
1002.61	2.5228
1005.98	5.19574
1009.36	2.91626
1012.73	2.34103
1016.11	5.00601
1019.48	3.45996
1022.86	3.72974
1026.23	4.77325
1029.61	3.51157
1032.98	4.31967
1036.36	3.72732
1039.73	4.6124
1043.11	3.90991
1046.48	7.76502
1049.86	8.89783
1053.23	8.48596
1056.61	10.4069
1059.98	12.0393
1063.36	13.4331
1066.73	12.6574
1070.11	13.4014
1073.48	11.0236
1076.85	6.43918
1080.23	6.45116
1083.6	0.427139
1086.98	1.31168
1090.35	0.016693
1093.73	1.22917
1097.1	0.729187
1100.48	2.61107
1103.85	1.47382
1107.23	1.05287
1110.6	2.29588
1113.98	0.995941
1117.35	0.756256
1120.73	0.069595
1124.1	1.24983
1127.48	4.22195
1130.85	1.61902
1134.23	1.20373
1137.6	0.409958
1140.98	0.637695
1144.35	0.345062
1147.73	0.961319
1151.1	1.43167
1154.47	2.21953
1157.85	2.44171
1161.22	2.11159
1164.6	2.71526
1167.97	0.12352
1171.35	0.759521
1174.72	0.569183
1178.1	0.91568
1181.47	0.841476
1184.85	1.75107
1188.22	0.040527
1191.6	0.573212
1194.97	0.607437
1198.35	2.5125
1201.72	1.50586
1205.1	0.708267
1208.47	1.93219
1211.85	3.65736
1215.22	3.13657
1218.6	3.26668
1221.97	3.66435
1225.35	4.65079
1228.72	6.08139
1232.1	5.56509
1235.47	6.33936
1238.85	5.67299
1242.22	6.53366
1245.6	6.25433
1248.97	4.73436
1252.35	4.92094
1255.72	3.95001
1259.09	4.8748
1262.47	4.59805
1265.84	3.18095
1269.22	3.6602
1272.59	4.86694
1275.97	3.51021
1279.34	4.28897
1282.72	3.36623
1286.09	3.01996
1289.47	2.17909
1292.84	2.64243
1296.22	1.59807
1299.59	1.75876
1302.97	0.001068
