Measurement: Raman, 532 nm, unoriented, Raman Data Processed
Mineral: Tourmaline
Rruff sample: R070563
Locality: unknown
Source: Gemological Institute of America
Description: White portion of a zoned watermelon tourmaline slice, see also R060566 (pink) and R070564 (green)
Raman shift (cm-1)	intensity
133.434	0
136.809	8.54118
140.184	12.3368
143.559	12.6129
146.933	18.7689
150.308	25.0231
153.683	25.843
157.058	6.59108
160.433	1.26228
163.807	2.33516
167.182	3.68933
170.557	8.28346
173.932	18.3438
177.307	18.9334
180.681	4.65581
184.056	4.38872
187.431	5.03787
190.806	26.7483
194.181	43.0924
197.556	60.1686
200.93	91.284
204.305	135
207.68	194.721
211.055	274.734
214.43	396.534
217.804	548.232
221.179	684.719
224.554	624.278
227.929	460.974
231.304	352.24
234.679	303.269
238.053	308.023
241.428	325.594
244.803	334.804
248.178	303.683
251.553	249.154
254.928	216.084
258.302	195.108
261.677	181.989
265.052	188.448
268.427	195.212
271.802	191.675
275.176	165.958
278.551	136.713
281.926	101.168
285.301	68.5554
288.676	39.02
292.05	17.7301
295.425	6.28241
298.8	18.744
302.175	12.7683
305.55	0.707947
308.925	17.1306
312.299	40.0217
315.674	55.8127
319.049	62.7864
322.424	90.455
325.799	121.228
329.173	149.625
332.548	154.995
335.923	159.516
339.298	153.456
342.673	157.775
346.048	175.737
349.422	197.631
352.797	220.881
356.172	260.103
359.547	337.681
362.922	456.078
366.296	607.285
369.671	816.177
373.046	994.485
376.421	897.225
379.796	627.292
383.171	423.929
386.545	306.018
389.92	244.874
393.295	225.606
396.67	233.736
400.045	250.291
403.419	261.41
406.794	266.005
410.169	237.599
413.544	180.778
416.919	112.027
420.293	54.43
423.668	20.8288
427.043	2.23166
430.418	8.44119
433.793	4.76242
437.168	3.6218
440.542	12.6851
443.917	18.3352
447.292	22.1321
450.667	11.653
454.042	8.76773
457.416	1.46802
460.791	6.35446
464.166	4.98733
467.541	0.291809
470.916	0.349396
474.291	4.71976
477.665	11.2025
481.04	20.574
484.415	34.7144
487.79	47.0806
491.165	58.0984
494.539	70.6872
497.914	89.4906
501.289	104.747
504.664	131.037
508.039	148.001
511.413	160.403
514.788	161.493
518.163	147.152
521.538	125.187
524.913	101.692
528.288	92.0004
531.663	99.7225
535.037	109.897
538.412	120.093
541.787	112.155
545.162	95.4258
548.537	79.5595
551.911	65.7719
555.286	54.9699
558.661	45.4744
562.036	35.4992
565.411	27.7433
568.785	23.4042
572.16	14.9715
575.535	13.2731
578.91	13.6377
582.285	13.8038
585.659	13.0132
589.034	13.3538
592.409	14.2509
595.784	12.2101
599.159	4.68915
602.534	2.89186
605.908	3.27196
609.283	3.8898
612.658	4.95616
616.033	0.877884
619.408	0.508835
622.783	11.8841
626.157	24.2969
629.532	44.8865
632.907	72.8057
636.282	95.7385
639.657	113.141
643.031	108.22
646.406	80.8709
649.781	54.5608
653.156	39.7548
656.531	23.6726
659.905	12.5179
663.28	7.27283
666.655	0.663818
670.03	2.12701
673.405	0.412582
676.779	1.32559
680.154	3.9834
683.529	11.2642
686.904	23.4015
690.279	53.7747
693.654	86.7769
697.028	154.811
700.403	234.363
703.778	330.005
707.153	404.86
710.528	390.472
713.903	308.438
717.277	210.229
720.652	136.981
724.027	92.4604
727.402	77.3983
730.777	72.0508
734.151	86.7031
737.526	121.845
740.901	169.499
744.276	238.315
747.651	301.3
751.025	315.216
754.4	260.728
757.775	199.246
761.15	148.566
764.525	108.591
767.9	84.7426
771.274	75.2296
774.649	74.5928
778.024	66.8731
781.399	42.7686
784.774	20.4536
788.149	9.60875
791.523	5.54891
794.898	0.063942
798.273	1.61238
801.648	0.84552
805.023	3.51124
808.397	3.40042
811.772	0.194168
815.147	2.22036
818.522	7.13629
821.897	10.2506
825.271	19.3383
828.646	25.4413
832.021	30.839
835.396	33.2832
838.771	35.9604
842.146	34.9273
845.52	33.1212
848.895	35.8418
852.27	39.5984
855.645	49.8602
859.02	53.3079
862.394	58.774
865.769	62.8665
869.144	64.3891
872.519	60.9438
875.894	58.706
879.269	51.1913
882.643	43.7599
886.018	36.0463
889.393	29.9198
892.768	25.5607
896.143	20.149
899.518	12.965
902.892	5.89337
906.267	2.67021
909.642	1.25318
913.017	1.81957
916.391	4.16362
919.766	3.58064
923.141	3.43398
926.516	0.725937
929.891	5.5157
933.266	2.4915
936.64	7.89565
940.015	6.75133
943.39	10.3484
946.765	11.071
950.14	11.407
953.514	14.173
956.889	17.3756
960.264	23.2092
963.639	31.1909
967.014	33.4097
970.389	39.0597
973.763	38.7885
977.138	38.8766
980.513	37.5291
983.888	34.1265
987.263	29.3868
990.638	23.1147
994.012	20.5738
997.387	14.1276
1000.76	12.0844
1004.14	5.90459
1007.51	5.42302
1010.89	3.46143
1014.26	8.81305
1017.64	12.72
1021.01	19.5449
1024.39	28.6111
1027.76	30.991
1031.13	33.5476
1034.51	39.6438
1037.88	51.374
1041.26	72.4709
1044.63	105.603
1048.01	139.606
1051.38	188.73
1054.76	229.315
1058.13	253.1
1061.51	251.097
1064.88	231.753
1068.26	203.858
1071.63	186.398
1075.01	160.541
1078.38	140.677
1081.76	125.941
1085.13	112.307
1088.51	101.144
1091.88	83.3881
1095.26	59.2204
1098.63	43.2797
1102.01	31.9342
1105.38	19.3402
1108.76	12.2952
1112.13	7.9325
1115.51	3.52863
1118.88	0.197998
1122.26	2.40799
1125.63	1.21011
1129.01	0.081322
1132.38	1.35243
1135.76	2.19515
1139.13	0.602539
1142.5	1.09433
1145.88	0.35392
1149.25	0.752197
1152.63	1.73598
1156	1.22909
1159.38	2.32172
1162.75	4.35514
1166.13	8.3078
1169.5	10.187
1172.88	9.55242
1176.25	8.70453
1179.63	11.0874
1183	11.2616
1186.38	14.1141
1189.75	15.3462
1193.13	16.2562
1196.5	16.3014
1199.88	14.9898
1203.25	15.1714
1206.63	14.2078
1210	14.264
1213.38	13.7294
1216.75	10.4336
1220.12	10.0466
1223.5	10.4243
1226.88	9.0435
1230.25	6.98487
1233.62	7.10126
1237	7.96487
1240.37	6.04064
1243.75	5.49568
1247.12	5.31922
1250.5	7.46002
1253.87	11.9051
1257.25	5.82469
1260.62	4.83655
1264	4.34085
1267.37	4.79073
1270.75	4.08964
1274.12	2.56239
1277.5	5.97507
1280.87	5.41659
1284.25	2.99651
1287.62	4.05222
1291	1.33952
1294.37	0.822289
1297.75	1.39481
1301.12	0.730354
