Measurement: Raman, 532 nm, unoriented, Raman Data Processed
Mineral: Tourmaline
Rruff sample: R080010
Locality: east Africa
Source: www.multicolour.com
Description: Green gemmy fragments, consistent with dravite
Raman shift (cm-1)	intensity
151.565	0
154.457	20.2441
157.35	63.3252
160.243	164.736
163.136	205.456
166.028	598.998
168.921	597.764
171.814	339.935
174.706	90.1602
177.599	113.835
180.492	124.957
183.384	52.457
186.277	334.66
189.17	761.27
192.062	1222.07
194.955	2109.44
197.848	3038.44
200.741	4216.77
203.633	5877.44
206.526	7743.3
209.419	10358.1
212.311	13280.3
215.204	14956.2
218.097	14492.2
220.989	11850.4
223.882	9994.99
226.775	9152.18
229.668	9080.3
232.56	9667.4
235.453	10335.1
238.346	11341.1
241.238	11763.5
244.131	11397.3
247.024	10154.7
249.917	8103.88
252.809	6053.85
255.702	4534.39
258.595	3756.28
261.487	3107.38
264.38	2729.62
267.273	2718.5
270.166	2525.55
273.058	2085.11
275.951	1787.69
278.844	1288.34
281.736	831.224
284.629	421.841
287.522	99.8467
290.414	328.658
293.307	273.272
296.2	105.561
299.092	21.2588
301.985	252.814
304.878	354.16
307.771	408.088
310.663	969.201
313.556	1291.72
316.449	846.708
319.341	646.456
322.234	400.325
325.127	762.325
328.019	1148.58
330.912	1536.95
333.805	2286.93
336.698	2999.8
339.59	3484.57
342.483	4118.35
345.376	4372.79
348.268	5000.88
351.161	6054.38
354.054	7584.25
356.947	10138.4
359.839	13163.7
362.732	16719.1
365.625	20972.7
368.517	24338.5
371.41	24346.4
374.303	20489.6
377.195	15162
380.088	10686.5
382.981	8065.12
385.873	5761.9
388.766	4155.35
391.659	3365.61
394.552	3022.32
397.444	2946.16
400.337	2614.14
403.23	2529.97
406.122	2199.06
409.015	1865.17
411.908	1249.49
414.8	848.827
417.693	538.474
420.586	208.089
423.479	54.958
426.371	77.1094
429.264	62.8935
432.157	63.7871
435.049	141.011
437.942	52.75
440.835	31.5361
443.728	11.3711
446.62	7.81543
449.513	26.9131
452.406	112.533
455.298	34.0469
458.191	43.4815
461.084	180.458
463.976	104.842
466.869	226.19
469.762	478.769
472.654	617.45
475.547	909.812
478.44	1111.26
481.333	1393.51
484.225	1641.65
487.118	1925.25
490.011	2135.81
492.903	2537.9
495.796	2873.05
498.689	2960.69
501.582	3096.83
504.474	3125.95
507.367	3080.04
510.26	2848.27
513.152	2351.68
516.045	1929.45
518.938	1678.5
521.83	1490.05
524.723	1410.89
527.616	1596.67
530.509	1891.71
533.401	1899.48
536.294	1805.22
539.187	1920.47
542.079	1677.11
544.972	1417.57
547.865	1080.44
550.757	832.542
553.65	679.958
556.543	604.135
559.436	404.361
562.328	280.873
565.221	7.66309
568.114	32.833
571.006	34.1113
573.899	30.4229
576.792	86.4609
579.684	167.152
582.577	43.458
585.47	8.75977
588.362	169.901
591.255	10.8555
594.148	124.631
597.041	209.458
599.933	132.828
602.826	142.68
605.719	174.704
608.611	276.479
611.504	308.461
614.397	488.948
617.29	581.442
620.182	735.292
623.075	849.208
625.968	889.477
628.86	980.144
631.753	1182.85
634.646	1121.02
637.538	1179.48
640.431	963.179
643.324	1222.36
646.217	1363.8
649.109	1959.45
652.002	2284.78
654.895	2726.42
657.787	3035.14
660.68	3544.83
663.573	4273.35
666.466	4772.99
669.358	5361.7
672.251	5515.97
675.144	5427.31
678.036	5206.84
680.929	4761.94
683.822	4293.55
686.714	4279.44
689.607	4492.2
692.5	5306.82
695.393	6224.44
698.285	7595.9
701.178	8978.5
704.071	9888.75
706.963	9809.31
709.856	8865.32
712.749	7155.64
715.641	5243.6
718.534	3453.65
721.427	2223.54
724.319	1203.75
727.212	664.508
730.105	386.498
732.998	87.9072
735.89	8.03125
738.783	34.043
741.676	180.853
744.568	68.4648
747.461	365.833
750.354	652.264
753.246	862.161
756.139	974.585
759.032	912.756
761.925	654.802
764.817	597.688
767.71	62.5098
770.603	8.23047
773.495	145.768
776.388	75.3379
779.281	10.8877
782.173	189.171
785.066	177.83
787.959	227.067
790.852	223.938
793.744	231.971
796.637	240.115
799.53	433.597
802.422	665.949
805.315	936.181
808.208	1307.47
811.101	1637.24
813.993	2119.67
816.886	2159.44
819.779	2267.17
822.671	2119.98
825.564	1973.38
828.457	1823.69
831.349	1509.2
834.242	1375.01
837.135	1009.23
840.028	753.561
842.92	580.972
845.813	254.135
848.706	267.137
851.598	42.7612
854.491	63.8565
857.384	83.8765
860.276	86.2734
863.169	106.688
866.062	28.8726
868.955	83.23
871.847	138.983
874.74	145.213
877.633	244.064
880.525	27.5986
883.418	134.756
886.311	25.1177
889.203	115.147
892.096	37.1987
894.989	102.022
897.881	223.603
900.774	122.268
903.667	261.689
906.56	321.125
909.452	274.745
912.345	214.095
915.238	169.463
918.13	234.97
921.023	131.408
923.916	208.94
926.808	37.1748
929.701	51.2544
932.594	71.7305
935.487	104.336
938.379	5.65332
941.272	131.943
944.165	171.969
947.058	15.8262
949.95	321.816
952.843	337.162
955.736	376.476
958.628	599.785
961.521	505.396
964.414	593.149
967.306	606.939
970.199	693.487
973.092	748.541
975.985	569.134
978.877	522.8
981.77	243.616
984.663	127.279
987.555	52.8223
990.448	29.1934
993.341	109.998
996.233	50.3799
999.126	68.333
1002.02	95.9541
1004.91	258.769
1007.8	394.955
1010.7	640.428
1013.59	831.529
1016.48	1175.63
1019.38	1186.64
1022.27	1368.72
1025.16	1571.05
1028.05	1794.71
1030.95	2003.14
1033.84	2089.38
1036.73	2353.55
1039.62	2668.95
1042.52	2857.66
1045.41	3029.79
1048.3	3202.48
1051.19	3388.41
1054.09	3623.99
1056.98	3692.96
1059.87	3965.57
1062.77	4039.72
1065.66	4084.94
1068.55	3710.47
1071.44	3547.95
1074.34	2863.76
1077.23	2518.17
1080.12	1957.96
1083.01	1674.03
1085.91	1230.98
1088.8	953.263
1091.69	989.904
1094.59	648.604
1097.48	706.723
1100.37	710.104
1103.26	628.613
1106.16	692.649
1109.05	779.843
1111.94	818.351
1114.83	700.131
1117.73	840.499
1120.62	729.058
1123.51	677.317
1126.4	513.734
1129.3	211.028
1132.19	147.711
1135.08	44.7339
1137.98	4.59717
1140.87	82.5322
1143.76	15.5513
1146.65	27.0322
1149.55	86.8472
1152.44	79.5693
1155.33	84.8071
1158.22	89.085
1161.12	98.9126
1164.01	10.1099
1166.9	24.7915
1169.8	188.186
1172.69	94.29
1175.58	219.024
1178.47	203.765
1181.37	298.299
1184.26	239.394
1187.15	194.202
1190.04	384.349
1192.94	265.753
1195.83	256.588
1198.72	266.606
1201.62	218.459
1204.51	172.25
1207.4	288.877
1210.29	218.773
1213.19	134.602
1216.08	205.458
1218.97	240.304
1221.86	238.765
1224.76	307.122
1227.65	246.551
1230.54	282.948
1233.43	304.567
1236.33	464.65
1239.22	318.694
1242.11	319.854
1245.01	311.098
1247.9	212.186
1250.79	258.591
1253.68	175.588
1256.58	176.164
1259.47	77.5439
1262.36	54.1953
1265.26	82.6416
1268.15	226.917
1271.04	190.96
1273.93	201.243
1276.83	173.496
1279.72	36.1435
1282.61	136.502
1285.5	22.4702
1288.4	73.4565
1291.29	102.134
1294.18	104.689
1297.07	76.1773
1299.97	94.3589
