Measurement: Raman, 785 nm, unoriented, Raman Data Processed
Mineral: Traskite
Rruff sample: R060706
Ideal chemistry: Ba_21_Ca(Fe^2+^,Mn,Ti)_4_(Ti,Fe,Mg)_12_(Si_12_O_36_)(Si_2_O_7_)_6_(O,OH)_30_Cl_6_14H_2_O
Locality: Esquire no. 1 mine, Rush Creek, Fresno County, California, United States
Source: Michael Scott
Description: Brownish-red granular associated with sanbornite
Raman shift (cm-1)	intensity
144.67	0
147.562	899.223
150.455	1247.29
153.348	893.744
156.24	609.634
159.133	433.365
162.026	611.984
164.919	849.203
167.811	952.714
170.704	958.981
173.597	794.018
176.489	616.365
179.382	665.74
182.275	738.986
185.167	974.808
188.06	1204.26
190.953	1452.48
193.846	1297.25
196.738	1113.47
199.631	1055.57
202.524	1104.71
205.416	1111.06
208.309	1277.23
211.202	1743.88
214.094	2506.83
216.987	3506.04
219.88	4639.94
222.773	5401.26
225.665	4841.61
228.558	3434.09
231.451	2387.01
234.343	1811.84
237.236	1544.7
240.129	1425.84
243.021	1433.7
245.914	1456.04
248.807	1326.32
251.699	1062.29
254.592	911.033
257.485	901.164
260.378	955.659
263.27	1099.9
266.163	1338.42
269.056	1517.98
271.948	1701.66
274.841	2113.68
277.734	2653.16
280.626	3699.28
283.519	5101.6
286.412	6836.32
289.305	8403.67
292.197	9130.5
295.09	8773.91
297.983	7622.21
300.875	6278.16
303.768	4827.76
306.661	3636.63
309.553	2812.83
312.446	2346.64
315.339	2057.42
318.232	1499.5
321.124	1025.63
324.017	890.721
326.91	1095.89
329.802	1368.32
332.695	1648.66
335.588	1195.8
338.48	912.663
341.373	988.043
344.266	706.304
347.159	470.896
350.051	403.082
352.944	451.023
355.837	518.882
358.729	644.58
361.622	805.018
364.515	949.199
367.408	1170.06
370.3	1534.7
373.193	1969.8
376.086	2416.48
378.978	2973.87
381.871	3537.69
384.764	4014.32
387.656	4523.29
390.549	4931.42
393.442	5303.34
396.335	5797.93
399.227	6243.81
402.12	6614.07
405.013	6852.25
407.905	6576.35
410.798	5662.72
413.691	4336.32
416.583	3085.6
419.476	2148.39
422.369	1659.88
425.262	1180.88
428.154	903.429
431.047	702.791
433.94	576.297
436.832	487.315
439.725	449.168
442.618	580.216
445.51	775.633
448.403	1042.87
451.296	1350.42
454.189	1458.31
457.081	1413.84
459.974	1566.23
462.867	1496.54
465.759	885.064
468.652	601.502
471.545	562.089
474.437	671.525
477.33	653.924
480.223	431.948
483.116	428.182
486.008	393.896
488.901	489.966
491.794	407.369
494.686	394.59
497.579	325.775
500.472	198.777
503.364	136.301
506.257	35.796
509.15	24.704
512.042	5.113
514.935	22.626
517.828	75.791
520.721	247.164
523.613	597.835
526.506	1229.92
529.399	2107.45
532.291	2996.82
535.184	3406.35
538.077	2525.26
540.969	1490.1
543.862	936.563
546.755	705.165
549.648	571.435
552.54	551.549
555.433	519.693
558.326	426.506
561.218	360.338
564.111	332.727
567.004	263.08
569.896	188.174
572.789	175.043
575.682	200.709
578.575	239.52
581.467	283.192
584.36	364.806
587.253	433.957
590.145	657.519
593.038	842.204
595.931	1027.16
598.823	1145.36
601.716	1289.97
604.609	1398.04
607.502	1526.31
610.394	1617.5
613.287	1577.06
616.18	1531.39
619.072	1091.94
621.965	788.333
624.858	483.04
627.75	407.352
630.643	261.606
633.536	238.716
636.429	157.679
639.321	204.396
642.214	222.139
645.107	278.738
647.999	297.263
650.892	172.733
653.785	141.594
656.677	119.879
659.57	117.05
662.463	115.073
665.356	91.346
668.248	83.057
671.141	113.231
674.034	97.686
676.926	56.436
679.819	68.891
682.712	93.966
685.604	73.969
688.497	81.001
691.39	78.162
694.283	76.91
697.175	77.093
700.068	67.032
702.961	64.263
705.853	28.151
708.746	66.83
711.639	28.2
714.531	32.97
717.424	24.362
720.317	14.806
723.21	94.857
726.102	49.685
728.995	91.438
731.888	112.665
734.78	117.415
737.673	98.576
740.566	88.102
743.458	107.246
746.351	69.574
749.244	39.639
752.137	57.93
755.029	13.276
757.922	88.853
760.815	58.288
763.707	82.15
766.6	98.925
769.493	143.162
772.385	92.484
775.278	81.396
778.171	62.121
781.064	56.458
783.956	31.012
786.849	22.906
789.742	19.032
792.634	16.344
795.527	11.09
798.42	80.243
801.312	45.15
804.205	84.804
807.098	14.58
809.991	21.82
812.883	27.727
815.776	22.055
818.669	6.638
821.561	26.495
824.454	40.864
827.347	5.251
830.24	6.03
833.132	18.823
836.025	17.56
838.918	30.002
841.81	9.485
844.703	24.377
847.596	35.655
850.488	4.446
853.381	16.194
856.274	14.015
859.167	20.704
862.059	14.843
864.952	20.593
867.845	10.267
870.737	0.227
873.63	3.838
876.523	6.767
879.415	11.36
882.308	16.329
885.201	13.341
888.094	23.109
890.986	11.138
893.879	31.565
896.772	38.75
899.664	32.897
902.557	40.839
905.45	36.739
908.342	73.075
911.235	71.554
914.128	61.052
917.021	38.163
919.913	29.594
922.806	14.287
925.699	14.657
928.591	56.874
931.484	26.604
934.377	70.814
937.269	70.692
940.162	76.198
943.055	26.397
945.948	37.362
948.84	35.572
951.733	83.918
954.626	67.016
957.518	114.412
960.411	91.303
963.304	127.031
966.196	136.121
969.089	196.66
971.982	290.19
974.875	446.417
977.767	768.634
980.66	1573.22
983.553	3260.94
986.445	5371.1
989.338	4553.4
992.231	1361.36
995.123	581.133
998.016	387.168
1000.91	230.615
1003.8	123.173
1006.69	115.97
1009.59	69.387
1012.48	87.176
1015.37	67.074
1018.26	15.522
1021.16	19.984
1024.05	34.209
1026.94	7.704
1029.84	27.174
1032.73	14.471
1035.62	7.849
1038.51	2.149
1041.41	50.743
1044.3	2.25
1047.19	1.083
1050.09	42.174
1052.98	39.977
1055.87	76.366
1058.76	106.477
1061.66	130.65
1064.55	176.093
1067.44	351.433
1070.33	872.808
1073.23	1999.32
1076.12	3230.38
1079.01	2244.91
1081.9	818.035
1084.8	331.232
1087.69	220.843
1090.58	119.006
1093.47	82.839
1096.37	141.181
1099.26	81.014
1102.15	77.736
1105.05	80.301
1107.94	26.693
1110.83	8.079
1113.72	12.814
1116.62	33.161
1119.51	15.435
1122.4	16.553
1125.3	2.182
1128.19	57.774
1131.08	92.347
1133.97	112.703
1136.87	157.866
1139.76	133.092
1142.65	162.606
1145.54	130.894
1148.44	56.074
1151.33	20.018
1154.22	25.372
1157.12	49.853
1160.01	61.658
1162.9	90.196
1165.79	80.615
1168.68	107.446
1171.58	90.039
1174.47	61.078
1177.36	19.111
1180.26	28.313
1183.15	5.602
1186.04	1.759
1188.93	2.023
1191.83	43.701
1194.72	37.527
1197.61	6.61
1200.51	21.185
1203.4	64.327
1206.29	39.983
1209.18	69.239
1212.08	43.341
1214.97	20.303
1217.86	36.207
1220.75	33.24
1223.65	14.133
1226.54	30.935
1229.43	19.008
1232.33	14.567
1235.22	32.166
1238.11	11.827
1241	4.847
1243.9	19.736
1246.79	40.896
1249.68	49.181
1252.57	17.51
1255.47	13.56
1258.36	13.488
1261.25	1.541
1264.14	16.089
