Measurement: Raman, 785 nm, unoriented, Raman Data Processed
Mineral: Trattnerite
Rruff sample: R060623
Ideal chemistry: Fe^3+^_2_(Mg_3_Si_12_)O_30_
Locality: Stradner Kogel Mountain, Wilhelmsdorf, Bad Gleichenberg, Styria, Austria
Source: Michael Scott
Description: Isolated dark-blue hexagonal plates
Measured chemistry: ([box]_0.90_K_0.10_)_Σ=1_(Fe^3+^_1.96_Cr_0.03_Ti_0.01_)_Σ=2_(Mg_2.08_Fe^2+_0.81_Mn_0.11_)_Σ=3_[(Si_11.88_Al_0.12_)_Σ=12_O_30_] ; dark inclusion: (K_0.53_Na_0.47_)_Σ=1_(Al_0.98_Fe^3+^_0.02_)_Σ=1_(Si_2.99_Al_0.01_)_Σ=3_O_8_
Raman shift (cm-1)	intensity
163.954	0
166.847	166.343
169.74	143.585
172.632	166.76
175.525	121.04
178.418	107.806
181.311	118.617
184.203	113.246
187.096	126.768
189.989	77.338
192.881	65.193
195.774	190.565
198.667	141.759
201.559	196.9
204.452	210.841
207.345	155.868
210.238	132.585
213.13	73.958
216.023	64.506
218.916	109.568
221.808	95.099
224.701	114.304
227.594	3.324
230.486	16.706
233.379	10.597
236.272	32.295
239.165	45.951
242.057	40.469
244.95	45.702
247.843	56.301
250.735	7.758
253.628	124.497
256.521	114.156
259.413	236.871
262.306	321.121
265.199	438.833
268.091	579.333
270.984	739.962
273.877	836.896
276.77	847.974
279.662	793.143
282.555	751.026
285.448	536.062
288.34	453.516
291.233	352.661
294.126	275.77
297.018	210.862
299.911	122.021
302.804	88.916
305.697	84.058
308.589	45.156
311.482	96.995
314.375	11.282
317.267	16.324
320.16	0.628
323.053	15.259
325.945	68.428
328.838	97.525
331.731	158.061
334.624	209.081
337.516	327.634
340.409	329.529
343.302	422.285
346.194	452.858
349.087	423.492
351.98	391.998
354.872	371.855
357.765	413.423
360.658	441.092
363.551	473.764
366.443	570.557
369.336	815.292
372.229	1142.71
375.121	1343.18
378.014	1419.34
380.907	1167.47
383.799	630.914
386.692	336.428
389.585	98.946
392.478	77.183
395.37	51.747
398.263	6.355
401.156	11.596
404.048	48.635
406.941	17.281
409.834	32.791
412.727	45.959
415.619	23.46
418.512	31.305
421.405	3.668
424.297	45.302
427.19	82.468
430.083	119.123
432.975	152.637
435.868	242.165
438.761	357.652
441.654	505.86
444.546	803.872
447.439	1294.5
450.332	2179.32
453.224	3839.62
456.117	6647.36
459.01	9618.35
461.902	11447.4
464.795	9425.72
467.688	5975.72
470.581	3531.2
473.473	2002.94
476.366	1182.3
479.259	757.814
482.151	445.356
485.044	272.804
487.937	201.469
490.829	150.088
493.722	106.258
496.615	70.801
499.508	61.397
502.4	127.142
505.293	144.922
508.186	215.094
511.078	215.666
513.971	288.958
516.864	227.003
519.756	215.884
522.649	194.042
525.542	190.424
528.435	198.424
531.327	197.885
534.22	266.876
537.113	241.642
540.005	317.452
542.898	327.51
545.791	278.14
548.683	268.409
551.576	214.56
554.469	204.653
557.362	164.297
560.254	56.711
563.147	61.379
566.04	80.375
568.932	43.53
571.825	28.664
574.718	2.854
577.61	17.591
580.503	3.04
583.396	35.83
586.289	58.911
589.181	61.148
592.074	94.796
594.967	131.104
597.859	134.343
600.752	99.274
603.645	143.691
606.537	98.754
609.43	65.291
612.323	111.106
615.216	73.267
618.108	95.324
621.001	142.358
623.894	46.904
626.786	38.933
629.679	26.868
632.572	15.376
635.464	19.161
638.357	10.064
641.25	55.722
644.143	39.081
647.035	27.102
649.928	49.488
652.821	44.797
655.713	35.793
658.606	34.069
661.499	70.705
664.391	39.444
667.284	34.879
670.177	52.268
673.07	46.105
675.962	63.471
678.855	39.713
681.748	7.406
684.64	49.774
687.533	44.332
690.426	9.472
693.318	46.715
696.211	33.931
699.104	29.38
701.997	46.71
704.889	39.768
707.782	12.366
710.675	38.251
713.567	66.953
716.46	90.251
719.353	11.061
722.245	44.401
725.138	51.736
728.031	20.937
730.924	13.324
733.816	65.967
736.709	44.619
739.602	74.698
742.494	44.519
745.387	56.143
748.28	11.318
751.172	39.777
754.065	37.593
756.958	80.912
759.851	23.618
762.743	56.839
765.636	49.943
768.529	40.22
771.421	49.159
774.314	58.474
777.207	42.216
780.099	52.972
782.992	60.536
785.885	67.354
788.778	57.212
791.67	41.376
794.563	74.423
797.456	91.835
800.348	45.11
803.241	47.568
806.134	62.612
809.026	86.401
811.919	91.32
814.812	141.307
817.705	267.497
820.597	470.321
823.49	550.382
826.383	550.89
829.275	326.199
832.168	192.438
835.061	115.594
837.953	86.134
840.846	48.567
843.739	78.377
846.631	22.131
849.524	25.091
852.417	42.565
855.31	32.341
858.202	35.59
861.095	21.545
863.988	31.903
866.88	2.072
869.773	8.027
872.666	27.76
875.558	27.514
878.451	33.336
881.344	39.502
884.237	19.716
887.129	16.525
890.022	9.02
892.915	14.059
895.807	21.133
898.7	66.823
901.593	66.281
904.485	54.381
907.378	96.153
910.271	118.291
913.164	138.383
916.056	153.289
918.949	159.651
921.842	134.058
924.734	162.618
927.627	157.271
930.52	240.26
933.412	289.296
936.305	329.825
939.198	344.447
942.091	354.463
944.983	326.158
947.876	295.882
950.769	243.909
953.661	221.19
956.554	209.755
959.447	166.232
962.339	204.428
965.232	166.433
968.125	165.498
971.018	129.999
973.91	103.649
976.803	74.974
979.696	51.075
982.588	43.323
985.481	12.24
988.374	31.239
991.266	17.599
994.159	5.989
997.052	2.6
999.945	29.875
1002.84	84.046
1005.73	43.638
1008.62	50.006
1011.51	72.364
1014.41	98.212
1017.3	146.327
1020.19	99.333
1023.09	92.526
1025.98	101.224
1028.87	50.316
1031.76	62.674
1034.66	11.759
1037.55	51.785
1040.44	29.65
1043.34	46.892
1046.23	3.13
1049.12	34.017
1052.01	26.436
1054.91	64.402
1057.8	28.742
1060.69	13.761
1063.58	5.598
1066.48	7.85
1069.37	14.386
1072.26	18.62
1075.15	39.549
1078.05	63.098
1080.94	83.611
1083.83	98.665
1086.73	60.845
1089.62	126.655
1092.51	99.478
1095.4	77.502
1098.3	52.197
1101.19	54.503
1104.08	20.23
1106.97	23.881
1109.87	5.641
1112.76	23.734
1115.65	37.636
1118.55	45.719
1121.44	34.812
1124.33	30.279
1127.22	83.513
1130.12	116.818
1133.01	125.919
1135.9	89.383
1138.79	107.187
1141.69	124.857
1144.58	158.21
1147.47	103.657
1150.37	77.061
1153.26	111.696
1156.15	55.463
1159.04	112.577
1161.94	121.664
1164.83	50.494
1167.72	118.108
1170.61	69.909
1173.51	25.717
1176.4	33.943
1179.29	10.184
1182.18	75.966
1185.08	30.159
1187.97	35.201
1190.86	96.333
1193.76	17.212
1196.65	28.603
1199.54	79.767
1202.43	73.615
1205.33	28.429
1208.22	34.268
1211.11	37.735
1214	98.732
1216.9	70.541
1219.79	131.154
1222.68	138.258
1225.58	9.173
1228.47	20.307
1231.36	38.01
1234.25	38.846
1237.15	14.242
1240.04	34.951
1242.93	19.681
1245.82	49.76
1248.72	79.872
1251.61	50.134
1254.5	46.857
1257.39	1.059
1260.29	25.947
