Measurement: Raman, 780 nm, unoriented, Raman Data Processed
Mineral: Trechmannite
Rruff sample: R130062
Ideal chemistry: AgAsS_2_
Locality: Lengenbach quarry, Imfeld, Binn Valley, Wallis, Switzerland
Source: William W. Pinch
Description: Single dark red crystal, associated with jordanite and binnite
Raman shift (cm-1)	intensity
92.1638	0
95.5386	537.908
98.9134	1168.88
102.288	897.368
105.663	123.481
109.038	42.4623
112.413	65.2798
115.787	253.308
119.162	652.677
122.537	1205.95
125.912	2021.21
129.287	2721.45
132.662	2186.2
136.036	2207.06
139.411	2699.05
142.786	1474.47
146.161	592.087
149.536	285.415
152.911	189.435
156.285	176.27
159.66	217.635
163.035	282.272
166.41	331.528
169.785	417.16
173.159	505.088
176.534	636.202
179.909	784.958
183.284	990.596
186.659	1283.99
190.033	1720.63
193.408	2278.78
196.783	2417.49
200.158	1711.45
203.533	953.297
206.907	483.665
210.282	302.171
213.657	270.274
217.032	202.108
220.407	87.8976
223.782	13.4796
227.156	17.7482
230.531	32.0393
233.906	32.3796
237.281	11.7547
240.656	18.6052
244.03	38.7353
247.405	10.3043
250.78	14.0179
254.155	11.0095
257.53	27.9162
260.904	113.415
264.279	244.55
267.654	197.37
271.029	54.5994
274.404	21.0158
277.779	34.7758
281.153	82.1961
284.528	173.841
287.903	331.865
291.278	486.432
294.653	316.83
298.027	287.807
301.402	575.681
304.777	994.208
308.152	1368.72
311.527	2052.82
314.902	3272.87
318.276	5275.96
321.651	5268.16
325.026	1996.37
328.401	617.733
331.776	245.946
335.151	164.422
338.525	230.691
341.9	392.27
345.275	605
348.65	949.525
352.024	1529.94
355.399	2604.52
358.774	3550.17
362.149	3305.98
365.524	3839.32
368.899	6190.75
372.273	9850.38
375.648	8894.12
379.023	3289.14
382.398	1294.9
385.773	536.025
389.147	221.522
392.522	92.9805
395.897	34.5219
399.272	1.08774
402.647	10.2603
406.022	14.5435
409.396	11.6789
412.771	10.2421
416.146	9.62354
419.521	7.28519
422.896	1.75075
426.27	2.50467
429.645	9.27684
433.02	14.4102
436.395	20.3499
439.77	24.2524
443.144	29.5686
446.519	32.2591
449.894	34.5986
453.269	36.345
456.644	37.1534
460.019	41.3066
463.393	40.211
466.768	40.6325
470.143	40.9807
473.518	40.9225
476.893	37.4224
480.267	34.5047
483.642	31.3991
487.017	28.534
490.392	27.6971
493.767	27.1899
497.142	26.855
500.516	23.9467
503.891	21.0881
507.266	18.7399
510.641	15.2669
514.016	11.2915
517.39	9.71475
520.765	6.68473
524.14	5.32748
527.515	4.20912
530.89	0.830559
534.264	1.02488
537.639	0.943527
541.014	0.249702
544.389	1.79956
547.764	0.505226
551.139	1.09984
554.513	0.220619
557.888	0.556633
561.263	1.98003
564.638	3.06439
568.013	4.83001
571.388	7.97286
574.762	9.37806
578.137	13.2752
581.512	19.5654
584.887	22.555
588.261	21.3515
591.636	20.7077
595.011	19.1584
598.386	17.1087
601.761	15.7325
605.136	14.727
608.51	18.1513
611.885	20.0458
615.26	22.5562
618.635	25.7538
622.01	30.0245
625.385	39.2296
628.759	51.5955
632.134	60.9362
635.509	62.8028
638.884	56.2669
642.259	53.1876
645.633	50.3915
649.008	43.1467
652.383	34.6861
655.758	26.402
659.133	20.5365
662.507	16.3351
665.882	12.9507
669.257	11.3278
672.632	5.62425
676.007	2.67517
679.381	1.41361
682.756	0.815521
686.131	2.06657
689.506	1.55291
692.881	5.97992
696.256	12.0201
699.63	14.9685
703.005	19.2883
706.38	21.536
709.755	19.8517
713.13	14.8074
716.505	10.7714
719.879	8.16518
723.254	7.14285
726.629	3.75723
730.004	2.93646
733.379	0.039482
736.753	0.845131
740.128	1.79413
743.503	3.5721
746.878	4.06982
750.253	4.80547
753.627	5.16431
757.002	5.38723
760.377	7.53719
763.752	3.18843
767.127	3.31051
770.501	2.92799
773.876	2.22478
777.251	13.8464
780.626	0.242462
784.001	0.383583
787.376	3.1e-05
790.75	1.20219
794.125	0.416306
797.5	1.92934
800.875	0.263992
804.25	0.661606
807.625	0.496384
810.999	0.021667
814.374	1.76959
817.749	1.9093
821.124	3.44386
824.499	3.1381
827.873	3.52637
831.248	4.93764
834.623	3.17629
837.998	3.17943
841.373	2.85313
844.747	3.39946
848.122	3.77675
851.497	3.79604
854.872	3.75528
858.247	3.38784
861.621	2.21015
864.996	2.51497
868.371	20.8876
871.746	2.81476
875.121	2.01982
878.495	2.00097
881.87	2.44877
885.245	9.61168
888.62	1.99946
891.995	0.75135
895.37	25.7485
898.744	6.36237
902.119	0.457451
905.494	0.997589
908.869	0.481071
912.244	0.077957
915.619	1.89108
918.993	1.81205
922.368	0.090614
925.743	1.60406
929.118	0.796364
932.493	1.20484
935.867	1.63699
939.242	1.13074
942.617	2.17259
945.992	1.92976
949.367	1.28595
952.741	1.14155
956.116	1.52685
959.491	0.958282
962.866	0.213913
966.241	0.963661
969.615	0.708145
972.99	1.46762
976.365	0.702637
979.74	0.804504
983.115	0.750977
986.49	0.315987
989.864	1.20763
993.239	0.278664
996.614	0.654465
999.989	1.20188
1003.36	1.66608
1006.74	0.590157
1010.11	0.220032
1013.49	1.12
1016.86	1.35718
1020.24	1.45488
1023.61	0.301872
1026.99	0.306389
1030.36	1.69807
1033.74	0.890007
1037.11	1.90199
1040.49	0.979378
1043.86	0.417931
1047.24	1.57497
1050.61	0.929825
1053.99	1.43306
1057.36	1.27374
1060.74	1.00696
1064.11	0.555603
1067.48	0.834396
1070.86	1.12197
1074.23	1.64508
1077.61	1.36678
1080.98	0.831955
1084.36	1.06153
1087.73	0.640762
1091.11	1.83147
1094.48	2.53954
1097.86	1.81142
1101.23	0.87262
1104.61	0.453476
1107.98	0.454468
1111.36	0.400368
1114.73	5.14275
1118.11	1.04071
1121.48	0.023674
1124.86	0.80722
1128.23	1.37702
1131.61	0.425888
1134.98	0.727142
1138.36	1.04858
1141.73	1.51641
1145.11	0.402626
1148.48	1.41458
1151.86	1.55286
1155.23	1.33238
1158.61	1.71058
1161.98	1.50784
1165.36	1.46349
1168.73	2.01936
1172.1	2.43988
1175.48	1.26151
1178.85	1.29982
1182.23	1.60446
1185.6	2.5712
1188.98	1.00134
1192.35	1.98138
1195.73	1.99595
1199.1	2.25463
1202.48	0.862076
1205.85	1.05827
1209.23	1.84212
1212.6	1.27257
1215.98	0.094521
1219.35	2.83898
1222.73	1.66242
1226.1	0.819069
1229.48	1.20618
1232.85	0.185791
1236.23	1.41151
1239.6	0.70787
1242.97	1.40988
1246.35	1.65498
1249.72	6.44344
1253.1	0.901527
1256.47	1.13373
1259.85	0.744873
1263.22	0.495003
1266.6	0.57666
1269.97	1.31897
1273.35	2.45277
1276.72	2.51374
1280.1	0.350082
1283.47	0.332382
