Measurement: Raman, 532 nm, unoriented, Raman Data Processed
Mineral: Trechmannite
Rruff sample: R130062
Ideal chemistry: AgAsS_2_
Locality: Lengenbach quarry, Imfeld, Binn Valley, Wallis, Switzerland
Source: William W. Pinch
Description: Single dark red crystal, associated with jordanite and binnite
Raman shift (cm-1)	intensity
192.053	0
194.945	7.29771
197.838	8.48177
200.731	4.77705
203.623	2.28148
206.516	0.292488
209.409	0.563217
212.301	0.239143
215.194	2.56139
218.087	2.89269
220.98	2.29828
223.872	1.7039
226.765	0.334869
229.658	2.17151
232.55	1.34167
235.443	1.40253
238.336	3.53947
241.228	3.62041
244.121	2.3343
247.014	3.64105
249.906	3.05936
252.799	3.74936
255.692	4.61904
258.585	6.2427
261.477	8.64806
264.37	13.2858
267.263	14.8347
270.155	4.84029
273.048	0.367767
275.941	1.56165
278.834	0.738144
281.726	0.150139
284.619	0.918198
287.512	2.91779
290.404	4.89563
293.297	4.55219
296.19	4.90024
299.082	4.49328
301.975	9.21949
304.868	13.1743
307.76	18.9291
310.653	26.0113
313.546	36.4663
316.439	49.768
319.331	58.7704
322.224	52.5203
325.117	28.271
328.009	17.1568
330.902	14.6476
333.795	13.4795
336.688	14.5105
339.58	17.0845
342.473	23.3657
345.366	28.6882
348.258	38.3694
351.151	49.0146
354.044	66.7197
356.936	93.3475
359.829	117.673
362.722	127.54
365.615	147.846
368.507	214.429
371.4	301.898
374.293	349.424
377.185	241.887
380.078	117.337
382.971	63.7621
385.863	36.5354
388.756	22.0789
391.649	14.7521
394.541	7.32204
397.434	5.4567
400.327	2.8774
403.22	1.93455
406.112	1.65063
409.005	0.826698
411.898	0.039864
414.79	0.492416
417.683	0.595848
420.576	0.721107
423.469	1.07843
426.361	0.32782
429.254	0.046371
432.147	0.062744
435.039	0.895226
437.932	0.036613
440.825	1.6668
443.717	1.74669
446.61	1.26894
449.503	2.61206
452.396	1.13188
455.288	1.08298
458.181	0.963646
461.074	2.56757
463.966	2.25474
466.859	1.84725
469.752	1.67113
472.644	2.57673
475.537	2.51371
478.43	2.07919
481.322	0.60656
484.215	2.07863
487.108	1.67589
490.001	0.490196
492.893	0.57225
495.786	0.914322
498.679	0.811844
501.571	1.13499
504.464	0.978912
507.357	0.583458
510.25	1.3233
513.142	0.655289
516.035	0.07019
518.928	1.27442
521.82	0.158508
524.713	0.400429
527.606	0.089432
530.498	0.979301
533.391	0.401093
536.284	1.24962
539.177	0.56163
542.069	0.642525
544.962	0.492004
547.855	0.473572
550.747	1.07353
553.64	0.553627
556.533	1.18085
559.425	0.688431
562.318	0.496475
565.211	0.752373
568.104	1.26621
570.996	1.07198
573.889	0.343544
576.782	0.924583
579.674	1.35813
582.567	0.882874
585.46	1.33721
588.352	0.321724
591.245	1.06681
594.138	0.547348
597.03	1.1059
599.923	0.938736
602.816	0.158508
605.709	0.259354
608.601	0.42662
611.494	0.394554
614.387	1.20732
617.279	0.96788
620.172	1.36792
623.065	1.15376
625.957	1.03844
628.85	1.19742
631.743	1.48469
634.636	1.35751
637.528	0.891434
640.421	1.21164
643.314	1.41863
646.206	1.06899
649.099	1.281
651.992	0.427216
654.885	0.266312
657.777	0.667625
660.67	0.275345
663.563	0.089371
666.455	0.490417
669.348	0.21611
672.241	0.442169
675.133	0.075394
678.026	0.235741
680.919	0.458549
683.812	1.08796
686.704	0.75087
689.597	1.03977
692.49	2.03918
695.382	2.41141
698.275	2.50653
701.168	2.61755
704.06	2.63646
706.953	3.36604
709.846	3.90341
712.739	4.15482
715.631	4.79214
718.524	4.9381
721.417	4.9272
724.309	5.14144
727.202	5.9081
730.095	5.82663
732.987	6.07438
735.88	6.70368
738.773	6.49382
741.665	7.36017
744.558	8.29585
747.451	8.13824
750.344	7.72559
753.236	8.02577
756.129	6.49719
759.022	6.23721
761.914	5.32494
764.807	6.41766
767.7	5.61822
770.592	4.79385
773.485	5.00399
776.378	2.18449
779.271	2.17889
782.163	1.71429
785.056	2.02052
787.949	0.156013
790.841	1.24335
793.734	0.514542
796.627	1.18169
799.519	0.175026
802.412	0.40432
805.305	0.348686
808.198	0.863556
811.09	0.770241
813.983	0.177094
816.876	1.51469
819.768	0.737442
822.661	0.456238
825.554	1.14436
828.447	0.446693
831.339	0.735245
834.232	0.574562
837.125	0.423599
840.017	0.17804
842.91	1.34933
845.803	1.40889
848.695	0.732635
851.588	1.20267
854.481	1.10739
857.374	0.840698
860.266	1.141
863.159	1.20105
866.052	1.1438
868.944	0.844383
871.837	1.21865
874.73	1.11898
877.622	0.710709
880.515	1.81742
883.408	0.901215
886.301	0.512451
889.193	0.033745
892.086	0.834801
894.979	0.642677
897.871	0.386009
900.764	1.33453
903.657	0.682304
906.549	0.330101
909.442	1.09994
912.335	0.002319
915.227	0.476761
918.12	0.562523
921.013	0.993347
923.906	0.696091
926.798	1.09798
929.691	0.07019
932.584	0.495171
935.476	1.50732
938.369	0.801941
941.262	1.33367
944.154	0.011124
947.047	1.93449
949.94	1.03731
952.833	0.757622
955.725	0.299675
958.618	0.302719
961.511	1.00987
964.403	0.057236
967.296	1.28932
970.189	0.957245
973.082	0.333443
975.974	0.207863
978.867	1.20581
981.76	0.433861
984.652	0.02095
987.545	0.302773
990.438	1.11654
993.33	1.26753
996.223	0.930779
999.116	1.15825
1002.01	0.542343
1004.9	0.98243
1007.79	0.614853
1010.69	1.04034
1013.58	1.52099
1016.47	0.937317
1019.37	0.584358
1022.26	0.642548
1025.15	0.777206
1028.04	0.958794
1030.94	0.993172
1033.83	0.7304
1036.72	0.632896
1039.61	0.235413
1042.51	0.140701
1045.4	1.15985
1048.29	0.459435
1051.18	0.642883
1054.08	0.76181
1056.97	0.003555
1059.86	0.297546
1062.76	0.909378
1065.65	0.009323
1068.54	1.63457
1071.43	0.060059
1074.33	0.232513
1077.22	0.582855
1080.11	0.736908
1083	1.13752
1085.9	0.466606
1088.79	0.779755
1091.68	0.501068
1094.58	0.820618
1097.47	1.12119
1100.36	0.785301
1103.25	1.7376
1106.15	1.58024
1109.04	0.427521
1111.93	1.00908
1114.82	1.55149
1117.72	1.12154
1120.61	1.66276
1123.5	0.891586
1126.39	1.47728
1129.29	1.48019
1132.18	0.506996
1135.07	1.55131
1137.96	0.902893
1140.86	0.769531
1143.75	1.49017
1146.64	0.78508
1149.54	1.16116
1152.43	0.713394
1155.32	1.00208
1158.21	0.472862
1161.11	0.221313
1164	0.914009
1166.89	1.04575
1169.79	0.217934
1172.68	0.587158
1175.57	0.389816
1178.46	1.36816
1181.36	0.962402
1184.25	0.001915
1187.14	0.886177
1190.03	0.208183
1192.93	0.297897
1195.82	0.318184
1198.71	1.33475
1201.61	1.81783
1204.5	1.18978
1207.39	1.54191
1210.28	1.39684
1213.18	1.15525
1216.07	1.62274
1218.96	0.768082
1221.85	1.4247
1224.75	1.4058
1227.64	1.37212
1230.53	0.880859
1233.42	1.04749
1236.32	0.841873
1239.21	1.49554
1242.1	0.611885
1244.99	1.20567
1247.89	1.65323
1250.78	0.770531
1253.67	0.758484
1256.57	0.640076
1259.46	0.853157
1262.35	1.11979
1265.24	1.36694
1268.14	1.48006
1271.03	1.35111
1273.92	0.807106
1276.82	0.524544
1279.71	1.26266
1282.6	1.56088
1285.49	1.01903
1288.39	0.842239
1291.28	0.125229
1294.17	0.612595
1297.06	0.486992
1299.96	0.433884
