Measurement: Raman, 514 nm, unoriented, Raman Data Processed
Mineral: Tremolite
Rruff sample: R040045
Ideal chemistry: [box]Ca_2_Mg_5_Si_8_O_22_(OH)_2_
Locality: Gouverneur, New York, USA
Source: University of Arizona Mineral Museum
Description: Group of colorless acicular single crystals
Measured chemistry: Ca_2.01_(Mg_0.99_Fe_0.01_)_5_(Si_0.99_Fe_0.01_)_8_O_22_(OH)_2_
Raman shift (cm-1)	intensity
101.732	0
105.908	1.906
110.082	82.78
114.254	345.61
118.424	883.933
122.592	778.322
126.758	477.649
130.922	242.63
135.083	347.648
139.243	337.777
143.401	405.627
147.557	423.053
151.711	305.491
155.863	1095.04
160.013	2332.73
164.161	1010.41
168.308	398.06
172.452	777.489
176.594	2468.53
180.734	1906.08
184.872	506.031
189.008	302.13
193.143	373.465
197.275	166.751
201.405	309.704
205.534	288.938
209.66	625.379
213.784	1296.81
217.907	3451.47
222.027	7833.69
226.146	7760.78
230.263	11659.5
234.377	11292.7
238.49	4055.4
242.601	1906.61
246.709	3009.43
250.816	4793.85
254.921	2493.01
259.024	1069.14
263.125	842.903
267.224	453.71
271.321	150.539
275.416	139.133
279.51	129.183
283.601	61.035
287.69	56.303
291.778	99.058
295.863	208.322
299.947	459.665
304.029	624.205
308.108	643.57
312.186	567.78
316.262	180.084
320.336	88.087
324.408	67.471
328.478	33.834
332.546	49.084
336.612	96.891
340.677	348.867
344.739	593.51
348.799	1090.3
352.858	1996.34
356.915	1320.57
360.969	957.939
365.022	2185.46
369.073	5487.12
373.122	3858.92
377.169	1826.83
381.215	906.697
385.258	997.031
389.299	2822.01
393.339	6611.24
397.376	4675.4
401.412	1691.99
405.446	1225.06
409.478	1682.54
413.508	4158.51
417.536	5074.63
421.562	2346.84
425.586	1116.82
429.609	867.613
433.629	1221.88
437.648	1795.35
441.665	656.213
445.68	326.805
449.693	222.104
453.704	182.65
457.713	19.215
461.721	18.242
465.726	60.395
469.73	8.344
473.731	8.508
477.731	56.098
481.729	161.951
485.725	338.811
489.72	272.01
493.712	99.885
497.703	96.619
501.691	192.109
505.678	18.396
509.663	198.541
513.646	680.607
517.627	1073.51
521.607	1121.25
525.584	1538.82
529.56	2050.26
533.534	937.5
537.506	476.541
541.476	376.451
545.444	107.758
549.41	83.613
553.375	79.709
557.337	142.266
561.298	11.664
565.257	73.963
569.214	97.549
573.17	44.812
577.123	13.422
581.075	83.426
585.024	403.92
588.972	363.004
592.918	690.787
596.863	261.221
600.805	171.266
604.746	34.943
608.685	288.955
612.621	103.371
616.557	244.49
620.49	190.932
624.421	496.512
628.351	52.768
632.279	110.514
636.205	412.398
640.129	356.221
644.051	742.486
647.972	973.463
651.89	1308.04
655.807	1527.33
659.722	2077.39
663.636	3275.86
667.547	6755.48
671.457	17065.8
675.365	22685.3
679.271	11681
683.175	4984.27
687.077	2856.06
690.978	2299.25
694.877	1623.78
698.774	1088.6
702.669	626.545
706.562	416.928
710.454	215.625
714.344	519.475
718.232	554.016
722.118	427.363
726.002	192.855
729.885	53.209
733.766	325.893
737.645	511.566
741.522	739.258
745.397	702.738
749.271	1062.98
753.143	1295.48
757.013	446.297
760.881	125.299
764.748	313.336
768.613	463.184
772.476	269.426
776.337	62.434
780.196	236.615
784.054	263.068
787.91	231.236
791.764	164.398
795.616	20.771
799.467	249.709
803.316	81.82
807.163	205.572
811.008	31.611
814.851	199.441
818.693	3.607
822.533	27.873
826.371	230.855
830.208	68.992
834.042	100.221
837.875	122.209
841.706	69.506
845.536	177.117
849.363	139.492
853.189	396.572
857.013	279.336
860.836	28.957
864.656	11.92
868.475	112.109
872.292	22.801
876.108	306.656
879.922	50.338
883.733	270.492
887.544	253.117
891.352	241.58
895.159	165.807
898.964	217.723
902.767	389.309
906.568	252.607
910.368	575.553
914.166	944.434
917.962	534.74
921.757	1110.88
925.55	1809.87
929.341	3302.95
933.13	3936.66
936.918	2801.36
940.703	1283.86
944.488	1600.5
948.27	2111.47
952.051	1366.06
955.83	663.938
959.607	727.055
963.383	502.711
967.156	417.766
970.928	384.531
974.699	545.293
978.468	520.695
982.234	313.824
986	29.004
989.763	401.105
993.525	457.273
997.285	695.742
1001.04	274.605
1004.8	634.578
1008.55	1011.88
1012.31	987.488
1016.06	1484.98
1019.81	1990.05
1023.56	2938.9
1027.31	5252.51
1031.05	9285.85
1034.79	5140.01
1038.53	2479.07
1042.27	1844.34
1046.01	1705.95
1049.75	1374.29
1053.48	2025.45
1057.22	2938.26
1060.95	5848.97
1064.68	4836.09
1068.4	2843.66
1072.13	2730.35
1075.86	1877.21
1079.58	1157.11
1083.3	878.312
1087.02	644.633
1090.74	669.348
1094.45	622.789
1098.17	300.434
1101.88	554.289
1105.59	278.953
1109.3	537.051
1113.01	326.746
1116.71	274.98
1120.42	402.906
1124.12	339.977
1127.82	49.012
1131.52	178.129
1135.22	78.434
1138.91	260.875
1142.61	42.703
1146.3	162.652
1149.99	139.918
1153.68	285.266
1157.37	330.137
1161.06	90.215
1164.74	107.578
1168.42	185.773
1172.1	210.367
1175.78	75.965
1179.46	377.051
1183.14	44.367
1186.81	175.84
1190.48	161.758
1194.15	413.145
1197.83	143.621
1201.49	341.172
1205.16	436.32
1208.82	302.457
1212.49	368.414
1216.15	417.148
1219.81	651.246
1223.46	411.082
1227.12	643.758
1230.78	778.762
1234.43	264.48
1238.08	500.133
1241.73	653.016
1245.38	464.105
1249.03	754.895
1252.67	588.027
1256.31	474.871
1259.95	169.098
1263.6	359.148
1267.23	342.43
1270.87	210.832
1274.51	320.629
1278.14	302.203
1281.77	394.039
1285.4	77.039
1289.03	153.918
1292.66	526.195
1296.28	453.246
1299.91	309.75
1303.53	287.727
1307.15	304.855
1310.77	75.438
1314.38	464.293
1318	257.336
1321.61	582.242
1325.23	431.73
1328.84	284.004
1332.45	45.965
1336.06	195.574
1339.66	220.406
1343.27	205.477
1346.87	478.254
