Measurement: Raman, 514 nm, unoriented, Raman Data Processed
Mineral: Tremolite
Rruff sample: R050167
Ideal chemistry: [box]Ca_2_Mg_5_Si_8_O_22_(OH)_2_
Locality: Hunza Valley, Afghanistan
Source: Marcus Origlieri
Description: Green tabular crystals
Measured chemistry: ([box]_0.90_Na_0.10_)(Ca_0.98_Mg_0.01_Fe^2+^_0.01_)_2_(Mg_0.94_Al_0.06_)_5_(Si_0.95_Al_0.05_)_8_O_22_((OH)_0.98_F_0.02_)_2_
Raman shift (cm-1)	intensity
86.404	0
90.587	30.645
94.768	4.331
98.947	19.209
103.124	28.158
107.3	302.387
111.473	559.325
115.644	1695.14
119.813	2232.87
123.981	2361.19
128.146	831.178
132.309	280.995
136.47	315.016
140.63	310.124
144.787	235.006
148.942	308.801
153.096	780.103
157.247	2626.2
161.396	4800.94
165.544	3668.21
169.689	2723.87
173.833	4050.9
177.974	5769.22
182.114	4856.1
186.251	2518.07
190.387	1238.63
194.52	917.567
198.652	787.459
202.782	1087.6
206.909	1686.55
211.035	2928.69
215.159	5337.47
219.281	8760.08
223.4	11065.4
227.518	10615.2
231.634	11533.7
235.748	11666.8
239.86	7636.43
243.97	4571.61
248.079	4715.48
252.185	5314.21
256.289	4010.24
260.391	2508.29
264.492	1754.52
268.59	878.725
272.687	363.732
276.781	48.061
280.874	64.958
284.964	53.788
289.053	63.222
293.14	43.96
297.225	396.405
301.308	859.465
305.389	1067.59
309.468	970.896
313.545	583.878
317.62	387.397
321.693	314.006
325.765	364.648
329.834	468.635
333.902	635.947
337.967	824.783
342.031	1300.39
346.093	1701.63
350.153	2440.12
354.21	2406.83
358.267	2223.81
362.321	2732.05
366.373	4124.53
370.423	5563.23
374.471	5203.15
378.518	4246.27
382.563	3285.57
386.605	3820.05
390.646	6668.69
394.685	8247.48
398.722	5629.01
402.757	3004.43
406.79	2270.38
410.821	3346.65
414.851	5047.06
418.878	5084.93
422.904	3451.03
426.927	2399.12
430.949	1991.44
434.969	2108.9
438.987	1662.2
443.003	728.063
447.018	367.18
451.03	155.15
455.041	13.309
459.049	1.127
463.056	95.03
467.061	46.063
471.064	70.747
475.065	77.578
479.064	67.861
483.062	89.217
487.057	143.528
491.051	116.347
495.043	22.191
499.032	31.376
503.02	111.97
507.007	311.236
510.991	641.471
514.973	1282.62
518.954	1706.71
522.933	1953.71
526.91	2360.61
530.885	2437.4
534.858	1758.08
538.829	1016.64
542.799	617.075
546.766	260.393
550.732	195.59
554.696	20.667
558.658	100.594
562.618	48.335
566.576	12.694
570.533	29.401
574.488	91.92
578.44	7.799
582.391	23.342
586.341	96.581
590.288	166.625
594.233	19.442
598.177	37.082
602.119	32.101
606.059	43.322
609.997	63.399
613.933	73.089
617.868	185.411
621.801	215.726
625.731	465.294
629.66	473.813
633.588	768.035
637.513	991.062
641.437	1450.1
645.358	2212.66
649.278	3275.09
653.196	4697.17
657.113	5820.29
661.027	8376.92
664.94	14047.4
668.851	24982.1
672.76	35541
676.667	28963.3
680.572	16011.5
684.476	9052.41
688.378	5731.1
692.278	4367.59
696.176	3002.87
700.072	2208.39
703.967	1517.27
707.86	1293.39
711.751	957.059
715.64	839.094
719.527	770.987
723.413	552.677
727.297	581.717
731.179	616.954
735.059	646.551
738.937	899.271
742.814	997.295
746.689	1123.29
750.562	1053.66
754.433	807.15
758.303	567.266
762.17	238.648
766.036	98.244
769.901	246.195
773.763	128.45
777.624	120.627
781.482	61.746
785.339	102.846
789.195	160.96
793.048	163.106
796.9	75.214
800.75	52.253
804.598	52.149
808.445	41.263
812.289	34.987
816.132	31.874
819.973	48.146
823.813	71.089
827.65	121.995
831.486	194.85
835.32	77.683
839.152	129.5
842.983	51.307
846.812	122.111
850.639	117.924
854.464	77.744
858.288	36.377
862.11	0.512
865.93	7.595
869.748	74.301
873.564	194.271
877.379	106.475
881.192	146.923
885.004	106.777
888.813	320.853
892.621	463.062
896.427	463.409
900.232	465.838
904.034	720.404
907.835	1008.16
911.634	928.194
915.432	1445.48
919.227	1985.88
923.021	2657.48
926.813	3947.16
930.604	4755.77
934.393	3879.42
938.18	2617.23
941.965	1989.23
945.749	1795.31
949.53	1719.44
953.311	1515.41
957.089	1112.05
960.866	810.236
964.641	748.336
968.414	738.022
972.185	615.051
975.955	620.774
979.723	770.212
983.49	885.01
987.254	732.783
991.017	831.698
994.779	1198.76
998.538	1258.82
1002.3	1531.5
1006.05	2000.05
1009.81	2459.44
1013.56	2837.88
1017.31	3385.87
1021.06	3837.02
1024.81	4934.21
1028.55	6502.06
1032.3	6204.83
1036.04	4852.97
1039.78	4007.52
1043.52	4111.15
1047.26	4610.32
1050.99	5722.91
1054.73	7398.41
1058.46	8635.76
1062.19	7751.3
1065.92	5940.69
1069.65	4647.85
1073.37	3093.79
1077.1	1894.3
1080.82	1283.83
1084.54	863.021
1088.26	729.168
1091.97	722.655
1095.69	573.745
1099.4	448.965
1103.12	534.318
1106.83	330.138
1110.54	361.222
1114.24	378.968
1117.95	331.651
1121.65	337.271
1125.35	337.894
1129.06	207.841
1132.75	272.587
1136.45	295.302
1140.15	163.016
1143.84	38.58
1147.53	77.772
1151.22	7.605
1154.91	88.191
1158.6	1.165
1162.28	6.278
1165.97	80.201
1169.65	1.374
1173.33	4.479
1177.01	72.145
1180.69	62.062
1184.36	123.092
1188.04	98.749
1191.71	6.623
1195.38	76.039
1199.05	30.088
1202.71	181.331
1206.38	61.84
1210.04	58.763
1213.71	58.465
1217.37	52.287
1221.03	94.728
1224.68	127.165
1228.34	37.24
1231.99	87.256
1235.65	40.458
1239.3	65.778
1242.95	48.562
1246.59	92.507
1250.24	137.668
1253.88	128.508
1257.53	66.211
1261.17	81.538
1264.81	86.063
1268.45	141.707
1272.08	129.638
1275.72	179.636
1279.35	183.31
1282.98	90.263
1286.61	187.818
1290.24	82.739
1293.87	88.771
1297.49	31.059
1301.11	150.896
1304.73	78.194
1308.36	87.051
1311.97	74.861
1315.59	96.828
1319.2	147.743
1322.82	71.53
1326.43	31.758
1330.04	46.765
1333.65	25.885
1337.26	137.729
1340.86	38.287
1344.47	83.565
1348.07	200.854
1351.67	238.282
1355.27	209.063
1358.87	244.567
1362.46	157.389
1366.06	122.76
1369.65	124.834
1373.24	59.425
1376.83	9.8
1380.42	158.343
1384	143.875
1387.59	224.877
1391.17	206.45
1394.75	269.656
1398.33	210.855
1401.91	250.543
1405.49	50.211
1409.06	268.092
1412.64	276.389
1416.21	117.129
1419.78	269.037
1423.35	171.758
1426.91	104.375
1430.48	8.316
1434.05	227.33
1437.61	399.91
1441.17	323.369
1444.73	266.754
1448.29	189.631
1451.84	332.191
1455.4	303.707
1458.95	360.799
1462.5	229.023
1466.05	111.898
1469.6	299.396
1473.15	167.738
1476.69	98.527
1480.24	197.867
1483.78	187.988
1487.32	106.08
1490.86	243.26
1494.39	316.234
1497.93	26.51
1501.46	124.34
1505	151.365
1508.53	24.834
1512.06	0
