Measurement: Raman, 532 nm, unoriented, Raman Data Processed
Mineral: Tremolite
Rruff sample: R070422
Ideal chemistry: [box]Ca_2_Mg_5_Si_8_O_22_(OH)_2_
Locality: Merilani Hills, Arusha, Tanzania
Source: Steve Ulatowski
Description: Green gemmy fragment
Measured chemistry: ([box]_0.74_Na_0.15_K_0.11_)_Σ=1_(Ca_1.96_Na_0.04_)_Σ=2_(Mg_4.55_Al_0.41_V_0.04_)_Σ=5_(Si_7.33_Al_0.67_)_Σ=8_O_22_((OH)_1.80_F_0.20_)_Σ=2_
Raman shift (cm-1)	intensity
150.405	0
153.78	74.5884
157.155	400.123
160.529	1053.06
163.904	1093.33
167.279	429.349
170.654	429.5
174.029	1325.96
177.404	1246.77
180.778	1570.85
184.153	985.925
187.528	429.467
190.903	194.32
194.278	50.7222
197.652	50.5981
201.027	40.8066
204.402	150.091
207.777	277.658
211.152	483.886
214.526	803.249
217.901	1371.22
221.276	2112.14
224.651	2383.17
228.026	1826.47
231.401	1237.17
234.775	868.362
238.15	629.155
241.525	406.168
244.9	238.625
248.275	296.153
251.649	366.535
255.024	257.628
258.399	171.985
261.774	103.243
265.149	20.4971
268.524	19.4521
271.898	0.273438
275.273	15.2661
278.648	51.8227
282.023	44.6606
285.398	53.1973
288.772	41.6401
292.147	95.3062
295.522	156.269
298.897	125.775
302.272	229.077
305.647	170.425
309.021	120.554
312.396	136.334
315.771	138.383
319.146	167.43
322.521	219.163
325.896	241.055
329.27	274.601
332.645	396.221
336.02	445.832
339.395	473.509
342.77	460.909
346.144	469.344
349.519	396.266
352.894	303.375
356.269	53.0156
359.644	30.5835
363.019	123.64
366.393	244.272
369.768	364.253
373.143	330.671
376.518	232.932
379.892	164.765
383.267	226.117
386.642	370.123
390.017	616.721
393.392	866.23
396.767	789.028
400.142	433.416
403.516	179.326
406.891	113.918
410.266	45.5894
413.641	194.63
417.016	243.023
420.39	264.309
423.765	184.261
427.14	79.5225
430.515	118.775
433.89	168.849
437.264	204.352
440.639	105.803
444.014	84.0381
447.389	21.4648
450.764	4.68555
454.139	0.179688
457.513	13.8145
460.888	11.0762
464.263	30.2451
467.638	36.415
471.013	67.8857
474.387	18.8369
477.762	76.3828
481.137	74.083
484.512	113.148
487.887	163.226
491.262	187.019
494.636	87.4453
498.011	54.7969
501.386	87.0547
504.761	57.6865
508.136	153.077
511.51	189.656
514.885	169.465
518.26	182.382
521.635	238.347
525.01	114.308
528.385	97.0391
531.759	113.984
535.134	216.059
538.509	110.864
541.884	137.001
545.259	168.84
548.634	121.663
552.008	97.6416
555.383	151.82
558.758	117.894
562.133	78.5391
565.508	104.991
568.882	6.35449
572.257	87.6953
575.632	146.414
579.007	75.7061
582.382	41.2949
585.756	50.79
589.131	77.1269
592.506	36.5879
595.881	40.6338
599.256	18.1104
602.631	43.919
606.005	0.760742
609.38	83.0312
612.755	46.7754
616.13	123.057
619.505	118.009
622.88	110.091
626.254	142.711
629.629	168.394
633.004	294.702
636.379	318.736
639.754	481.619
643.128	652.981
646.503	850
649.878	1061.18
653.253	1413.61
656.628	1761.2
660.002	2251.22
663.377	3075.33
666.752	4418.75
670.127	5861.25
673.502	6756.02
676.876	5520.75
680.251	3108.8
683.626	1809.03
687.001	1149.32
690.376	678.514
693.751	488.738
697.125	376.144
700.5	227.144
703.875	204.279
707.25	171.644
710.625	76.4394
714	116.205
717.374	45.5645
720.749	56.6426
724.124	3.125
727.499	9.91211
730.874	5.44727
734.249	21.0449
737.623	51.0938
740.998	55.2246
744.373	38.1035
747.748	47.3457
751.123	128.31
754.497	59.7305
757.872	91.0449
761.247	100.482
764.622	153.402
767.997	48.209
771.371	110.176
774.746	11.3027
778.121	72.3965
781.496	81.8144
784.871	83.8731
788.245	53.9805
791.62	72.3965
794.995	178.932
798.37	57.0254
801.745	208.494
805.12	42.1953
808.494	220.656
811.869	78.0684
815.244	155.764
818.619	199.269
821.994	258.58
825.369	194.33
828.743	76.1953
832.118	145.012
835.493	91.2168
838.868	120.576
842.243	138.527
845.617	173.365
848.992	130.076
852.367	87.3125
855.742	167.377
859.117	178.664
862.492	66.5977
865.866	99.4356
869.241	130.906
872.616	49.8926
875.991	69.2949
879.366	123.244
882.74	88.7578
886.115	107.596
889.49	33.75
892.865	132.543
896.24	78.6016
899.615	178.281
902.989	199.328
906.364	287.504
909.739	217.047
913.114	205.578
916.489	375.25
919.864	470
923.238	641.055
926.613	674.039
929.988	758.656
933.363	685.117
936.737	526.195
940.112	510.668
943.487	481.798
946.862	447.592
950.237	398.523
953.612	368.738
956.986	244.316
960.361	249.5
963.736	180.07
967.111	113.066
970.486	78.0117
973.861	39.1328
977.235	217.547
980.61	23.6133
983.985	92.6602
987.36	38.8906
990.735	234.965
994.109	61.2461
997.484	40.5117
1000.86	32.2617
1004.23	46.9805
1007.61	141.199
1010.98	263.738
1014.36	191.856
1017.73	293.332
1021.11	395.637
1024.48	433.879
1027.86	666.465
1031.23	651.43
1034.61	597.211
1037.98	707.289
1041.36	785.641
1044.73	953.129
1048.11	1257.72
1051.48	1539.09
1054.86	1674.73
1058.23	1841.75
1061.61	1628.05
1064.98	1509.08
1068.36	1052.99
1071.73	624.519
1075.11	333.734
1078.48	348.301
1081.86	227.148
1085.23	100.773
1088.6	52.1523
1091.98	178.391
1095.35	94.9062
1098.73	97.9844
1102.1	67.8125
1105.48	102.707
1108.85	122.836
1112.23	263.09
1115.6	36.5117
1118.98	31.3984
1122.35	154.504
1125.73	176.844
1129.1	231.961
1132.48	127.039
1135.85	256.848
1139.23	130.492
1142.6	233.465
1145.98	225.363
1149.35	216.398
1152.73	363.383
1156.1	129.113
1159.48	188.57
1162.85	184.801
1166.22	231.879
1169.6	348.559
1172.97	148.363
1176.35	65.2422
1179.72	30.5391
1183.1	166.422
1186.47	133.844
1189.85	105.812
1193.22	118.234
1196.6	258.547
1199.97	233.996
1203.35	122.141
1206.72	345.531
1210.1	255.906
1213.47	195.586
1216.85	54
1220.22	115.102
1223.6	124.047
1226.97	141.789
1230.35	163.523
1233.72	353.758
1237.1	210.977
1240.47	206.406
1243.85	230.938
1247.22	264.406
1250.6	231.07
1253.97	262.75
1257.35	236.062
1260.72	209.25
1264.1	118.227
1267.47	13.1172
1270.85	287.492
1274.22	414.523
1277.59	378.141
1280.97	55.5312
1284.34	384.094
1287.72	426.617
1291.09	353.32
1294.47	171.547
1297.84	262.539
1301.22	155.312
1304.59	79.3906
1307.97	244.672
1311.34	327.945
1314.72	78.6953
