Measurement: Raman, 532 nm, unoriented, Raman Data Processed
Mineral: Tremolite
Rruff sample: R040045
Ideal chemistry: [box]Ca_2_Mg_5_Si_8_O_22_(OH)_2_
Locality: Gouverneur, New York, USA
Source: University of Arizona Mineral Museum
Description: Group of colorless acicular single crystals
Measured chemistry: Ca_2.01_(Mg_0.99_Fe_0.01_)_5_(Si_0.99_Fe_0.01_)_8_O_22_(OH)_2_
Raman shift (cm-1)	intensity
141.927	0
144.819	40.0991
147.712	10.2754
150.605	5.31885
153.497	55.6865
156.39	102.399
159.283	216.89
162.175	278.213
165.068	234.351
167.961	146.933
170.853	152.95
173.746	230.506
176.639	472.249
179.532	856.3
182.424	235.473
185.317	68.9585
188.21	51.5737
191.102	53.9863
193.995	70.8213
196.888	3.68018
199.78	9.97607
202.673	12.5718
205.566	74.7456
208.459	110.271
211.351	185.968
214.244	337.06
217.137	371.453
220.029	529.185
222.922	911.658
225.815	699.512
228.708	364.493
231.6	471.226
234.493	463.867
237.386	209.269
240.278	96.4981
243.171	67.8857
246.064	78.5894
248.956	191.499
251.849	211.23
254.742	121.641
257.635	55.4966
260.527	33.5742
263.42	21.7949
266.313	9.66992
269.205	20.4902
272.098	14.5674
274.991	12.0356
277.883	2.94922
280.776	6.48438
283.669	10.3594
286.562	49.4058
289.454	106.603
292.347	99.8232
295.24	23.7451
298.132	13.0112
301.025	46.314
303.918	52.0435
306.81	28.2334
309.703	10.5952
312.596	32.25
315.488	14.001
318.381	1.88721
321.274	19.7837
324.167	5.59424
327.059	19.2847
329.952	61.5083
332.845	134.073
335.737	100.198
338.63	50.314
341.523	78.3374
344.415	107.699
347.308	109.425
350.201	137.329
353.094	198.907
355.986	134.778
358.879	142.168
361.772	149.131
364.664	245.032
367.557	481.12
370.45	778.371
373.342	429.525
376.235	179.374
379.128	132.762
382.021	119.575
384.913	169.505
387.806	243.083
390.699	418.661
393.591	697.469
396.484	701.101
399.377	264.427
402.269	145.497
405.162	122.212
408.055	144.339
410.947	154.327
413.84	247.061
416.733	290.347
419.626	204.923
422.518	74.812
425.411	57.5005
428.304	34.7393
431.196	58.8159
434.089	46.3457
436.982	28.9902
439.875	14.4619
442.767	1.3501
445.66	23.5308
448.553	4.14356
451.445	4.38379
454.338	2.23193
457.231	1.94189
460.123	18.7998
463.016	1.6665
465.909	1.83496
468.801	19.4229
471.694	29.6626
474.587	27.4907
477.48	9.56055
480.372	9.16699
483.265	25.5869
486.158	49.5254
489.05	39.5024
491.943	44.5654
494.836	58.1728
497.728	38.7847
500.621	40.2817
503.514	51.3565
506.407	83.6894
509.299	82.4082
512.192	134.598
515.085	136
517.977	109.444
520.87	78.5474
523.763	57.9639
526.655	61.77
529.548	75.8662
532.441	47.8823
535.334	36.7895
538.226	13.9575
541.119	7.61328
544.012	12.294
546.904	36.7622
549.797	39.647
552.69	32.9302
555.582	11.4307
558.475	13.8452
561.368	14.9326
564.261	25.1816
567.153	5.74219
570.046	12.3145
572.939	25.2007
575.831	27.6811
578.724	37.1011
581.617	24.9136
584.51	53.2871
587.402	44.708
590.295	53.8491
593.188	14.1118
596.08	0.574219
598.973	29.8784
601.866	27.3389
604.758	19.6987
607.651	11.0649
610.544	8.03027
613.437	3.33301
616.329	8.64697
619.222	21.3633
622.115	7.01367
625.007	13.5781
627.9	8.22412
630.793	2.70264
633.685	14.4404
636.578	11.564
639.471	20.2983
642.364	30.5181
645.256	64.6987
648.149	114.109
651.042	170.397
653.934	233.592
656.827	341.996
659.72	515.596
662.612	734.761
665.505	1057.79
668.398	1557.15
671.29	2347.89
674.183	2997.16
677.076	2388.37
679.969	1240.23
682.861	621.172
685.754	359.789
688.647	222.298
691.539	159.84
694.432	145.512
697.325	64.6929
700.217	27.6484
703.11	15.6479
706.003	5.58545
708.896	14.8267
711.788	11.3574
714.681	8.4126
717.574	5.78906
720.466	4.71973
723.359	6.93945
726.252	29.2549
729.144	9.31006
732.037	3.3501
734.93	22.9204
737.823	77.2295
740.715	125.433
743.608	121.394
746.501	95.1323
749.393	96.3154
752.286	121.767
755.179	82.7578
758.072	16.2144
760.964	14.1943
763.857	2.82861
766.75	0.734375
769.642	12.209
772.535	11.4409
775.428	25.3135
778.32	7.84082
781.213	6.94238
784.106	13.439
786.998	5.91211
789.891	21.2598
792.784	25.3784
795.677	37.8984
798.569	42.0991
801.462	18.3057
804.355	32.3706
807.247	14.9902
810.14	0.508789
813.033	9.83545
815.925	10.9336
818.818	12.1797
821.711	30.5791
824.604	26.2725
827.496	40.1943
830.389	62.7793
833.282	11.167
836.174	40.708
839.067	15.8232
841.96	16.708
844.852	21.0859
847.745	8.52734
850.638	6.19043
853.53	12.208
856.423	45.6602
859.316	48.5088
862.209	15.877
865.101	27.5713
867.994	40.8652
870.887	27.4883
873.779	15.6455
876.672	17.7188
879.565	12.1133
882.457	6.90137
885.35	30.0674
888.243	5.5293
891.136	11.9795
894.028	16.6621
896.921	11.6113
899.814	17.6025
902.706	5.10742
905.599	21.6191
908.492	29.1094
911.385	11.8672
914.277	20.1934
917.17	38.8154
920.063	68.2344
922.955	110.262
925.848	158.314
928.741	209.524
931.633	266.03
934.526	204.383
937.419	131.069
940.312	50.9736
943.204	44.8848
946.097	44.6445
948.99	63.54
951.882	17.2119
954.775	27.8008
957.668	18.9443
960.56	15.2383
963.453	10.544
966.346	10.4404
969.239	20.4502
972.131	44.2949
975.024	2.29688
977.917	7.90039
980.809	20.2734
983.702	33.0283
986.595	19.5801
989.487	35.831
992.38	8.5
995.273	2.51367
998.165	0.845703
1001.06	12.8525
1003.95	33.0547
1006.84	18.2334
1009.74	25.96
1012.63	62.2022
1015.52	102.806
1018.41	148.094
1021.31	185.714
1024.2	242.74
1027.09	332.608
1029.98	439.153
1032.88	381.819
1035.77	163.318
1038.66	97.9902
1041.56	29.6396
1044.45	37.252
1047.34	57.543
1050.23	90.5801
1053.13	119.327
1056.02	176.702
1058.91	292.303
1061.81	360.057
1064.7	268.442
1067.59	210.869
1070.48	248.727
1073.38	174.504
1076.27	85.7617
1079.16	26.3789
1082.05	23.5869
1084.95	5.56934
1087.84	20.5752
1090.73	0.731445
1093.62	25.7686
1096.52	38.1143
1099.41	9.47461
1102.3	1.00293
1105.19	9.97754
1108.09	37.332
1110.98	19.3271
1113.87	20.6084
1116.77	7.88965
1119.66	38.7773
1122.55	28.3936
1125.44	25.0371
1128.34	4.59375
1131.23	15.6299
1134.12	4.32324
1137.02	6.18164
1139.91	11.2412
1142.8	14.4014
1145.69	21.8584
1148.59	34.8623
1151.48	27.5811
1154.37	28.9512
1157.26	27.1904
1160.16	22.249
1163.05	25.0459
1165.94	41.3027
1168.84	41.501
1171.73	25.9805
1174.62	53.2725
1177.51	21.6582
1180.41	5.59473
1183.3	14.6221
1186.19	29.6465
1189.08	12.1533
1191.98	16.3887
1194.87	14.0508
1197.76	25.2764
1200.65	18.7725
1203.55	33.4199
1206.44	36.8994
1209.33	60.918
1212.22	13.2324
1215.12	37.5303
1218.01	28.792
1220.9	47.6387
1223.8	68.2568
1226.69	40.1201
1229.58	23.4619
1232.47	34.751
1235.37	39.4971
1238.26	21.3115
1241.15	12.2119
1244.05	38.6455
1246.94	43.4551
1249.83	34.0537
1252.72	29.3135
1255.62	39.6895
1258.51	24.6475
1261.4	30.1523
1264.29	0.570313
1267.19	11.1318
1270.08	18.6768
1272.97	55.1045
1275.87	24.8691
1278.76	15.1973
1281.65	7.55664
1284.54	29.7871
1287.43	18.0078
1290.33	11.3916
