Measurement: Raman, 780 nm, unoriented, Raman Data Processed
Mineral: Tremolite
Rruff sample: R040045
Ideal chemistry: [box]Ca_2_Mg_5_Si_8_O_22_(OH)_2_
Locality: Gouverneur, New York, USA
Source: University of Arizona Mineral Museum
Description: Group of colorless acicular single crystals
Measured chemistry: Ca_2.01_(Mg_0.99_Fe_0.01_)_5_(Si_0.99_Fe_0.01_)_8_O_22_(OH)_2_
Raman shift (cm-1)	intensity
111.326	0
114.701	38.7721
118.076	160.406
121.451	305.191
124.826	239.91
128.2	41.9755
131.575	0.507813
134.95	6.70593
138.325	12.9131
141.7	38.7441
145.074	51.3603
148.449	27.2949
151.824	41.7096
155.199	78.3263
158.574	276.711
161.948	273.901
165.323	102.133
168.698	64.4153
172.073	101.033
175.448	231.561
178.822	544.073
182.197	115.449
185.572	25.041
188.947	24.4762
192.322	47.8142
195.697	27.2413
199.071	26.6205
202.446	63.8303
205.821	95.2606
209.196	160.94
212.571	291.523
215.946	349.478
219.32	461.889
222.695	863.798
226.07	551.029
229.445	453.377
232.82	549.11
236.194	244.35
239.569	109.912
242.944	85.046
246.319	120.689
249.694	205.667
253.069	134.326
256.443	50.5388
259.818	27.9672
263.193	45.5544
266.568	17.3728
269.943	7.59009
273.317	4.32947
276.692	6.39819
280.067	6.13611
283.442	6.23254
286.817	11.6495
290.191	35.1906
293.566	12.1123
296.941	22.2101
300.316	35.1671
303.691	60.4429
307.065	29.215
310.44	28.7921
313.815	16.6107
317.19	4.60425
320.565	1.17456
323.94	4.1145
327.314	6.34363
330.689	26.4679
334.064	53.9475
337.439	32.4703
340.814	64.8731
344.188	108.022
347.563	103.506
350.938	155.19
354.313	136.651
357.688	87.4708
361.063	105.11
364.437	138.848
367.812	272.715
371.187	326.048
374.562	156.136
377.937	119.014
381.312	91.3247
384.686	111.645
388.061	158.504
391.436	290.441
394.811	444.562
398.185	196.084
401.56	86.5974
404.935	73.3684
408.31	79.6028
411.685	127.094
415.06	208.927
418.434	160.766
421.809	61.0134
425.184	30.7454
428.559	20.7034
431.934	26.3944
435.308	54.5967
438.683	37.3573
442.058	11.844
445.433	1.17114
448.808	2.13196
452.183	4.93909
455.557	3.59839
458.932	1.43408
462.307	0.851318
465.682	7.42285
469.057	1.18591
472.432	5.74048
475.806	7.10022
479.181	14.6527
482.556	20.3779
485.931	26.8954
489.305	27.0358
492.68	26.4706
496.055	28.2327
499.43	24.3446
502.805	29.261
506.18	47.0707
509.554	60.3086
512.929	88.7948
516.304	80.3212
519.679	68.6538
523.054	61.0891
526.428	67.704
529.803	79.6027
533.178	46.739
536.553	14.0939
539.928	13.7457
543.303	3.00623
546.677	3.29675
550.052	3.9491
553.427	6.77405
556.802	2.64002
560.177	1.30994
563.552	0.498169
566.926	0.510742
570.301	4.26575
573.676	5.62707
577.051	4.44861
580.426	5.74512
583.8	7.60205
587.175	3.86023
590.55	1.29346
593.925	4.02551
597.3	2.98096
600.674	0.526123
604.049	1.41455
607.424	1.48035
610.799	1.11243
614.174	2.60779
617.548	1.83106
620.923	2.32593
624.298	2.98474
627.673	7.44958
631.048	4.69421
634.423	12.1107
637.797	18.4895
641.172	32.1317
644.547	52.7977
647.922	83.663
651.297	136.985
654.672	208.256
658.046	280.414
661.421	382.636
664.796	525.846
668.171	802.746
671.546	1299.2
674.92	1476.07
678.295	798.654
681.67	360.112
685.045	193.806
688.42	136.1
691.794	103.236
695.169	66.5504
698.544	32.5183
701.919	20.6415
705.294	10.79
708.669	6.30261
712.043	4.90967
715.418	0.261475
718.793	2.81006
722.168	2.87756
725.543	10.0459
728.918	9.9491
732.292	25.6406
735.667	40.8878
739.042	63.7693
742.417	70.2126
745.792	45.2203
749.166	56.42
752.541	43.3336
755.916	21.7528
759.291	6.99255
762.666	10.5404
766.04	2.45935
769.415	3.34094
772.79	1.03149
776.165	1.37964
779.54	0.354004
782.914	0.692139
786.289	1.9447
789.664	1.01709
793.039	5.93957
796.414	1.06165
799.789	2.74365
803.163	8.0813
806.538	4.92236
809.913	6.77441
813.288	3.80432
816.663	6.23999
820.038	10.1229
823.412	6.17407
826.787	2.73035
830.162	9.50378
833.537	7.52466
836.912	5.80029
840.286	3.0708
843.661	6.23804
847.036	5.40723
850.411	3.23144
853.786	3.56848
857.16	3.75232
860.535	2.07056
863.91	1.19482
867.285	3.53735
870.66	3.86987
874.034	2.99011
877.409	3.58386
880.784	4.01697
884.159	0.256348
887.534	1.6073
890.909	6.13843
894.283	4.93152
897.658	6.42139
901.033	9.86096
904.408	7.58728
907.783	13.1255
911.158	17.5646
914.532	20.8037
917.907	34.1616
921.282	48.9001
924.657	73.6123
928.032	107.68
931.406	141.722
934.781	95.0558
938.156	52.4984
941.531	44.1437
944.906	50.4807
948.28	51.9033
951.655	30.6018
955.03	14.7011
958.405	8.85938
961.78	9.19714
965.154	4.12354
968.529	6.49622
971.904	0.096802
975.279	1.87048
978.654	2.13965
982.029	0.649414
985.403	1.34241
988.778	1.98132
992.153	0.389526
995.528	2.39136
998.903	0.89624
1002.28	3.6781
1005.65	10.8768
1009.03	21.3951
1012.4	26.7845
1015.78	52.6897
1019.15	83.645
1022.53	117.208
1025.9	153.332
1029.28	221.063
1032.65	154.844
1036.03	69.6824
1039.4	39.1123
1042.78	35.5952
1046.15	40.6096
1049.53	64.2015
1052.9	93.3752
1056.28	157.713
1059.65	259.304
1063.02	235.673
1066.4	135.819
1069.77	112.739
1073.15	77.2286
1076.52	41.9509
1079.9	21.8517
1083.27	17.9253
1086.65	16.7821
1090.02	14.9108
1093.4	14.1023
1096.77	6.0769
1100.15	1.19824
1103.52	7.63123
1106.9	4.79468
1110.27	5.47864
1113.65	3.29309
1117.02	1.86353
1120.4	3.80701
1123.77	1.74023
1127.15	3.10913
1130.52	0.249878
1133.89	5.08142
1137.27	3.82043
1140.64	3.18103
1144.02	5.84168
1147.39	4.854
1150.77	5.63574
1154.14	3.28394
1157.52	5.02539
1160.89	7.54394
1164.27	4.05139
1167.64	5.62231
1171.02	5.32654
1174.39	4.10706
1177.77	7.38184
1181.14	14.4952
1184.52	6.54468
1187.89	4.97278
1191.27	6.36658
1194.64	4.58606
1198.02	8.17835
1201.39	5.04761
1204.77	7.65259
1208.14	5.84509
1211.52	3.5022
1214.89	8.18494
1218.27	2.0437
1221.64	5.50439
1225.02	3.09595
1228.39	1.53186
1231.77	2.2074
1235.14	8.04297
1238.52	8.24939
1241.89	1.86047
1245.26	7.39832
1248.64	4.63403
1252.01	3.03967
1255.39	0.087402
1258.76	3.25317
1262.14	0.224365
1265.51	0.781006
