Measurement: Raman, 780 nm, unoriented, Raman Data Processed
Mineral: Tremolite
Rruff sample: R050173
Ideal chemistry: [box]Ca_2_Mg_5_Si_8_O_22_(OH)_2_
Locality: Fort Dauphin, Madagascar
Source: Marcus Origlieri
Description: Mass of colorless acicular crystals
Measured chemistry: [box]Ca_2.00_Mg_5.00_Si_8.00_O_22_(OH)_2_
Raman shift (cm-1)	intensity
150.338	0
153.23	12.7362
156.123	54.6233
159.016	182.155
161.909	125.436
164.801	65.1016
167.694	69.1695
170.587	112.282
173.479	135.41
176.372	188.327
179.265	227.177
182.157	49.1867
185.05	2.30554
187.943	9.42926
190.835	3.56262
193.728	14.31
196.621	19.4905
199.514	33.1535
202.406	86.2539
205.299	135.22
208.192	149.152
211.084	182.623
213.977	234.955
216.87	248.769
219.762	280.611
222.655	369.1
225.548	251.183
228.441	121.931
231.333	124.543
234.226	111.094
237.119	53.2476
240.011	32.7533
242.904	32.5601
245.797	32.401
248.69	40.7897
251.582	50.266
254.475	24.2501
257.368	14.4863
260.26	13.6837
263.153	28.2163
266.046	14.7574
268.938	4.44665
271.831	2.20734
274.724	5.58795
277.616	2.27472
280.509	6.16357
283.402	12.296
286.295	10.6352
289.187	15.4697
292.08	9.35925
294.973	5.72369
297.865	10.1937
300.758	15.8936
303.651	14.3791
306.543	2.0741
309.436	6.70904
312.329	1.49268
315.221	1.02307
318.114	1.23938
321.007	1.48303
323.9	11.5651
326.792	17.6533
329.685	20.6533
332.578	36.2073
335.47	41.6047
338.363	42.9352
341.256	52.3444
344.149	64.6468
347.041	54.7147
349.934	62.1208
352.827	69.7905
355.719	52.0169
358.612	50.8982
361.505	51.457
364.397	62.0315
367.29	77.022
370.183	93.9098
373.075	72.1627
375.968	72.6885
378.861	63.5998
381.754	52.0393
384.646	63.2529
387.539	74.593
390.432	94.2505
393.324	125.75
396.217	111.547
399.11	45.2446
402.002	23.5937
404.895	16.4799
407.788	18.0516
410.681	27.9495
413.573	38.3809
416.466	39.6964
419.359	24.9811
422.251	9.59491
425.144	0.867554
428.037	1.16315
430.93	2.23694
433.822	7.95776
436.715	8.11468
439.608	1.61621
442.5	6.0141
445.393	6.53388
448.286	8.71381
451.178	17.3861
454.071	23.4429
456.964	31.4103
459.856	49.6389
462.749	62.9522
465.642	56.5471
468.535	30.4213
471.427	19.2266
474.32	7.68164
477.213	4.94745
480.105	5.73352
482.998	1.92871
485.891	3.53406
488.783	3.95349
491.676	4.50507
494.569	1.6405
497.462	4.31317
500.354	4.49439
503.247	9.0921
506.14	10.5897
509.032	14.8728
511.925	24.075
514.818	33.7583
517.71	31.4142
520.603	29.1424
523.496	28.8449
526.389	31.0345
529.281	35.2953
532.174	28.4893
535.067	12.004
537.959	2.90015
540.852	1.02594
543.745	0.076538
546.638	2.75403
549.53	0.92804
552.423	2.67127
555.316	4.55212
558.208	3.63275
561.101	2.24945
563.994	2.05621
566.886	1.40521
569.779	2.79285
572.672	1.21448
575.564	4.79358
578.457	0.070496
581.35	3.69135
584.243	3.87592
587.135	4.92133
590.028	4.02124
592.921	5.02545
595.813	2.61127
598.706	2.81805
601.599	0.814453
604.491	1.22827
607.384	1.33472
610.277	2.16937
613.169	2.57147
616.062	1.63916
618.955	1.84796
621.848	3.36768
624.74	0.531189
627.633	6.85596
630.526	10.2211
633.418	10.0978
636.311	17.7915
639.204	29.2127
642.096	38.01
644.989	49.0391
647.882	66.6408
650.775	89.1641
653.667	124.647
656.56	181.501
659.453	260.301
662.345	317.243
665.238	387.471
668.131	479.443
671.024	570.789
673.916	599.862
676.809	442.645
679.702	236.868
682.594	142.291
685.487	92.9347
688.38	73.3782
691.272	61.7944
694.165	43.0097
697.058	26.7068
699.951	14.8271
702.843	11.8386
705.736	6.91681
708.629	6.29486
711.521	2.81775
714.414	1.34369
717.307	0.758057
720.199	2.32355
723.092	1.89002
725.985	0.636658
728.877	2.22882
731.77	2.57202
734.663	6.3869
737.556	8.85608
740.448	14.3688
743.341	15.6386
746.234	11.8154
749.126	12.3018
752.019	11.1788
754.912	6.89984
757.804	1.13397
760.697	1.54266
763.59	2.85278
766.482	1.98639
769.375	0.825195
772.268	1.52197
775.161	1.46753
778.053	4.34186
780.946	3.70917
783.839	0.775879
786.731	6.28247
789.624	1.62402
792.517	1.67407
795.409	6.98383
798.302	4.53149
801.195	3.99475
804.088	6.93109
806.98	8.0694
809.873	5.46948
812.766	7.43799
815.658	0.887939
818.551	5.28906
821.444	5.55328
824.337	5.00391
827.229	8.62799
830.122	6.8844
833.015	7.00366
835.907	11.6092
838.8	5.82483
841.693	6.90619
844.585	6.98077
847.478	3.83685
850.371	7.56079
853.264	5.70795
856.156	5.10809
859.049	3.00885
861.942	9.2868
864.834	5.30518
867.727	5.75458
870.62	5.35437
873.512	1.4848
876.405	1.00366
879.298	2.31683
882.191	2.40027
885.083	3.19092
887.976	8.39569
890.869	0.821838
893.761	1.22375
896.654	1.30896
899.547	2.24426
902.439	1.61176
905.332	4.1474
908.225	0.881531
911.117	6.61951
914.01	17.5344
916.903	20.8677
919.796	30.6298
922.688	45.0928
925.581	54.0875
928.474	63.2232
931.366	62.5792
934.259	47.3545
937.152	30.0126
940.044	25.3144
942.937	19.4031
945.83	26.6196
948.723	21.5082
951.615	13.5801
954.508	8.46002
957.401	6.98114
960.293	1.26263
963.186	1.56946
966.079	1.08112
968.971	1.77692
971.864	2.20477
974.757	0.072937
977.65	0.109985
980.542	1.38434
983.435	1.14856
986.328	1.29004
989.22	0.273315
992.113	0.03302
995.006	1.05536
997.899	6.86499
1000.79	4.13855
1003.68	7.24817
1006.58	10.4757
1009.47	16.3384
1012.36	16.6801
1015.25	24.1976
1018.15	32.687
1021.04	42.9847
1023.93	42.2459
1026.83	47.1101
1029.72	56.5945
1032.61	40.0507
1035.5	26.8246
1038.4	17.2426
1041.29	23.1991
1044.18	33.2265
1047.07	58.1253
1049.97	84.885
1052.86	113.981
1055.75	149.797
1058.64	182.795
1061.54	173.518
1064.43	106.73
1067.32	57.835
1070.22	37.4012
1073.11	28.5264
1076	28.1054
1078.89	26.8508
1081.79	28.0883
1084.68	32.2925
1087.57	25.7211
1090.46	15.6398
1093.36	4.75195
1096.25	4.65295
1099.14	4.77814
1102.04	3.7135
1104.93	3.28253
1107.82	0.800781
1110.71	1.95441
1113.61	1.89673
1116.5	4.94867
1119.39	0.727966
1122.29	0.989136
1125.18	2.40826
1128.07	0.271484
1130.96	4.05908
1133.86	0.933289
1136.75	0.929443
1139.64	1.83423
1142.53	3.75177
1145.43	3.90875
1148.32	6.30151
1151.21	2.39331
1154.1	4.71356
1157	5.37384
1159.89	7.59839
1162.78	5.29633
1165.67	6.96887
1168.57	4.10071
1171.46	7.58063
1174.35	2.04456
1177.25	3.29163
1180.14	2.48578
1183.03	5.11529
1185.92	6.77216
1188.82	6.57434
1191.71	4.86279
1194.6	4.20612
1197.49	5.10846
1200.39	7.48401
1203.28	5.58044
1206.17	4.42279
1209.07	3.70099
1211.96	1.08179
1214.85	5.9801
1217.74	1.34979
1220.64	1.53656
1223.53	3.65192
1226.42	3.30158
1229.31	1.93903
1232.21	3.37262
1235.1	9.69409
1237.99	2.896
1240.88	7.52008
1243.78	2.01178
1246.67	1.06049
1249.56	4.58075
1252.46	4.47827
1255.35	3.87256
1258.24	5.96643
1261.13	0.564331
1264.03	2.71161
1266.92	0.244812
1269.81	3.30682
1272.7	3.16547
1275.6	2.73718
1278.49	0.953064
1281.38	2.52313
1284.28	1.42108
