Measurement: Raman, 532 nm, unoriented, Raman Data Processed
Mineral: Tremolite
Rruff sample: R050167
Ideal chemistry: [box]Ca_2_Mg_5_Si_8_O_22_(OH)_2_
Locality: Hunza Valley, Afghanistan
Source: Marcus Origlieri
Description: Green tabular crystals
Measured chemistry: ([box]_0.90_Na_0.10_)(Ca_0.98_Mg_0.01_Fe^2+^_0.01_)_2_(Mg_0.94_Al_0.06_)_5_(Si_0.95_Al_0.05_)_8_O_22_((OH)_0.98_F_0.02_)_2_
Raman shift (cm-1)	intensity
139.065	0
142.44	3.52081
145.815	9.87003
149.19	1.57646
152.564	0.518433
155.939	11.8161
159.314	49.5234
162.689	133.961
166.064	62.766
169.438	25.4282
172.813	31.6769
176.188	69.7788
179.563	140.242
182.938	75.7364
186.312	18.4015
189.687	6.36134
193.062	6.29253
196.437	3.55589
199.812	0.054306
203.187	7.35962
206.561	22.9899
209.936	44.2625
213.311	88.1237
216.686	135.045
220.061	164.366
223.435	246.302
226.81	209.88
230.185	153.657
233.56	198.641
236.935	185.456
240.31	92.3286
243.684	52.6429
247.059	57.9348
250.434	93.8225
253.809	99.2304
257.184	56.1162
260.558	37.9793
263.933	38.233
267.308	25.3955
270.683	6.6696
274.058	0.045105
277.433	2.43738
280.807	3.55141
284.182	3.48999
287.557	0.567017
290.932	5.09515
294.307	4.56769
297.681	5.72555
301.056	12.529
304.431	22.1849
307.806	16.9708
311.181	10.9279
314.555	7.62062
317.93	2.55661
321.305	1.87515
324.68	2.9628
328.055	4.35381
331.43	8.95706
334.804	14.6829
338.179	13.0612
341.554	20.7454
344.929	33.3754
348.304	41.9009
351.678	55.4779
355.053	53.9055
358.428	40.3364
361.803	41.6336
365.178	55.854
368.553	89.7561
371.927	122.783
375.302	106.014
378.677	80.7293
382.052	56.3792
385.427	55.6102
388.801	74.006
392.176	124.523
395.551	187.374
398.926	130.442
402.301	55.3805
405.675	37.1342
409.05	41.3755
412.425	59.1474
415.8	89.9072
419.175	96.0914
422.55	60.4236
425.924	34.081
429.299	23.8546
432.674	25.4657
436.049	30.5826
439.424	25.3714
442.798	7.4487
446.173	1.03278
449.548	1.40431
452.923	1.89166
456.298	1.52536
459.673	1.33331
463.047	0.941879
466.422	0.313751
469.797	0.352417
473.172	1.57246
476.547	3.80098
479.921	4.61244
483.296	7.02748
486.671	10.5009
490.046	10.0264
493.421	9.83699
496.796	9.21729
500.17	8.56682
503.545	9.83057
506.92	15.4353
510.295	23.6509
513.67	34.7682
517.044	41.4943
520.419	40.3158
523.794	38.141
527.169	42.6598
530.544	49.8171
533.918	39.756
537.293	22.2834
540.668	12.1293
544.043	8.75925
547.418	6.03181
550.793	4.52328
554.167	3.30893
557.542	2.95281
560.917	1.07665
564.292	2.07071
567.667	2.24193
571.042	1.00598
574.416	1.30248
577.791	1.54344
581.166	1.03989
584.541	1.59444
587.916	0.80452
591.29	0.932999
594.665	0.434616
598.04	0.222839
601.415	0.359238
604.79	0.595062
608.164	0.966705
611.539	1.03912
614.914	0.350479
618.289	0.296112
621.664	1.076
625.039	2.78349
628.413	3.07306
631.788	6.33244
635.163	8.94821
638.538	14.8369
641.913	22.9839
645.288	32.8565
648.662	47.8721
652.037	67.1003
655.412	89.2989
658.787	122.192
662.162	175.185
665.536	261.318
668.911	418.337
672.286	640.179
675.661	700.471
679.036	434.502
682.41	221.778
685.785	130.221
689.16	93.1641
692.535	73.5672
695.91	51.3831
699.284	32.9503
702.659	21.738
706.034	13.8381
709.409	8.89267
712.784	5.1781
716.159	3.38579
719.533	1.5598
722.908	0.208557
726.283	0.536942
729.658	3.27403
733.033	7.05052
736.408	13.3263
739.782	21.8647
743.157	25.2232
746.532	19.7136
749.907	21.404
753.282	17.7693
756.656	9.71768
760.031	4.02666
763.406	0.77417
766.781	0.108902
770.156	0.779312
773.53	1.10767
776.905	0.347702
780.28	0.202698
783.655	0.056946
787.03	0.870422
790.404	0.272354
793.779	0.93544
797.154	0.615372
800.529	0.17923
803.904	0.483383
807.279	0.836807
810.653	1.40442
814.028	0.98056
817.403	1.49469
820.778	1.55142
824.153	2.56244
827.528	2.89169
830.902	0.882233
834.277	1.95883
837.652	2.00662
841.027	2.85617
844.402	2.72482
847.776	1.74762
851.151	0.147186
854.526	3.2135
857.901	1.17389
861.276	0.33786
864.65	0.839752
868.025	1.2453
871.4	0.029938
874.775	0.046417
878.15	0.730988
881.525	0.76123
884.899	1.70987
888.274	1.01752
891.649	2.69464
895.024	3.31342
898.399	3.95834
901.774	3.40729
905.148	5.90057
908.523	6.93036
911.898	10.9546
915.273	13.5398
918.648	20.4
922.022	30.7428
925.397	47.1629
928.772	66.8261
932.147	76.7087
935.522	56.5648
938.896	33.8608
942.271	24.3787
945.646	23.4617
949.021	23.8931
952.396	17.3599
955.771	10.0413
959.145	5.87985
962.52	1.89157
965.895	1.10193
969.27	0.441315
972.645	1.10547
976.019	1.28583
979.394	0.113434
982.769	0.843811
986.144	0.294037
989.519	0.656342
992.894	0.634216
996.268	1.80548
999.643	3.88135
1003.02	6.25793
1006.39	12.1035
1009.77	18.1471
1013.14	26.322
1016.52	33.9109
1019.89	44.8745
1023.27	58.2801
1026.64	74.7481
1030.02	94.2473
1033.39	79.1639
1036.77	47.1937
1040.14	33.5465
1043.52	31.864
1046.89	39.0575
1050.27	52.8382
1053.64	74.6127
1057.02	98.6419
1060.39	117.291
1063.77	99.6289
1067.14	73.0281
1070.51	54.241
1073.89	36.0943
1077.26	19.2615
1080.64	9.66159
1084.01	5.37439
1087.39	3.38333
1090.76	3.84174
1094.14	5.98978
1097.51	3.39508
1100.89	1.57318
1104.26	1.8298
1107.64	1.8038
1111.01	0.374054
1114.39	1.61221
1117.76	0.940521
1121.14	0.346161
1124.51	0.475494
1127.89	1.50372
1131.26	1.18851
1134.64	0.906342
1138.01	0.779877
1141.38	0.375488
1144.76	0.33783
1148.13	0.086761
1151.51	0.736633
1154.88	1.944
1158.26	3.08057
1161.63	2.91547
1165.01	5.97168
1168.38	4.7432
1171.76	2.0737
1175.13	1.59473
1178.51	1.44513
1181.88	2.26486
1185.26	3.30255
1188.63	3.70071
1192.01	3.38992
1195.38	3.91989
1198.76	2.64407
1202.13	1.60553
1205.51	3.36346
1208.88	3.85821
1212.26	2.76856
1215.63	1.2204
1219.01	1.28668
1222.38	4.26593
1225.76	3.2854
1229.13	3.87848
1232.51	1.54321
1235.88	1.72382
1239.26	0.015076
1242.63	0.235474
1246.01	0.896606
1249.38	0.842773
1252.75	3.47845
1256.13	3.55347
1259.5	3.68964
1262.88	2.55817
1266.25	6.17871
1269.63	1.8924
1273	3.02655
1276.38	2.27978
1279.75	2.3858
1283.13	1.14288
1286.5	3.29517
1289.88	2.63208
1293.25	4.12006
1296.63	3.44373
1300	0.854797
1303.38	2.31805
