Measurement: Raman, 514 nm, unoriented, Raman Data Processed
Mineral: Tremolite
Rruff sample: R040109
Ideal chemistry: [box]Ca_2_Mg_5_Si_8_O_22_(OH)_2_
Locality: Cassiar, British Columbia, Canada
Source: University of Arizona Mineral Museum
Description: Green fine-grained massive
Measured chemistry: [box]Ca_1.99_(Mg_0.90_Fe_0.08_Al_0.01_)_5_Si_8.01_O_22_(OH)_2_
Raman shift (cm-1)	intensity
93.375	0
97.554	15.237
101.732	24.819
105.908	246.83
110.082	528.132
114.254	1423.98
118.424	2572.97
122.592	2879.8
126.758	1693.2
130.922	626.631
135.083	389
139.243	447.384
143.401	565.656
147.557	482.516
151.711	1035.8
155.863	2407.31
160.013	4253.77
164.161	2397.95
168.308	1655.66
172.452	3280.73
176.594	5949.02
180.734	6755.44
184.872	2045.24
189.008	879.987
193.143	621.385
197.275	546.084
201.405	597.523
205.534	877.348
209.66	1511.24
213.784	2968.6
217.907	6450.45
222.027	10511.8
226.146	10118.5
230.263	6434.62
234.377	4753.09
238.49	2113.91
242.601	1320.05
246.709	1510.5
250.816	1683.09
254.921	1260.57
259.024	761.658
263.125	658.714
267.224	341.322
271.321	68.167
275.416	93.871
279.51	90.458
283.601	5.959
287.69	118.538
291.778	342.477
295.863	355.889
299.947	652.01
304.029	748.74
308.108	681.657
312.186	269.001
316.262	118.772
320.336	164.954
324.408	168.421
328.478	450.142
332.546	683.095
336.612	1024.02
340.677	1318.6
344.739	1924.14
348.799	2152.85
352.858	2515.63
356.915	1985.56
360.969	2127.65
365.022	3442.87
369.073	5442.21
373.122	4586.64
377.169	2778.15
381.215	1738.74
385.258	2058.39
389.299	3802.11
393.339	5323.88
397.376	3820.7
401.412	1762.63
405.446	1342.75
409.478	1726.51
413.508	2579.77
417.536	2518.82
421.562	1375.95
425.586	707.705
429.609	586.157
433.629	780.56
437.648	1041.61
441.665	397.665
445.68	136.48
449.693	17.927
453.704	64.469
457.713	2.771
461.721	80.222
465.726	48.65
469.73	45.403
473.731	101.439
477.731	36.833
481.729	66.563
485.725	200.907
489.72	157.228
493.712	74.548
497.703	72.892
501.691	140.167
505.678	188.498
509.663	483.878
513.646	1077.22
517.627	1154.5
521.607	1026.71
525.584	1434.83
529.56	1766.86
533.534	1076.81
537.506	601.673
541.476	357.48
545.444	236.214
549.41	270.846
553.375	190.441
557.337	77.933
561.298	93.301
565.257	6.511
569.214	10.58
573.17	33.049
577.123	82.489
581.075	130.732
585.024	221.801
588.972	159.69
592.918	97.415
596.863	163.921
600.805	86.248
604.746	151.398
608.685	145.681
612.621	125.944
616.557	210.521
620.49	501.434
624.421	357.716
628.351	229.505
632.279	551.97
636.205	787.589
640.129	1053.59
644.051	1624.19
647.972	2586.45
651.89	3832.24
655.807	4430.99
659.722	5222.84
663.636	8262.87
667.547	16844.1
671.457	32798.3
675.365	35193.5
679.271	19034.6
683.175	9173.52
687.077	5875.8
690.978	4535.17
694.877	2944.35
698.774	2010.32
702.669	1399.03
706.562	968.411
710.454	595.828
714.344	757.121
718.232	481.278
722.118	410.345
726.002	426.27
729.885	423.704
733.766	579.996
737.645	905.486
741.522	1250.33
745.397	1037.42
749.271	852.496
753.143	835.221
757.013	531.314
760.881	222.229
764.748	206.971
768.613	233.705
772.476	165.434
776.337	53.223
780.196	124.105
784.054	59.041
787.91	163.015
791.764	30.008
795.616	11.145
799.467	84.58
803.316	14.156
807.163	82.488
811.008	25.593
814.851	113.505
818.693	59.021
822.533	2.818
826.371	7.254
830.208	40.22
834.042	64.364
837.875	32.872
841.706	32.579
845.536	7.199
849.363	17.251
853.189	49.141
857.013	164.463
860.836	44.672
864.656	70.807
868.475	110.89
872.292	166.933
876.108	78.979
879.922	183.102
883.733	91.281
887.544	236.483
891.352	57.74
895.159	253.002
898.964	280.268
902.767	362.543
906.568	335.86
910.368	573.214
914.166	718.616
917.962	772.094
921.757	1327.53
925.55	2594.81
929.341	4404.07
933.13	4664.49
936.918	2863.51
940.703	1738.43
944.488	1978.31
948.27	2155.95
952.051	1418.82
955.83	832.085
959.607	792.51
963.383	839.071
967.156	479.95
970.928	355.581
974.699	594.905
978.468	429.814
982.234	349.888
986	275.744
989.763	348.812
993.525	447.715
997.285	453.995
1001.04	447.056
1004.8	802.997
1008.55	953.937
1012.31	1179.01
1016.06	1726.9
1019.81	2642.99
1023.56	3526.92
1027.31	5434.01
1031.05	6752.41
1034.79	3914.99
1038.53	2249.68
1042.27	2043.17
1046.01	2127.08
1049.75	2883.93
1053.48	5601.43
1057.22	10932.5
1060.95	14417.5
1064.68	9297.64
1068.4	5780.52
1072.13	4069.77
1075.86	2304.46
1079.58	1383.06
1083.3	1080.29
1087.02	851.848
1090.74	791.036
1094.45	666.479
1098.17	399.354
1101.88	485.821
1105.59	205.629
1109.3	384.938
1113.01	170.488
1116.71	186.988
1120.42	218.823
1124.12	379.951
1127.82	89.479
1131.52	128.859
1135.22	73.908
1138.91	32.44
1142.61	58.819
1146.3	70.532
1149.99	191.588
1153.68	114.881
1157.37	122.788
1161.06	1.795
1164.74	61.87
1168.42	99.34
1172.1	86.795
1175.78	14.484
1179.46	56.325
1183.14	38.41
1186.81	57.451
1190.48	94.709
1194.15	131.568
1197.83	21.36
1201.49	134.214
1205.16	72.361
1208.82	81.863
1212.49	2.612
1216.15	73.938
1219.81	137.597
1223.46	120.759
1227.12	210.577
1230.78	129.617
1234.43	18.625
1238.08	78.469
1241.73	54.379
1245.38	66.605
1249.03	135.87
1252.67	41.313
1256.31	113.847
1259.95	183.7
1263.6	159.87
1267.23	200.608
1270.87	89.517
1274.51	95.688
1278.14	169.312
1281.77	119.523
1285.4	4.547
1289.03	37.26
1292.66	145.166
1296.28	93.071
1299.91	8.754
1303.53	3.499
1307.15	38.216
1310.77	71.867
1314.38	41.884
1318	121.57
1321.61	201.058
1325.23	226.35
1328.84	114.39
1332.45	3.794
1336.06	55.261
1339.66	174.651
1343.27	196.875
1346.87	77.063
1350.47	234.098
1354.07	190.525
1357.67	125.605
1361.26	75.815
1364.86	114.86
1368.45	187.269
1372.04	40.467
1375.63	163.055
1379.22	88.375
1382.81	181.908
1386.39	209.148
1389.98	271.771
1393.56	101.137
1397.14	4.354
1400.72	170.111
1404.3	80.406
1407.87	194.34
1411.45	283.871
1415.02	72.361
1418.59	139.893
1422.16	156.375
1425.73	23.072
1429.29	100.494
1432.86	118.252
1436.42	180.27
1439.98	129.148
1443.54	201.047
1447.1	115.26
1450.66	214.955
1454.21	165.914
1457.77	63.035
1461.32	177.836
1464.87	273.045
1468.42	443.414
1471.96	237.891
1475.51	437.533
1479.06	244.717
1482.6	231.307
1486.14	248.738
1489.68	150.248
1493.22	173.838
1496.75	137.844
1500.29	353.092
1503.82	14.826
1507.35	113.963
1510.88	205.182
1514.41	300.969
1517.94	158.305
1521.46	166.375
