Measurement: Raman, 532 nm, unoriented, Raman Data Processed
Mineral: Tremolite
Rruff sample: R040109
Ideal chemistry: [box]Ca_2_Mg_5_Si_8_O_22_(OH)_2_
Locality: Cassiar, British Columbia, Canada
Source: University of Arizona Mineral Museum
Description: Green fine-grained massive
Measured chemistry: [box]Ca_1.99_(Mg_0.90_Fe_0.08_Al_0.01_)_5_Si_8.01_O_22_(OH)_2_
Raman shift (cm-1)	intensity
130.897	0
134.272	1.37936
137.647	4.05542
141.021	70.0895
144.396	106.055
147.771	141.143
151.146	350.589
154.521	888.656
157.895	1792.45
161.27	1310.32
164.645	755.698
168.02	804.87
171.395	1314.91
174.77	2544.11
178.144	3903.8
181.519	1182.79
184.894	247.119
188.269	167.208
191.644	195.121
195.018	70.9141
198.393	65.1119
201.768	172.131
205.143	469.716
208.518	968.002
211.893	1625.12
215.267	2647.69
218.642	4301.96
222.017	6136
225.392	4601.93
228.767	3231.45
232.142	3006.43
235.516	1599.76
238.891	799.571
242.266	703.862
245.641	932.859
249.016	1166.56
252.39	828.087
255.765	425.685
259.14	300.104
262.515	244.775
265.89	124.418
269.264	5.04047
272.639	37.1273
276.014	62.0803
279.389	49.9907
282.764	34.6184
286.139	115.221
289.513	254.767
292.888	181.176
296.263	241.851
299.638	362.197
303.013	414.142
306.387	235.444
309.762	112.21
313.137	25.1939
316.512	21.7304
319.887	14.1128
323.262	52.3394
326.636	150.324
330.011	282.927
333.386	422.526
336.761	443.008
340.136	667.881
343.51	924.298
346.885	993.869
350.26	1131.45
353.635	1020.85
357.01	926.784
360.385	1294.28
363.759	1964.14
367.134	2794.21
370.509	2926.29
373.884	1546.62
377.259	1027.8
380.634	1048.14
384.008	1458.62
387.383	2312.78
390.758	3242.39
394.133	3482.15
397.507	1702.19
400.882	916.27
404.257	859.861
407.632	1113.57
411.007	1507.75
414.382	1743.57
417.756	1308.04
421.131	608.859
424.506	313.583
427.881	278.979
431.256	356.216
434.63	525.66
438.005	437.727
441.38	93.5527
444.755	23.1598
448.13	35.2024
451.505	47.0172
454.879	22.8088
458.254	19.058
461.629	10.2754
465.004	21.4197
468.379	18.297
471.753	40.3165
475.128	104.34
478.503	128.863
481.878	164.632
485.253	239.625
488.628	191.769
492.002	168.623
495.377	154.575
498.752	168.317
502.127	245.68
505.502	347.577
508.877	518.119
512.251	718.465
515.626	721.364
519.001	741.359
522.376	751.206
525.751	768.715
529.125	781.674
532.5	500.43
535.875	296.132
539.25	203.98
542.625	188.24
546	187.063
549.374	117.811
552.749	108.004
556.124	71.7533
559.499	42.8309
562.874	26.9476
566.248	26.7223
569.623	32.2043
572.998	32.2825
576.373	80.7789
579.748	84.7257
583.122	77.7224
586.497	40.6113
589.872	19.0689
593.247	20.8972
596.622	5.41919
599.997	28.8178
603.371	8.93359
606.746	15.3931
610.121	3.46802
613.496	34.0723
616.871	26.2743
620.245	75.9198
623.62	109.387
626.995	144.006
630.37	202.443
633.745	313.91
637.12	476.188
640.494	782.859
643.869	1187.67
647.244	1649.07
650.619	2238.94
653.994	2822.83
657.369	3710.49
660.743	6020.65
664.118	10003.5
667.493	14880.1
670.868	19837.1
674.243	19455.3
677.617	11091.3
680.992	5428.34
684.367	3113.6
687.742	2143.35
691.117	1570.97
694.491	1008.16
697.866	640.56
701.241	367.489
704.616	224.191
707.991	138.213
711.365	63.2562
714.74	3.98474
718.115	1.44311
721.49	48.9762
724.865	35.0868
728.24	105.071
731.614	242.025
734.989	421.16
738.364	661.769
741.739	753.174
745.114	600.623
748.489	646.166
751.863	568.795
755.238	251.145
758.613	102.826
761.988	41.8488
765.363	26.7782
768.737	15.6782
772.112	41.3489
775.487	27.5244
778.862	3.9574
782.237	20.3108
785.611	8.13013
788.986	17.7071
792.361	1.81482
795.736	2.47107
799.111	18.3284
802.486	15.5803
805.86	4.65222
809.235	23.6188
812.61	27.3646
815.985	10.8523
819.36	41.8614
822.735	40.785
826.109	43.4767
829.484	24.6387
832.859	32.3236
836.234	49.4833
839.609	37.828
842.983	32.7216
846.358	7.87805
849.733	42.9552
853.108	10.2035
856.483	19.7695
859.857	1.38379
863.232	17.2102
866.607	28.9221
869.982	32.4795
873.357	9.00391
876.732	39.6492
880.106	6.25561
883.481	20.1145
886.856	42.8635
890.231	31.656
893.606	44.9375
896.981	88.5813
900.355	103.279
903.73	142.489
907.105	221.617
910.48	227.261
913.855	340.467
917.229	479.161
920.604	919.133
923.979	1469.83
927.354	2047.97
930.729	2252.76
934.104	1665.99
937.478	1045.53
940.853	872.019
944.228	879.77
947.603	819.184
950.978	526.15
954.352	292.403
957.727	177.373
961.102	70.9089
964.477	88.8071
967.852	19.4399
971.226	0.637695
974.601	3.98608
977.976	20.1555
981.351	8.80591
984.726	47.5969
988.101	25.1565
991.475	7.03052
994.85	25.3428
998.225	90.1401
1001.6	150.333
1004.98	189.528
1008.35	342.117
1011.72	448.924
1015.1	766.351
1018.47	1293.13
1021.85	1986.74
1025.22	2749.18
1028.6	3281.13
1031.97	2365.55
1035.35	1208.65
1038.72	773.513
1042.1	710.519
1045.47	956.3
1048.85	1653.15
1052.22	2905.62
1055.6	4517
1058.97	5394.52
1062.35	4230.06
1065.72	2755.69
1069.1	2007.91
1072.47	1290.03
1075.85	665.555
1079.22	410.981
1082.6	243.737
1085.97	178.088
1089.35	157.926
1092.72	111.369
1096.1	64.823
1099.47	62.8562
1102.84	16.5437
1106.22	13.9604
1109.59	8.26489
1112.97	6.05078
1116.34	16.7839
1119.72	4.12402
1123.09	13.7898
1126.47	1.76807
1129.84	11.9641
1133.22	22.3355
1136.59	47.3752
1139.97	33.7324
1143.34	13.5947
1146.72	10.449
1150.09	14.5181
1153.47	24.0786
1156.84	13.5947
1160.22	54.5779
1163.59	62.2537
1166.97	68.9568
1170.34	28.0093
1173.72	70.5164
1177.09	43.0801
1180.46	16.2253
1183.84	57.5781
1187.21	60.3267
1190.59	71.4929
1193.96	69.7268
1197.34	38.3066
1200.71	25.5322
1204.09	73.3018
1207.46	10.3921
1210.84	28.9668
1214.21	63.2129
1217.59	24.2861
1220.96	67.5796
1224.34	20.8613
1227.71	8.75293
1231.09	0.804199
1234.46	33.6475
1237.84	92.5981
1241.21	26.8066
1244.59	77.501
1247.96	68.54
1251.34	21.2031
1254.71	117.874
1258.09	77.6602
1261.46	28.1811
1264.84	29.5454
1268.21	51.666
1271.59	48.645
1274.96	64.7759
1278.34	62.2476
1281.71	14.0664
1285.08	25.8364
1288.46	64.499
1291.83	132.084
1295.21	46.3355
1298.58	16.5615
1301.96	55.415
1305.33	6.09082
