Measurement: Raman, 532 nm, unoriented, Raman Data Processed
Mineral: Tremolite
Rruff sample: R050210
Ideal chemistry: [box]Ca_2_Mg_5_Si_8_O_22_(OH)_2_
Locality: Sugar Lake, Cherryville, British Columbia, Canada
Source: Lloyd Twaites
Description: Green bladed crystal fragment
Measured chemistry: (Na_0.34_K_0.06_)(Ca_1.96_Mg_0.01_)Mg_4.94_(Si_7.50_Al_0.46_)O_22_(OH)_2_
Raman shift (cm-1)	intensity
214.878	0
217.771	40.8154
220.664	511.126
223.556	1188.46
226.449	1083.82
229.342	895.402
232.234	1385.08
235.127	1415.03
238.02	520.69
240.913	44.625
243.805	37.044
246.698	279.789
249.591	604.009
252.483	584.573
255.376	250.169
258.269	126.853
261.161	148.364
264.054	233.304
266.947	88.459
269.84	36.7329
272.732	45.3438
275.625	32.3535
278.518	15.6279
281.41	27.5459
284.303	13.6533
287.196	5.80078
290.089	33.6846
292.981	69.2686
295.874	81.7285
298.767	136.46
301.659	222.413
304.552	264.229
307.445	235.463
310.337	217.77
313.23	230.663
316.123	238.416
319.015	239.06
321.908	230.803
324.801	226.442
327.694	191.935
330.586	182.242
333.479	175.138
336.372	214.775
339.264	257.331
342.157	332.025
345.05	386.038
347.942	442.862
350.835	448.422
353.728	412.161
356.621	370.663
359.513	333.683
362.406	365.33
365.299	480.654
368.191	617.996
371.084	640.952
373.977	600.013
376.87	525.71
379.762	434.441
382.655	426.788
385.548	499.222
388.44	654.985
391.333	941.671
394.226	1303.97
397.118	1272.07
400.011	677.962
402.904	340.227
405.796	264.823
408.689	300.225
411.582	389.251
414.475	500.783
417.367	532.535
420.26	449.922
423.153	330.594
426.045	214.965
428.938	199.749
431.831	205.751
434.724	267.612
437.616	254.523
440.509	112.12
443.402	29.7246
446.294	8.90918
449.187	0.05957
452.08	7.32324
454.972	32.6504
457.865	16.0234
460.758	5.77344
463.651	0.444336
466.543	12.5303
469.436	16.251
472.329	0.001953
475.221	26.9668
478.114	23.6602
481.007	25.6572
483.899	46.9912
486.792	71.9297
489.685	62.6357
492.577	69.8272
495.47	87.0107
498.363	94.2978
501.256	86.4346
504.148	72.9404
507.041	105.432
509.934	159.442
512.826	222.376
515.719	273.434
518.612	299.803
521.505	321.685
524.397	402.549
527.29	482.005
530.183	503.384
533.075	391.459
535.968	222.465
538.861	127.661
541.753	93.5596
544.646	70.8389
547.539	63.5137
550.432	80.6728
553.324	66.9902
556.217	46.9609
559.11	45.2695
562.002	28.3818
564.895	22.9277
567.788	17.9746
570.68	3.24414
573.573	2.92285
576.466	27.2334
579.359	38.1787
582.251	57.3975
585.144	27.4902
588.037	47.7305
590.929	38.7031
593.822	43.7588
596.715	25.2881
599.607	11.3115
602.5	9.75488
605.393	13.5898
608.285	8.94141
611.178	7.14648
614.071	6.54199
616.964	0.540039
619.856	18.415
622.749	15.8789
625.642	-0.638456
628.534	8.21191
631.427	17.9883
634.32	60.5322
637.212	100.868
640.105	119.823
642.998	159.339
645.891	233.278
648.783	306.347
651.676	387.244
654.569	517.721
657.461	691.538
660.354	1053.85
663.247	1577.92
666.139	2258.81
669.032	3301.19
671.925	4643.74
674.818	5652.99
677.71	4674.01
680.603	2757.51
683.496	1626.85
686.388	1087.31
689.281	814.884
692.174	638.101
695.067	453.86
697.959	331.013
700.852	228.091
703.745	152.802
706.637	129.233
709.53	110.575
712.423	87.0078
715.315	44.7422
718.208	7.5166
721.101	6.36035
723.994	1.26172
726.886	36.1562
729.779	64.1318
732.672	59.8027
735.564	67.6533
738.457	70.5488
741.35	98.4795
744.242	101.144
747.135	85.0332
750.028	108.442
752.92	133.62
755.813	119.852
758.706	84.8027
761.599	41.5117
764.491	29.501
767.384	15.752
770.277	12.5469
773.169	23.7529
776.062	6.69336
778.955	20.5693
781.847	23.5107
784.74	8.18652
787.633	0.535156
790.526	7.98438
793.418	26.29
796.311	25.918
799.204	10.4805
802.096	5.55664
804.989	8.26074
807.882	12.8408
810.774	0.691406
813.667	17.2949
816.56	43.2812
819.453	51.7266
822.345	58.457
825.238	18.8506
828.131	3.28613
831.023	24.7871
833.916	2.78906
836.809	18.0947
839.702	9.72754
842.594	13.6504
845.487	17.2129
848.38	5.8291
851.272	4.99805
854.165	17.085
857.058	27.5
859.95	37.1309
862.843	21.165
865.736	9.99512
868.629	5.51953
871.521	12.2285
874.414	41.4639
877.307	17.8301
880.199	6.56934
883.092	2.24219
885.985	32.3154
888.877	43.9062
891.77	35.2168
894.663	37.957
897.556	17.6611
900.448	26.3076
903.341	49.96
906.234	73.3106
909.126	94.0606
912.019	91.9609
914.912	138.523
917.804	197.866
920.697	281.281
923.59	394.764
926.482	559.232
929.375	714.852
932.268	708.528
935.161	505.07
938.053	325.897
940.946	253.275
943.839	247.077
946.731	260.942
949.624	215.699
952.517	173.148
955.409	98.1445
958.302	18.1348
961.195	14.2539
964.088	6.09668
966.98	31.1689
969.873	21.8027
972.766	7.66309
975.658	5.83301
978.551	8.86133
981.444	5.11523
984.337	5.05859
987.229	1.54785
990.122	4.5
993.015	15.5732
995.907	17.4678
998.8	2.09375
1001.69	30.8105
1004.59	34.6758
1007.48	91.25
1010.37	121.827
1013.26	161.35
1016.16	227.323
1019.05	325.556
1021.94	486.041
1024.83	561.612
1027.73	726.688
1030.62	786.286
1033.51	614.488
1036.4	419.809
1039.3	272.083
1042.19	225.486
1045.08	232.297
1047.98	278.182
1050.87	418.935
1053.76	616.301
1056.65	848.869
1059.55	1110.27
1062.44	1207.98
1065.33	932.552
1068.22	626.934
1071.12	447.749
1074.01	305.694
1076.9	185.003
1079.8	116.056
1082.69	97.0518
1085.58	91.4873
1088.47	88.2441
1091.37	15.001
1094.26	31.4492
1097.15	29.2822
1100.04	39.7402
1102.94	18.0459
1105.83	2.60254
1108.72	18.6367
1111.62	40.1875
1114.51	59.2578
1117.4	20.2705
1120.29	34.5645
1123.19	40.3076
1126.08	2.91602
1128.97	20.668
1131.86	21.9463
1134.76	6.15234
1137.65	36.3203
1140.54	18.2598
1143.43	21.5938
1146.33	40.5869
1149.22	36.6133
1152.11	44.9131
1155.01	13.3115
1157.9	9.37402
1160.79	9.75275
1163.68	30.1143
1166.58	20.2539
1169.47	11.9697
1172.36	33.4131
1175.26	35.0303
1178.15	51.6465
1181.04	58.8486
1183.93	43.8467
1186.83	60.4844
1189.72	44.7656
1192.61	44.1562
1195.5	31.3887
1198.4	47.4619
1201.29	60.249
1204.18	46.3574
1207.07	90.8945
1209.97	104.573
1212.86	98.001
1215.75	68.6416
1218.64	34.6963
1221.54	29.3564
1224.43	60.7363
1227.32	65.3769
1230.22	37.3838
1233.11	5.69727
1236	37.3115
1238.89	-1.27823
1241.79	36.5176
1244.68	48.4131
1247.57	21.9004
1250.46	16.5918
1253.36	28.6885
1256.25	42.2363
1259.14	53.3076
1262.04	63.3281
1264.93	49.9648
1267.82	32.9023
1270.71	24.2236
1273.61	15.4004
1276.5	20.0156
1279.39	15.7139
1282.29	15.2871
1285.18	17.9463
1288.07	25.6123
1290.96	6.9209
1293.86	23.6367
1296.75	28.4297
1299.64	44.4463
1302.53	10.8525
