Measurement: Raman, 780 nm, unoriented, Raman Data Processed
Mineral: Trembathite
Rruff sample: R070756
Ideal chemistry: Mg_3_B_7_O_13_Cl
Locality: Salt Springs deposit (Salt Springs evaporite deposit), Sussex, Kings Co., New Brunswick, Canada
Source: Michael Scott
Description: Blue-green pseudocubic crystal
Raman shift (cm-1)	intensity
204.151	0
207.043	44.4863
209.936	0.402344
212.829	62.8181
215.721	33.7644
218.614	60.8156
221.507	86.9335
224.4	84.4848
227.292	92.4796
230.185	164.732
233.078	124.733
235.97	178.048
238.863	129.117
241.756	96.2989
244.649	71.3442
247.541	57.2971
250.434	17.8892
253.327	5.09051
256.219	25.2432
259.112	33.6512
262.005	18.6981
264.897	30.6564
267.79	14.8161
270.683	0.137207
273.575	47.428
276.468	13.4609
279.361	4.25793
282.254	22.0889
285.146	36.8396
288.039	17.7475
290.932	13.3815
293.824	51.0826
296.717	81.7202
299.61	52.8014
302.502	99.7784
305.395	68.0674
308.288	86.2
311.181	96.2797
314.073	126.541
316.966	46.6904
319.859	51.6352
322.751	46.8029
325.644	26.3014
328.537	26.7148
331.43	17.1958
334.322	32.4203
337.215	28.1604
340.108	85.283
343	117.126
345.893	90.7532
348.786	78.3477
351.678	86.5831
354.571	122.071
357.464	145.457
360.356	208.012
363.249	223.106
366.142	229.214
369.035	273.43
371.927	454.346
374.82	540.681
377.713	407.436
380.605	188.785
383.498	78.0993
386.391	15.7058
389.284	14.3967
392.176	9.72833
395.069	38.321
397.962	87.1511
400.854	118.367
403.747	111.597
406.64	154.048
409.532	175.098
412.425	228.315
415.318	126.992
418.211	59.7649
421.103	8.70532
423.996	16.2277
426.889	6.01923
429.781	15.2435
432.674	48.8038
435.567	56.9078
438.459	46.6129
441.352	20.1724
444.245	46.067
447.137	24.5292
450.03	35.4756
452.923	39.7874
455.816	36.11
458.708	22.7551
461.601	52.0613
464.494	58.0797
467.386	33.6192
470.279	68.8085
473.172	30.4747
476.065	9.30212
478.957	4.70941
481.85	3.72803
484.743	20.4116
487.635	8.78149
490.528	5.45477
493.421	17.9219
496.313	7.09821
499.206	65.6586
502.099	36.8601
504.991	62.7384
507.884	72.0268
510.777	111.831
513.67	209.607
516.562	231.559
519.455	306.815
522.348	246.728
525.24	182.585
528.133	107.122
531.026	140.281
533.918	113.199
536.811	110.012
539.704	97.4316
542.597	164.047
545.489	192.055
548.382	249.5
551.275	205.511
554.167	154.539
557.06	92.0449
559.953	64.0961
562.846	32.3486
565.738	34.8771
568.631	73.1639
571.524	68.5167
574.416	4.16455
577.309	15.9637
580.202	1.57361
583.094	2.21985
585.987	6.68054
588.88	27.7833
591.773	113.87
594.665	143.531
597.558	217.252
600.451	271.928
603.343	425.125
606.236	420.954
609.129	276.544
612.021	114.552
614.914	89.7611
617.807	60.6227
620.699	74.5314
623.592	97.9049
626.485	99.4814
629.378	85.5587
632.27	126.124
635.163	205.961
638.056	341.017
640.948	479.227
643.841	776.031
646.734	1048.03
649.626	1259.49
652.519	1548.28
655.412	1787.04
658.305	1932.74
661.197	1927.05
664.09	1567.23
666.983	1064.75
669.875	697.584
672.768	429.622
675.661	326.974
678.553	179.018
681.446	138.873
684.339	71.902
687.232	34.4108
690.124	12.1837
693.017	46.4059
695.91	6.77197
698.802	30.5887
701.695	13.762
704.588	12.5914
707.481	15.1898
710.373	39.7801
713.266	24.3934
716.159	44.6459
719.051	56.6232
721.944	68.5936
724.837	53.4191
727.729	42.2174
730.622	29.3926
733.515	4.12091
736.408	7.85248
739.3	3.76971
742.193	13.4792
745.086	33.334
747.978	25.1014
750.871	3.91327
753.764	9.91266
756.656	18.5956
759.549	28.7139
762.442	26.2791
765.335	21.7059
768.227	27.3884
771.12	21.2343
774.013	24.6984
776.905	23.4105
779.798	61.3872
782.691	68.8584
785.583	56.9232
788.476	25.799
791.369	34.4495
794.261	43.8657
797.154	9.18097
800.047	37.7989
802.94	13.1515
805.832	13.4363
808.725	23.5186
811.618	10.6775
814.51	36.8626
817.403	0.437256
820.296	7.84625
823.188	10.3662
826.081	19.1804
828.974	5.72626
831.867	51.0073
834.759	41.723
837.652	68.5389
840.545	119.753
843.437	137.38
846.33	94.085
849.223	57.3022
852.115	56.9114
855.008	73.1844
857.901	61.5132
860.794	38.975
863.686	43.7293
866.579	3.58264
869.472	7.40125
872.364	15.9652
875.257	32.3373
878.15	32.1972
881.043	29.4007
883.935	24.7285
886.828	33.7103
889.721	17.9707
892.613	21.5411
895.506	12.5239
898.399	12.4069
901.291	30.5541
904.184	10.8956
907.077	0.325256
909.97	20.7056
912.862	51.9969
915.755	1.19672
918.648	40.1423
921.54	48.8743
924.433	49.4364
927.326	73.993
930.218	88.7548
933.111	69.0673
936.004	106.849
938.896	92.3074
941.789	99.4905
944.682	117.178
947.575	133.911
950.467	124.11
953.36	118.774
956.253	114.668
959.145	105.752
962.038	138.619
964.931	137.194
967.823	121.568
970.716	105.261
973.609	131.914
976.502	102.67
979.394	51.2723
982.287	53.3388
985.18	34.0501
988.072	7.3678
990.965	1.62579
993.858	16.2183
996.75	14.116
999.643	1.07886
1002.54	0.026672
1005.43	15.0831
1008.32	0.071716
1011.21	8.78491
1014.11	8.66187
1017	17.5207
1019.89	13.2238
1022.78	45.0519
1025.68	20.2087
1028.57	19.0596
1031.46	28.6766
1034.36	37.3697
1037.25	67.5555
1040.14	39.6347
1043.03	62.046
1045.93	34.5414
1048.82	24.6132
1051.71	61.8585
1054.6	68.7378
1057.5	64.155
1060.39	91.4816
1063.28	73.7052
1066.17	86.3632
1069.07	104.806
1071.96	91.7839
1074.85	120.185
1077.75	105.876
1080.64	109.491
1083.53	122.538
1086.42	150.727
1089.32	159.623
1092.21	104.197
1095.1	103.646
1097.99	97.0211
1100.89	82.3082
1103.78	34.4766
1106.67	55.2232
1109.57	34.7863
1112.46	34.3863
1115.35	29.2318
1118.24	9.68219
1121.14	1.78809
1124.03	34.8989
1126.92	5.94159
1129.82	1.06195
1132.71	21.9066
1135.6	5.56555
1138.49	0.392578
1141.38	43.8506
1144.28	26.9606
1147.17	28.4962
1150.06	38.1276
1152.96	61.7688
1155.85	36.7058
1158.74	39.3921
1161.63	38.1116
1164.53	62.7807
1167.42	46.1326
1170.31	32.4025
1173.2	32.676
1176.1	20.4296
1178.99	19.6828
1181.88	22.4982
1184.78	14.9597
1187.67	23.8126
1190.56	31.0143
1193.45	3.08038
1196.35	20.263
1199.24	17.2618
1202.13	11.3959
1205.03	26.1628
1207.92	30.7813
1210.81	18.8954
1213.7	73.8726
1216.6	91.3718
1219.49	121.987
1222.38	137.345
1225.27	132.797
1228.17	139.809
1231.06	157.825
1233.95	131.406
1236.85	90.5257
1239.74	63.0172
1242.63	24.7578
1245.52	24.8534
1248.41	14.4461
1251.31	19.066
1254.2	19.4649
1257.09	0.506958
1259.99	0
