Measurement: Raman, 780 nm, unoriented, Raman Data Processed
Mineral: Tremolite
Rruff sample: R060311
Ideal chemistry: [box]Ca_2_Mg_5_Si_8_O_22_(OH)_2_
Locality: Khyber Pass area, Khyber Agency, North-West Frontier Province, Pakistan
Source: Herb Obodda
Description: Colorless fragment
Measured chemistry: [box](Ca_1.96_Mg_0.04_)_Σ=2_(Mg_4.97_Fe^3+^_0.03_)_Σ=5_(Si_7.97_Al_0.03_)_Σ=8_O_22_(OH)_2_
Raman shift (cm-1)	intensity
98.2828	0
101.658	2.5741
105.032	24.1995
108.407	75.6357
111.782	157.343
115.157	308.847
118.532	688.619
121.907	586.303
125.281	348.531
128.656	81.7218
132.031	10.6737
135.406	6.30969
138.781	1.21704
142.155	78.259
145.53	137.942
148.905	41.7738
152.28	85.8883
155.655	238.071
159.03	828.508
162.404	816.456
165.779	199.983
169.154	163.101
172.529	314.424
175.904	674.65
179.278	1078.05
182.653	251.261
186.028	54.1676
189.403	31.2714
192.778	56.0623
196.153	10.6525
199.527	1.10461
202.902	35.432
206.277	117.083
209.652	277.892
213.027	655.547
216.401	878.34
219.776	1236.05
223.151	1946.24
226.526	1111.46
229.901	856.404
233.275	958.167
236.65	440.853
240.025	191.408
243.4	179.038
246.775	309.177
250.15	545
253.524	371.651
256.899	179.408
260.274	186.291
263.649	300.637
267.024	146.69
270.399	27.3754
273.773	4.42883
277.148	13.9596
280.523	12.2463
283.898	7.61597
287.273	6.24878
290.647	49.1838
294.022	39.2488
297.397	66.9686
300.772	125.538
304.147	212.249
307.522	108.504
310.896	70.4581
314.271	27.8778
317.646	3.98962
321.021	1.28796
324.396	19.9674
327.77	14.9414
331.145	49.8829
334.52	102.437
337.895	103.097
341.27	189.121
344.644	311.609
348.019	314.95
351.394	405.793
354.769	345.492
358.144	247.59
361.519	285.008
364.893	370.043
368.268	623.033
371.643	764.824
375.018	536.298
378.393	411.68
381.767	245.675
385.142	240.865
388.517	395.838
391.892	747.02
395.267	1124.46
398.642	492.271
402.016	177.96
405.391	144.784
408.766	203.521
412.141	344.058
415.516	572.263
418.89	467.587
422.265	181.73
425.64	90.4347
429.015	81.9169
432.39	120.73
435.765	186.9
439.139	105.884
442.514	17.0067
445.889	2.33594
449.264	7.76123
452.639	5.1488
456.014	4.18896
459.388	7.8197
462.763	2.54187
466.138	1.57776
469.513	8.71435
472.887	7.87927
476.262	21.6554
479.637	27.3114
483.012	37.5526
486.387	47.9379
489.762	42.6558
493.136	51.8865
496.511	43.9586
499.886	23.2087
503.261	27.1516
506.636	46.3912
510.01	81.8195
513.385	121.405
516.76	136.741
520.135	142.432
523.51	164.291
526.885	247.547
530.259	303.661
533.634	180.046
537.009	73.2223
540.384	31.7936
543.759	8.43103
547.134	1.51428
550.508	1.79871
553.883	1.29065
557.258	7.90967
560.633	5.19556
564.008	6.29431
567.382	10.8834
570.757	9.53796
574.132	8.33057
577.507	13.8579
580.882	17.1838
584.256	15.4211
587.631	11.1061
591.006	19.4587
594.381	13.4119
597.756	18.5295
601.131	16.8145
604.505	12.9434
607.88	3.1001
611.255	0.519287
614.63	7.32019
618.005	1.43897
621.38	1.13123
624.754	7.06018
628.129	4.99182
631.504	18.213
634.879	34.5786
638.254	51.1399
641.628	84.0819
645.003	130.622
648.378	183.473
651.753	259.44
655.128	347.872
658.503	440.988
661.877	677.194
665.252	1193.31
668.627	2163.06
672.002	3533.14
675.377	3602.77
678.751	1855.56
682.126	909.201
685.501	599.762
688.876	517.7
692.251	449.584
695.625	289.974
699	154.89
702.375	86.3883
705.75	54.5904
709.125	29.5059
712.5	9.85437
715.874	9.99036
719.249	10.9259
722.624	3.76892
725.999	4.74548
729.374	8.60046
732.749	28.5054
736.123	39.421
739.498	66.8694
742.873	67.5774
746.248	57.1031
749.623	74.4504
752.997	55.2709
756.372	23.8938
759.747	2.64868
763.122	10.0746
766.497	3.30701
769.871	6.47925
773.246	3.26331
776.621	2.86572
779.996	2.43445
783.371	0.931274
786.745	4.33752
790.12	2.97485
793.495	15.6759
796.87	16.58
800.245	12.1491
803.62	23.3586
806.994	55.0623
810.369	75.4996
813.744	48.4449
817.119	28.3505
820.494	23.576
823.869	22.9932
827.243	12.1268
830.618	15.4879
833.993	12.3047
837.368	11.9849
840.743	13.1867
844.117	13.4602
847.492	7.04175
850.867	7.46106
854.242	11.7644
857.617	9.06982
860.991	5.62146
864.366	10.1743
867.741	5.79846
871.116	2.2572
874.491	4.81226
877.866	1.07446
881.24	2.40308
884.615	3.63904
887.99	5.58777
891.365	3.18115
894.74	3.49072
898.115	3.55835
901.489	3.88965
904.864	10.8608
908.239	30.1139
911.614	22.5206
914.989	38.5746
918.363	74.532
921.738	138.15
925.113	235.62
928.488	381.918
931.863	428.393
935.237	268.799
938.612	143.109
941.987	124.256
945.362	132.036
948.737	129.365
952.112	68.755
955.486	35.5857
958.861	20.5121
962.236	20.2709
965.611	6.25146
968.986	9.54846
972.361	4.72302
975.735	1.8352
979.11	4.57727
982.485	5.08752
985.86	3.9596
989.235	2.22559
992.609	0.118164
995.984	3.95337
999.359	5.70325
1002.73	4.03345
1006.11	6.21887
1009.48	32.9725
1012.86	56.2909
1016.23	115.773
1019.61	192.748
1022.98	251.524
1026.36	358.078
1029.73	407.951
1033.11	244.549
1036.48	121.775
1039.86	66.2146
1043.23	62.7828
1046.61	88.0508
1049.98	175.638
1053.36	340.546
1056.73	651.712
1060.11	896.152
1063.48	594.678
1066.86	280.55
1070.23	182.093
1073.61	95.0966
1076.98	42.2499
1080.36	12.1781
1083.73	15.7673
1087.1	8.67651
1090.48	19.8326
1093.85	21.1837
1097.23	0.226929
1100.6	0.731567
1103.98	2.02368
1107.35	4.3916
1110.73	14.7133
1114.1	5.62158
1117.48	4.20264
1120.85	7.19592
1124.23	12.6626
1127.6	17.4595
1130.98	26.2379
1134.35	43.7769
1137.73	65.9166
1141.1	85.5087
1144.48	98.03
1147.85	109.596
1151.23	89.5396
1154.6	88.2527
1157.97	72.7843
1161.35	54.852
1164.72	46.1469
1168.1	37.537
1171.47	30.9845
1174.85	33.2415
1178.22	39.7139
1181.6	45.1865
1184.97	23.6282
1188.35	14.1124
1191.72	26.6144
1195.1	23.3669
1198.47	23.4498
1201.85	13.5675
1205.22	13.021
1208.6	5.97668
1211.97	6.16565
1215.35	7.23669
1218.72	3.54517
1222.1	3.66858
1225.47	8.8241
1228.85	0.974609
1232.22	2.24341
1235.6	5.55298
1238.97	2.56799
1242.35	5.89587
1245.72	9.13452
1249.1	5.82519
1252.47	8.18176
1255.85	8.91663
1259.22	12.5243
1262.6	21.7394
1265.97	11.9874
1269.34	8.6272
1272.72	4.16272
1276.09	0.13269
1279.47	8.38208
1282.84	9.65479
