Measurement: Raman, 514 nm, unoriented, Raman Data Processed
Mineral: Tremolite
Rruff sample: R050173
Ideal chemistry: [box]Ca_2_Mg_5_Si_8_O_22_(OH)_2_
Locality: Fort Dauphin, Madagascar
Source: Marcus Origlieri
Description: Mass of colorless acicular crystals
Measured chemistry: [box]Ca_2.00_Mg_5.00_Si_8.00_O_22_(OH)_2_
Raman shift (cm-1)	intensity
93.49	0
97.673	2.95196
101.854	64.7675
106.032	114.075
110.209	100.455
114.384	305.198
118.556	411.714
122.727	547.601
126.895	395.471
131.062	233.119
135.226	130.058
139.388	134.621
143.549	142.965
147.707	2.19958
151.863	43.0968
156.018	302.638
160.17	756
164.32	195.162
168.469	61.4763
172.615	253.045
176.759	900.266
180.901	438.002
185.041	100.316
189.18	122.275
193.316	224.274
197.45	219.204
201.582	290.575
205.712	347.051
209.84	466.728
213.967	720.813
218.091	1238.42
222.213	2369.72
226.333	1785.71
230.451	2744.34
234.567	1976.62
238.682	690.557
242.794	284.164
246.904	733.465
251.012	893.458
255.118	325.163
259.223	175.905
263.325	273.364
267.425	47.1207
271.523	9.29208
275.62	35.0076
279.714	18.606
283.806	6.15944
287.897	24.3838
291.985	6.68836
296.072	7.0849
300.156	109.954
304.239	191.619
308.319	92.7891
312.398	116.677
316.474	19.1136
320.549	58.2293
324.622	14.7916
328.692	122.986
332.761	89.4671
336.828	70.8031
340.893	264.578
344.956	363.794
349.017	597.242
353.076	612.767
357.133	392.12
361.188	364.248
365.241	855.152
369.292	1294.95
373.341	915.361
377.388	533.444
381.434	365.954
385.477	439.964
389.519	1014.02
393.558	2012.09
397.596	1059.77
401.631	457.325
405.665	324.821
409.697	554.214
413.727	1128.54
417.755	1001.82
421.781	491.646
425.805	247.011
429.827	281.668
433.847	472.49
437.865	446.218
441.882	180.939
445.896	149.241
449.909	142.094
453.919	222.191
457.928	539.057
461.935	1104.55
465.94	803.236
469.943	418.673
473.944	183.731
477.943	103.556
481.94	201.078
485.935	208.514
489.929	101.364
493.92	81.9366
497.91	19.599
501.898	120.124
505.883	149.038
509.867	204.786
513.849	236.441
517.829	346.965
521.808	390.355
525.784	529.61
529.758	594.733
533.731	283.714
537.701	131.555
541.67	120.249
545.637	73.7946
549.602	22.2128
553.565	65.5496
557.526	90.7418
561.486	76.7961
565.443	74.8849
569.399	46.7245
573.352	27.3672
577.304	57.9409
581.254	28.2841
585.202	61.3886
589.148	51.3215
593.093	44.6974
597.035	3.77695
600.976	22.5948
604.914	60.4844
608.851	18.7753
612.786	40.7372
616.719	22.1726
620.651	23.5824
624.58	7.09973
628.507	24.2319
632.433	90.6756
636.357	137.372
640.279	127.815
644.199	175.034
648.117	318.833
652.034	433.886
655.948	577.824
659.861	754.528
663.772	1300.16
667.681	2831.41
671.588	6345.84
675.493	5793.45
679.397	2634.86
683.298	1269.27
687.198	871.312
691.096	785.135
694.992	441.842
698.886	308.829
702.779	234.675
706.669	160.835
710.558	147.578
714.445	135.787
718.33	57.15
722.214	82.0772
726.095	95.1377
729.975	131.922
733.852	178.723
737.728	187.009
741.603	243.239
745.475	281.943
749.345	360.302
753.214	238.969
757.081	109.509
760.946	50.3887
764.809	58.3852
768.671	68.6544
772.53	54.3796
776.388	71.8445
780.244	43.828
784.098	2.52173
787.951	19.1088
791.801	42.7108
795.65	90.4492
799.497	85.1017
803.342	19.6808
807.186	32.1847
811.027	42.6187
814.867	25.9661
818.705	23.5889
822.541	42.5164
826.375	34.3419
830.208	18.8962
834.039	30.7592
837.868	48.374
841.695	50.8965
845.521	39.7976
849.344	23.4983
853.166	22.6865
856.986	72.7815
860.804	1.7196
864.621	34.4793
868.436	54.1593
872.248	5.43054
876.06	14.9748
879.869	36.3496
883.677	57.959
887.482	61.7906
891.287	64.9524
895.089	33.0459
898.889	64.0602
902.688	84.0265
906.485	124.96
910.28	84.8756
914.074	195.57
917.865	176.12
921.655	334.607
925.443	541.7
929.23	1031.83
933.014	862.676
936.797	451.99
940.578	374.804
944.358	471.625
948.135	414.068
951.911	252.917
955.685	263.484
959.458	197.008
963.228	138.148
966.997	32.7538
970.764	140.626
974.529	104.318
978.293	97.2231
982.055	95.5227
985.815	71.2253
989.573	53.9902
993.33	163.89
997.085	213.961
1000.84	202.029
1004.59	168.986
1008.34	222.842
1012.09	315.627
1015.83	364.376
1019.58	673.793
1023.32	925.778
1027.06	1911.55
1030.8	1666.51
1034.54	770.96
1038.27	481.195
1042.01	362.434
1045.74	323.047
1049.47	334.398
1053.2	652.941
1056.93	1602.82
1060.65	2027.03
1064.38	1134.22
1068.1	767.376
1071.82	632.784
1075.54	360.211
1079.25	292.683
1082.97	298.81
1086.68	529.821
1090.39	222.515
1094.11	104.3
1097.81	84.8945
1101.52	101.78
1105.22	120.564
1108.93	28.2546
1112.63	12.2864
1116.33	40.116
1120.03	82.167
1123.72	72.5527
1127.42	90.7375
1131.11	102.067
1134.8	87.7195
1138.49	17.7683
1142.18	29.9026
1145.87	20.3481
1149.55	43.9912
1153.23	63.7
1156.91	71.2056
1160.59	81.2629
1164.27	78.7405
1167.95	84.6121
1171.62	71.4758
1175.3	39.6477
1178.97	93.4785
1182.64	98.9983
1186.3	170.394
1189.97	127.114
1193.63	39.5603
1197.3	66.6931
1200.96	46.6924
1204.62	25.2566
1208.27	58.4031
1211.93	114.574
1215.58	73.2251
1219.24	146.495
1222.89	86.2986
1226.54	138.636
1230.18	98.813
1233.83	9.11304
1237.47	89.7498
1241.12	62.9871
1244.76	59.4915
1248.4	63.6028
1252.04	113.883
1255.67	89.9185
1259.31	25.6511
1262.94	75.5549
1266.57	124.384
1270.2	40.2087
1273.83	76.0112
1277.45	120.705
1281.08	71.1948
1284.7	81.9248
1288.32	73.7988
1291.94	97.167
1295.56	72.6699
1299.17	58.1074
1302.79	58.4009
1306.4	73.2637
1310.01	133.685
1313.62	53.6997
1317.23	147.143
1320.84	116.544
1324.44	166.892
1328.04	82.438
1331.64	144.613
1335.24	60.4307
1338.84	107.7
1342.44	81.418
1346.03	86.6777
1349.63	131.53
1353.22	24.5566
1356.81	119.638
1360.4	92.3584
1363.98	72.5747
1367.57	118.44
1371.15	86.7573
1374.73	24.7173
1378.32	103.315
1381.89	118.812
1385.47	190.798
1389.05	218.073
1392.62	100.414
1396.19	216.056
1399.76	167.333
1403.33	80.98
1406.9	232.956
1410.46	70.5552
1414.03	132.677
1417.59	91.7783
1421.15	151.75
1424.71	295.562
1428.27	241.542
1431.82	279.592
1435.38	291.706
1438.93	199.375
1442.48	247.447
1446.03	164.003
1449.58	24.0371
1453.13	128.777
1456.67	161.761
1460.21	184.447
1463.76	305.322
1467.3	28.0967
1470.83	160.33
1474.37	183.262
1477.91	134.633
1481.44	138.053
1484.97	69.2607
1488.5	80.0796
1492.03	20.0855
1495.56	55.3872
1499.08	0
