Measurement: Raman, 532 nm, unoriented, Raman Data Processed
Mineral: Tremolite
Rruff sample: R050173
Ideal chemistry: [box]Ca_2_Mg_5_Si_8_O_22_(OH)_2_
Locality: Fort Dauphin, Madagascar
Source: Marcus Origlieri
Description: Mass of colorless acicular crystals
Measured chemistry: [box]Ca_2.00_Mg_5.00_Si_8.00_O_22_(OH)_2_
Raman shift (cm-1)	intensity
152.112	0
155.004	4.74524
157.897	51.0168
160.79	264.879
163.682	179.412
166.575	96.728
169.468	81.7629
172.36	117.908
175.253	193.372
178.146	404.316
181.038	403.737
183.931	62.3369
186.824	1.71252
189.717	5.78986
192.609	1.81781
195.502	13.8867
198.395	9.59699
201.287	27.1244
204.18	62.365
207.073	124.366
209.965	158.714
212.858	213.892
215.751	298.377
218.644	330.878
221.536	505.65
224.429	731.756
227.322	386.718
230.214	218.286
233.107	253.407
236	194.261
238.893	79.8964
241.785	44.7928
244.678	34.0544
247.571	53.5838
250.463	95.0629
253.356	89.3452
256.249	36.7259
259.141	22.3615
262.034	25.5909
264.927	42.3505
267.82	16.8468
270.712	6.15857
273.605	3.96332
276.498	3.25366
279.39	2.60095
282.283	3.28687
285.176	7.23651
288.068	20.5086
290.961	39.7914
293.854	23.5996
296.747	11.912
299.639	14.5335
302.532	30.6812
305.425	31.8569
308.317	5.6463
311.21	0.853638
314.103	0.166321
316.995	1.71295
319.888	1.44177
322.781	5.59784
325.673	14.9604
328.566	23.3941
331.459	42.0739
334.352	69.6888
337.244	54.8254
340.137	56.5279
343.03	102.293
345.922	127.978
348.815	113.846
351.708	144.39
354.601	148.997
357.493	111.414
360.386	100.564
363.279	124.414
366.171	175.517
369.064	263.129
371.957	279.557
374.849	156.341
377.742	119.003
380.635	95.5143
383.527	82.8741
386.42	93.4936
389.313	137.322
392.206	215.951
395.098	311.32
397.991	215.922
400.884	72.5114
403.776	40.4349
406.669	32.0063
409.562	39.8414
412.454	62.427
415.347	97.195
418.24	99.086
421.132	49.4765
424.025	12.7578
426.918	5.36951
429.811	0.865112
432.703	10.4539
435.596	28.3289
438.489	27.9547
441.381	1.76746
444.274	10.0366
447.167	4.60614
450.06	4.3761
452.952	16.2087
455.845	28.1782
458.738	40.5714
461.63	65.9572
464.523	91.3487
467.416	74.1479
470.308	33.8644
473.201	14.1116
476.094	7.91528
478.986	7.70129
481.879	7.26099
484.772	5.12506
487.665	12.6144
490.557	6.40216
493.45	9.46155
496.343	10.14
499.235	12.115
502.128	13.5792
505.021	11.9025
507.913	22.7737
510.806	38.7438
513.699	62.6417
516.592	73.6567
519.484	64.9559
522.377	64.35
525.27	60.7512
528.162	69.819
531.055	74.2242
533.948	50.3082
536.841	23.4222
539.733	10.1287
542.626	5.23047
545.519	0.457397
548.411	1.29724
551.304	1.25458
554.197	0.424561
557.089	3.02978
559.982	2.16028
562.875	2.07153
565.768	1.22064
568.66	1.96417
571.553	0.500244
574.446	5.77753
577.338	3.1604
580.231	5.78198
583.124	4.2074
586.016	3.47821
588.909	5.11945
591.802	3.03949
594.694	0.386963
597.587	3.44653
600.48	1.89185
603.373	2.12274
606.265	1.53607
609.158	6.32465
612.051	2.86963
614.943	1.50311
617.836	0.063232
620.729	0.55127
623.621	3.64374
626.514	3.56506
629.407	8.72388
632.3	16.6732
635.192	21.1388
638.085	40.4205
640.978	54.5752
643.87	79.0081
646.763	112.539
649.656	152.934
652.548	209.224
655.441	256.334
658.334	320.294
661.227	438.039
664.119	589.483
667.012	804.704
669.905	1131.15
672.797	1488.02
675.69	1535.25
678.583	1004.83
681.476	517.49
684.368	305.777
687.261	216.39
690.154	178.909
693.046	143.689
695.939	92.5964
698.832	59.6801
701.724	41.1998
704.617	25.2781
707.51	11.5391
710.403	11.782
713.295	12.7344
716.188	5.57373
719.081	1.67517
721.973	0.155518
724.866	1.98938
727.759	7.1991
730.651	8.9823
733.544	12.1228
736.437	28.9215
739.33	41.9143
742.222	55.4349
745.115	33.8169
748.008	39.2047
750.9	34.6602
753.793	30.942
756.686	19.2386
759.578	2.51367
762.471	4.90405
765.364	3.30798
768.256	0.695313
771.149	2.6228
774.042	1.87756
776.935	2.79077
779.827	2.88721
782.72	0.371704
785.613	5.91711
788.505	0.272949
791.398	1.24426
794.291	2.33069
797.183	4.49341
800.076	4.05151
802.969	5.01099
805.862	3.69238
808.754	5.6947
811.647	8.9635
814.54	14.2236
817.432	12.1396
820.325	4.96973
823.218	3.74292
826.111	5.40112
829.003	3.70898
831.896	0.551514
834.789	8.53687
837.681	4.7937
840.574	3.13293
843.467	6.99439
846.359	4.31055
849.252	5.80444
852.145	4.35339
855.038	6.94702
857.93	2.01025
860.823	0.546997
863.716	0.222778
866.608	2.97656
869.501	3.79651
872.394	1.95825
875.286	1.43335
878.179	0.417603
881.072	1.8772
883.965	6.71936
886.857	7.63953
889.75	1.01123
892.643	2.47376
895.535	4.7334
898.428	8.44409
901.321	13.5148
904.213	11.1058
907.106	13.6642
909.999	17.2445
912.891	20.9694
915.784	27.5543
918.677	41.5194
921.57	66.8082
924.462	88.4592
927.355	124.682
930.248	164.224
933.14	168.96
936.033	117.731
938.926	77.2845
941.818	66.2259
944.711	69.5532
947.604	70.9563
950.497	62.0424
953.389	34.1169
956.282	22.4858
959.175	7.59985
962.067	6.59045
964.96	0.391235
967.853	3.85693
970.745	7.81238
973.638	4.79297
976.531	1.76282
979.423	0.314697
982.316	4.16089
985.209	1.58777
988.102	1.86804
990.994	2.43201
993.887	3.58118
996.78	2.09998
999.672	6.51502
1002.57	5.6654
1005.46	10.4905
1008.35	9.56653
1011.24	26.2334
1014.14	37.8611
1017.03	66.7394
1019.92	101.571
1022.81	127.303
1025.71	153.087
1028.6	207.64
1031.49	219.821
1034.38	131.695
1037.28	71.6764
1040.17	47.269
1043.06	38.3718
1045.96	55.5869
1048.85	95.1726
1051.74	150.405
1054.63	208.642
1057.53	312.658
1060.42	452.473
1063.31	433.287
1066.2	251.531
1069.1	156.42
1071.99	128.352
1074.88	79.1134
1077.78	60.6519
1080.67	37.4363
1083.56	43.1903
1086.45	64.2079
1089.35	60.7683
1092.24	33.4552
1095.13	16.4343
1098.02	7.52588
1100.92	8.05347
1103.81	8.45483
1106.7	8.40576
1109.6	0.406006
1112.49	8.15527
1115.38	3.6355
1118.27	2.948
1121.17	0.461548
1124.06	2.21472
1126.95	4.73523
1129.84	1.87988
1132.74	7.54333
1135.63	3.89197
1138.52	8.26135
1141.41	8.89099
1144.31	1.59546
1147.2	0.510498
1150.09	1.31238
1152.98	1.40698
1155.88	5.76282
1158.77	8.75037
1161.66	6.56958
1164.56	9.68811
1167.45	7.16675
1170.34	1.43567
1173.23	9.09363
1176.13	1.20422
1179.02	0.311401
1181.91	3.86377
1184.81	8.12488
1187.7	0.35498
1190.59	7.70288
1193.48	5.24817
1196.38	6.93518
1199.27	11.9601
1202.16	8.19336
1205.05	1.9707
1207.95	10.7402
1210.84	8.26318
1213.73	5.51123
1216.62	10.8752
1219.52	10.9988
1222.41	13.1836
1225.3	13.2998
1228.2	11.5396
1231.09	1.62817
1233.98	8.38379
1236.87	8.27441
1239.77	2.68701
1242.66	1.28345
1245.55	10.0039
1248.44	11.6157
1251.34	3.46753
1254.23	4.81104
1257.12	10.053
1260.02	8.72632
1262.91	8.73267
1265.8	15.0808
1268.69	10.5364
1271.59	7.74365
1274.48	8.3064
1277.37	6.3855
1280.26	5.9187
1283.16	3.99048
1286.05	1.70288
1288.94	7.27637
1291.84	9.13696
1294.73	8.54932
1297.62	2.427
1300.51	7.87207
1303.41	5.80981
