Measurement: Raman, 532 nm, unoriented, Raman Data Processed
Mineral: Trembathite
Rruff sample: R070756
Ideal chemistry: Mg_3_B_7_O_13_Cl
Locality: Salt Springs deposit (Salt Springs evaporite deposit), Sussex, Kings Co., New Brunswick, Canada
Source: Michael Scott
Description: Blue-green pseudocubic crystal
Raman shift (cm-1)	intensity
207.421	0
210.314	3.74121
213.207	57.7041
216.099	53.1252
218.992	16.0609
221.885	63.8779
224.778	95.8544
227.67	144.704
230.563	218.705
233.456	213.552
236.348	261.864
239.241	210.815
242.134	140.439
245.026	122.275
247.919	89.8596
250.812	122.475
253.704	66.2155
256.597	85.2694
259.49	54.0502
262.383	35.0718
265.275	8.96155
268.168	11.3798
271.061	24.9783
273.953	1.46838
276.846	31.2933
279.739	11.9639
282.632	27.611
285.524	37.7792
288.417	80.0635
291.31	73.4724
294.202	60.1258
297.095	106.356
299.988	121.095
302.88	165.126
305.773	157.476
308.666	236.665
311.558	248.718
314.451	198.593
317.344	179.878
320.237	116.961
323.129	87.279
326.022	48.3955
328.915	50.0196
331.807	23.0111
334.7	79.528
337.593	110.094
340.486	167.136
343.378	176.913
346.271	212.704
349.164	192.086
352.056	187.542
354.949	336.817
357.842	530.18
360.734	759.2
363.627	597.21
366.52	482.186
369.413	621.386
372.305	971.467
375.198	1214.19
378.091	856.179
380.983	474.929
383.876	225.96
386.769	94.1498
389.661	21.5963
392.554	88.2165
395.447	131.59
398.339	216.319
401.232	199.777
404.125	214.214
407.018	315.488
409.91	468.586
412.803	527.103
415.696	286.95
418.588	94.0779
421.481	21.1583
424.374	34.371
427.267	28.3923
430.159	25.2242
433.052	53.6261
435.945	117.147
438.837	95.2825
441.73	36.4672
444.623	56.5884
447.515	33.9576
450.408	52.3125
453.301	38.5742
456.193	57.0388
459.086	4.69873
461.979	33.5028
464.872	59.3202
467.764	61.1897
470.657	59.8799
473.55	17.5563
476.442	22.9076
479.335	8.01489
482.228	7.60046
485.12	9.78955
488.013	0.075073
490.906	24.1414
493.799	8.70569
496.691	51.8648
499.584	95.1498
502.477	101.91
505.369	70.1664
508.262	102.903
511.155	184.745
514.047	338.291
516.94	483.173
519.833	575.766
522.726	518.4
525.618	382.516
528.511	382.373
531.404	349.089
534.296	310.91
537.189	288.835
540.082	288.901
542.974	344.142
545.867	456.441
548.76	550.467
551.653	505.254
554.545	361.17
557.438	216.505
560.331	120.652
563.223	109.208
566.116	129.19
569.009	155.431
571.901	91.7483
574.794	14.7231
577.687	25.3896
580.58	35.5824
583.472	30.7931
586.365	38.0956
589.258	116.264
592.15	270.866
595.043	436.918
597.936	534.774
600.828	828.766
603.721	1207.62
606.614	1269.97
609.506	732.209
612.399	343.844
615.292	292.773
618.185	329.964
621.077	358.094
623.97	401.824
626.863	280.116
629.755	285.43
632.648	350.257
635.541	523.732
638.433	785.997
641.326	1291.46
644.219	1983.76
647.112	2635.2
650.004	3409.29
652.897	3856.12
655.79	4325.8
658.682	4989.72
661.575	5114.2
664.468	4286.98
667.361	2897.43
670.253	1782.53
673.146	1157.38
676.039	757.442
678.931	482.576
681.824	286.873
684.717	159.675
687.609	124.061
690.502	49.4144
693.395	40.2589
696.288	16.2073
699.18	14.8643
702.073	18.9241
704.966	8.22437
707.858	13.9254
710.751	24.9547
713.644	88.8165
716.536	108.189
719.429	97.5984
722.322	128.072
725.215	145.49
728.107	95.3641
731	89.4642
733.893	6.07581
736.785	0.706543
739.678	3.61633
742.571	4.67175
745.463	6.05884
748.356	32.9522
751.249	32.0151
754.141	45.4413
757.034	65.3292
759.927	13.5004
762.82	54.1344
765.712	57.5742
768.605	53.952
771.498	48.6041
774.39	74.949
777.283	60.4048
780.176	111.373
783.068	167.955
785.961	101.596
788.854	73.5214
791.747	23.4623
794.639	7.12158
797.532	10.4475
800.425	47.6733
803.317	38.1326
806.21	39.1517
809.103	57.2347
811.995	61.5692
814.888	66.9938
817.781	29.0101
820.674	10.4034
823.566	0.99707
826.459	11.1051
829.352	28.0056
832.244	68.384
835.137	111.562
838.03	181.571
840.922	288.52
843.815	307.962
846.708	244.176
849.601	149.846
852.493	135.684
855.386	143.242
858.279	137.618
861.171	128.125
864.064	64.2292
866.957	46.1414
869.849	60.1415
872.742	45.2982
875.635	15.5453
878.528	52.3132
881.42	30.1867
884.313	41.5289
887.206	43.0283
890.098	4.98498
892.991	0.135742
895.884	12.8192
898.776	7.00854
901.669	8.95239
904.562	41.2236
907.455	24.5808
910.347	10.4685
913.24	48.6786
916.133	57.7286
919.025	84.9015
921.918	106.631
924.811	129.543
927.703	167.466
930.596	187.312
933.489	220.185
936.381	226.983
939.274	259.404
942.167	302.643
945.06	363.372
947.952	398.083
950.845	366.44
953.738	363.064
956.63	301.649
959.523	289.371
962.416	323.217
965.308	352.011
968.201	352.714
971.094	377.419
973.987	322.18
976.879	287.149
979.772	199.433
982.665	169.104
985.557	99.2521
988.45	80.7135
991.343	26.8914
994.236	28.6941
997.128	9.43286
1000.02	20.3955
1002.91	4.92664
1005.81	6.73352
1008.7	35.1754
1011.59	21.0424
1014.48	59.1691
1017.38	72.8804
1020.27	73.8124
1023.16	96.1094
1026.06	124.184
1028.95	133.437
1031.84	224.751
1034.73	212.077
1037.63	215.191
1040.52	197.65
1043.41	155.455
1046.3	138.78
1049.2	168.394
1052.09	187.926
1054.98	181.359
1057.88	215.765
1060.77	226.656
1063.66	239.76
1066.55	281.177
1069.45	267.451
1072.34	259.375
1075.23	278.411
1078.12	363.971
1081.02	372.75
1083.91	392.822
1086.8	411.701
1089.69	393.492
1092.59	402.45
1095.48	382.596
1098.37	304.246
1101.27	213.296
1104.16	141.244
1107.05	132.597
1109.94	97.9017
1112.84	92.7507
1115.73	34.9839
1118.62	3.92334
1121.51	28.6431
1124.41	9.38245
1127.3	7.85986
1130.19	5.99793
1133.09	0.9823
1135.98	8.13306
1138.87	13.3412
1141.76	53.2194
1144.66	110.674
1147.55	182.362
1150.44	288.892
1153.33	294.563
1156.23	245.373
1159.12	181.882
1162.01	175.229
1164.9	153.149
1167.8	98.0603
1170.69	97.0362
1173.58	49.4122
1176.48	66.8605
1179.37	48.4896
1182.26	22.6674
1185.15	34.0433
1188.05	34.4106
1190.94	14.6376
1193.83	3.27075
1196.72	11.9745
1199.62	35.4778
1202.51	52.1466
1205.4	17.9544
1208.3	57.896
1211.19	116.322
1214.08	176.861
1216.97	241.81
1219.87	336.422
1222.76	375.938
1225.65	462.708
1228.54	508.734
1231.44	492.341
1234.33	428.86
1237.22	256.43
1240.12	183.738
1243.01	90.5187
1245.9	60.1715
1248.79	44.9176
1251.69	46.6174
1254.58	20.8805
1257.47	8.86768
1260.36	2.50085
1263.26	25.5001
