Measurement: Raman, 780 nm, unoriented, Raman Data Processed
Mineral: Tremolite
Rruff sample: R050498
Ideal chemistry: [box]Ca_2_Mg_5_Si_8_O_22_(OH)_2_
Locality: Inyo County, California, USA
Source: California Institute of Technology
Description: Group of pale blue parallel acicular crystals
Measured chemistry: (Ca_1.95_Na_0.05_)_Σ=2_(Mg_4.75_Fe^3+^_0.13_Fe^2+^_0.07_Mn_0.05_)_Σ=5_(Si_7.92_Al_0.08_)_Σ=8_O_22_(OH)_2_; OH estimated by charge balance
Raman shift (cm-1)	intensity
92.8591	0
96.2339	49.8262
99.6087	34.2159
102.984	1.09253
106.358	2.31116
109.733	14.4718
113.108	51.1254
116.483	133.095
119.858	102.172
123.232	36.9036
126.607	14.7887
129.982	4.48718
133.357	8.84375
136.732	5.34998
140.107	30.1907
143.481	45.6051
146.856	46.8837
150.231	65.3129
153.606	107.816
156.981	199.264
160.355	366.016
163.73	234.666
167.105	146.93
170.48	166.438
173.855	232.451
177.23	374.549
180.604	254.789
183.979	78.9238
187.354	36.6641
190.729	26.4292
194.104	27.3123
197.478	37.0353
200.853	69.361
204.228	147.939
207.603	220.498
210.978	320.539
214.352	484.464
217.727	646.017
221.102	917.549
224.477	953.649
227.852	835.4
231.226	1020.77
234.601	836.223
237.976	407.936
241.351	253.13
244.726	247.365
248.101	321.446
251.475	286.992
254.85	152.29
258.225	95.9169
261.6	87.6309
264.975	58.7167
268.349	10.7904
271.724	2.37085
275.099	5.48621
278.474	12.5746
281.849	2.80762
285.224	6.97192
288.598	5.26428
291.973	9.57141
295.348	5.55115
298.723	17.1006
302.098	28.9122
305.473	26.6541
308.847	19.1574
312.222	23.7593
315.597	18.0635
318.972	19.0591
322.347	30.2033
325.721	26.2378
329.096	46.1755
332.471	46.7931
335.846	58.9247
339.221	105.491
342.596	135.654
345.97	182.112
349.345	205.299
352.72	192.134
356.095	173.198
359.469	172.342
362.844	209.905
366.219	252.017
369.594	256.345
372.969	202.343
376.344	167.406
379.718	147.32
383.093	153.081
386.468	191.398
389.843	277.735
393.218	378.887
396.592	296.854
399.967	137.276
403.342	97.7388
406.717	111.85
410.092	126.17
413.467	154.294
416.841	160.655
420.216	128.913
423.591	91.6779
426.966	63.7512
430.341	71.8318
433.716	89.886
437.09	81.0688
440.465	16.0405
443.84	-0.878891
447.215	4.44263
450.59	5.83899
453.964	0.436646
457.339	1.68201
460.714	0.764038
464.089	7.49426
467.464	0.779541
470.839	1.66321
474.213	7.45483
477.588	8.79468
480.963	15.9006
484.338	24.1572
487.713	23.0497
491.087	25.2653
494.462	17.5348
497.837	25.9222
501.212	28.2075
504.587	53.8629
507.962	78.834
511.336	106.956
514.711	134.613
518.086	133.879
521.461	145.924
524.836	146.701
528.21	143.442
531.585	133.732
534.96	66.1882
538.335	33.9454
541.71	20.2704
545.085	9.10864
548.459	4.18579
551.834	5.91968
555.209	4.35901
558.584	5.27588
561.959	5.60815
565.333	0.601318
568.708	0.306763
572.083	8.56165
575.458	11.6006
578.833	4.9895
582.207	10.6304
585.582	9.41882
588.957	9.50195
592.332	0.500732
595.707	1.0929
599.082	0.317627
602.456	10.9889
605.831	2.4635
609.206	0.074585
612.581	0.303833
615.956	4.41833
619.33	3.64368
622.705	8.21301
626.08	6.27258
629.455	15.23
632.83	15.8477
636.205	38.6017
639.579	49.4692
642.954	73.3295
646.329	93.7795
649.704	134.861
653.079	187.055
656.453	281.348
659.828	440.784
663.203	607.511
666.578	857.364
669.953	1223.44
673.327	1443.96
676.702	1026.76
680.077	540.073
683.452	309.504
686.827	218.207
690.202	166.882
693.576	119.209
696.951	66.8474
700.326	45.8802
703.701	29.1831
707.076	20.9748
710.45	11.239
713.825	7.14941
717.2	0.929321
720.575	5.95642
723.95	4.64258
727.324	9.04346
730.699	9.62927
734.074	23.7385
737.449	32.4722
740.824	44.7339
744.199	39.3761
747.573	37.7035
750.948	38.295
754.323	14.5905
757.698	12.8186
761.073	5.36096
764.447	6.13171
767.822	4.61548
771.197	3.26843
774.572	5.00525
777.947	0.087036
781.322	5.2218
784.696	9.17932
788.071	2.18738
791.446	9.66602
794.821	3.26611
798.196	3.57715
801.571	0.526978
804.945	1.44958
808.32	8.66882
811.695	12.5204
815.07	7.64612
818.445	16.3096
821.819	18.7294
825.194	11.3229
828.569	4.54529
831.944	8.10339
835.319	8.29077
838.693	6.35522
842.068	13.7429
845.443	17.4954
848.818	5.36816
852.193	9.89795
855.568	9.97021
858.942	7.34558
862.317	3.42358
865.692	9.3728
869.067	6.07471
872.442	10.2179
875.817	5.66235
879.191	0.451782
882.566	2.68762
885.941	13.7853
889.316	4.8844
892.691	5.81433
896.065	0.977173
899.44	8.94763
902.815	8.92297
906.19	12.0004
909.565	22.5847
912.939	30.4631
916.314	41.8373
919.689	76.3646
923.064	98.9503
926.439	129.829
929.813	163.743
933.188	123.055
936.563	77.766
939.938	58.7205
943.313	52.09
946.688	51.1134
950.062	43.4843
953.437	27.9048
956.812	17.2772
960.187	14.4915
963.562	4.87683
966.937	3.77771
970.311	7.17932
973.686	3.70093
977.061	4.07873
980.436	1.88721
983.811	10.7526
987.185	1.98865
990.56	8.36658
993.935	6.3064
997.31	14.6009
1000.68	16.9786
1004.06	31.7996
1007.43	42.3315
1010.81	70.0452
1014.18	101.531
1017.56	157.966
1020.93	185.928
1024.31	231.947
1027.68	270.331
1031.06	221.963
1034.43	117.284
1037.81	78.9276
1041.18	65.7098
1044.56	80.5409
1047.93	106.305
1051.31	155.807
1054.68	214.332
1058.06	278.837
1061.43	248.014
1064.81	145.341
1068.18	101.242
1071.56	75.6643
1074.93	47.979
1078.31	20.3784
1081.68	14.3571
1085.06	12.4946
1088.43	11.6943
1091.81	8.86023
1095.18	21.8948
1098.55	6.61194
1101.93	5.15112
1105.3	6.19421
1108.68	5.56653
1112.05	4.84961
1115.43	2.44922
1118.8	0.696945
1122.18	5.7948
1125.55	3.63354
1128.93	7.59265
1132.3	7.70825
1135.68	8.72498
1139.05	15.7315
1142.43	17.0013
1145.8	15.9341
1149.18	15.2416
1152.55	14.0704
1155.93	17.2932
1159.3	13.5951
1162.68	21.4609
1166.05	10.9324
1169.42	16.9326
1172.8	14.9842
1176.17	13.2745
1179.55	15.7786
1182.92	15.2823
1186.3	9.76807
1189.67	4.37622
1193.05	20.022
1196.42	13.6989
1199.8	15.3243
1203.17	18.0552
1206.55	8.18323
1209.92	9.21179
1213.3	2.84509
1216.67	8.56213
1220.05	7.25049
1223.42	0.511475
1226.8	6.64978
1230.17	8.86145
1233.55	3.53406
1236.92	3.11011
1240.3	5.70361
1243.67	7.80347
1247.05	1.29089
1250.42	2.49109
1253.8	0.285034
1257.17	1.25415
1260.55	2.54956
1263.92	14.5587
1267.3	10.9653
1270.67	6.49023
1274.05	8.03064
1277.42	4.59241
1280.79	0.15625
1284.17	4.57434
