Measurement: Raman, 532 nm, unoriented, Raman Data Processed
Mineral: Tremolite
Rruff sample: R060311
Ideal chemistry: [box]Ca_2_Mg_5_Si_8_O_22_(OH)_2_
Locality: Khyber Pass area, Khyber Agency, North-West Frontier Province, Pakistan
Source: Herb Obodda
Description: Colorless fragment
Measured chemistry: [box](Ca_1.96_Mg_0.04_)_Σ=2_(Mg_4.97_Fe^3+^_0.03_)_Σ=5_(Si_7.97_Al_0.03_)_Σ=8_O_22_(OH)_2_
Raman shift (cm-1)	intensity
90.4922	0
93.867	1.1424
97.2418	5.05037
100.617	6.04085
103.992	14.6507
107.366	17.8829
110.741	20.7696
114.116	33.774
117.491	27.7273
120.865	16.0891
124.24	11.4301
127.615	4.78845
130.99	3.52348
134.365	8.69148
137.74	6.89329
141.114	3.87087
144.489	24.0585
147.864	36.4683
151.239	59.8263
154.614	110.984
157.988	229.494
161.363	511.438
164.738	324.76
168.113	201.183
171.488	247.15
174.863	410.029
178.237	845.954
181.612	531.202
184.987	176.706
188.362	127.293
191.737	132.857
195.112	112.005
198.486	76.6468
201.861	80.0679
205.236	117.544
208.611	177.358
211.986	310.83
215.36	489.456
218.735	526.445
222.11	936.368
225.485	962.052
228.86	487.358
232.234	590.746
235.609	463.67
238.984	181.658
242.359	102.646
245.734	124.847
249.109	244.248
252.483	302.026
255.858	133.603
259.233	74.6275
262.608	87.8961
265.983	92.4117
269.358	12.5373
272.732	6.36822
276.107	12.3719
279.482	9.6393
282.857	3.78133
286.232	21.8754
289.606	81.0426
292.981	58.615
296.356	24.1691
299.731	40.2978
303.106	98.455
306.481	75.4371
309.855	26.6295
313.23	26.9397
316.605	6.15447
319.98	9.14211
323.355	1.9017
326.729	17.6529
330.104	52.3156
333.479	137.6
336.854	84.8216
340.229	85.0246
343.603	148.752
346.978	148.829
350.353	173.926
353.728	214.747
357.103	148.875
360.478	137.005
363.852	196.719
367.227	361.151
370.602	687.41
373.977	389.531
377.352	237.392
380.726	187.959
384.101	185.234
387.476	267.283
390.851	498.637
394.226	908.685
397.601	735.332
400.975	233.971
404.35	133.235
407.725	136.955
411.1	200.616
414.475	346.835
417.849	432.273
421.224	209.434
424.599	82.9738
427.974	49.8121
431.349	45.2917
434.724	72.049
438.098	82.9444
441.473	20.6713
444.848	2.95166
448.223	3.42465
451.598	7.2319
454.972	4.98532
458.347	2.22803
461.722	0.427643
465.097	3.20639
468.472	6.24503
471.846	12.6506
475.221	16.8447
478.596	29.188
481.971	43.0816
485.346	62.0461
488.721	61.7805
492.095	45.1402
495.47	44.3219
498.845	31.0514
502.22	38.7118
505.595	42.0626
508.969	60.5951
512.344	94.3501
515.719	111.028
519.094	90.7801
522.469	77.9515
525.844	86.3558
529.218	120.092
532.593	106.224
535.968	49.7857
539.343	20.4101
542.718	11.8615
546.092	4.97876
549.467	0.336792
552.842	2.14996
556.217	0.574585
559.592	2.32449
562.967	0.031799
566.341	1.24692
569.716	1.29919
573.091	3.25073
576.466	3.7175
579.841	9.41415
583.216	16.4544
586.59	21.9918
589.965	18.0922
593.34	15.1272
596.715	14.3951
600.09	13.3982
603.464	11.8382
606.839	4.53879
610.214	0.194519
613.589	1.60956
616.964	1.99911
620.338	1.86316
623.713	2.07825
627.088	1.00226
630.463	2.26398
633.838	17.8658
637.212	22.1245
640.587	41.2605
643.962	69.2331
647.337	112.9
650.712	179.745
654.087	277.029
657.461	371.947
660.836	550.287
664.211	859.034
667.586	1405.95
670.961	2422.5
674.335	3384.24
677.71	2320.81
681.085	1042.59
684.46	529.625
687.835	332.416
691.21	258.872
694.584	190.19
697.959	112.797
701.334	64.9117
704.709	36.3011
708.084	22.4994
711.458	10.3202
714.833	4.67987
718.208	1.75732
721.583	0.844116
724.958	3.64716
728.332	11.2112
731.707	21.9315
735.082	46.8378
738.457	88.7073
741.832	105.924
745.207	95.2203
748.581	112.519
751.956	131.019
755.331	79.9337
758.706	37.6666
762.081	13.84
765.456	8.71832
768.83	0.012268
772.205	0.48291
775.58	1.30591
778.955	4.76837
782.33	1.97168
785.704	0.913818
789.079	0.559143
792.454	4.98773
795.829	9.3844
799.204	9.14801
802.578	16.2184
805.953	24.6886
809.328	46.6975
812.703	55.6423
816.078	27.7031
819.453	10.4944
822.827	10.2055
826.202	6.60815
829.577	5.80939
832.952	5.09491
836.327	0.490845
839.702	1.11334
843.076	1.74469
846.451	1.16772
849.826	0.733459
853.201	3.7431
856.576	1.91815
859.95	1.53503
863.325	2.52008
866.7	2.74768
870.075	4.97589
873.45	5.51337
876.824	2.53125
880.199	0.164124
883.574	1.25623
886.949	2.0647
890.324	4.68372
893.698	1.18982
897.073	6.17377
900.448	11.1955
903.823	8.55078
907.198	17.7229
910.573	20.5922
913.947	21.1464
917.322	39.2758
920.697	64.724
924.072	109.26
927.447	186.763
930.822	281.907
934.196	247.354
937.571	121.905
940.946	66.8817
944.321	49.9667
947.696	64.7835
951.07	50.2846
954.445	28.464
957.82	16.6237
961.195	12.241
964.57	4.59399
967.944	4.94714
971.319	0.863281
974.694	0.324219
978.069	5.21387
981.444	5.23303
984.819	1.58838
988.193	8.31055
991.568	0.994141
994.943	1.51123
998.318	4.82971
1001.69	1.76758
1005.07	3.72656
1008.44	7.00427
1011.82	22.0303
1015.19	45.7963
1018.57	96.1444
1021.94	164.111
1025.32	227.197
1028.69	354.887
1032.07	316.4
1035.44	142.114
1038.82	60.6262
1042.19	29.4972
1045.57	29.8782
1048.94	58.5702
1052.32	105.7
1055.69	219.426
1059.07	398.525
1062.44	439.449
1065.81	244.614
1069.19	180.607
1072.56	152.268
1075.94	78.8093
1079.31	46.6634
1082.69	25.2614
1086.06	15.5453
1089.44	12.8069
1092.81	8.82593
1096.19	7.47925
1099.56	4.32227
1102.94	1.63977
1106.31	3.81165
1109.69	1.71472
1113.06	7.09973
1116.44	1.55481
1119.81	9.04126
1123.19	11.0024
1126.56	3.73218
1129.94	1.32397
1133.31	0.977539
1136.68	0.598877
1140.06	8.13159
1143.43	4.51978
1146.81	2.0896
1150.18	5.35095
1153.56	14.9795
1156.93	9.23816
1160.31	11.8208
1163.68	2.37329
1167.06	7.44922
1170.43	3.94995
1173.81	9.84521
1177.18	14.1245
1180.56	5.01636
1183.93	10.2114
1187.31	7.43115
1190.68	0.672852
1194.06	3.21899
1197.43	15.2903
1200.81	8.45752
1204.18	7.51514
1207.56	5.24609
1210.93	3.88477
1214.31	6.12158
1217.68	4.12427
1221.06	2.35791
1224.43	7.25146
1227.81	1.00391
1231.18	7.05396
1234.56	10.324
1237.93	6.33325
1241.31	6.99316
1244.68	2.92969
1248.05	13.9275
1251.43	15.8249
1254.8	7.32519
1258.18	15.8608
1261.55	7.33521
1264.93	9.43799
1268.3	8.74951
1271.68	7.94165
1275.05	4.29175
1278.43	5.49487
1281.8	7.38037
1285.18	3.10571
1288.55	1.76416
1291.93	8.01221
1295.3	13.9148
1298.68	14.6133
1302.05	8.64111
