Measurement: Raman, 780 nm, unoriented, Raman Data Processed
Mineral: Trevorite
Rruff sample: R140860
Ideal chemistry: NiFe^3+^_2_O_4_
Locality: Bon Accord, Barberton District, Mpumalanga Province, South Africa
Source: Rock Currier
Description: Black octahedral crystals embedded in fine green nepouite matrix
Raman shift (cm-1)	intensity
113.255	0
116.63	16.2185
120.005	5.42706
123.38	12.1976
126.754	13.2682
130.129	13.9669
133.504	23.4087
136.879	11.513
140.254	26.7389
143.629	23.0083
147.003	17.8812
150.378	16.8203
153.753	8.97345
157.128	13.7585
160.503	0.616699
163.877	3.70203
167.252	2.0105
170.627	0.312683
174.002	2.22797
177.377	1.47992
180.751	7.76953
184.126	12.9722
187.501	15.7801
190.876	18.2909
194.251	18.8807
197.625	20.0727
201	20.5052
204.375	29.1583
207.75	31.4127
211.125	32.0331
214.5	39.4173
217.874	26.9645
221.249	20.2432
224.624	16.2941
227.999	18.9423
231.374	17.0963
234.749	22.5776
238.123	16.2457
241.498	20.7788
244.873	21.4643
248.248	18.2525
251.623	14.3741
254.997	13.4297
258.372	13.4532
261.747	9.97903
265.122	15.1443
268.497	12.8353
271.872	9.88934
275.246	4.15299
278.621	1.19
281.996	3.90955
285.371	0.815887
288.745	6.83112
292.12	5.47879
295.495	5.24835
298.87	7.48444
302.245	9.68243
305.62	10.0949
308.994	12.2562
312.369	15.2302
315.744	16.8527
319.119	17.2318
322.494	25.2627
325.868	28.7806
329.243	33.1827
332.618	37.0188
335.993	31.9479
339.368	29.0395
342.743	17.6963
346.117	10.0369
349.492	8.21985
352.867	4.34787
356.242	5.56165
359.617	1.26852
362.991	3.35379
366.366	2.39413
369.741	1.76248
373.116	6.10953
376.491	2.57635
379.865	3.49573
383.24	0.411469
386.615	2.72656
389.99	1.3403
393.365	1.3996
396.74	0.842255
400.114	0.491089
403.489	0.146576
406.864	1.30301
410.239	4.1308
413.614	1.31869
416.988	3.51556
420.363	7.43276
423.738	3.57304
427.113	7.90253
430.488	8.3172
433.863	12.1202
437.237	16.4928
440.612	18.022
443.987	19.9963
447.362	24.254
450.737	28.215
454.111	30.7711
457.486	34.4673
460.861	42.7162
464.236	46.7689
467.611	49.6706
470.986	58.9197
474.36	66.3603
477.735	78.814
481.11	82.6222
484.485	83.3247
487.86	86.315
491.234	78.1569
494.609	67.714
497.984	52.451
501.359	41.0072
504.734	26.3222
508.108	17.8552
511.483	9.96614
514.858	8.68329
518.233	1.10344
521.608	0.031891
524.982	2.17983
528.357	2.02116
531.732	1.13434
535.107	4.00653
538.482	4.68805
541.857	4.56232
545.231	6.47281
548.606	12.5569
551.981	15.6591
555.356	23.1601
558.731	25.6724
562.106	30.6279
565.48	31.6774
568.855	36.6586
572.23	39.3038
575.605	33.5663
578.98	31.981
582.354	27.7788
585.729	18.8388
589.104	14.9457
592.479	13.7239
595.854	7.2065
599.229	5.88309
602.603	5.59616
605.978	0.130203
609.353	4.47714
612.728	1.82381
616.102	1.64819
619.477	1.79782
622.852	1.03508
626.227	1.84517
629.602	7.13898
632.977	2.9866
636.351	7.5284
639.726	10.6564
643.101	16.8385
646.476	22.832
649.851	23.2441
653.226	27.2205
656.6	30.9013
659.975	34.2789
663.35	42.83
666.725	46.4754
670.1	50.4859
673.474	58.55
676.849	62.9653
680.224	77.5844
683.599	91.5818
686.974	105.749
690.348	119.279
693.723	136.542
697.098	145.838
700.473	141.487
703.848	126.149
707.222	99.6675
710.597	84.2934
713.972	62.1804
717.347	45.7546
720.722	33.229
724.097	26.1026
727.471	17.4831
730.846	15.5598
734.221	14.1678
737.596	6.3602
740.971	8.08402
744.346	2.81444
747.72	6.2748
751.095	1.46988
754.47	1.25737
757.845	0.835114
761.22	0.842667
764.594	1.89706
767.969	1.44266
771.344	2.76462
774.719	0.793015
778.094	0.792633
781.468	1.74056
784.843	1.10355
788.218	0.27475
791.593	2.94498
794.968	3.1281
798.342	3.93555
801.717	4.0881
805.092	7.40466
808.467	7.60005
811.842	6.05644
815.217	7.10896
818.591	9.75209
821.966	8.3891
825.341	10.1826
828.716	7.10948
832.091	12.3796
835.466	12.5121
838.84	12.0261
842.215	10.8734
845.59	12.1982
848.965	11.7629
852.34	11.5327
855.714	14.3991
859.089	12.8011
862.464	18.8627
865.839	15.2424
869.214	10.2478
872.588	12.4599
875.963	9.384
879.338	12.6172
882.713	7.75084
886.088	7.71181
889.462	7.34476
892.837	8.23416
896.212	8.81151
899.587	6.65967
902.962	3.26472
906.337	0.520721
909.711	3.15637
913.086	3.43471
916.461	0.311203
919.836	0.943924
923.211	4.08916
926.585	3.49864
929.96	2.57509
933.335	3.35202
936.71	1.97952
940.085	1.42775
943.46	2.2971
946.834	2.65936
950.209	2.66751
953.584	1.23752
956.959	1.96329
960.334	0.808517
963.708	1.1507
967.083	2.58113
970.458	2.48456
973.833	2.56477
977.208	2.09174
980.582	1.2249
983.957	0.302071
987.332	0.656174
990.707	5.01445
994.082	4.65107
997.457	2.61088
1000.83	4.13053
1004.21	4.6728
1007.58	4.9926
1010.96	5.83578
1014.33	5.28384
1017.71	2.78966
1021.08	4.59415
1024.45	3.3084
1027.83	3.54314
1031.2	1.81509
1034.58	2.65293
1037.95	4.55346
1041.33	4.32848
1044.7	3.58498
1048.08	4.12073
1051.45	5.10207
1054.83	2.10778
1058.2	4.65151
1061.58	5.22459
1064.95	3.06779
1068.33	3.45681
1071.7	1.61309
1075.08	3.11889
1078.45	2.42869
1081.83	0.914337
1085.2	1.76582
1088.58	0.949181
1091.95	2.80825
1095.33	2.06419
1098.7	0.553391
1102.08	2.288
1105.45	5.08408
1108.83	0.199326
1112.2	0.748062
1115.58	2.95943
1118.95	0.454681
1122.33	0.787285
1125.7	3.34596
1129.07	1.02339
1132.45	1.39698
1135.82	1.50909
1139.2	0.057846
1142.57	2.32752
1145.95	5.092
1149.32	4.02098
1152.7	3.35017
1156.07	0.202225
1159.45	3.25619
1162.82	3.76876
1166.2	1.99756
1169.57	3.73663
1172.95	0.646904
1176.32	2.30962
1179.7	2.56207
1183.07	4.18891
1186.45	1.60934
1189.82	5.07116
1193.2	4.78056
1196.57	2.97041
1199.94	3.75523
1203.32	0.339241
1206.69	3.20951
1210.07	3.49523
1213.44	4.09962
1216.82	1.61187
1220.19	4.81523
1223.57	2.6572
1226.94	1.03533
1230.32	3.70146
1233.69	1.45888
1237.07	2.60798
1240.44	3.74918
1243.82	1.00249
1247.19	1.42359
1250.57	0.283318
1253.94	4.60756
1257.32	1.71527
1260.69	4.28135
1264.07	4.59788
1267.44	0.537552
1270.82	0.750259
1274.19	1.8318
1277.57	0.233009
1280.94	3.30529
1284.32	1.08762
