Measurement: Raman, 532 nm, unoriented, Raman Data Processed
Mineral: Tridymite
Rruff sample: R040143
Ideal chemistry: SiO_2_
Locality: Big Lue Mountain, Highway 78, Greenlee County, Arizona, USA
Source: University of Arizona Mineral Museum
Description: Colorless thin hexagonal plates
Measured chemistry: (Si_0.99_Al_0.01_)O_2_
Raman shift (cm-1)	intensity
141.948	0
145.323	8.95312
148.698	76.2529
152.072	395.061
155.447	686.058
158.822	703.165
162.197	692.465
165.572	594.312
168.946	494.855
172.321	400.418
175.696	378.799
179.071	363.452
182.446	411.609
185.821	576.774
189.195	733.308
192.57	990.058
195.945	1177.78
199.32	1303.29
202.695	1452.4
206.07	1485.42
209.444	1368.71
212.819	1176.1
216.194	991.002
219.569	806.837
222.944	672.162
226.318	578.951
229.693	666.258
233.068	612.653
236.443	507.562
239.818	369.409
243.192	216.007
246.567	216.599
249.942	93.7524
253.317	6.54989
256.692	7.35358
260.067	8.00482
263.441	179.113
266.816	333.392
270.191	404.387
273.566	338.37
276.941	329.431
280.315	440.723
283.69	633.081
287.065	917.177
290.44	1085.61
293.815	894.292
297.19	632.798
300.564	517.479
303.939	355.488
307.314	241.154
310.689	231.299
314.064	132.973
317.438	24.9243
320.813	57.5664
324.188	62.5933
327.563	17.7456
330.938	92.7715
334.313	105.187
337.687	71.4834
341.062	97.3247
344.437	230.426
347.812	548.809
351.187	1130.56
354.562	1398.63
357.936	1565.97
361.311	1330.06
364.686	1029.11
368.061	793.592
371.436	655.625
374.81	655.561
378.185	712.709
381.56	852.918
384.935	1176.85
388.31	1636.51
391.685	2201.27
395.059	2903.6
398.434	3473.89
401.809	3679.16
405.184	3563.7
408.559	3224.05
411.933	2932.19
415.308	2963.1
418.683	3207.78
422.058	3100.56
425.433	2450.83
428.808	1770.72
432.182	1376.27
435.557	1038.96
438.932	830.916
442.307	770.247
445.682	927.874
449.056	1019.53
452.431	869.271
455.806	719.493
459.181	523.81
462.556	275.828
465.93	134.687
469.305	36.3411
472.68	26.5723
476.055	20.7244
479.43	63.8057
482.805	49.8313
486.179	31.3418
489.554	2.52466
492.929	32.5093
496.304	89.0732
499.679	133.415
503.053	111.378
506.428	112.846
509.803	136.29
513.178	143.793
516.553	151.407
519.928	118.63
523.302	144.302
526.677	157.465
530.052	165.456
533.427	186.955
536.802	155.345
540.177	154.744
543.551	106.05
546.926	38.9009
550.301	55.4763
553.676	23.9919
557.051	46.5891
560.425	76.7996
563.8	5.91455
567.175	65.9683
570.55	37.9922
573.925	61.897
577.299	36.854
580.674	53.2856
584.049	45.4575
587.424	18.4058
590.799	31.6089
594.174	9.75708
597.548	11.5378
600.923	3.09619
604.298	5.78076
607.673	25.5615
611.048	13.2766
614.423	11.4341
617.797	20.623
621.172	7.89062
624.547	37.3862
627.922	27.9895
631.297	42.7766
634.671	37.7634
638.046	45.8059
641.421	8.96289
644.796	10.2835
648.171	42.4568
651.545	9.40356
654.92	22.2227
658.295	36.1987
661.67	19.1514
665.045	30.9885
668.42	37.4023
671.794	48.4004
675.169	62.271
678.544	53.2827
681.919	24.5476
685.294	15.6982
688.668	17.2615
692.043	40.238
695.418	48.3904
698.793	33.8857
702.168	15.0896
705.543	56.8718
708.917	20.3857
712.292	35.959
715.667	12.3123
719.042	0.916992
722.417	36.5957
725.792	2.99316
729.166	31.0735
732.541	38.6028
735.916	2.91846
739.291	47.208
742.666	36.77
746.04	27.8284
749.415	15.8438
752.79	43.6794
756.165	67.9392
759.54	113.998
762.915	152.799
766.289	251.875
769.664	338.177
773.039	509.889
776.414	680.442
779.789	883.172
783.163	918.214
786.538	977.776
789.913	886.535
793.288	719.861
796.663	568.273
800.038	436.83
803.412	317.381
806.787	236.136
810.162	196.618
813.537	118.427
816.912	155.029
820.286	179.336
823.661	243.441
827.036	335.554
830.411	361.829
833.786	200.079
837.16	122.799
840.535	66.1404
843.91	19.9341
847.285	27.2544
850.66	32.4382
854.035	5.13501
857.409	9.0708
860.784	7.97632
864.159	31.2742
867.534	37.8203
870.909	21.9119
874.284	11.9541
877.658	12.8823
881.033	23.3896
884.408	23.9563
887.783	36.988
891.158	32.1677
894.533	49.5852
897.907	46.1074
901.282	17.0647
904.657	20.4797
908.032	69.9473
911.407	34.7305
914.781	32.2944
918.156	12.0928
921.531	34.0693
924.906	6.36816
928.281	0.339355
931.655	77.5335
935.03	36.3855
938.405	89.2073
941.78	73.5735
945.155	91.4868
948.529	40.9419
951.904	105.229
955.279	114.691
958.654	95.0132
962.029	61.0698
965.404	69.7146
968.778	54.9241
972.153	22.241
975.528	19.6931
978.903	32.5562
982.278	27.3733
985.653	0.95459
989.027	10.7961
992.402	21.3101
995.777	23.3672
999.152	42.8372
1002.53	6.05176
1005.9	1.07495
1009.28	38.4321
1012.65	45.1821
1016.03	74.9661
1019.4	39.4216
1022.78	61.2747
1026.15	86.0986
1029.53	77.5898
1032.9	92.0107
1036.28	80.0337
1039.65	66.5481
1043.02	105.107
1046.4	52.4529
1049.77	85.9753
1053.15	116.508
1056.52	92.7263
1059.9	166.848
1063.27	184.481
1066.65	292.761
1070.02	362.498
1073.4	483.677
1076.77	433.171
1080.15	300.37
1083.52	249.419
1086.9	203.006
1090.27	163.413
1093.65	101.386
1097.02	85.4053
1100.4	43.0288
1103.77	37.605
1107.15	2.24268
1110.52	52.9216
1113.9	14.0081
1117.27	49.1421
1120.64	51.419
1124.02	101.15
1127.39	53.0772
1130.77	2.27685
1134.14	5.26318
1137.52	27.8838
1140.89	40.6799
1144.27	39.4038
1147.64	22.4109
1151.02	42.3501
1154.39	52.0696
1157.77	68.4268
1161.14	30.5061
1164.52	37.4109
1167.89	40.7878
1171.27	67.8513
1174.64	91.0623
1178.02	85.9304
1181.39	134.124
1184.77	136
1188.14	136.481
1191.52	167.528
1194.89	188.685
1198.27	181.247
1201.64	207.668
1205.02	238.285
1208.39	204.473
1211.77	169.733
1215.14	110.733
1218.52	123.743
1221.89	112.089
1225.27	108.316
1228.64	92.1768
1232.01	86.9578
1235.39	99.0498
1238.76	48.0447
1242.14	73.8682
1245.51	31.6174
1248.89	35.6006
1252.26	15.2195
1255.64	34.2322
1259.01	4.85815
1262.39	34.0168
1265.76	45.5142
1269.14	42.3076
1272.51	48.3018
1275.89	40.6606
1279.26	21.6655
1282.64	72.8188
1286.01	22.8081
1289.39	42.9141
1292.76	29.5381
1296.14	44.873
1299.51	38.9873
1302.88	18.9316
1306.26	12.7065
