Measurement: Raman, 780 nm, unoriented, Raman Data Processed
Mineral: Tridymite
Rruff sample: R090042
Ideal chemistry: SiO_2_
Locality: The Fukang Pallasite meteorite, Gobi Desert, China, found in 2001
Source: Dante Lauretta
Description: Colorless micro-crystal, as an inclusion in olivine
Raman shift (cm-1)	intensity
149.919	0
152.812	4.13275
155.705	1.89508
158.597	0.249023
161.49	4.22131
164.383	7.81793
167.276	8.67444
170.168	10.7579
173.061	18.2512
175.954	17.1334
178.846	20.0441
181.739	26.6095
184.632	30.6076
187.524	38.5355
190.417	53.369
193.31	73.5535
196.203	92.4076
199.095	114.892
201.988	133.042
204.881	156.402
207.773	167.762
210.666	159.776
213.559	134.413
216.451	101.827
219.344	67.8177
222.237	51.1009
225.13	32.3906
228.022	21.4194
230.915	11.9371
233.808	3.27142
236.7	0.601868
239.593	-0.993722
242.486	0.36423
245.378	1.94292
248.271	0.856323
251.164	2.091
254.056	0.589417
256.949	2.15558
259.842	8.04541
262.735	17.7916
265.627	27.5279
268.52	41.209
271.413	55.1899
274.305	70.978
277.198	80.7731
280.091	82.1973
282.983	84.9358
285.876	78.6124
288.769	94.225
291.662	105.818
294.554	122.764
297.447	136.957
300.34	146.615
303.232	151.403
306.125	149.326
309.018	119.412
311.911	89.3195
314.803	65.136
317.696	55.8033
320.589	45.7194
323.481	46.0985
326.374	46.9804
329.267	62.0392
332.159	78.9164
335.052	98.4678
337.945	126.111
340.837	159.195
343.73	192.564
346.623	220.184
349.516	231.633
352.408	217.008
355.301	195.994
358.194	168.535
361.086	143.045
363.979	108.876
366.872	89.6013
369.764	71.1252
372.657	57.0612
375.55	47.7356
378.442	27.0034
381.335	16.8255
384.228	10.2577
387.121	9.11359
390.013	3.33533
392.906	0.04425
395.799	-0.805439
398.691	0.204447
401.584	1.54456
404.477	0.779053
407.37	0.796265
410.262	1.2774
413.155	0.723181
416.048	1.34568
418.94	7.836
421.833	20.9277
424.726	40.4266
427.618	62.8567
430.511	80.4492
433.404	84.2313
436.296	67.8234
439.189	43.5156
442.082	24.7672
444.975	18.0391
447.867	13.5749
450.76	5.97974
453.653	10.1545
456.545	2.46466
459.438	3.86139
462.331	6.70038
465.224	1.40381
468.116	3.83246
471.009	2.97351
473.902	3.591
476.794	2.20538
479.687	2.32941
482.58	3.55286
485.472	0.973877
488.365	3.82397
491.258	0.607422
494.151	0.988586
497.043	3.78095
499.936	0.642822
502.829	2.28632
505.721	6.22638
508.614	5.13477
511.507	7.2146
514.399	6.31055
517.292	6.95335
520.185	6.90613
523.077	8.42835
525.97	4.12903
528.863	6.40137
531.756	6.92273
534.648	6.85419
537.541	2.35901
540.434	6.82135
543.326	5.73547
546.219	5.9071
549.112	4.04913
552.004	3.4765
554.897	7.55737
557.79	5.41998
560.683	9.55286
563.575	4.50067
566.468	2.91351
569.361	7.24139
572.253	8.30676
575.146	7.80139
578.039	4.98749
580.931	7.00934
583.824	6.10956
586.717	4.98395
589.61	4.86053
592.502	1.80872
595.395	1.9079
598.288	5.06842
601.18	6.27173
604.073	8.1322
606.966	2.38977
609.858	4.732
612.751	5.4704
615.644	2.38605
618.537	2.68805
621.429	3.48926
624.322	3.11261
627.215	4.30615
630.107	5.08063
633	1.21612
635.893	2.94196
638.785	3.23474
641.678	2.70337
644.571	1.29065
647.463	3.05591
650.356	0.255371
653.249	3.35443
656.141	0.905762
659.034	2.21973
661.927	1.32672
664.82	0.884369
667.712	4.18839
670.605	3.64316
673.498	1.8175
676.39	0.192993
679.283	2.92331
682.176	4.05896
685.068	0.297638
687.961	1.53348
690.854	2.48269
693.747	1.15228
696.639	0.682495
699.532	2.8858
702.425	5.03049
705.317	0.017365
708.21	5.6749
711.103	4.50998
713.995	2.0668
716.888	1.01639
719.781	4.43799
722.674	3.43784
725.566	3.97864
728.459	6.90198
731.352	3.84119
734.244	2.9458
737.137	0.2854
740.03	2.5762
742.923	0.068512
745.815	1.55435
748.708	0.705902
751.601	1.28424
754.493	4.29999
757.386	4.47372
760.279	6.74622
763.171	4.00345
766.064	7.25604
768.957	14.3626
771.85	13.4281
774.742	16.2836
777.635	17.1202
780.528	23.4448
783.42	26.7358
786.313	31.7684
789.206	34.0684
792.098	35.7016
794.991	29.3923
797.884	17.7307
800.776	11.6242
803.669	9.4841
806.562	9.08594
809.455	6.65372
812.347	7.28531
815.24	5.14447
818.133	1.93848
821.025	6.44168
823.918	6.64407
826.811	0.943665
829.703	3.01483
832.596	3.45813
835.489	1.48065
838.381	4.15512
841.274	1.7265
844.167	4.40039
847.06	4.10147
849.952	4.1925
852.845	4.34433
855.738	1.05759
858.63	7.22559
861.523	3.95017
864.416	9.46912
867.308	8.63269
870.201	4.08655
873.094	9.40573
875.987	5.35095
878.879	5.4953
881.772	2.91647
884.665	5.88361
887.557	8.03815
890.45	3.12628
893.343	3.85812
896.236	3.51639
899.128	0.800171
902.021	3.89688
904.914	1.28915
907.806	0.621521
910.699	3.06766
913.592	2.63214
916.484	1.2648
919.377	2.67621
922.27	0.646515
925.163	2.66531
928.055	0.663086
930.948	1.78247
933.841	0.696991
936.733	3.95844
939.626	1.30151
942.519	5.01334
945.411	2.13275
948.304	2.54617
951.197	3.09222
954.09	4.6525
956.982	5.27368
959.875	5.85843
962.768	4.87247
965.66	4.38635
968.553	5.9021
971.446	1.21124
974.338	3.39056
977.231	3.97324
980.124	2.16391
983.016	5.16943
985.909	4.92007
988.802	0.85553
991.694	4.69495
994.587	3.14951
997.48	6.03342
1000.37	3.1701
1003.26	4.37851
1006.16	1.77661
1009.05	1.14484
1011.94	1.74347
1014.84	4.95172
1017.73	5.65219
1020.62	5.60529
1023.51	4.3638
1026.41	2.68033
1029.3	0.231934
1032.19	4.55579
1035.09	2.94775
1037.98	1.85968
1040.87	3.97226
1043.76	2.556
1046.66	5.04541
1049.55	3.41342
1052.44	3.6669
1055.33	8.40057
1058.23	5.2626
1061.12	8.29166
1064.01	8.61908
1066.9	11.9012
1069.8	11.4499
1072.69	6.85632
1075.58	7.46078
1078.47	3.8013
1081.37	5.20474
1084.26	3.56885
1087.15	3.57025
1090.05	5.28348
1092.94	3.31216
1095.83	5.40195
1098.72	1.83652
1101.62	0.475037
1104.51	1.521
1107.4	0.723236
1110.3	2.90692
1113.19	0.364288
1116.08	0.711304
1118.97	0.982666
1121.87	0.635498
1124.76	3.7981
1127.65	5.31961
1130.54	1.95599
1133.44	1.27222
1136.33	0.14975
1139.22	0.444733
1142.12	2.08319
1145.01	1.95178
1147.9	4.40289
1150.79	1.36069
1153.69	5.39511
1156.58	0.598297
1159.47	4.05487
1162.36	2.70874
1165.26	3.17633
1168.15	2.41696
1171.04	4.49924
1173.93	5.09125
1176.83	2.63519
1179.72	5.98428
1182.61	4.47421
1185.51	5.29599
1188.4	6.5159
1191.29	2.71515
1194.18	6.08572
1197.08	4.94437
1199.97	7.99341
1202.86	4.30844
1205.75	5.2157
1208.65	2.65991
1211.54	3.85715
1214.43	2.01144
1217.33	0.975677
1220.22	6.16663
1223.11	2.53281
1226	4.43521
1228.9	5.37347
1231.79	1.2608
1234.68	1.62173
1237.57	5.15784
1240.47	4.48184
1243.36	1.85849
1246.25	4.96588
1249.14	4.46024
1252.04	0.88681
1254.93	2.56943
1257.82	6.40243
1260.71	4.67352
1263.61	3.20459
1266.5	5.33697
1269.39	4.22485
1272.29	0.595856
1275.18	1.48016
1278.07	5.19778
1280.96	1.63403
1283.86	4.38657
