Measurement: Raman, 532 nm, unoriented, Raman Data Processed
Mineral: Tridymite
Rruff sample: R090063
Ideal chemistry: SiO_2_
Locality: Mount Howe 88403 meteorite, likely formed during impact on a chondritic-parent body
Source: Devin L. Schrader and Dante S. Lauretta
Description: Imbedded in a polished slab, associated with kamacite, taenite, troilite, and schreibersite.
Raman shift (cm-1)	intensity
154.271	0
157.164	1.83008
160.057	0.394409
162.949	1.66739
165.842	9.09347
168.735	18.9912
171.627	26.6794
174.52	30.0797
177.413	37.0786
180.305	38.4318
183.198	43.5915
186.091	53.0082
188.984	65.6897
191.876	70.7222
194.769	88.7871
197.662	107.394
200.554	137.99
203.447	165.518
206.34	183.303
209.232	201.065
212.125	181.348
215.018	159.366
217.911	120.206
220.803	76.8293
223.696	46.1043
226.589	38.8078
229.481	27.489
232.374	15.5291
235.267	6.08359
238.159	1.36377
241.052	1.65286
243.945	1.15045
246.838	0.631622
249.73	1.63367
252.623	0.292633
255.516	8.29602
258.408	14.9226
261.301	11.6199
264.194	2.26785
267.086	12.8811
269.979	41.1641
272.872	60.0525
275.764	97.6524
278.657	125.193
281.55	143.179
284.443	159.761
287.335	194.244
290.228	256.937
293.121	326.086
296.013	408.31
298.906	470.12
301.799	482.28
304.692	468.017
307.584	426.666
310.477	345.873
313.37	266.523
316.262	188.558
319.155	115.355
322.048	70.1594
324.94	40.1697
327.833	35.2874
330.726	35.7449
333.618	51.8461
336.511	80.2289
339.404	119.963
342.297	182.817
345.189	258.214
348.082	335.455
350.975	394.267
353.867	391.927
356.76	358.576
359.653	308.627
362.546	265.235
365.438	232.351
368.331	202.071
371.224	191.836
374.116	192.532
377.009	181.626
379.902	183.937
382.794	193.907
385.687	191.55
388.58	182.094
391.473	171.565
394.365	153.982
397.258	123.634
400.151	100.166
403.043	76.5392
405.936	60.0457
408.829	46.2018
411.721	22.8781
414.614	9.78967
417.507	11.2631
420.399	35.0459
423.292	71.685
426.185	128.643
429.078	202.565
431.97	276.55
434.863	296.287
437.756	229.702
440.648	136.279
443.541	69.6095
446.434	26.0985
449.327	5.84079
452.219	0.020752
455.112	7.82599
458.005	17.2794
460.897	11.6037
463.79	5.67145
466.683	1.83606
469.575	0.46405
472.468	1.25714
475.361	1.57727
478.253	5.38052
481.146	6.379
484.039	4.29221
486.932	4.21612
489.824	5.02951
492.717	9.02823
495.61	9.46347
498.502	9.37384
501.395	13.1108
504.288	15.1862
507.18	17.3653
510.073	22.373
512.966	21.4775
515.859	23.0722
518.751	24.7915
521.644	26.7323
524.537	27.8019
527.429	28.1015
530.322	28.5237
533.215	33.9621
536.107	34.418
539	43.9575
541.893	49.129
544.786	49.2807
547.678	55.2028
550.571	56.7524
553.464	57.9671
556.356	58.1292
559.249	54.3053
562.142	48.9744
565.034	42.4577
567.927	36.2784
570.82	31.7215
573.713	25.2611
576.605	20.7158
579.498	16.4148
582.391	12.9966
585.283	10.7621
588.176	9.28482
591.069	8.38803
593.961	8.09943
596.854	4.68588
599.747	5.125
602.639	6.5238
605.532	5.83786
608.425	2.91681
611.318	1.75482
614.21	1.57105
617.103	4.22778
619.996	1.13119
622.888	3.81576
625.781	3.2117
628.674	0.250916
631.567	0.563416
634.459	2.15299
637.352	2.88178
640.245	0.374237
643.137	3.59192
646.03	0.054718
648.923	3.64661
651.815	0.679718
654.708	0.630341
657.601	1.30167
660.494	3.25796
663.386	0.047852
666.279	1.4845
669.172	4.04132
672.064	1.26422
674.957	3.20999
677.85	1.01685
680.742	4.04092
683.635	3.9567
686.528	1.05808
689.42	0.721558
692.313	1.1247
695.206	4.50116
698.099	1.33554
700.991	4.65424
703.884	0.173981
706.777	0.495209
709.669	3.59399
712.562	1.7959
715.455	2.14301
718.347	4.86346
721.24	4.56232
724.133	0.95813
727.026	1.51666
729.918	3.00055
732.811	1.30222
735.704	0.567749
738.596	2.7103
741.489	0.11441
744.382	3.51151
747.274	0.490204
750.167	3.05942
753.06	5.13977
755.953	6.26267
758.845	4.31168
761.738	11.1788
764.631	18.3888
767.523	20.9718
770.416	27.3594
773.309	38.2652
776.202	41.9799
779.094	41.1044
781.987	43.2754
784.88	42.303
787.772	41.137
790.665	38.1326
793.558	28.8351
796.45	24.0556
799.343	23.8487
802.236	18.2712
805.129	16.3118
808.021	16.0177
810.914	12.8241
813.807	8.47891
816.699	12.6071
819.592	7.37741
822.485	3.89325
825.377	5.91354
828.27	0.314911
831.163	4.54489
834.056	2.9086
836.948	1.33939
839.841	1.36429
842.734	0.793915
845.626	2.12067
848.519	4.59064
851.412	2.05261
854.304	0.8013
857.197	1.97922
860.09	1.86435
862.982	5.66199
865.875	3.87985
868.768	4.11627
871.661	5.07831
874.553	6.30249
877.446	5.50739
880.339	7.14874
883.231	3.26572
886.124	2.81863
889.017	2.69583
891.909	4.20691
894.802	3.93662
897.695	5.14398
900.588	6.00101
903.48	9.099
906.373	11.5182
909.266	4.52673
912.158	3.69754
915.051	6.0517
917.944	4.26434
920.837	2.13315
923.729	5.07254
926.622	3.80008
929.515	1.29398
932.407	2.31751
935.3	0.349121
938.193	1.26791
941.085	5.08398
943.978	2.98413
946.871	0.328064
949.764	0.744781
952.656	2.66211
955.549	3.68774
958.442	2.42108
961.334	7.12366
964.227	10.2396
967.12	7.90027
970.012	9.57849
972.905	12.1112
975.798	17.6634
978.691	18.0584
981.583	20.7267
984.476	19.3726
987.369	26.0053
990.261	19.7598
993.154	22.2675
996.047	22.7874
998.939	18.516
1001.83	17.2371
1004.73	12.8
1007.62	11.6542
1010.51	6.54471
1013.4	6.67645
1016.3	5.48593
1019.19	5.83179
1022.08	1.49558
1024.97	1.7728
1027.87	0.474182
1030.76	1.99371
1033.65	4.59677
1036.54	2.00027
1039.44	5.32388
1042.33	1.00766
1045.22	0.086243
1048.12	1.67535
1051.01	1.43527
1053.9	3.29822
1056.79	6.48206
1059.69	10.1201
1062.58	2.1402
1065.47	13.7082
1068.36	22.24
1071.26	25.4381
1074.15	30.3999
1077.04	27.5673
1079.93	23.8815
1082.83	19.6682
1085.72	16.2153
1088.61	13.7063
1091.51	14.305
1094.4	11.5626
1097.29	13.1682
1100.18	11.6734
1103.08	9.94913
1105.97	11.0516
1108.86	6.95987
1111.76	12.426
1114.65	10.701
1117.54	14.8003
1120.43	11.5168
1123.33	14.549
1126.22	14.3117
1129.11	10.219
1132	11.6269
1134.9	8.93198
1137.79	9.63428
1140.68	11.3612
1143.57	4.18481
1146.47	5.45789
1149.36	7.42493
1152.25	2.18216
1155.14	4.82028
1158.04	5.40463
1160.93	1.29834
1163.82	0.022003
1166.72	1.80356
1169.61	5.06216
1172.5	2.52597
1175.39	3.8233
1178.29	2.12283
1181.18	6.96616
1184.07	4.14374
1186.96	3.33008
1189.86	6.44782
1192.75	2.11282
1195.64	4.1286
1198.54	5.10016
1201.43	4.4375
1204.32	7.52032
1207.21	5.51358
1210.11	7.17117
1213	10.8789
1215.89	8.29956
1218.79	9.33261
1221.68	13.0043
1224.57	10.4747
1227.46	6.5246
1230.36	5.80817
1233.25	4.42972
1236.14	5.59039
1239.03	4.54086
1241.93	4.21832
1244.82	3.27182
1247.71	5.84738
1250.6	0.129974
1253.5	5.19916
1256.39	4.70432
1259.28	0.522583
1262.17	6.19772
1265.07	6.74606
1267.96	2.68033
1270.85	3.96313
1273.75	5.8284
1276.64	5.70346
1279.53	3.09112
1282.42	0.296417
1285.32	3.82761
1288.21	3.51434
1291.1	10.3631
1293.99	1.20413
1296.89	4.99469
1299.78	0.287903
1302.67	4.28226
