Measurement: Raman, 785 nm, unoriented, Raman Data Processed
Mineral: Tridymite
Rruff sample: R040143
Ideal chemistry: SiO_2_
Locality: Big Lue Mountain, Highway 78, Greenlee County, Arizona, USA
Source: University of Arizona Mineral Museum
Description: Colorless thin hexagonal plates
Measured chemistry: (Si_0.99_Al_0.01_)O_2_
Raman shift (cm-1)	intensity
149.464	0
152.357	150.514
155.25	138.96
158.142	37.0232
161.035	7.09692
163.928	67.3706
166.821	205.135
169.713	277.769
172.606	264.131
175.499	252.256
178.391	214.266
181.284	279.894
184.177	311.618
187.069	402.638
189.962	510.382
192.855	614.506
195.748	736.824
198.64	800.53
201.533	916.787
204.426	974.976
207.318	885.264
210.211	826.439
213.104	691.059
215.996	614.094
218.889	465.813
221.782	454.481
224.674	458.337
227.567	405.941
230.46	354.364
233.353	365.86
236.245	286.675
239.138	235.585
242.031	159.252
244.923	130.365
247.816	75.1948
250.709	7.39893
253.601	8.10806
256.494	9.42447
259.387	12.3057
262.28	132.447
265.172	222.758
268.065	270.945
270.958	246.362
273.85	257.031
276.743	272.022
279.636	312.386
282.529	419.74
285.421	574.018
288.314	681.068
291.207	658.614
294.099	540.695
296.992	424.249
299.885	294.342
302.777	233.09
305.67	215.974
308.563	174.318
311.455	132.214
314.348	78.0498
317.241	12.7222
320.134	23.0439
323.026	63.5645
325.919	1.90674
328.812	85.0337
331.704	116.876
334.597	129.772
337.49	71.9482
340.382	85.332
343.275	120.838
346.168	226.655
349.061	505.53
351.953	629.632
354.846	872.251
357.739	876.713
360.631	764.055
363.524	635.326
366.417	470.053
369.31	373.594
372.202	356.949
375.095	361.251
377.988	378.245
380.88	523.764
383.773	659.593
386.666	901.368
389.558	1139.32
392.451	1510.29
395.344	1859.75
398.236	2108.41
401.129	2248.54
404.022	2167.68
406.915	2019.84
409.807	1836.31
412.7	1715.08
415.593	1848.99
418.485	1892.84
421.378	1870.81
424.271	1535.49
427.163	1213.28
430.056	918.935
432.949	691.355
435.842	584.324
438.734	490.834
441.627	484.628
444.52	569.717
447.412	603.148
450.305	579.213
453.198	503.158
456.091	429.426
458.983	299.408
461.876	174.652
464.769	56.5293
467.661	70.7183
470.554	1.34863
473.447	1.31006
476.339	28.6504
479.232	20.479
482.125	34.0185
485.017	56.1108
487.91	35.1182
490.803	21.8047
493.696	59.5708
496.588	58.5786
499.481	79.8184
502.374	38.1763
505.266	86.2432
508.159	64.9102
511.052	75.8569
513.944	113.525
516.837	155.724
519.73	73.686
522.623	95.4219
525.515	164.592
528.408	108.63
531.301	109.582
534.193	77.0283
537.086	109.507
539.979	108.805
542.871	30.061
545.764	72.2295
548.657	7.43018
551.55	30.6504
554.442	6.70752
557.335	45.897
560.228	28.7476
563.12	44.1553
566.013	28.2002
568.906	18.1899
571.798	50.7505
574.691	46.1699
577.584	92.4951
580.477	42.4224
583.369	38.1792
586.262	86.1856
589.155	48.6006
592.047	11.6206
594.94	36.2915
597.833	37.7105
600.726	12.0068
603.618	8.68652
606.511	28.9585
609.404	7.40918
612.296	41.0317
615.189	54.1616
618.082	55.8638
620.974	16.3545
623.867	60.5762
626.76	2.08838
629.653	65.0747
632.545	23.7671
635.438	13.4824
638.331	42.6304
641.223	51.4287
644.116	32.2705
647.009	29.4707
649.901	62.2622
652.794	31.7881
655.687	69.7251
658.58	26.624
661.472	55.6328
664.365	30.4458
667.258	23.8643
670.15	58.6763
673.043	1.81689
675.936	55.7983
678.828	50.7065
681.721	34.0454
684.614	48.2993
687.506	69.6094
690.399	43.5903
693.292	10.1665
696.185	20.9585
699.077	22.5781
701.97	43.9487
704.863	96.5991
707.755	68.3799
710.648	93.0938
713.541	6.39746
716.433	54.4927
719.326	75.7026
722.219	93.021
725.112	34.0464
728.004	25.8814
730.897	42.4937
733.79	53.209
736.682	23.0767
739.575	14.4858
742.468	50.7671
745.361	7.23975
748.253	75.4097
751.146	11.0337
754.039	66.5879
756.931	67.3643
759.824	10.0938
762.717	70.9531
765.609	150.211
768.502	183.341
771.395	196.09
774.288	226.866
777.18	307.966
780.073	350.303
782.966	311.548
785.858	364.447
788.751	374.436
791.644	301.431
794.536	259.916
797.429	189.557
800.322	147.824
803.215	149.513
806.107	118.825
809	75.5864
811.893	39.1919
814.785	74.7353
817.678	69.1143
820.571	82.4106
823.463	8.51855
826.356	120.472
829.249	70.3667
832.141	142.205
835.034	78.7173
837.927	72.3521
840.82	3.91797
843.712	31.1675
846.605	0.645996
849.498	18.0649
852.39	12.4624
855.283	9.65234
858.176	22.9263
861.068	24.5947
863.961	26.603
866.854	35.3374
869.747	62.5273
872.639	21.2173
875.532	21.9912
878.425	26.0254
881.317	70.3877
884.21	44.9902
887.103	51.1294
889.995	19.8975
892.888	74.8154
895.781	48.1807
898.674	73.936
901.566	42.834
904.459	56.4634
907.352	42.543
910.244	24.2061
913.137	66.6113
916.03	21.3838
918.923	74.2881
921.815	10.5396
924.708	17.2441
927.601	18.3271
930.493	42.6494
933.386	42.7764
936.279	19.6533
939.171	42.312
942.064	26.0781
944.957	4.3125
947.85	21.6074
950.742	86.4736
953.635	102.86
956.528	109.909
959.42	125.673
962.313	20.5855
965.206	66.7339
968.098	103.561
970.991	36.6284
973.884	17.627
976.777	24.1904
979.669	40.9609
982.562	70.876
985.455	64.9004
988.347	12.4697
991.24	5.63281
994.133	50.2295
997.025	30.3975
999.918	51.3486
1002.81	1.03711
1005.7	61.3916
1008.6	49.6641
1011.49	87.6973
1014.38	55.7598
1017.27	22.2129
1020.17	61.4473
1023.06	69.6475
1025.95	19.9561
1028.85	73.2676
1031.74	26.8721
1034.63	112.432
1037.52	67.2148
1040.42	57.46
1043.31	42.2705
1046.2	57.708
1049.09	63.7129
1051.99	102.493
1054.88	64.8975
1057.77	126.208
1060.66	173.073
1063.56	112.069
1066.45	98.9297
1069.34	197.158
1072.24	217.844
1075.13	227.886
1078.02	234.733
1080.91	139.247
1083.81	163.637
1086.7	151.642
1089.59	98.2949
1092.48	108.215
1095.38	29.2383
1098.27	26.0723
1101.16	66.8877
1104.06	33.1289
1106.95	26.9863
1109.84	117.932
1112.73	31.5928
1115.63	51.0918
1118.52	42.6758
1121.41	16.9229
1124.3	21.0967
1127.2	81.4902
1130.09	78.7656
1132.98	57.2393
1135.88	107.879
1138.77	70.5449
1141.66	83.3769
1144.55	43.1592
1147.45	80.6719
1150.34	62.6504
1153.23	34.3809
1156.12	66.9082
1159.02	34.9873
1161.91	84.0928
1164.8	88.9307
1167.69	106.415
1170.59	84.1631
1173.48	34.3711
1176.37	44.7685
1179.27	74.0977
1182.16	14.4023
1185.05	40.1719
1187.94	27.8047
1190.84	90.6914
1193.73	63.4395
1196.62	127.595
1199.51	136.679
1202.41	51.6484
1205.3	133.222
1208.19	69.3984
1211.09	125.793
1213.98	55.2627
1216.87	64.2188
1219.76	88.2256
1222.66	97.0615
1225.55	34.9043
1228.44	51.3027
1231.33	152.621
1234.23	48.0869
1237.12	8.15039
