Measurement: Raman, 532 nm, unoriented, Raman Data Processed
Mineral: Tridymite
Rruff sample: R090042
Ideal chemistry: SiO_2_
Locality: The Fukang Pallasite meteorite, Gobi Desert, China, found in 2001
Source: Dante Lauretta
Description: Colorless micro-crystal, as an inclusion in olivine
Raman shift (cm-1)	intensity
150.416	0
153.308	3.89978
156.201	6.7467
159.094	1.64996
161.987	0.014557
164.879	4.48758
167.772	12.0884
170.665	20.9651
173.557	22.3172
176.45	27.335
179.343	29.9949
182.235	26.6342
185.128	32.7359
188.021	43.7989
190.913	60.2941
193.806	85.4655
196.699	124.601
199.592	157.938
202.484	189.531
205.377	215.126
208.27	232.214
211.162	223.185
214.055	186.028
216.948	137.452
219.84	94.5168
222.733	57.136
225.626	34.6444
228.519	18.7945
231.411	7.09332
234.304	0.190643
237.197	9.71729
240.089	10.9689
242.982	5.89621
245.875	1.9725
248.768	4.6536
251.66	14.2436
254.553	17.3668
257.446	30.3331
260.338	35.5493
263.231	36.3559
266.124	52.6814
269.017	74.7324
271.909	108.233
274.802	138.881
277.695	165.644
280.587	168.478
283.48	155.457
286.373	166.991
289.265	191.695
292.158	233.018
295.051	268.728
297.943	297.806
300.836	322.083
303.729	331.883
306.622	316.832
309.514	266.449
312.407	207.845
315.3	158.404
318.192	124.282
321.085	96.5654
323.978	96.1107
326.871	96.8449
329.763	113.508
332.656	143.968
335.549	179.164
338.441	236.109
341.334	300.385
344.227	382.981
347.12	452.65
350.012	480.456
352.905	460.951
355.798	414.088
358.69	358.09
361.583	298.108
364.476	238.574
367.368	186.026
370.261	147.798
373.154	112.222
376.047	80.5358
378.939	47.0701
381.832	30.0525
384.725	15.3512
387.617	4.8508
390.51	2.48843
393.403	0.801575
396.296	8.72519
399.188	2.6225
402.081	1.76157
404.974	7.4136
407.866	5.46286
410.759	1.39831
413.652	7.32434
416.544	1.75827
419.437	29.2176
422.33	60.2356
425.223	110.027
428.115	174.826
431.008	235.805
433.901	246.012
436.793	194.23
439.686	123.299
442.579	75.316
445.471	48.9741
448.364	30.8813
451.257	19.4506
454.15	16.4362
457.042	8.54669
459.935	3.70111
462.828	3.62106
465.72	0.709869
468.613	1.34897
471.506	1.44836
474.399	0.383484
477.291	1.34119
480.184	2.92941
483.077	3.36087
485.969	3.00488
488.862	5.3432
491.755	4.49674
494.647	8.37705
497.54	7.28711
500.433	8.35867
503.325	11.3292
506.218	13.3123
509.111	15.167
512.004	16.1051
514.896	17.2769
517.789	17.7058
520.682	18.4035
523.574	14.1713
526.467	17.8467
529.36	13.8683
532.253	12.4407
535.145	15.8545
538.038	13.3537
540.931	17.803
543.823	12.0667
546.716	11.2372
549.609	10.5535
552.501	7.01022
555.394	9.35303
558.287	7.31693
561.18	11.4178
564.072	7.00421
566.965	6.09088
569.858	8.1842
572.75	5.96256
575.643	5.53564
578.536	5.11508
581.428	5.18976
584.321	5.32544
587.214	4.83142
590.107	5.85657
592.999	1.85321
595.892	2.95651
598.785	2.93188
601.677	3.72757
604.57	3.69864
607.463	2.79086
610.356	2.81561
613.248	0.371704
616.141	1.99606
619.034	2.61713
621.926	0.353027
624.819	0.933258
627.712	3.09952
630.605	1.8385
633.497	0.751007
636.39	0.536652
639.283	0.533539
642.175	1.22232
645.068	1.47122
647.961	1.34821
650.853	1.26856
653.746	0.212463
656.639	0.056946
659.532	0.459656
662.424	2.05341
665.317	1.38913
668.21	1.9491
671.102	4.57001
673.995	3.05704
676.888	3.8277
679.78	1.36771
682.673	2.53607
685.566	0.645966
688.459	0.452332
691.351	0.888977
694.244	1.1572
697.137	1.34799
700.029	0.295685
702.922	0.532898
705.815	2.46808
708.707	1.92633
711.6	2.18054
714.493	3.80661
717.386	1.77625
720.278	2.01993
723.171	1.11472
726.064	1.2923
728.956	0.72522
731.849	0.822815
734.742	2.54337
737.635	0.130585
740.527	0.0336
743.42	0.707336
746.313	0.932831
749.205	2.34167
752.098	4.43143
754.991	5.77799
757.884	6.46536
760.776	8.03665
763.669	14.4828
766.562	21.6926
769.454	30.7486
772.347	38.8741
775.24	45.6826
778.132	45.1192
781.025	44.2349
783.918	48.1816
786.811	54.6382
789.703	58.3007
792.596	50.764
795.489	41.6771
798.381	29.5723
801.274	23.163
804.167	19.9121
807.059	16.0122
809.952	12.5996
812.845	11.2619
815.737	10.2377
818.63	5.76584
821.523	3.93576
824.416	3.08041
827.308	1.09509
830.201	2.16394
833.094	1.13501
835.986	1.21594
838.879	2.3923
841.772	1.54941
844.665	0.399689
847.557	1.19476
850.45	0.471222
853.343	1.28998
856.235	5.34753
859.128	4.74036
862.021	5.02445
864.913	7.02795
867.806	5.15372
870.699	3.90576
873.592	5.54788
876.484	3.53653
879.377	3.9281
882.27	0.870209
885.162	4.19043
888.055	3.27811
890.948	3.00946
893.841	5.80911
896.733	5.06415
899.626	4.97864
902.519	3.47955
905.411	3.5636
908.304	5.79846
911.197	5.48895
914.09	1.84357
916.982	3.18247
919.875	2.88113
922.768	2.30936
925.66	2.74069
928.553	3.10232
931.446	4.26794
934.338	4.14322
937.231	2.33756
940.124	0.710144
943.016	2.20618
945.909	0.42868
948.802	1.12888
951.695	0.072418
954.587	0.489655
957.48	0.513641
960.373	0.727325
963.265	2.23813
966.158	0.195526
969.051	3.62198
971.943	1.61307
974.836	2.42389
977.729	1.81665
980.622	1.9426
983.514	1.07843
986.407	2.42746
989.3	1.91745
992.192	3.15299
995.085	5.53378
997.978	2.98935
1000.87	7.19656
1003.76	7.90961
1006.66	3.95581
1009.55	3.16992
1012.44	5.10165
1015.33	1.14377
1018.23	2.70709
1021.12	1.76929
1024.01	4.36508
1026.9	0.008484
1029.8	2.5846
1032.69	5.70181
1035.58	6.06683
1038.48	1.54773
1041.37	3.02338
1044.26	3.87412
1047.15	5.63861
1050.05	6.08609
1052.94	6.03769
1055.83	8.19318
1058.72	6.05746
1061.62	8.77573
1064.51	11.8063
1067.4	13.6435
1070.3	19.1328
1073.19	21.9966
1076.08	23.8555
1078.97	18.7238
1081.87	14.6712
1084.76	11.4367
1087.65	8.6088
1090.54	7.45068
1093.44	6.34332
1096.33	6.35953
1099.22	2.7598
1102.12	6.27026
1105.01	2.56406
1107.9	3.33984
1110.79	2.94421
1113.69	3.94232
1116.58	4.8345
1119.47	5.97324
1122.36	1.13596
1125.26	2.32449
1128.15	3.26633
1131.04	2.72992
1133.93	0.530304
1136.83	1.64874
1139.72	2.64816
1142.61	0.102264
1145.51	2.46829
1148.4	0.195282
1151.29	2.35806
1154.18	0.346527
1157.08	0.541931
1159.97	0.408325
1162.86	1.04092
1165.76	1.48108
1168.65	0.696716
1171.54	1.92407
1174.43	3.37964
1177.33	5.27832
1180.22	3.35333
1183.11	4.29007
1186	5.69363
1188.9	4.74674
1191.79	1.68204
1194.68	4.02432
1197.57	2.25357
1200.47	2.10239
1203.36	1.98318
1206.25	5.38422
1209.14	3.25678
1212.04	3.90857
1214.93	6.21045
1217.82	4.07605
1220.72	5.39203
1223.61	5.89865
1226.5	4.79294
1229.39	2.3732
1232.29	0.658539
1235.18	3.93594
1238.07	1.82364
1240.96	3.32462
1243.86	1.84766
1246.75	3.19904
1249.64	0.308655
1252.54	3.83939
1255.43	3.1029
1258.32	6.01584
1261.21	2.96655
1264.11	3.65976
1267	1.0275
1269.89	5.2583
1272.79	6.48944
1275.68	0.221863
1278.57	1.22717
1281.46	3.04571
1284.36	0.53949
1287.25	1.76733
1290.14	1.46216
1293.03	2.6181
1295.93	0.93338
1298.82	2.29297
1301.71	0.813416
