Measurement: Raman, 532 nm, unoriented, Raman Data Processed
Mineral: Trigonite
Rruff sample: R100050
Ideal chemistry: Pb^2+^_3_Mn^2+^(As^3+^O_3_)_2_(As^3+^O_2_OH)
Locality: Langban, Filipstad, Varmland, Sweden
Source: William W Pinch
Description: Yellow masses, some with crystal faces
Raman shift (cm-1)	intensity
90.4922	0
93.867	26.3281
97.2418	78.4586
100.617	141.626
103.992	207.479
107.366	251.887
110.741	406.491
114.116	413.596
117.491	281.841
120.865	154.765
124.24	44.1735
127.615	47.1363
130.99	99.1996
134.365	91.4375
137.74	56.777
141.114	377.109
144.489	408.088
147.864	637.021
151.239	1226.37
154.614	1696.4
157.988	2100.11
161.363	2795.01
164.738	3865.17
168.113	4364.49
171.488	4331.74
174.863	4394.15
178.237	4915.9
181.612	5435.53
184.987	5779.58
188.362	5787.84
191.737	5412.38
195.112	4576.77
198.486	3503.53
201.861	2667.8
205.236	2230.17
208.611	1918.66
211.986	1753.69
215.36	1755.66
218.735	1835.88
222.11	1926.84
225.485	1924.72
228.86	1745.96
232.234	1432.67
235.609	1006.72
238.984	495.022
242.359	194.252
245.734	125.425
249.109	225.392
252.483	445.041
255.858	732.881
259.233	1075.93
262.608	1431.37
265.983	1752.1
269.358	1891.76
272.732	1677.9
276.107	1255.59
279.482	859.839
282.857	623.748
286.232	541.412
289.606	524.15
292.981	462.97
296.356	352.825
299.731	278.226
303.106	295.665
306.481	428.794
309.855	462.712
313.23	215.659
316.605	11.6202
319.98	101.588
323.355	112.598
326.729	96.9132
330.104	56.7555
333.479	3.50501
336.854	45.2338
340.229	78.3458
343.603	103.768
346.978	121.374
350.353	148.821
353.728	182.298
357.103	234.599
360.478	295.098
363.852	337.086
367.227	312.915
370.602	264.592
373.977	248.226
377.352	232.253
380.726	188.808
384.101	125.981
387.476	83.11
390.851	62.4102
394.226	51.227
397.601	50.9692
400.975	54.0094
404.35	68.3157
407.725	89.3182
411.1	122.231
414.475	165.1
417.849	211.964
421.224	265.803
424.599	332.542
427.974	411.84
431.349	482.614
434.724	516.73
438.098	536.056
441.473	551.138
444.848	568.04
448.223	567.834
451.598	516.777
454.972	444.089
458.347	392.688
461.722	370.688
465.097	388.374
468.472	416.074
471.846	433.042
475.221	438.85
478.596	426.481
481.971	394.01
485.346	342.904
488.721	274.967
492.095	202.133
495.47	135.15
498.845	86.9716
502.22	50.1767
505.595	29.0815
508.969	12.2082
512.344	0.276825
515.719	15.6025
519.094	22.7728
522.469	25.1445
525.844	22.1788
529.218	10.5203
532.593	10.4979
535.968	57.5088
539.343	125.242
542.718	227.724
546.092	362.634
549.467	522.62
552.842	673.745
556.217	732.305
559.592	669.416
562.967	550.552
566.341	541.547
569.716	610.291
573.091	692.45
576.466	744.044
579.841	764.101
583.216	763.681
586.59	751.443
589.965	717.265
593.34	669.086
596.715	589.242
600.09	501.345
603.464	417.342
606.839	354.466
610.214	309.509
613.589	296.775
616.964	315.4
620.338	332.994
623.713	329.693
627.088	278.292
630.463	219.032
633.838	174.403
637.212	147.901
640.587	128.209
643.962	113.662
647.337	106.79
650.712	107.246
654.087	108.3
657.461	96.4638
660.836	75.3149
664.211	37.265
667.586	0.795105
670.961	20.6291
674.335	29.8661
677.71	25.8535
681.085	4.4425
684.46	32.0305
687.835	80.2973
691.21	134.19
694.584	156.486
697.959	130.662
701.334	109.557
704.709	132.481
708.084	224.427
711.458	359.879
714.833	487.714
718.208	627.201
721.583	813.033
724.958	1081.55
728.332	1409.27
731.707	1837.43
735.082	2393.76
738.457	3191.65
741.832	4258.61
745.207	5358.38
748.581	5787.04
751.956	5211.49
755.331	4015.07
758.706	2736.95
762.081	1727.77
765.456	1077.67
768.83	692.061
772.205	458.114
775.58	316.401
778.955	218.751
782.33	154.85
785.704	106.971
789.079	78.6508
792.454	54.7507
795.829	33.1964
799.204	21.8597
802.578	11.3236
805.953	4.8967
809.328	5.36636
812.703	7.48578
816.078	7.37244
819.453	5.76914
822.827	5.10034
826.202	4.01605
829.577	2.10883
832.952	2.1897
836.327	3.31027
839.702	5.81729
843.076	11.0294
846.451	14.4352
849.826	20.3615
853.201	22.7649
856.576	27.9998
859.95	30.9193
863.325	32.227
866.7	35.5924
870.075	36.3895
873.45	35.1851
876.824	35.4652
880.199	29.9736
883.574	29.8621
886.949	23.9397
890.324	26.042
893.698	18.5592
897.073	20.2855
900.448	17.4117
903.823	17.0624
907.198	16.3357
910.573	16.1098
913.947	17.0916
917.322	17.7019
920.697	17.0371
924.072	17.5048
927.447	16.2246
930.822	14.9906
934.196	13.9169
937.571	15.7015
940.946	14.0511
944.321	13.1621
947.696	14.0433
951.07	11.3317
954.445	11.8174
957.82	10.5185
961.195	10.2296
964.57	7.4555
967.944	7.88553
971.319	6.99576
974.694	5.40536
978.069	7.52991
981.444	3.82623
984.819	5.31091
988.193	5.81686
991.568	2.53964
994.943	1.34677
998.318	0.447784
1001.69	0.150116
1005.07	1.33615
1008.44	1.47574
1011.82	0.305847
1015.19	0.222534
1018.57	0.564636
1021.94	0.187469
1025.32	1.15561
1028.69	0.066071
1032.07	1.23169
1035.44	1.43716
1038.82	1.62305
1042.19	1.48306
1045.57	1.81351
1048.94	5.03513
1052.32	3.34491
1055.69	3.75793
1059.07	8.44434
1062.44	7.45425
1065.81	11.0565
1069.19	12.1821
1072.56	16.8111
1075.94	22.9004
1079.31	24.4621
1082.69	29.4879
1086.06	30.3429
1089.44	28.8774
1092.81	23.4424
1096.19	19.5921
1099.56	14.0916
1102.94	10.5001
1106.31	8.70398
1109.69	9.14603
1113.06	8.88092
1116.44	4.85321
1119.81	5.0683
1123.19	3.41977
1126.56	2.38254
1129.94	0.269928
1133.31	3.85678
1136.68	1.96829
1140.06	0.234528
1143.43	1.23083
1146.81	0.510925
1150.18	0.050049
1153.56	0.738892
1156.93	0.365295
1160.31	1.39719
1163.68	5.57205
1167.06	1.88055
1170.43	1.23349
1173.81	2.11261
1177.18	3.69159
1180.56	2.24634
1183.93	4.0202
1187.31	5.11322
1190.68	4.8978
1194.06	4.38309
1197.43	5.63196
1200.81	4.99847
1204.18	5.39526
1207.56	4.16766
1210.93	4.52661
1214.31	6.65717
1217.68	4.8259
1221.06	2.00717
1224.43	3.04156
1227.81	1.30054
1231.18	2.58954
1234.56	2.44998
1237.93	2.60565
1241.31	0.62738
1244.68	2.22821
1248.05	0.065308
1251.43	1.19559
1254.8	0.686035
1258.18	3.25827
1261.55	4.35196
1264.93	3.69486
1268.3	5.5495
1271.68	4.12259
1275.05	1.97943
1278.43	1.79022
1281.8	4.14911
1285.18	0.601532
1288.55	1.32501
1291.93	0.351929
1295.3	0.543945
1298.68	2.33334
1302.05	0.890656
