Measurement: Raman, 780 nm, unoriented, Raman Data Processed
Mineral: Trigonite
Rruff sample: R100050
Ideal chemistry: Pb^2+^_3_Mn^2+^(As^3+^O_3_)_2_(As^3+^O_2_OH)
Locality: Langban, Filipstad, Varmland, Sweden
Source: William W Pinch
Description: Yellow masses, some with crystal faces
Raman shift (cm-1)	intensity
92.4974	0
95.8722	37.2285
99.2471	9.06055
102.622	272.971
105.997	467.18
109.371	907.965
112.746	1554.58
116.121	1178.15
119.496	1050.33
122.871	826.081
126.246	1276.45
129.62	1087.6
132.995	784.809
136.37	1069.73
139.745	1571.9
143.12	900.77
146.494	695.925
149.869	1100.32
153.244	1089.8
156.619	1157.48
159.994	1595.68
163.369	2257.96
166.743	2267.41
170.118	1758.15
173.493	1657.23
176.868	1953.84
180.243	2336.08
183.618	2606.81
186.992	2657.48
190.367	2424.22
193.742	1990.74
197.117	1449.29
200.492	978.205
203.866	709.847
207.241	516.709
210.616	399.793
213.991	377.602
217.366	389.252
220.74	396.901
224.115	367.637
227.49	289.805
230.865	169.679
234.24	26.7981
237.615	84.1311
240.989	100.851
244.364	41.5891
247.739	89.6226
251.114	266.553
254.489	457.358
257.863	671.812
261.238	890.773
264.613	1063.55
267.988	1144.01
271.363	1076.73
274.738	870.685
278.112	678.559
281.487	565.804
284.862	539.379
288.237	559.387
291.612	567.7
294.986	486.013
298.361	383.534
301.736	337.389
305.111	392.636
308.486	433.729
311.861	272.678
315.235	82.7858
318.61	7.73468
321.985	27.2805
325.36	20.6033
328.735	3.10419
332.109	32.2116
335.484	66.5074
338.859	94.9059
342.234	109.122
345.609	117.444
348.984	111.479
352.358	115.784
355.733	139.929
359.108	177.517
362.483	210.811
365.858	191.383
369.233	144.394
372.607	114.162
375.982	102.969
379.357	76.682
382.732	39.609
386.106	8.16116
389.481	5.84427
392.856	4.89633
396.231	6.0809
399.606	13.7725
402.981	32.569
406.355	59.9217
409.73	85.0362
413.105	115.86
416.48	146.771
419.855	180.46
423.229	220.162
426.604	245.933
429.979	265.752
433.354	258.205
436.729	230.506
440.104	214.446
443.478	210.274
446.853	205.694
450.228	184.192
453.603	162.135
456.978	142.883
460.353	148.189
463.727	174.417
467.102	202.318
470.477	225.851
473.852	236.408
477.227	223.971
480.601	200.201
483.976	171.152
487.351	130.746
490.726	95.0924
494.101	65.2832
497.476	41.949
500.85	29.3383
504.225	29.9132
507.6	30.0067
510.975	21.4157
514.35	1.8616
517.724	13.863
521.099	17.3627
524.474	15.2383
527.849	4.56271
531.224	20.6861
534.598	60.268
537.973	115.85
541.348	187.678
544.723	273.126
548.098	375.237
551.472	485.466
554.847	536.656
558.222	484.469
561.597	388.925
564.972	347.576
568.347	366.171
571.721	378.662
575.096	360.948
578.471	325.474
581.846	290.037
585.221	268.259
588.596	253.898
591.97	232.432
595.345	199.423
598.72	161.968
602.095	125.558
605.47	102.123
608.845	83.7327
612.219	74.7755
615.594	80.0641
618.969	88.6216
622.344	83.1001
625.719	59.2465
629.093	36.1922
632.468	17.9782
635.843	10.6313
639.218	7.44873
642.593	3.85504
645.967	8.51538
649.342	18.9424
652.717	18.7335
656.092	23.5344
659.467	20.967
662.842	9.92722
666.216	4.21698
669.591	11.9399
672.966	12.6651
676.341	3.82846
679.716	9.99509
683.091	34.6297
686.465	60.8306
689.84	106.778
693.215	144.487
696.59	147.778
699.965	140.649
703.339	146.644
706.714	197.887
710.089	289.672
713.464	394.673
716.839	487.79
720.213	611.69
723.588	761.128
726.963	938.748
730.338	1178.71
733.713	1492.57
737.087	1859.12
740.462	2288.73
743.837	2672.65
747.212	2724.99
750.587	2365.5
753.962	1801.77
757.336	1227.95
760.711	766.503
764.086	476.413
767.461	309.995
770.836	210.571
774.211	144.771
777.585	104.073
780.96	71.476
784.335	51.4197
787.71	39.6167
791.085	25.8367
794.459	16.0984
797.834	6.20422
801.209	0.569473
804.584	3.3475
807.959	3.78896
811.333	3.32639
814.708	5.85844
818.083	3.75998
821.458	1.96086
824.833	0.201721
828.208	0.272034
831.582	3.59206
834.957	5.38298
838.332	8.39076
841.707	9.12703
845.082	12.6013
848.457	15.4204
851.831	17.99
855.206	19.3394
858.581	22.7372
861.956	22.535
865.331	24.9679
868.705	23.1036
872.08	22.3209
875.455	18.9725
878.83	17.8425
882.205	16.6336
885.58	15.0155
888.954	10.9366
892.329	8.788
895.704	10.0216
899.079	9.02509
902.454	9.34891
905.828	9.14874
909.203	8.62057
912.578	7.99864
915.953	8.44173
919.328	8.99126
922.702	7.70326
926.077	5.80329
929.452	5.53152
932.827	6.85886
936.202	6.61821
939.577	6.33819
942.951	7.19193
946.326	5.98752
949.701	4.00748
953.076	4.6854
956.451	5.47117
959.825	4.52719
963.2	5.07483
966.575	3.71422
969.95	1.24564
973.325	3.20808
976.699	2.38382
980.074	1.22291
983.449	1.96162
986.824	1.63797
990.199	0.430687
993.574	0.332565
996.948	0.44268
1000.32	0.225197
1003.7	0.352318
1007.07	0.028412
1010.45	2.58671
1013.82	0.972931
1017.2	0.207344
1020.57	0.606697
1023.95	0.331062
1027.32	1.22911
1030.7	1.9463
1034.07	0.544044
1037.45	1.71009
1040.82	1.12442
1044.2	3.29349
1047.57	3.47546
1050.94	4.87528
1054.32	4.6572
1057.69	6.35569
1061.07	7.36932
1064.44	8.15052
1067.82	10.9613
1071.19	14.0926
1074.57	16.9778
1077.94	19.4735
1081.32	23.5715
1084.69	27.1422
1088.07	24.2518
1091.44	20.8663
1094.82	15.4588
1098.19	12.8142
1101.57	10.3631
1104.94	8.88406
1108.32	5.2282
1111.69	4.92907
1115.07	3.60276
1118.44	3.75362
1121.82	2.72452
1125.19	1.7846
1128.57	1.08985
1131.94	1.21375
1135.32	1.21928
1138.69	0.499649
1142.07	2.14585
1145.44	0.66748
1148.82	0.170815
1152.19	0.936874
1155.57	0.56308
1158.94	0.613022
1162.31	1.25233
1165.69	0.651024
1169.06	0.580254
1172.44	0.274063
1175.81	2.694
1179.19	2.32219
1182.56	2.28981
1185.94	2.50835
1189.31	2.79169
1192.69	3.1758
1196.06	2.15514
1199.44	2.20791
1202.81	3.49235
1206.19	1.90584
1209.56	2.46195
1212.94	2.67586
1216.31	1.79857
1219.69	0.712318
1223.06	1.31833
1226.44	1.01174
1229.81	0.576675
1233.19	1.06216
1236.56	0.97451
1239.93	2.3439
1243.31	1.36412
1246.68	2.37959
1250.06	1.40253
1253.43	1.66741
1256.81	0.217941
1260.18	2.69681
1263.56	2.12619
1266.93	3.05837
1270.31	3.31074
1273.68	1.98049
1277.06	3.29939
1280.43	0.27063
1283.81	2.40248
