Measurement: Raman, 532 nm, unoriented, Raman Data Processed
Mineral: Trilithionite
Rruff sample: R040101
Ideal chemistry: KLi_1.5_Al_1.5_(Si_3_Al)O_10_F_2_
Locality: Zambezi Region, Mozambique
Source: University of Arizona Mineral Museum
Description: Aggregate of purple hexagonal plates, polytype is 2M1
Measured chemistry: (K_0.84_Li_0.13_Na_0.02_)(Li_0.54_Al_0.44_Mn_0.02_)_3_(Si_0.82_Al_0.18_)_4_O_10_F_2.00_
Raman shift (cm-1)	intensity
143.26	0
146.153	32.5977
149.045	3.02246
151.938	12.377
154.831	93.416
157.724	94.7236
160.616	150.452
163.509	301.845
166.402	508.981
169.294	718.631
172.187	1025.1
175.08	1334.65
177.972	1414.94
180.865	1451.23
183.758	1391.35
186.65	1478.15
189.543	1815.76
192.436	2297.52
195.329	2907.44
198.221	3101.79
201.114	2746.29
204.007	2398.47
206.899	2336.96
209.792	2532.78
212.685	2812.6
215.577	2432.63
218.47	1627.1
221.363	781.948
224.256	326.589
227.148	32.2051
230.041	39.5478
232.934	85.7783
235.826	92.2061
238.719	140.821
241.612	512.012
244.505	1026.87
247.397	1831.74
250.29	3336.72
253.183	5777.35
256.075	8992.49
258.968	12364.9
261.861	14544.2
264.753	13405.7
267.646	9751.16
270.539	6180.63
273.431	4009.99
276.324	2666.52
279.217	1868.29
282.11	1497.24
285.002	1104.69
287.895	841.545
290.788	629.589
293.68	576.387
296.573	467.967
299.466	556.65
302.358	407.234
305.251	320.168
308.144	312.265
311.036	276.604
313.929	210.48
316.822	163.362
319.715	192.776
322.607	292.902
325.5	271.144
328.393	196.794
331.285	90.584
334.178	33.6924
337.071	83.1816
339.964	92.3359
342.856	49.8603
345.749	71.0908
348.642	29.3105
351.534	155.953
354.427	239.235
357.32	458.41
360.212	628.878
363.105	810.831
365.998	1075.18
368.89	1510.09
371.783	1842.53
374.676	2277.55
377.569	2472.24
380.461	2520
383.354	2858.37
386.247	3162.53
389.139	3442.92
392.032	3920.49
394.925	4340.09
397.817	4821
400.71	5239.57
403.603	5424.77
406.495	5243.01
409.388	4768.33
412.281	4088.31
415.174	3470.65
418.066	2833.62
420.959	2374.87
423.852	1952.02
426.744	1643.43
429.637	1380.11
432.53	1104.07
435.423	917.244
438.315	631.468
441.208	380.025
444.101	330.715
446.993	100.751
449.886	95.1309
452.779	8.24316
455.671	56.208
458.564	14.3125
461.457	139.488
464.349	180.258
467.242	312.756
470.135	303.692
473.028	343.654
475.92	277.589
478.813	348.862
481.706	367.609
484.598	373.514
487.491	371.173
490.384	285.468
493.276	294.038
496.169	186.888
499.062	74.2549
501.955	34.7783
504.847	5.51953
507.74	1.15332
510.633	58.5478
513.525	74.2822
516.418	134.176
519.311	73.3779
522.203	80.5889
525.096	21.0586
527.989	104.404
530.882	105.861
533.774	117.031
536.667	179.657
539.56	327.156
542.452	314.818
545.345	342.72
548.238	380.527
551.13	502.255
554.023	556.62
556.916	591.841
559.808	448.879
562.701	415.825
565.594	299.259
568.487	282.718
571.379	138.614
574.272	192.381
577.165	158.155
580.057	79.7881
582.95	90.9053
585.843	78.4853
588.736	84.6035
591.628	33.8897
594.521	56.4941
597.414	47.5977
600.306	104.825
603.199	149.85
606.092	282.925
608.984	399.757
611.877	392.454
614.77	452.169
617.663	657.065
620.555	962.105
623.448	1077.62
626.341	1258.72
629.233	1512.28
632.126	1458.93
635.019	1450.4
637.911	962.415
640.804	809.063
643.697	602.406
646.59	278.776
649.482	196.971
652.375	82.0879
655.268	66.0498
658.16	80.4004
661.053	85.7881
663.946	22.7207
666.838	132.662
669.731	175.414
672.624	345.444
675.516	501.398
678.409	812.6
681.302	1131.31
684.195	1666.01
687.087	2384.8
689.98	3150.55
692.873	4237.66
695.765	5479.78
698.658	6555.56
701.551	7080.78
704.443	7046.16
707.336	6299.95
710.229	5305.81
713.121	4450.98
716.014	3145.45
718.907	1902.11
721.8	1197.5
724.692	813.005
727.585	743.207
730.478	682.165
733.37	665.835
736.263	898.306
739.156	1005.77
742.048	1285.08
744.941	1710.04
747.834	2133.24
750.727	2292.62
753.619	2368.84
756.512	2246.89
759.405	2038.18
762.297	1788.09
765.19	1446.16
768.083	1212.65
770.976	907.378
773.868	708.029
776.761	562.957
779.654	525.724
782.546	413.487
785.439	310.014
788.332	219.755
791.224	301.965
794.117	202.714
797.01	65.8516
799.903	64.0186
802.795	14.9775
805.688	25.6543
808.581	22.2666
811.473	11.873
814.366	67.8027
817.259	85.1748
820.151	20.1807
823.044	227.238
825.937	352.122
828.83	401.452
831.722	535.732
834.615	500.167
837.508	406.153
840.4	393.269
843.293	437.182
846.186	375.496
849.078	276.419
851.971	264.685
854.864	370.842
857.756	407.715
860.649	316.262
863.542	294.092
866.434	125.412
869.327	140.488
872.22	194.051
875.113	16.4414
878.005	2.10938
880.898	7.60742
883.791	42.9746
886.683	74.6191
889.576	91.4043
892.469	281.809
895.361	475.887
898.254	659.75
901.147	890.053
904.04	1125.94
906.932	1307.19
909.825	1524.55
912.718	1494.01
915.61	1398.76
918.503	1177.85
921.396	862.025
924.288	811.971
927.181	586.479
930.074	544.873
932.967	345.346
935.859	426.955
938.752	533.471
941.645	615.291
944.537	723.32
947.43	1004.31
950.323	1136.33
953.216	1239.94
956.108	1221.13
959.001	969.871
961.894	545.67
964.786	492.955
967.679	284.422
970.572	179.451
973.464	12.4258
976.357	59.4648
979.25	96.8613
982.143	146.773
985.035	82.4473
987.928	63.082
990.821	189.371
993.713	298.791
996.606	289.285
999.499	146.008
1002.39	234.346
1005.28	156.826
1008.18	185.861
1011.07	253.885
1013.96	367.555
1016.86	245.81
1019.75	299.693
1022.64	392.82
1025.53	273.293
1028.43	193.266
1031.32	114.334
1034.21	65.541
1037.1	56.1562
1040	47.6797
1042.89	6.89258
1045.78	55.9551
1048.67	210.988
1051.57	228.641
1054.46	174.992
1057.35	200.543
1060.24	286.682
1063.14	208.279
1066.03	230.58
1068.92	336.928
1071.82	308.824
1074.71	349.17
1077.6	473.223
1080.49	439.685
1083.39	380.019
1086.28	352.453
1089.17	453.908
1092.07	572.297
1094.96	579.371
1097.85	679.191
1100.74	837.846
1103.64	943.92
1106.53	928.943
1109.42	1062.45
1112.31	1119.65
1115.21	1241.81
1118.1	1233.77
1120.99	1065.08
1123.88	884.598
1126.78	776.846
1129.67	616.504
1132.56	600.606
1135.45	503.533
1138.35	493.185
1141.24	355.781
1144.13	239.678
1147.03	246.967
1149.92	101.582
1152.81	168.191
1155.7	208.301
1158.6	93.8203
1161.49	119.481
1164.38	84.3848
1167.28	13.0957
1170.17	34.6914
1173.06	102.002
1175.95	105.285
1178.85	96.6152
1181.74	44.9355
1184.63	10.2812
1187.52	40.9961
1190.42	122.928
1193.31	118.336
1196.2	104.666
1199.1	235.914
1201.99	138.943
1204.88	127.936
1207.77	26.1113
1210.67	12.875
1213.56	82.7324
1216.45	22.8613
1219.34	14.9375
1222.24	68.1348
1225.13	130.334
1228.02	80.3457
1230.91	111.385
1233.81	164.707
1236.7	216.623
1239.59	167.797
1242.48	152.898
1245.38	170.951
1248.27	206.75
1251.16	148.83
1254.06	124.256
1256.95	264.369
1259.84	125.201
1262.73	118.312
1265.63	60.9629
1268.52	84.9492
1271.41	32.5703
1274.31	105.106
1277.2	138.953
1280.09	61.3164
1282.98	117.438
1285.88	65.3711
1288.77	185.701
1291.66	105.4
1294.55	107.238
1297.45	0
