Measurement: Raman, 532 nm, unoriented, Raman Data Processed
Mineral: Trilithionite
Rruff sample: R040105
Ideal chemistry: KLi_1.5_Al_1.5_(Si_3_Al)O_10_F_2_
Locality: Brown Derby mine, Ohio City, Gunnison County, Colorado, USA
Source: University of Arizona Mineral Museum
Description: Purple hexagonal tablet
Measured chemistry: (K_0.82_Li_0.14_Na_0.04_)(Li_0.53_Al_0.42_Mn_0.05_)_3_(Si_0.84_Al_0.17_)_4_O_10_((OH)_0.59_F_0.41_)_2_
Raman shift (cm-1)	intensity
134.591	0
137.483	35.6141
140.376	35.3481
143.269	23.5049
146.162	2.05133
149.054	1.64484
151.947	22.1289
154.84	31.3946
157.732	21.3978
160.625	33.7388
163.518	31.0797
166.411	34.1957
169.303	92.7551
172.196	99.7711
175.089	130.672
177.981	164.521
180.874	193.767
183.767	171.263
186.659	112.358
189.552	77.5457
192.445	43.7521
195.338	39.2557
198.23	17.1674
201.123	12.3146
204.016	22.2095
206.908	7.17645
209.801	6.15735
212.694	14.1325
215.586	8.11713
218.479	2.42688
221.372	0.253845
224.264	2.99628
227.157	51.6564
230.05	63.8789
232.943	121.425
235.835	121.117
238.728	128.6
241.621	184.662
244.513	221.593
247.406	302.691
250.299	324.215
253.191	397.257
256.084	446.772
258.977	501.984
261.87	574.974
264.762	503.643
267.655	420.734
270.548	341.104
273.44	217.845
276.333	193.981
279.226	135.242
282.118	73.6036
285.011	88.5214
287.904	84.1116
290.796	101.743
293.689	82.3084
296.582	30.925
299.475	73.7018
302.367	72.2725
305.26	69.8987
308.153	37.5383
311.045	67.9754
313.938	35.6723
316.831	51.8957
319.724	43.0553
322.616	35.2837
325.509	2.06152
328.402	37.6605
331.294	11.918
334.187	9.22846
337.08	2.65918
339.972	8.27026
342.865	16.777
345.758	14.9388
348.651	14.1266
351.543	7.58966
354.436	3.10931
357.329	14.0416
360.221	26.1852
363.114	27.4597
366.007	30.0497
368.899	25.7487
371.792	43.1879
374.685	70.9865
377.577	42.5901
380.47	83.8936
383.363	102.766
386.256	117.545
389.148	123.532
392.041	122.768
394.934	136.063
397.826	182.439
400.719	199.179
403.612	209.345
406.505	204.11
409.397	189.503
412.29	184.793
415.183	128.664
418.075	115.531
420.968	103.328
423.861	75.9237
426.753	81.3279
429.646	67.5966
432.539	94.2284
435.432	86.5348
438.324	94.7152
441.217	90.6441
444.11	100.728
447.002	76.4171
449.895	82.0287
452.788	92.7905
455.68	94.2635
458.573	78.763
461.466	76.35
464.358	78.5038
467.251	76.6663
470.144	101.287
473.037	88.7507
475.929	96.1445
478.822	82.5425
481.715	62.5385
484.607	49.6138
487.5	24.36
490.393	19.55
493.286	7.54712
496.178	6.34509
499.071	8.66913
501.964	14.1928
504.856	0.090393
507.749	0.145325
510.642	15.6796
513.534	4.67481
516.427	2.26221
519.32	10.7684
522.212	7.38898
525.105	7.05408
527.998	9.21704
530.891	46.1239
533.783	56.6141
536.676	76.3853
539.569	79.9193
542.461	100.588
545.354	109.659
548.247	113.17
551.139	176.957
554.032	170.591
556.925	183.601
559.818	212.406
562.71	217.95
565.603	194.571
568.496	172.272
571.388	139.363
574.281	94.9665
577.174	88.876
580.067	79.0608
582.959	76.2778
585.852	40.6591
588.745	25.5574
591.637	39.1874
594.53	49.5243
597.423	62.7668
600.315	37.4206
603.208	52.653
606.101	52.2625
608.994	33.9418
611.886	78.061
614.779	56.8163
617.672	40.7352
620.564	38.9962
623.457	37.902
626.35	31.888
629.242	13.3355
632.135	24.1381
635.028	23.8046
637.92	8.073
640.813	18.6162
643.706	3.72528
646.599	0.759827
649.491	1.5285
652.384	13.7941
655.277	36.043
658.169	13.6763
661.062	14.9062
663.955	12.4792
666.847	36.4016
669.74	60.9622
672.633	71.0061
675.525	106.053
678.418	126.409
681.311	153.978
684.204	195.114
687.096	276.458
689.989	348.41
692.882	478.35
695.774	685.206
698.667	874.622
701.56	1185.47
704.452	1517.31
707.345	1778.93
710.238	1759.79
713.131	1408.68
716.023	941.827
718.916	581.162
721.809	387.646
724.701	258.477
727.594	179.173
730.487	129.183
733.38	76.705
736.272	60.8219
739.165	46.3062
742.058	36.4564
744.95	49.6933
747.843	65.5868
750.736	52.334
753.628	47.1374
756.521	57.4704
759.414	41.5005
762.307	31.051
765.199	28.0242
768.092	38.6716
770.985	13.7775
773.877	30.6091
776.77	29.3815
779.663	8.94696
782.555	21.6045
785.448	21.9066
788.341	20.4466
791.234	26.3514
794.126	24.6882
797.019	14.2681
799.912	11.0361
802.804	15.8929
805.697	1.41077
808.59	1.79938
811.482	6.64868
814.375	4.98377
817.268	2.36182
820.16	5.00732
823.053	11.0533
825.946	8.42163
828.839	12.3537
831.731	0.176453
834.624	18.6551
837.517	0.9104
840.409	11.4345
843.302	21.3572
846.195	12.671
849.087	19.5057
851.98	29.6332
854.873	19.3514
857.766	21.26
860.658	26.7258
863.551	19.8234
866.444	21.1372
869.336	19.3179
872.229	15.8633
875.122	17.134
878.014	10.2772
880.907	2.31506
883.8	7.69519
886.693	10.8051
889.585	24.9002
892.478	16.8826
895.371	25.5949
898.263	10.7811
901.156	33.1357
904.049	29.3237
906.942	31.4025
909.834	17.9492
912.727	44.5937
915.62	7.82812
918.512	37.5869
921.405	32.2686
924.298	22.8209
927.19	29.1808
930.083	19.0129
932.976	29.8069
935.869	19.981
938.761	36.4254
941.654	17.8677
944.547	52.5516
947.439	37.2416
950.332	22.0279
953.225	21.2383
956.117	20.1605
959.01	24.3683
961.903	45.1874
964.795	24.315
967.688	37.0132
970.581	14.3591
973.474	4.32611
976.366	11.1683
979.259	3.69373
982.152	18.4416
985.044	1.6756
987.937	22.288
990.83	5.82947
993.722	3.21808
996.615	3.0921
999.508	18.7004
1002.4	24.0617
1005.29	16.5805
1008.19	7.58948
1011.08	12.1299
1013.97	6.66479
1016.86	20.7274
1019.76	2.14581
1022.65	9.04388
1025.54	5.80713
1028.43	21.1198
1031.33	10.9478
1034.22	13.9513
1037.11	5.29785
1040.01	19.2517
1042.9	5.45624
1045.79	11.8405
1048.68	9.35535
1051.58	25.7595
1054.47	1.82001
1057.36	10.4786
1060.26	30.2313
1063.15	25.1374
1066.04	38.5876
1068.93	49.8629
1071.83	53.1248
1074.72	57.1462
1077.61	73.0986
1080.5	87.4277
1083.4	81.3453
1086.29	74.2148
1089.18	96.6512
1092.07	81.9541
1094.97	78.332
1097.86	83.4166
1100.75	72.7189
1103.64	79.3875
1106.54	73.6785
1109.43	64.3397
1112.32	81.054
1115.22	112.732
1118.11	79.7693
1121	86.6671
1123.89	62.7994
1126.79	65.4015
1129.68	49.9926
1132.57	48.5725
1135.46	47.5198
1138.36	30.653
1141.25	24.8232
1144.14	12.739
1147.04	16.7318
1149.93	19.0367
1152.82	12.3831
1155.71	7.56439
1158.61	13.0143
1161.5	9.37018
1164.39	2.52655
1167.28	7.52557
1170.18	3.49432
1173.07	12.6271
1175.96	14.2975
1178.86	12.6409
1181.75	21.3548
1184.64	2.58728
1187.53	19.0226
1190.43	18.1094
1193.32	13.8843
1196.21	7.9494
1199.1	17.1078
1202	6.04309
1204.89	17.5249
1207.78	8.37445
1210.67	23.2485
1213.57	28.0645
1216.46	35.568
1219.35	23.4498
1222.25	5.19745
1225.14	6.8125
1228.03	9.02777
1230.92	5.68628
1233.82	13.8259
1236.71	18.5648
1239.6	3.20013
1242.49	12.9342
1245.39	8.58673
1248.28	0.016663
1251.17	18.158
1254.07	10.9197
1256.96	0
