Measurement: Raman, 514 nm, unoriented, Raman Data Processed
Mineral: Trilithionite
Rruff sample: R040101
Ideal chemistry: KLi_1.5_Al_1.5_(Si_3_Al)O_10_F_2_
Locality: Zambezi Region, Mozambique
Source: University of Arizona Mineral Museum
Description: Aggregate of purple hexagonal plates, polytype is 2M1
Measured chemistry: (K_0.84_Li_0.13_Na_0.02_)(Li_0.54_Al_0.44_Mn_0.02_)_3_(Si_0.82_Al_0.18_)_4_O_10_F_2.00_
Raman shift (cm-1)	intensity
158.267	0
160.77	7.623
163.273	96.132
165.775	126.005
168.276	208.749
170.776	401.967
173.275	645.084
175.773	940.088
178.27	1208.16
180.767	1351.22
183.263	1268.99
185.757	950.306
188.251	778.489
190.744	528.107
193.236	580.084
195.727	820.197
198.218	970.322
200.707	857.186
203.196	607.847
205.684	405.91
208.171	347.484
210.657	424.8
213.142	569.782
215.626	753.635
218.109	609.463
220.592	325.326
223.073	23.253
225.554	12.736
228.034	58.359
230.513	88.542
232.991	153.813
235.469	168.169
237.945	413.614
240.42	590.154
242.895	1030.78
245.369	1195.43
247.842	1350.04
250.314	1628.5
252.785	1914.29
255.256	2463.39
257.725	3598.39
260.194	5133.18
262.661	6336.65
265.128	6201.21
267.594	4826.57
270.059	3459.53
272.524	2458.96
274.987	1645.78
277.45	1095.9
279.911	898.27
282.372	677.854
284.832	512.613
287.291	457.517
289.75	354.543
292.207	410.651
294.664	289.772
297.119	316.976
299.574	347.251
302.028	392.585
304.481	374.975
306.934	322.386
309.385	263.838
311.836	316.38
314.285	290.023
316.734	247.754
319.182	178.604
321.629	98.584
324.075	225.528
326.521	101.536
328.965	95.211
331.409	80.241
333.852	78.246
336.294	15.179
338.735	27.03
341.176	60.245
343.615	80.726
346.054	69.199
348.491	28.841
350.928	49.308
353.364	2.818
355.8	138.666
358.234	215.278
360.667	342.096
363.1	316.513
365.532	361.415
367.963	455.126
370.393	525.827
372.822	680.513
375.251	798.217
377.678	869.814
380.105	1005.42
382.531	1016
384.956	965.545
387.38	1154.05
389.804	1337.08
392.226	1623.95
394.648	1872.34
397.069	2087.69
399.489	2507
401.908	2630.52
404.326	2871.96
406.744	2968.66
409.161	2984.74
411.576	2811.26
413.991	2481.89
416.405	2140.55
418.819	1995.08
421.231	1770.61
423.643	1380.47
426.054	1195.61
428.464	1193.69
430.873	946.857
433.281	925.396
435.688	839.331
438.095	765.396
440.501	765.058
442.906	745.965
445.31	758.581
447.713	841.564
450.116	668.085
452.517	613.614
454.918	533.144
457.318	499.653
459.717	383.141
462.115	393.606
464.513	408.052
466.909	393.478
469.305	385.885
471.7	576.275
474.094	635.65
476.488	728.01
478.88	718.603
481.272	584.692
483.663	429.018
486.053	376.335
488.442	250.647
490.83	212.955
493.218	106.26
495.604	18.111
497.99	34.865
500.375	17.314
502.759	25.426
505.143	83.978
507.525	2.505
509.907	31.637
512.288	0.606
514.668	97.63
517.048	43.642
519.426	208.506
521.804	121.367
524.181	167.241
526.557	224.297
528.932	256.146
531.306	312.23
533.68	334.472
536.052	460.956
538.424	553.726
540.795	658.717
543.166	702.824
545.535	932.035
547.904	1030.32
550.272	1191.66
552.639	1444.06
555.005	1593.51
557.37	1726.03
559.735	1885.6
562.099	1784.03
564.461	1505.97
566.824	1268.77
569.185	1052.64
571.545	798.6
573.905	567.646
576.264	474.783
578.622	336.014
580.979	245.343
583.336	158.772
585.691	143.304
588.046	38.942
590.4	91.522
592.753	80.916
595.106	9.826
597.457	30.219
599.808	40.821
602.158	49.025
604.507	53.332
606.856	5.024
609.203	9.533
611.55	38.144
613.896	77.837
616.241	121.231
618.586	283.795
620.929	351.529
623.272	345.436
625.614	512.515
627.955	530.774
630.295	518.217
632.635	541.244
634.973	499.713
637.311	570.773
639.648	492.129
641.985	337.739
644.32	347.568
646.655	362.617
648.989	389.895
651.322	430.408
653.654	271.151
655.986	320.125
658.316	300.389
660.646	335.89
662.976	279.642
665.304	337.644
667.631	328.89
669.958	423.393
672.284	412.116
674.609	563.04
676.933	692.146
679.257	813.438
681.58	940.931
683.902	1259.79
686.223	1590.59
688.543	1938.95
690.863	2485.59
693.182	3012.25
695.5	3881.15
697.817	4931.94
700.133	6155
702.449	7469.72
704.764	9255.77
707.078	11682
709.391	13298.3
711.703	12944.8
714.015	10351.5
716.326	7118.21
718.636	4655.55
720.945	3339.66
723.254	2419.01
725.562	1772.07
727.869	1294.5
730.175	1185.48
732.48	928.931
734.785	940.861
737.088	820.139
739.391	853.662
741.694	948.348
743.995	1101.58
746.296	1230.58
748.596	1291.97
750.895	1390.83
753.193	1321.44
755.491	1318.15
757.787	1201.83
760.083	1112.95
762.378	940.571
764.673	795.795
766.966	540.789
769.259	553.828
771.551	577.883
773.843	532.691
776.133	541.585
778.423	562.765
780.712	575.331
783	560.934
785.287	549.48
787.574	524.408
789.86	381.837
792.145	386.816
794.429	377.457
796.713	195
798.995	221.449
801.277	118.519
803.558	106.194
805.839	82.222
808.118	84.943
810.397	94.466
812.675	7.216
814.953	33.851
817.229	79.634
819.505	59.155
821.78	8.695
824.054	64.975
826.328	52.338
828.6	38.353
830.872	25.958
833.143	0.36
835.414	0.686
837.683	16.097
839.952	26.693
842.22	0.265
844.487	20.021
846.754	0.267
849.02	37.084
851.285	77.945
853.549	35.611
855.812	28.799
858.075	61.571
860.337	69.987
862.598	46.992
864.858	30.62
867.118	79.907
869.377	32.859
871.635	24.481
873.892	79.732
876.149	74.639
878.405	27.216
880.66	68.442
882.914	5.322
885.168	76.844
887.42	116.037
889.672	135.915
891.924	147.488
894.174	184.761
896.424	268.749
898.673	331.463
900.921	391.428
903.168	438.87
905.415	615.882
907.661	636.822
909.906	720.287
912.15	773.882
914.394	727.718
916.637	752.167
918.879	713.143
921.121	614.527
923.361	512.131
925.601	439.849
927.84	499.343
930.078	380.249
932.316	398.625
934.553	416.476
936.789	369.987
939.024	282.954
941.259	368.879
943.493	363.395
945.726	379.127
947.958	415.696
950.19	492.939
952.421	421.05
954.651	503.14
956.88	551.134
959.109	464.396
961.336	386.456
963.563	361.94
965.79	202.274
968.015	178.528
970.24	113.486
972.464	129.306
974.688	128.338
976.91	119.701
979.132	145.318
981.353	108.91
983.573	105.93
985.793	145.472
988.012	120.222
990.23	136.037
992.447	86.055
994.664	104.401
996.88	3.777
999.095	124.551
1001.31	28.488
1003.52	9.931
1005.74	58.509
1007.95	6.992
1010.16	145.21
1012.37	102.022
1014.58	62.926
1016.79	0
