Measurement: Raman, 532 nm, unoriented, Raman Data Processed
Mineral: Trilithionite
Rruff sample: R060004
Ideal chemistry: KLi_1.5_Al_1.5_(Si_3_Al)O_10_F_2_
Locality: Mount Begbie, Revelstoke, British Columbia, Canada
Source: Bob Downs
Description: Aggregate of coarse purple crystals associated with elbaite, R060003
Measured chemistry: (K_0.99_[box]_0.01_)(Li_0.56_Al_0.43_Mn_0.01_)_3_(Si_0.85_Al_0.15_)_4_O_10_(F_0.54_(OH)_0.46_)_2_
Raman shift (cm-1)	intensity
131.494	0
134.868	0.382126
138.243	1.21829
141.618	0.086304
144.993	0.028259
148.368	1.81531
151.742	1.44013
155.117	0.959373
158.492	1.60364
161.867	4.8362
165.242	5.88335
168.616	7.14022
171.991	10.3387
175.366	11.6489
178.741	14.6143
182.116	13.7797
185.49	9.39961
188.865	6.3517
192.24	3.93772
195.615	2.68811
198.99	2.17976
202.365	0.896263
205.739	0.051849
209.114	0.388519
212.489	0.300186
215.864	0.199791
219.239	0.420189
222.613	0.15181
225.988	0.544106
229.363	1.76235
232.738	4.4363
236.113	7.05724
239.488	10.3998
242.862	14.2659
246.237	18.3331
249.612	21.7551
252.987	26.1877
256.362	31.9209
259.736	37.3226
263.111	38.0656
266.486	31.7075
269.861	21.2863
273.236	13.9362
276.611	8.67784
279.985	7.17561
283.36	6.33371
286.735	5.0053
290.11	4.83319
293.485	4.6535
296.859	4.50961
300.234	4.05316
303.609	3.79279
306.984	3.91867
310.359	3.10931
313.733	2.70776
317.108	2.74316
320.483	2.19482
323.858	1.05936
327.233	1.56421
330.608	1.30785
333.982	0.515762
337.357	0.163284
340.732	0.324295
344.107	0.081512
347.482	0.262741
350.856	0.444687
354.231	0.424942
357.606	1.33668
360.981	0.930496
364.356	1.73547
367.731	2.61115
371.105	3.53735
374.48	4.21753
377.855	5.14191
381.23	5.99478
384.605	7.56758
387.979	8.3813
391.354	9.20381
394.729	11.0254
398.104	13.1885
401.479	14.3258
404.853	14.5343
408.228	14.1067
411.603	12.1849
414.978	10.416
418.353	8.56902
421.728	7.64357
425.102	6.16513
428.477	7.2776
431.852	7.56549
435.227	7.95372
438.602	9.43816
441.976	9.56232
445.351	9.20593
448.726	8.55588
452.101	8.1438
455.476	7.02995
458.851	7.18497
462.225	6.42041
465.6	4.96838
468.975	5.33456
472.35	5.5914
475.725	5.78406
479.099	4.0132
482.474	3.48459
485.849	1.90729
489.224	1.24701
492.599	0.783813
495.974	0.176926
499.348	0.239334
502.723	0.637604
506.098	0.445648
509.473	0.022034
512.848	0.082199
516.222	0.014206
519.597	0.770798
522.972	1.72954
526.347	1.62936
529.722	2.77322
533.097	2.84061
536.471	4.52179
539.846	5.25287
543.221	6.17923
546.596	7.38968
549.971	8.57864
553.346	10.4883
556.72	11.3064
560.095	11.9766
563.47	11.2444
566.845	9.0202
570.22	7.80731
573.594	5.26689
576.969	3.8365
580.344	1.73296
583.719	2.51086
587.094	1.54216
590.468	1.90826
593.843	1.88734
597.218	1.89824
600.593	1.58374
603.968	1.94832
607.342	2.34522
610.717	2.38829
614.092	2.91479
617.467	1.771
620.842	1.66373
624.217	1.05843
627.591	1.01704
630.966	0.95546
634.341	0.171387
637.716	0.255219
641.091	0.070877
644.466	0.023071
647.84	0.210007
651.215	0.404495
654.59	0.228058
657.965	0.164474
661.34	0.849487
664.714	1.22186
668.089	1.79147
671.464	2.8446
674.839	4.04898
678.214	6.66953
681.588	8.97313
684.963	12.5026
688.338	18.0337
691.713	26.586
695.088	37.8428
698.462	52.5997
701.837	74.0557
705.212	96.1085
708.587	115.434
711.962	111.23
715.337	78.2363
718.711	45.8175
722.086	26.2385
725.461	16.5629
728.836	9.72539
732.211	6.56445
735.586	4.65976
738.96	3.89032
742.335	4.82916
745.71	4.53992
749.085	4.89055
752.46	4.96727
755.834	4.34366
759.209	3.3699
762.584	3.19443
765.959	2.76508
769.334	1.54178
772.708	1.25615
776.083	1.40079
779.458	1.44827
782.833	2.56885
786.208	2.10185
789.582	2.03185
792.957	1.08966
796.332	1.00531
799.707	0.713547
803.082	0.902115
806.457	0.207062
809.831	0.0672
813.206	0.237076
816.581	0.233322
819.956	0.411575
823.331	0.538193
826.706	0.214417
830.08	0.135605
833.455	0.095337
836.83	0.133484
840.205	0.337311
843.58	1.08067
846.954	0.762695
850.329	0.380524
853.704	0.610504
857.079	0.852142
860.454	1.35654
863.828	0.898453
867.203	1.40491
870.578	1.28555
873.953	0.912567
877.328	0.440186
880.703	0.132339
884.077	0.809418
887.452	0.743057
890.827	0.141663
894.202	0.92218
897.577	1.14711
900.952	1.93829
904.326	2.06053
907.701	2.55069
911.076	2.7476
914.451	2.44119
917.826	2.47089
921.2	1.92281
924.575	1.21442
927.95	1.22592
931.325	0.915329
934.7	0.104752
938.074	0.071503
941.449	1.05937
944.824	1.33446
948.199	0.472702
951.574	1.03883
954.948	1.30234
958.323	1.01269
961.698	0.265717
965.073	0.597717
968.448	0.893906
971.823	1.6541
975.197	0.136154
978.572	0.578369
981.947	0.922714
985.322	0.193649
988.697	0.742493
992.072	0.603775
995.446	0.548904
998.821	0.684509
1002.2	0.382278
1005.57	0.197067
1008.95	0.124405
1012.32	0.473175
1015.7	0.237396
1019.07	0.082596
1022.45	0.288773
1025.82	0.36586
1029.19	0.613907
1032.57	0.396973
1035.94	0.158279
1039.32	0.14415
1042.69	0.774261
1046.07	0.197037
1049.44	0.601791
1052.82	0.87323
1056.19	0.884613
1059.57	1.63507
1062.94	1.31142
1066.32	1.72777
1069.69	2.61733
1073.07	4.31274
1076.44	4.45458
1079.82	5.36893
1083.19	5.72484
1086.57	6.46051
1089.94	6.68105
1093.32	7.06847
1096.69	7.04524
1100.07	6.23331
1103.44	6.00263
1106.82	5.2106
1110.19	5.86073
1113.57	5.7776
1116.94	5.83951
1120.31	5.7332
1123.69	5.62765
1127.06	3.62637
1130.44	3.91989
1133.81	2.97217
1137.19	2.37851
1140.56	1.4874
1143.94	2.19041
1147.31	1.09381
1150.69	1.5798
1154.06	0.374954
1157.44	0.523972
1160.81	0.454224
1164.19	0.074448
1167.56	0.393097
1170.94	0.040192
1174.31	0.191467
1177.69	0.094681
1181.06	0.265411
1184.44	0.404327
1187.81	0.2686
1191.19	0.28595
1194.56	0.469193
1197.93	0.787094
1201.31	0.011505
1204.68	0.673843
1208.06	0.92276
1211.43	0.088623
1214.81	0.366135
1218.18	1.70233
1221.56	1.12566
1224.93	1.25024
1228.31	0.560593
1231.68	0.993378
1235.06	0.756622
1238.43	0.043961
1241.81	0.178207
1245.18	1.3176
1248.56	1.43846
1251.93	1.1931
1255.31	1.42688
1258.68	1.21889
1262.06	0.389954
1265.43	1.74092
1268.81	0.60498
1272.18	1.11453
1275.56	0.012848
1278.93	0.967957
1282.31	0.714569
1285.68	0.081924
1289.06	0.897034
1292.43	0.061676
1295.81	0.433151
1299.18	0.313431
1302.56	0.451614
