Measurement: Raman, 780 nm, unoriented, Raman Data Processed
Mineral: Trilithionite
Rruff sample: R040105
Ideal chemistry: KLi_1.5_Al_1.5_(Si_3_Al)O_10_F_2_
Locality: Brown Derby mine, Ohio City, Gunnison County, Colorado, USA
Source: University of Arizona Mineral Museum
Description: Purple hexagonal tablet
Measured chemistry: (K_0.82_Li_0.14_Na_0.04_)(Li_0.53_Al_0.42_Mn_0.05_)_3_(Si_0.84_Al_0.17_)_4_O_10_((OH)_0.59_F_0.41_)_2_
Raman shift (cm-1)	intensity
132.059	0
134.951	7.88623
137.844	22.2774
140.737	40.562
143.629	9.20746
146.522	33.1143
149.415	25.5406
152.307	1.34973
155.2	19.6119
158.093	21.7021
160.986	5.89471
163.878	12.7639
166.771	29.4961
169.664	53.2085
172.556	118.703
175.449	121.537
178.342	181.017
181.234	175.97
184.127	150.023
187.02	121.588
189.912	88.9529
192.805	32.0704
195.698	43.7875
198.591	25.1255
201.483	2.48206
204.376	10.8345
207.269	11.2191
210.161	12.5589
213.054	1.81128
215.947	19.9451
218.839	14.7751
221.732	29.4263
224.625	2.49744
227.518	50.8367
230.41	60.3846
233.303	90.5266
236.196	142.889
239.088	184.147
241.981	215.459
244.874	278.858
247.767	360.317
250.659	411.187
253.552	494.005
256.445	536.154
259.337	616.497
262.23	631.526
265.123	607.111
268.015	511.173
270.908	402.3
273.801	269.569
276.693	202.495
279.586	171.745
282.479	131.151
285.372	99.682
288.264	92.5334
291.157	73.1712
294.05	75.1111
296.942	80.5667
299.835	83.2303
302.728	64.9523
305.62	72.1149
308.513	83.6807
311.406	44.0817
314.299	59.0812
317.191	22.7086
320.084	33.663
322.977	0.319397
325.869	20.6446
328.762	12.2336
331.655	18.2585
334.548	9.77228
337.44	24.9396
340.333	11.5619
343.226	7.94543
346.118	3.36047
349.011	10.715
351.904	5.76367
354.796	13.2552
357.689	21.8831
360.582	24.3385
363.474	37.9813
366.367	41.6315
369.26	40.3864
372.153	44.0194
375.045	78.5063
377.938	77.126
380.831	100.029
383.723	110.775
386.616	119.432
389.509	127.917
392.401	137.709
395.294	160.158
398.187	169.059
401.08	228.138
403.972	215.839
406.865	225.599
409.758	208.465
412.65	159.886
415.543	144.749
418.436	122.248
421.329	100.022
424.221	84.9618
427.114	87.9084
430.007	85.9054
432.899	88.5429
435.792	114.74
438.685	92.4099
441.577	110.988
444.47	111.972
447.363	108.414
450.255	90.9876
453.148	97.4124
456.041	107.56
458.934	98.5831
461.826	77.7096
464.719	101.147
467.612	88.5472
470.504	109.068
473.397	93.7697
476.29	111.566
479.182	92.3405
482.075	91.1724
484.968	55.0034
487.861	48.5084
490.753	19.3082
493.646	25.2443
496.539	22.2665
499.431	2.4407
502.324	8.20837
505.217	26.075
508.109	7.49789
511.002	19.8237
513.895	9.87436
516.788	10.7776
519.68	12.683
522.573	10.5035
525.466	37.8745
528.358	58.7491
531.251	40.3839
534.144	73.8666
537.036	72.8683
539.929	95.3962
542.822	91.6484
545.715	115.024
548.607	141.028
551.5	145.113
554.393	167.252
557.285	195.09
560.178	211.836
563.071	201.658
565.963	173.212
568.856	142.846
571.749	129.026
574.641	84.4412
577.534	64.716
580.427	60.2736
583.32	45.4084
586.212	31.3141
589.105	22.8055
591.998	42.7406
594.89	30.4944
597.783	31.8986
600.676	34.3487
603.568	33.973
606.461	28.0086
609.354	45.0674
612.247	33.673
615.139	43.3232
618.032	29.6417
620.925	21.2317
623.817	20.1509
626.71	15.5744
629.603	8.44769
632.495	1.97922
635.388	5.13644
638.281	11.5601
641.174	5.15595
644.066	2.60516
646.959	6.25299
649.852	4.01755
652.744	6.53381
655.637	20.0501
658.53	22.5974
661.423	20.4382
664.315	38.7698
667.208	50.4958
670.101	67.7317
672.993	93.8279
675.886	94.4872
678.779	135.607
681.671	169.833
684.564	230.708
687.457	291.593
690.35	415.805
693.242	551.095
696.135	738.835
699.028	1009.58
701.92	1306.44
704.813	1651.86
707.706	1884.8
710.598	1757.13
713.491	1371.46
716.384	931.279
719.277	589.095
722.169	410.445
725.062	265.594
727.955	176.25
730.847	132.676
733.74	96.555
736.633	63.559
739.525	57.1311
742.418	54.0633
745.311	38.6489
748.204	57.4239
751.096	47.4141
753.989	61.8589
756.882	35.0699
759.774	41.0394
762.667	27.3822
765.56	23.0584
768.452	24.5716
771.345	24.8798
774.238	18.5447
777.131	21.2281
780.023	30.0721
782.916	38.3628
785.809	19.3344
788.701	13.8167
791.594	16.1875
794.487	13.7566
797.38	12.2661
800.272	8.14421
803.165	2.86467
806.058	8.42038
808.95	2.60582
811.843	6.01643
814.736	9.83084
817.628	0.26947
820.521	8.09857
823.414	2.72801
826.307	5.94275
829.199	8.60919
832.092	9.22736
834.985	4.24115
837.877	4.39513
840.77	14.9552
843.663	13.3256
846.555	18.471
849.448	17.3274
852.341	13.9115
855.233	14.2976
858.126	15.9771
861.019	21.0215
863.912	16.8045
866.804	15.4024
869.697	11.2084
872.59	6.24857
875.482	8.16452
878.375	13.862
881.268	0.543472
884.16	16.0312
887.053	14.9651
889.946	13.4265
892.838	13.9866
895.731	13.1575
898.624	2.52535
901.517	4.33366
904.409	17.5795
907.302	28.1422
910.195	18.3861
913.087	30.7466
915.98	26.299
918.873	28.8388
921.765	21.2761
924.658	22.8331
927.551	24.3391
930.444	6.91966
933.336	24.8264
936.229	13.2846
939.122	17.2222
942.014	21.2589
944.907	14.7217
947.8	6.51193
950.692	5.94751
953.585	11.8125
956.478	2.54555
959.371	5.04297
962.263	12.9216
965.156	10.0193
968.049	3.33958
970.941	0.190399
973.834	6.36252
976.727	6.46277
979.62	4.11862
982.512	1.57152
985.405	3.87094
988.298	2.37553
991.19	10.6715
994.083	2.05276
996.976	15.3961
999.868	4.08458
1002.76	6.52722
1005.65	18.5326
1008.55	16.8197
1011.44	12.7521
1014.33	8.68602
1017.23	4.56757
1020.12	17.151
1023.01	7.61205
1025.9	1.64612
1028.8	4.69449
1031.69	7.21382
1034.58	4.69804
1037.47	5.92679
1040.37	1.86374
1043.26	3.85539
1046.15	2.29741
1049.04	8.78915
1051.94	17.7414
1054.83	30.2725
1057.72	23.7382
1060.62	26.0576
1063.51	29.0654
1066.4	32.5153
1069.29	51.1845
1072.19	58.45
1075.08	83.4867
1077.97	75.702
1080.86	74.5642
1083.76	73.556
1086.65	76.9422
1089.54	84.1071
1092.43	67.6233
1095.33	92.409
1098.22	77.2541
1101.11	89.5245
1104.01	79.21
1106.9	62.6676
1109.79	70.054
1112.68	78.9341
1115.58	73.4281
1118.47	60.0645
1121.36	59.1261
1124.26	49.8145
1127.15	44.9281
1130.04	49.6072
1132.93	41.5904
1135.83	27.9703
1138.72	28.0248
1141.61	23.9182
1144.5	23.9651
1147.4	6.34274
1150.29	2.63107
1153.18	0.624405
1156.07	2.37305
1158.97	2.83728
1161.86	7.63173
1164.75	3.64783
1167.64	11.5062
1170.54	3.7464
1173.43	11.5603
1176.32	3.19951
1179.22	0.357346
1182.11	11.4742
1185	5.76572
1187.89	3.64008
1190.79	5.40372
1193.68	11.0739
1196.57	6.0273
1199.46	14.4921
1202.36	9.81317
1205.25	6.3992
1208.14	17.7565
1211.04	13.1901
1213.93	8.17073
1216.82	8.21745
1219.71	8.45769
1222.61	14.4877
1225.5	7.78589
1228.39	12.2242
1231.28	6.14287
1234.18	8.45119
1237.07	0
