Measurement: Raman, 780 nm, unoriented, Raman Data Processed
Mineral: Trilithionite
Rruff sample: R060004
Ideal chemistry: KLi_1.5_Al_1.5_(Si_3_Al)O_10_F_2_
Locality: Mount Begbie, Revelstoke, British Columbia, Canada
Source: Bob Downs
Description: Aggregate of coarse purple crystals associated with elbaite, R060003
Measured chemistry: (K_0.99_[box]_0.01_)(Li_0.56_Al_0.43_Mn_0.01_)_3_(Si_0.85_Al_0.15_)_4_O_10_(F_0.54_(OH)_0.46_)_2_
Raman shift (cm-1)	intensity
112.831	0
116.205	0.290565
119.58	0.293694
122.955	1.14215
126.33	0.746803
129.705	1.3269
133.079	1.32576
136.454	0.452019
139.829	0.564602
143.204	0.17234
146.579	0.097561
149.953	0.210114
153.328	0.11216
156.703	0.326717
160.078	0.935699
163.453	3.34016
166.828	6.10384
170.202	9.09623
173.577	11.9204
176.952	15.8398
180.327	17.2669
183.702	14.8509
187.077	9.87352
190.451	6.63588
193.826	4.82096
197.201	3.66135
200.576	2.74203
203.951	1.27696
207.325	0.218143
210.7	0.475441
214.075	0.897793
217.45	0.650646
220.825	0.34586
224.199	0.003399
227.574	1.87555
230.949	4.14207
234.324	7.03455
237.699	10.2864
241.073	14.4281
244.448	19.2284
247.823	24.1306
251.198	28.3439
254.573	33.2631
257.948	40.1702
261.322	45.8125
264.697	43.3045
268.072	31.4994
271.447	20.4273
274.822	12.6189
278.197	8.70943
281.571	6.19274
284.946	5.00415
288.321	4.88279
291.696	4.81789
295.071	4.96701
298.445	4.63048
301.82	4.40608
305.195	4.18522
308.57	3.18844
311.945	2.34693
315.32	2.52261
318.694	1.99277
322.069	1.67432
325.444	1.57431
328.819	0.965305
332.194	0.536667
335.568	0.093662
338.943	0.31102
342.318	0.396118
345.693	0.41119
349.068	0.535095
352.442	0.196091
355.817	0.394058
359.192	0.823334
362.567	1.44984
365.942	2.49869
369.317	3.61264
372.691	5.04689
376.066	6.53928
379.441	7.65397
382.816	9.45454
386.191	10.5799
389.565	12.2038
392.94	14.3073
396.315	16.4543
399.69	18.1567
403.065	19.333
406.44	19.4157
409.814	18.149
413.189	15.4314
416.564	12.9202
419.939	10.4747
423.314	8.81097
426.688	8.09226
430.063	8.28239
433.438	9.18298
436.813	10.012
440.188	11.0489
443.562	11.1386
446.937	10.9971
450.312	10.6779
453.687	9.92361
457.062	9.39745
460.437	8.63294
463.811	8.02828
467.186	7.22679
470.561	7.73285
473.936	7.74728
477.311	7.2017
480.685	5.14474
484.06	3.53978
487.435	1.88888
490.81	1.13826
494.185	0.386187
497.56	0.426521
500.934	0.355276
504.309	0.386189
507.684	0.183773
511.059	0.164398
514.434	0.53998
517.808	0.950396
521.183	1.49139
524.558	2.24882
527.933	2.74541
531.308	3.36157
534.683	4.08974
538.057	5.66823
541.432	7.06863
544.807	8.20133
548.182	9.82845
551.557	11.688
554.932	13.1763
558.306	14.5128
561.681	14.3325
565.056	13.4606
568.431	10.8245
571.806	8.08802
575.18	5.77619
578.555	3.4654
581.93	2.38352
585.305	1.45739
588.68	1.57564
592.054	1.94168
595.429	1.98253
598.804	1.96159
602.179	2.30465
605.554	2.80977
608.928	2.87888
612.303	3.28268
615.678	3.03749
619.053	2.66464
622.428	2.02366
625.803	1.59588
629.177	1.40622
632.552	1.11528
635.927	0.513704
639.302	0.141422
642.677	0.43257
646.052	0.789764
649.426	0.617723
652.801	0.171686
656.176	0.473866
659.551	1.16577
662.926	1.64609
666.3	2.26274
669.675	3.2738
673.05	4.53864
676.425	6.78148
679.8	9.33626
683.174	12.9456
686.549	18.7055
689.924	26.3695
693.299	37.4877
696.674	52.3975
700.048	70.2532
703.423	92.7015
706.798	119.5
710.173	135.245
713.548	113.832
716.923	72.7454
720.297	42.368
723.672	24.9598
727.047	15.6673
730.422	10.0743
733.797	7.00402
737.172	5.72411
740.546	5.39744
743.921	5.65644
747.296	5.7736
750.671	6.03152
754.046	5.56916
757.42	4.27699
760.795	3.81359
764.17	2.63732
767.545	1.90196
770.92	1.24993
774.294	1.23563
777.669	1.6361
781.044	2.16851
784.419	2.35866
787.794	2.31443
791.169	2.39657
794.543	1.7677
797.918	1.02959
801.293	0.45359
804.668	0.298634
808.043	0.124438
811.418	0.034431
814.792	0.254001
818.167	0.433666
821.542	0.24837
824.917	0.296354
828.292	0.174823
831.666	0.121579
835.041	0.215494
838.416	0.570232
841.791	0.481078
845.166	0.684072
848.54	0.664967
851.915	0.978195
855.29	0.927664
858.665	0.907323
862.04	0.88937
865.415	0.99684
868.789	0.800331
872.164	1.02801
875.539	0.72505
878.914	0.582994
882.289	0.49438
885.663	0.507989
889.038	0.248459
892.413	0.514558
895.788	0.737132
899.163	0.862208
902.538	1.12207
905.912	1.65149
909.287	1.83716
912.662	2.13795
916.037	1.88592
919.412	1.82064
922.786	1.3073
926.161	1.26286
929.536	1.0996
932.911	0.886261
936.286	0.80877
939.66	1.08503
943.035	0.856977
946.41	1.15183
949.785	1.01547
953.16	1.17121
956.534	1.15837
959.909	0.938298
963.284	0.568871
966.659	0.425617
970.034	0.287955
973.409	0.300532
976.783	0.171899
980.158	0.164598
983.533	0.067643
986.908	0.154798
990.283	0.196153
993.658	0.320573
997.032	0.378394
1000.41	0.421005
1003.78	0.182921
1007.16	0.259288
1010.53	0.040808
1013.91	0.285697
1017.28	0.144407
1020.66	0.387136
1024.03	0.444578
1027.41	0.007652
1030.78	0.071489
1034.15	0.054996
1037.53	0.237782
1040.9	0.060557
1044.28	0.091252
1047.65	0.552237
1051.03	0.753678
1054.4	1.04713
1057.78	1.45043
1061.15	1.85612
1064.53	2.46565
1067.9	2.63172
1071.28	3.39706
1074.65	3.9811
1078.03	4.65085
1081.4	4.89234
1084.78	5.32922
1088.15	5.70448
1091.53	6.09643
1094.9	6.1095
1098.28	5.86271
1101.65	5.63489
1105.03	5.47899
1108.4	5.64295
1111.78	5.38216
1115.15	5.13856
1118.53	5.26347
1121.9	4.9368
1125.28	4.13103
1128.65	3.46909
1132.03	2.8214
1135.4	2.02949
1138.78	1.56067
1142.15	1.08425
1145.52	0.780612
1148.9	0.488531
1152.27	0.330426
1155.65	0.338232
1159.02	0.177323
1162.4	0.134454
1165.77	0.026037
1169.15	0.018633
1172.52	0.048387
1175.9	0.012364
1179.27	0.14497
1182.65	0.036827
1186.02	0.037269
1189.4	0.222878
1192.77	0.002264
1196.15	0.046052
1199.52	0.154962
1202.9	0.2253
1206.27	0.265703
1209.65	0.285026
1213.02	0.224451
1216.39	0.200218
1219.77	0.219642
1223.14	0.337619
1226.52	0.28198
1229.89	0.225471
1233.27	0.365098
1236.64	0.314488
1240.02	0.093468
1243.39	0.26328
1246.77	0.014629
1250.14	0.1775
1253.52	0.232491
1256.89	0.175206
1260.27	0.058784
1263.64	0.116098
1267.02	0.19621
1270.39	0.255868
1273.77	0.119853
1277.14	0.032889
1280.52	0.143271
1283.89	0.092043
1287.27	0.060936
