Measurement: Raman, 785 nm, unoriented, Raman Data Processed
Mineral: Trilithionite
Rruff sample: R040101
Ideal chemistry: KLi_1.5_Al_1.5_(Si_3_Al)O_10_F_2_
Locality: Zambezi Region, Mozambique
Source: University of Arizona Mineral Museum
Description: Aggregate of purple hexagonal plates, polytype is 2M1
Measured chemistry: (K_0.84_Li_0.13_Na_0.02_)(Li_0.54_Al_0.44_Mn_0.02_)_3_(Si_0.82_Al_0.18_)_4_O_10_F_2.00_
Raman shift (cm-1)	intensity
152.003	0
154.895	42.0264
157.788	9.64844
160.681	3.42139
163.573	3.77734
166.466	22.2354
169.359	60.8455
172.252	160.598
175.144	264.625
178.037	396.125
180.93	415.245
183.822	432.86
186.715	368.976
189.608	325.311
192.5	559.206
195.393	860.138
198.286	929.022
201.179	866.629
204.071	727.265
206.964	659.712
209.857	832.019
212.749	986.595
215.642	976.614
218.535	627.344
221.428	312.021
224.32	103.547
227.213	9.26086
230.106	27.2378
232.998	6.79944
235.891	6.02808
238.784	93.3704
241.676	218.808
244.569	356.023
247.462	620.683
250.355	1109.53
253.247	1888.74
256.14	3188.66
259.033	4782.75
261.925	5821.95
264.818	5550.77
267.711	3992.38
270.603	2614.77
273.496	1628.88
276.389	1082.42
279.281	785.457
282.174	565.327
285.067	438.241
287.96	307.454
290.852	271.332
293.745	193.316
296.638	153.386
299.53	153.381
302.423	134.742
305.316	112.413
308.209	103.938
311.101	99.0834
313.994	87.9554
316.887	79.8448
319.779	68.9083
322.672	31.6692
325.565	55.0587
328.457	45.0232
331.35	5.24548
334.243	7.60828
337.135	11.0502
340.028	5.78735
342.921	13.8641
345.813	21.5829
348.706	21.988
351.599	36.7492
354.492	89.4391
357.384	140.655
360.277	198.162
363.17	244.088
366.062	335.646
368.955	459.913
371.848	611.649
374.74	724.347
377.633	864.423
380.526	897.981
383.419	947.93
386.311	1004.3
389.204	1057.77
392.097	1205.08
394.989	1380.85
397.882	1521.16
400.775	1642.43
403.668	1650.48
406.56	1578.95
409.453	1411.76
412.346	1159.19
415.238	1035.72
418.131	853.95
421.024	671.627
423.916	586.562
426.809	463.186
429.702	406.235
432.594	348.197
435.487	239.226
438.38	190.873
441.273	151.897
444.165	82.394
447.058	28.7506
449.951	7.47949
452.843	4.60583
455.736	11.0531
458.629	4.60339
461.522	6.25806
464.414	12.6002
467.307	25.7277
470.2	29.4484
473.092	42.452
475.985	74.2059
478.878	86.2575
481.77	82.3826
484.663	52.7602
487.556	50.4016
490.449	4.27002
493.341	28.3135
496.234	43.2139
499.127	22.4695
502.019	21.3568
504.912	0.314331
507.805	16.5414
510.697	19.4717
513.59	9.17023
516.483	2.33142
519.375	19.5456
522.268	18.527
525.161	30.4756
528.054	34.8348
530.946	23.8814
533.839	31.0765
536.732	90.4555
539.624	75.5778
542.517	95.0795
545.41	131.319
548.303	116.141
551.195	130.407
554.088	162.808
556.981	140.821
559.873	154.438
562.766	142.827
565.659	128.973
568.551	76.8365
571.444	92.5066
574.337	81.1891
577.23	68.5805
580.122	48.0146
583.015	22.9846
585.908	43.8691
588.8	8.55084
591.693	10.7892
594.586	18.3788
597.478	3.63635
600.371	12.2311
603.264	25.0939
606.156	67.7278
609.049	74.3831
611.942	88.0808
614.835	138.859
617.727	191.194
620.62	244.689
623.513	312.701
626.405	381.748
629.298	414
632.191	410.461
635.083	383.094
637.976	360.701
640.869	317.078
643.761	244.845
646.654	160.215
649.547	86.3955
652.44	47.0787
655.332	0.87793
658.225	0.473877
661.118	15.6298
664.01	9.56067
666.903	5.90979
669.796	16.1211
672.688	59.756
675.581	90.8784
678.474	170.598
681.367	277.704
684.259	410.787
687.152	617.801
690.045	858.153
692.937	1099.82
695.83	1517.26
698.723	1871.66
701.615	2047.24
704.508	2045.4
707.401	1855.63
710.294	1588.34
713.186	1269.13
716.079	898.014
718.972	563.499
721.864	295.549
724.757	190.133
727.65	156.128
730.543	120.718
733.435	129.899
736.328	159.975
739.221	226.664
742.113	333.428
745.006	431.332
747.899	501.478
750.791	531.681
753.684	515.583
756.577	434.758
759.47	400.925
762.362	312.456
765.255	233.716
768.148	165.512
771.04	136.257
773.933	72.193
776.826	53.4132
779.718	39.6013
782.611	38.1097
785.504	15.141
788.396	17.6615
791.289	31.3162
794.182	33.4579
797.075	11.1592
799.967	12.4576
802.86	3.36231
805.753	4.91425
808.645	7.99115
811.538	9.87836
814.431	2.37836
817.323	0.476013
820.216	13.082
823.109	14.5215
826.002	12.8719
828.894	7.8753
831.787	5.51648
834.68	16.0792
837.572	0.916443
840.465	12.1349
843.358	18.9837
846.25	33.2267
849.143	20.7682
852.036	0.346985
854.929	9.46045
857.821	16.8463
860.714	7.48334
863.607	6.66162
866.499	28.725
869.392	20.0852
872.285	23.983
875.177	10.8959
878.07	34.6746
880.963	33.8347
883.856	48.7242
886.748	40.7621
889.641	72.1367
892.534	85.6056
895.426	125.326
898.319	172.798
901.212	217.984
904.104	299.28
906.997	355.132
909.89	409.029
912.783	437.672
915.675	382.189
918.568	347.967
921.461	259.658
924.353	207.887
927.246	184.844
930.139	147.687
933.031	133.838
935.924	137.877
938.817	157.345
941.71	196.985
944.602	216.381
947.495	227.073
950.388	260.117
953.28	304.314
956.173	312.803
959.066	252.806
961.958	209.858
964.851	155.082
967.744	124.997
970.636	71.0268
973.529	34.9424
976.422	20.6591
979.315	16.2086
982.207	6.35327
985.1	16.4066
987.993	4.97607
990.885	15.1691
993.778	14.9017
996.671	6.93652
999.563	12.3054
1002.46	0.830688
1005.35	19.2156
1008.24	31.4884
1011.13	48.2901
1014.03	47.2408
1016.92	58.5319
1019.81	42.8401
1022.71	3.20026
1025.6	20.8018
1028.49	12.6465
1031.38	3.83765
1034.28	15.6916
1037.17	18.3902
1040.06	5.77423
1042.95	0.419678
1045.85	19.7733
1048.74	10.6654
1051.63	30.9968
1054.53	40.1265
1057.42	67.4731
1060.31	30.7715
1063.2	16.5081
1066.1	42.48
1068.99	38.5059
1071.88	44.9321
1074.77	47.8727
1077.67	68.8259
1080.56	47.3873
1083.45	58.4239
1086.34	79.8314
1089.24	82.3718
1092.13	113.604
1095.02	120.077
1097.91	136.539
1100.81	157.837
1103.7	181.939
1106.59	204.272
1109.49	238.875
1112.38	261.005
1115.27	274.219
1118.16	233.898
1121.06	202.015
1123.95	199.758
1126.84	146.646
1129.73	132.373
1132.63	119.666
1135.52	72.8583
1138.41	65.9377
1141.31	61.3725
1144.2	26.4253
1147.09	19.8313
1149.98	0.047668
1152.88	2.98615
1155.77	11.8151
1158.66	1.9931
1161.56	9.44574
1164.45	8.21484
1167.34	11.4846
1170.23	3.91095
1173.12	0.765991
1176.02	2.78717
1178.91	12.3654
1181.8	13.2071
1184.7	11.0039
1187.59	6.20764
1190.48	11.9023
1193.37	11.3651
1196.27	29.1635
1199.16	39.0081
1202.05	20.4019
1204.94	16.7766
1207.84	16.0051
1210.73	22.0483
1213.62	25.6694
1216.52	21.9126
1219.41	31.6119
1222.3	33.4181
1225.19	9.25665
1228.09	1.51593
1230.98	49.0135
1233.87	19.9092
1236.77	7.1651
1239.66	5.00024
1242.55	8.51361
1245.44	34.6215
1248.34	28.4656
1251.23	32.9563
1254.12	30.8209
1257.01	45.2259
1259.91	21.703
1262.8	17.3812
1265.69	30.0233
1268.58	21.9517
