Measurement: Raman, 780 nm, unoriented, Raman Data Processed
Mineral: Triplite
Rruff sample: R050226
Ideal chemistry: Mn^2+^_2_(PO_4_)F
Locality: Fremont County, Colorado, USA
Source: Marcus Origlieri
Description: Reddish brown massive
Measured chemistry: (Mn^2+^_1.20_Mg_0.49_Fe^2+^_0.27_Ca_0.04_)_Σ=2_(P_1.00_O_4_)(F_0.95_(OH)_0.05_)_Σ=1_
Raman shift (cm-1)	intensity
127.548	0
130.923	0.61261
134.298	0.000366
137.673	3.63995
141.047	3.72235
144.422	4.10178
147.797	5.17238
151.172	5.02991
154.547	5.40929
157.921	6.21382
161.296	5.54697
164.671	4.00934
168.046	4.62643
171.421	3.31024
174.796	0.716751
178.17	1.60927
181.545	0.35022
184.92	0.433136
188.295	0.493607
191.669	0.601822
195.044	0.051285
198.419	2.22524
201.794	5.59853
205.169	7.22536
208.544	10.2045
211.918	12.8497
215.293	14.0543
218.668	15.1472
222.043	14.4463
225.418	10.7812
228.792	8.79738
232.167	6.19844
235.542	7.66007
238.917	8.8815
242.292	7.45874
245.667	8.13632
249.041	7.93843
252.416	8.92873
255.791	10.4228
259.166	12.3984
262.541	14.3349
265.916	16.2522
269.29	19.5795
272.665	23.9874
276.04	27.6971
279.415	30.9276
282.79	33.1807
286.164	32.1794
289.539	32.9722
292.914	29.7839
296.289	23.905
299.664	16.7284
303.038	12.5796
306.413	7.44966
309.788	5.11502
313.163	3.33452
316.538	3.00667
319.913	0.688538
323.287	0.526703
326.662	0.661819
330.037	0.197342
333.412	0.033569
336.787	0.229446
340.161	0.644684
343.536	0.487762
346.911	0.383057
350.286	0.204254
353.661	1.85324
357.036	0.942108
360.41	3.59097
363.785	5.14392
367.16	4.94942
370.535	8.00061
373.91	8.89931
377.284	11.2052
380.659	12.2037
384.034	14.8381
387.409	14.8934
390.784	18.8913
394.159	19.6541
397.533	21.9611
400.908	22.2079
404.283	22.2021
407.658	21.1293
411.033	17.0744
414.407	15.2363
417.782	13.1718
421.157	13.5055
424.532	13.0597
427.907	12.2516
431.281	10.9752
434.656	11.3094
438.031	11.02
441.406	10.3745
444.781	11.1552
448.156	12.4773
451.53	11.484
454.905	10.2331
458.28	8.27734
461.655	5.11885
465.03	2.836
468.404	2.58688
471.779	1.42688
475.154	0.418228
478.529	0.652664
481.904	1.10261
485.279	0.308777
488.653	0.5383
492.028	0.534286
495.403	0.572495
498.778	0.923813
502.153	0.387848
505.527	1.06161
508.902	0.457993
512.277	0.176941
515.652	0.943665
519.027	0.169281
522.402	1.99069
525.776	0.291168
529.151	1.16283
532.526	2.0141
535.901	1.90706
539.276	1.74422
542.65	3.10821
546.025	3.16634
549.4	2.76356
552.775	3.47378
556.15	2.9715
559.524	2.89546
562.899	2.18529
566.274	2.89143
569.649	4.05771
573.024	5.50243
576.399	7.9351
579.773	10.4254
583.148	14.491
586.523	19.105
589.898	22.9716
593.273	27.558
596.648	28.7812
600.022	31.9087
603.397	32.7482
606.772	30.4641
610.147	28.8465
613.521	26.1314
616.896	23.6316
620.271	21.9569
623.646	22.0666
627.021	19.1863
630.396	18.5827
633.77	19.0102
637.145	17.3268
640.52	17.7917
643.895	17.4593
647.27	15.5534
650.644	14.8779
654.019	13.3314
657.394	10.7102
660.769	8.02544
664.144	6.7467
667.519	4.68558
670.893	3.4396
674.268	2.72081
677.643	2.36144
681.018	1.96464
684.393	0.709442
687.768	1.0341
691.142	0.439461
694.517	0.392288
697.892	0.573639
701.267	0.205811
704.642	0.419174
708.016	0.217049
711.391	0.386261
714.766	1.04366
718.141	1.34112
721.516	0.669998
724.89	0.069839
728.265	0.259956
731.64	0.912621
735.015	0.695152
738.39	0.355522
741.765	0.678467
745.139	1.44151
748.514	0.962357
751.889	1.72639
755.264	2.1888
758.639	2.17242
762.014	3.16747
765.388	3.20378
768.763	3.77597
772.138	3.68404
775.513	4.3373
778.888	4.23732
782.262	3.73808
785.637	5.15936
789.012	4.90249
792.387	4.5481
795.762	5.45782
799.136	5.19727
802.511	5.5168
805.886	5.34397
809.261	5.10261
812.636	5.66387
816.011	3.4024
819.385	2.7953
822.76	3.05208
826.135	3.44465
829.51	3.23948
832.885	3.09227
836.26	2.45357
839.634	2.75188
843.009	2.36753
846.384	2.35009
849.759	2.96397
853.134	2.74107
856.508	3.39412
859.883	2.48168
863.258	2.46307
866.633	2.08243
870.008	2.05691
873.382	1.49049
876.757	1.2553
880.132	1.04292
883.507	0.375488
886.882	1.42883
890.256	0.498672
893.631	0.73996
897.006	0.80349
900.381	0.004799
903.756	0.847847
907.131	0.155289
910.505	0.408783
913.88	0.092453
917.255	0.859833
920.63	0.347092
924.005	0.613289
927.38	0.526337
930.754	1.70936
934.129	3.59215
937.504	6.06146
940.879	10.4409
944.254	14.7917
947.628	20.138
951.003	22.7108
954.378	23.3292
957.753	22.5105
961.128	24.9415
964.502	36.563
967.877	54.2668
971.252	77.3657
974.627	97.0613
978.002	107.39
981.376	103.24
984.751	78.921
988.126	45.6956
991.501	22.2914
994.876	11.0132
998.251	6.68288
1001.62	3.96694
1005	2.70606
1008.38	2.95737
1011.75	1.3958
1015.12	2.23533
1018.5	2.83986
1021.87	3.24879
1025.25	3.91277
1028.62	4.35851
1032	4.79116
1035.37	4.43084
1038.75	3.56311
1042.12	2.96834
1045.5	3.43667
1048.87	1.85169
1052.25	1.46475
1055.62	0.759827
1059	0.860382
1062.37	1.11834
1065.75	0.808327
1069.12	1.38524
1072.5	1.08078
1075.87	0.997742
1079.25	1.56066
1082.62	0.947548
1086	0.750793
1089.37	0.178162
1092.74	0.351913
1096.12	0.359329
1099.49	0.014423
1102.87	0.295544
1106.24	0.046906
1109.62	0.049236
1112.99	0.736191
1116.37	1.478
1119.74	1.94475
1123.12	2.70401
1126.49	2.74529
1129.87	3.59963
1133.24	3.37405
1136.62	2.39373
1139.99	2.01865
1143.37	0.916637
1146.74	1.33233
1150.12	1.06716
1153.49	0.652573
1156.87	1.18833
1160.24	0.655754
1163.62	0.217224
1166.99	0.88892
1170.37	1.5866
1173.74	0.608688
1177.12	1.03976
1180.49	1.82749
1183.87	1.09924
1187.24	0.601723
1190.62	0.235035
1193.99	0.004238
1197.37	1.70086
1200.74	0.875656
1204.11	1.36092
1207.49	0.648071
1210.86	0.186447
1214.24	0.802082
1217.61	0.583248
1220.99	0.023129
1224.36	0.364357
1227.74	0.332428
1231.11	0.744171
1234.49	0.464943
1237.86	0.397247
1241.24	1.43237
1244.61	1.17593
1247.99	1.35276
1251.36	1.10389
1254.74	0.420746
1258.11	0.308956
1261.49	0.874775
1264.86	0.955708
1268.24	1.14818
1271.61	1.06363
1274.99	1.13256
1278.36	0.975384
1281.73	0.594009
1285.11	0.209545
