Measurement: Raman, 780 nm, unoriented, Raman Data Processed
Mineral: Triplite
Rruff sample: R070645
Ideal chemistry: Mn^2+^_2_(PO_4_)F
Locality: 10 km east of Shah Nassir Peak, Braldu Valley, Baltistan, Northern Areas, Pakistan
Source: Dudley Blauwet Gems
Description: Reddish-orange translucent fragment
Measured chemistry: (Mn^2+^_1.55_Fe^2+^_0.25_Ca_0.20_)_Σ=2_(P_1.00_O_4_)(F_0.85_(OH)_0.15_)_Σ=1_ ; OH not measured but estimated by difference and charge balance
Raman shift (cm-1)	intensity
128.164	0
131.057	234.133
133.949	500.882
136.842	549.537
139.735	502.706
142.627	263.382
145.52	28.2073
148.413	11.1782
151.305	9.80786
154.198	5.896
157.091	204.251
159.984	541.011
162.876	812.173
165.769	1128.88
168.662	1377.29
171.554	1789.83
174.447	2142.16
177.34	2397
180.232	2472.46
183.125	2374.5
186.018	2135.94
188.911	1766.38
191.803	1346.6
194.696	959.825
197.589	754.551
200.482	630.496
203.374	525.789
206.267	583.253
209.16	672.321
212.052	753.814
214.945	873.361
217.838	859.076
220.73	726.554
223.623	396.033
226.516	186.533
229.409	74.9423
232.301	16.179
235.194	50.4376
238.087	14.5498
240.979	38.3721
243.872	94.0581
246.765	159.246
249.657	221.719
252.55	199.59
255.443	184.777
258.336	77.8086
261.228	76.5555
264.121	47.819
267.014	133.34
269.906	191.979
272.799	273.081
275.692	353.62
278.584	378.72
281.477	310.893
284.37	267.691
287.262	160.095
290.155	120.596
293.048	105.488
295.941	149.806
298.833	171.374
301.726	279.134
304.619	418.254
307.511	545.771
310.404	665.154
313.297	751.332
316.19	790.199
319.082	666.645
321.975	600.306
324.868	488.021
327.76	415.034
330.653	326.139
333.546	268.553
336.438	248.996
339.331	212.213
342.224	146.654
345.116	128.854
348.009	115.241
350.902	68.5408
353.795	55.3453
356.687	9.58093
359.58	0.854248
362.473	34.7574
365.365	22.7732
368.258	15.954
371.151	6.16345
374.044	22.8318
376.936	38.8619
379.829	44.7164
382.722	90.3779
385.614	64.3561
388.507	119.406
391.4	157.662
394.293	181.748
397.185	222.344
400.078	296.974
402.971	370.904
405.863	472.396
408.756	612.365
411.649	935.24
414.541	1331.54
417.434	2041.47
420.327	3030.83
423.219	4441.16
426.112	6489.57
429.005	8275.4
431.898	7943.59
434.79	6444.85
437.683	5324.72
440.576	5011.09
443.468	5172.1
446.361	5600.84
449.254	5769.29
452.147	5186.03
455.039	3993.03
457.932	2773.36
460.825	1847.92
463.717	1339.98
466.61	921.351
469.503	672.749
472.395	479.549
475.288	330.193
478.181	249.132
481.074	194.918
483.966	183.293
486.859	108.191
489.752	68.6285
492.644	63.6002
495.537	71.9094
498.43	51.9853
501.322	2.78992
504.215	14.8605
507.108	23.9577
510.001	15.4423
512.893	11.436
515.786	26.5375
518.679	7.32458
521.571	28.1927
524.464	0.427856
527.357	1.59918
530.25	10.7542
533.142	9.07721
536.035	0.962646
538.928	11.5807
541.82	12.9121
544.713	43.0615
547.606	65.8216
550.498	68.9021
553.391	84.0824
556.284	141.799
559.177	191.526
562.069	257.001
564.962	365.361
567.855	468.392
570.747	664.87
573.64	805.566
576.533	762.193
579.425	637.776
582.318	645.109
585.211	878.718
588.104	1269.11
590.996	1902.65
593.889	2790.93
596.782	3915.47
599.674	4731.53
602.567	4957.67
605.46	5319.7
608.352	6054.56
611.245	5790.56
614.138	4144.61
617.03	2488.22
619.923	1546.42
622.816	968.114
625.709	652.223
628.601	438.353
631.494	315.894
634.387	223.036
637.279	166.052
640.172	124.922
643.065	96.4499
645.958	50.5218
648.85	49.186
651.743	43.3238
654.636	38.1607
657.528	55.9198
660.421	15.5348
663.314	0.28891
666.207	26.4383
669.099	17.5379
671.992	19.5913
674.885	0.321198
677.777	28.1696
680.67	12.881
683.563	4.5152
686.455	30.0339
689.348	13.4157
692.241	19.0417
695.134	8.20041
698.026	27.3489
700.919	0.976532
703.812	5.73685
706.704	18.1756
709.597	27.2799
712.49	9.40164
715.382	8.16385
718.275	3.73886
721.168	29.128
724.061	18.0236
726.953	1.21118
729.846	23.6522
732.739	15.3246
735.631	31.6154
738.524	6.15759
741.417	20.3112
744.309	39.2144
747.202	22.2483
750.095	31.9422
752.987	25.7354
755.88	15.1828
758.773	16.8986
761.666	18.5511
764.558	19.7094
767.451	10.3344
770.344	2.18994
773.236	2.56293
776.129	7.51846
779.022	34.4542
781.915	58.607
784.807	13.0076
787.7	44.1901
790.593	30.7717
793.485	221.035
796.378	20.0567
799.271	45.0512
802.163	40.7633
805.056	70.3759
807.949	66.1389
810.842	74.6772
813.734	67.0894
816.627	62.3478
819.52	63.5758
822.412	60.925
825.305	54.4543
828.198	55.4307
831.091	56.769
833.983	72.8453
836.876	61.5434
839.769	78.0302
842.661	75.2255
845.554	71.0891
848.447	110.869
851.339	111.162
854.232	114.958
857.125	93.2185
860.018	107.266
862.91	105.843
865.803	125.293
868.696	120.439
871.588	131.469
874.481	153.857
877.374	165.819
880.266	142.386
883.159	155.744
886.052	116.989
888.944	120.987
891.837	123.267
894.73	102.517
897.623	72.9779
900.515	77.0257
903.408	55.4557
906.301	68.1198
909.193	30.7912
912.086	28.5739
914.979	18.1492
917.871	17.2918
920.764	24.2628
923.657	27.7785
926.55	62.4558
929.442	70.4316
932.335	56.1641
935.228	50.8507
938.12	25.1235
941.013	1.48029
943.906	54.2725
946.799	133.771
949.691	270.602
952.584	538.967
955.477	894.503
958.369	1443.53
961.262	2446.3
964.155	4390.07
967.048	7746.52
969.94	13817.7
972.833	23771
975.726	38182.9
978.618	54238
981.511	53992
984.404	29837.9
987.296	11487.7
990.189	4685.03
993.082	2286.01
995.975	1301.08
998.867	851.958
1001.76	785.777
1004.65	961.494
1007.54	1119.53
1010.44	1139.35
1013.33	1067.24
1016.22	1010.38
1019.12	996.93
1022.01	1168.29
1024.9	1510.83
1027.79	2033.82
1030.69	2771.8
1033.58	3618.36
1036.47	4090.36
1039.37	3694.7
1042.26	2751.91
1045.15	1563.19
1048.04	746.211
1050.94	383.477
1053.83	204.015
1056.72	250.793
1059.61	489.223
1062.51	1102.7
1065.4	2179.96
1068.29	3664.08
1071.18	4816.35
1074.08	4022.43
1076.97	2470.95
1079.86	1438.41
1082.76	906.172
1085.65	607.943
1088.54	445.123
1091.43	299.923
1094.33	175.786
1097.22	71.3035
1100.11	36.2705
1103.01	53.8615
1105.9	58.1483
1108.79	82.206
1111.68	66.9688
1114.58	28.1662
1117.47	5.9339
1120.36	4.65595
1123.25	20.7771
1126.15	60.3969
1129.04	57.5369
1131.93	84.938
1134.82	66.5401
1137.72	96.2261
1140.61	93.3637
1143.5	120.742
1146.39	124.151
1149.29	121.907
1152.18	383.414
1155.07	158.914
1157.97	173.124
1160.86	151.787
1163.75	188.037
1166.64	154.651
1169.54	145.786
1172.43	138.402
1175.32	140.511
1178.21	139.187
1181.11	143.614
1184	160.419
1186.89	158.826
1189.79	190.61
1192.68	173.633
1195.57	170.177
1198.46	140.153
1201.36	152.056
1204.25	106.332
1207.14	116.037
1210.03	75.5102
1212.93	75.8811
1215.82	85.0092
1218.71	54.3749
1221.61	63.4988
1224.5	65.2503
1227.39	59.8768
1230.28	50.3505
1233.18	56.7311
1236.07	40.8072
1238.96	34.8265
1241.85	47.1148
1244.75	56.6068
1247.64	29.5791
1250.53	52.7601
1253.42	47.3478
1256.32	30.7765
1259.21	32.4027
1262.1	19.8156
1265	9.28033
1267.89	3.55533
1270.78	15.7127
1273.67	13.6864
1276.57	2.51596
