Measurement: Raman, 785 nm, unoriented, Raman Data Processed
Mineral: Triplite
Rruff sample: R060935
Ideal chemistry: Mn^2+^_2_(PO_4_)F
Locality: near Alchuri, Shigar Valley, Pakistan
Source: Herb Obodda
Description: Red translucent single crystal fragment
Measured chemistry: (Mn^2+^_1.63_Fe^2+^_0.24_Ca_0.13_)_Σ=2_(P_1.00_O_4_)(F_0.75_(OH)_0.25_)_Σ=1_
Raman shift (cm-1)	intensity
129.241	0
132.134	63.578
135.027	62.1815
137.919	8.01648
140.812	30.1828
143.705	192.687
146.597	382.671
149.49	506.57
152.383	395.062
155.276	326.842
158.168	397.342
161.061	586.101
163.954	686.816
166.846	799.196
169.739	935.441
172.632	1040.78
175.524	1121.08
178.417	1110.23
181.31	1088.64
184.203	1006.39
187.095	846.421
189.988	723.498
192.881	568.829
195.773	428.621
198.666	280.397
201.559	264.672
204.452	179.668
207.344	192.334
210.237	200.537
213.13	262.228
216.022	276.928
218.915	242.033
221.808	160.567
224.7	73.883
227.593	3.06531
230.486	30.1472
233.379	29.9329
236.271	0.848389
239.164	10.7811
242.057	55.2759
244.949	84.3062
247.842	129.732
250.735	146.989
253.627	127.176
256.52	116.517
259.413	79.3278
262.305	85.8906
265.198	133.679
268.091	208.724
270.984	350.885
273.876	416.354
276.769	507.023
279.662	485.302
282.554	381.752
285.447	272.798
288.34	164.001
291.233	72.9428
294.125	73.0217
297.018	81.3405
299.911	95.8237
302.803	146.099
305.696	241.74
308.589	300.009
311.481	331.262
314.374	404.558
317.267	375.833
320.159	343.241
323.052	217.28
325.945	202.842
328.838	160.685
331.73	128.622
334.623	90.6947
337.516	81.9797
340.408	58.9852
343.301	55.2137
346.194	32.6271
349.087	11.3813
351.979	2.92468
354.872	5.16235
357.765	2.07709
360.657	11.4986
363.55	24.5915
366.443	17.9327
369.335	5.1922
372.228	6.44397
375.121	21.0751
378.014	50.6583
380.906	65.1816
383.799	85.2604
386.692	105.706
389.584	140.054
392.477	154.513
395.37	201.597
398.262	239.804
401.155	270.335
404.048	349.582
406.941	409.035
409.833	553.191
412.726	752.634
415.619	1125.02
418.511	1756.08
421.404	2670.8
424.297	3921.7
427.19	5051.81
430.082	5175.78
432.975	4021.92
435.868	3073.08
438.76	2714.59
441.653	2737.71
444.546	3057.45
447.438	3421.01
450.331	3402.29
453.224	2872.19
456.116	2164.06
459.009	1466.99
461.902	1021.33
464.795	704.357
467.687	519.326
470.58	374.03
473.473	283.514
476.365	198.041
479.258	159.535
482.151	128.566
485.043	108.026
487.936	77.3653
490.829	48.106
493.722	37.8849
496.614	34.3752
499.507	15.8023
502.4	1.25275
505.292	8.57779
508.185	16.3021
511.078	0.112244
513.971	7.43924
516.863	0.035339
519.756	5.0278
522.649	6.88156
525.541	2.99179
528.434	7.09692
531.327	1.71426
534.219	6.06183
537.112	6.92261
540.005	8.36221
542.898	15.8686
545.79	13.6773
548.683	45.4158
551.576	46.683
554.468	73.556
557.361	108.061
560.254	137.176
563.146	208.962
566.039	290.523
568.932	401.471
571.824	543.498
574.717	581.838
577.61	523.373
580.503	500.99
583.395	641.327
586.288	914.953
589.181	1343
592.073	2032.21
594.966	2972.53
597.859	3827.13
600.751	3995.02
603.644	3829.16
606.537	3926.71
609.43	4015.12
612.322	3264.24
615.215	2138.85
618.108	1310.39
621	849.582
623.893	557.303
626.786	406.409
629.678	278.232
632.571	177.147
635.464	136.208
638.357	110.034
641.249	71.5774
644.142	52.7197
647.035	34.4645
649.927	42.7239
652.82	49.0956
655.713	24.9348
658.606	29.85
661.498	6.60431
664.391	24.1963
667.284	15.9053
670.176	6.1615
673.069	15.6386
675.962	9.91208
678.854	21.5096
681.747	4.56158
684.64	11.765
687.533	4.01306
690.425	5.95526
693.318	2.09085
696.211	17.5281
699.103	7.74237
701.996	7.17273
704.889	10.4255
707.781	2.13205
710.674	17.4661
713.567	20.671
716.46	14.8659
719.352	17.2494
722.245	14.5037
725.138	25.1248
728.03	12.5001
730.923	16.3448
733.816	20.2785
736.708	27.0249
739.601	30.5405
742.494	7.04657
745.386	10.2843
748.279	14.0088
751.172	5.36289
754.065	16.1301
756.957	2.48221
759.85	6.64102
762.743	18.8507
765.635	1.41226
768.528	8.6127
771.421	19.3776
774.313	19.2504
777.206	22.422
780.099	42.1869
782.992	51.2563
785.884	62.7318
788.777	82.9654
791.67	88.7328
794.562	122.087
797.455	104.013
800.348	112.206
803.24	116.503
806.133	137.692
809.026	141.649
811.919	149.772
814.811	148.42
817.704	141.216
820.597	157.992
823.489	109.845
826.382	115.025
829.275	97.9476
832.168	86.4219
835.06	108.106
837.953	91.1175
840.846	83.3211
843.738	111.01
846.631	98.5676
849.524	125.859
852.416	117.802
855.309	75.0301
858.202	86.941
861.095	93.9685
863.987	109.737
866.88	121.788
869.773	113.787
872.665	119.929
875.558	114.276
878.451	140.418
881.343	112.925
884.236	116.027
887.129	96.9106
890.021	90.806
892.914	71.9298
895.807	62.332
898.7	55.9956
901.592	38.075
904.485	40.785
907.378	16.2378
910.27	1.37225
913.163	16.5213
916.056	13.7466
918.949	20.0847
921.841	53.2798
924.734	18.9431
927.627	11.1385
930.519	35.0814
933.412	29.1413
936.305	14.173
939.197	0.085327
942.09	7.58234
944.983	90.6578
947.876	158.53
950.768	325.569
953.661	574.333
956.554	917.654
959.446	1476.83
962.339	2502.14
965.232	4255.84
968.125	7457.08
971.017	12870.6
973.91	22724.7
976.803	37884.8
979.695	49850.5
982.588	37467.7
985.481	15341.6
988.373	5901.27
991.266	2859.23
994.159	1557.24
997.052	995.413
999.944	778.213
1002.84	747.659
1005.73	815.542
1008.62	910.3
1011.51	885.314
1014.41	821.261
1017.3	746.3
1020.19	774.423
1023.09	886.003
1025.98	1140.11
1028.87	1627.41
1031.76	2250.46
1034.66	2891.88
1037.55	3113.19
1040.44	2730.11
1043.34	1911.38
1046.23	1108.29
1049.12	642.823
1052.01	373.888
1054.91	226.036
1057.8	209.766
1060.69	396.295
1063.58	754.081
1066.48	1583.5
1069.37	2693.5
1072.26	2844.84
1075.15	1809.9
1078.05	1034.81
1080.94	578.883
1083.83	354.136
1086.72	224.329
1089.62	146.764
1092.51	75.7781
1095.4	38.1258
1098.3	10.1329
1101.19	58.9894
1104.08	74.1402
1106.97	49.1104
1109.87	51.1082
1112.76	21.7665
1115.65	17.1443
1118.55	31.1325
1121.44	46.6049
1124.33	88.263
1127.22	118.122
1130.12	102.069
1133.01	79.1219
1135.9	93.4246
1138.79	91.9601
1141.69	91.8394
1144.58	88.7752
1147.47	95.7826
1150.37	103.918
1153.26	107.473
1156.15	128.405
1159.04	123.05
1161.93	114.405
1164.83	77.2423
1167.72	78.7032
1170.61	69.6215
1173.51	65.4306
1176.4	74.3695
1179.29	92.8303
1182.18	105.175
1185.08	119.252
1187.97	95.9262
1190.86	114.12
1193.76	127.975
1196.65	105.944
1199.54	87.3922
1202.43	60.0472
1205.33	64.6773
1208.22	24.6841
1211.11	40.0499
1214	65.7016
1216.9	46.7217
1219.79	41.9769
1222.68	37.4281
1225.58	32.2782
1228.47	37.9986
1231.36	34.4689
1234.25	1.88437
1237.15	0.517456
1240.04	18.852
1242.93	39.295
1245.82	23.9655
1248.72	36.2487
1251.61	0.529266
1254.5	3.56305
1257.39	9.81049
1260.29	0
