Measurement: Raman, 532 nm, unoriented, Raman Data Processed
Mineral: Triplite
Rruff sample: R060743
Ideal chemistry: Mn^2+^_2_(PO_4_)F
Locality: Shigar Valley, northeast of Skardu, Baltistan, Pakistan
Source: Herb Obodda
Description: Reddish-brown transparent fragment
Measured chemistry: (Mn^2+^_1.68_Fe^2+^_0.16_Ca_0.16_)_Σ=2_(P_1.00_O_4_)(F_0.71_(OH)_0.29_)_Σ=1_
Raman shift (cm-1)	intensity
83.918	0
87.293	1.518
90.668	12.931
94.042	8.538
97.417	1.397
100.792	27.41
104.167	5.581
107.542	6.97
110.916	17.796
114.291	93.498
117.666	116.037
121.041	250.475
124.416	305.058
127.79	328.81
131.165	373.157
134.54	535.247
137.915	725.554
141.29	786.96
144.665	655.945
148.039	557.74
151.414	465.88
154.789	409.857
158.164	402.375
161.539	419.354
164.913	357.237
168.288	313.139
171.663	276.855
175.038	267.633
178.413	285.498
181.788	283.254
185.162	292.212
188.537	275.303
191.912	281.652
195.287	259.405
198.662	261.413
202.036	281.42
205.411	326.765
208.786	380.588
212.161	513.623
215.536	634.862
218.911	677.847
222.285	630.044
225.66	535.05
229.035	489.336
232.41	524.608
235.785	587.837
239.159	644.874
242.534	626.624
245.909	531.698
249.284	461.255
252.659	368.698
256.033	254.06
259.408	246.796
262.783	235.768
266.158	296.575
269.533	384.607
272.908	433.064
276.282	436.352
279.657	400.228
283.032	339.718
286.407	318.032
289.782	327.856
293.156	258.669
296.531	214.722
299.906	148.777
303.281	118.985
306.656	113.667
310.03	101.636
313.405	112.858
316.78	79.657
320.155	87.41
323.53	56.241
326.905	71.881
330.279	48.346
333.654	44.788
337.029	28.961
340.404	9.683
343.779	20.835
347.153	20.85
350.528	7.618
353.903	12.463
357.278	8.715
360.653	6.916
364.027	3.198
367.402	3.761
370.777	33.144
374.152	26.073
377.527	63.827
380.902	54.68
384.276	61.073
387.651	70.356
391.026	91.232
394.401	95.618
397.776	113.072
401.151	109.241
404.525	171.576
407.9	254.732
411.275	406.11
414.65	705.419
418.025	1205.35
421.399	1666.19
424.774	1619.12
428.149	1532.34
431.524	1388.91
434.899	1140.44
438.273	1113.09
441.648	1308.02
445.023	1607.25
448.398	1941.1
451.773	1813.45
455.147	1341.62
458.522	837.118
461.897	541.184
465.272	377.59
468.647	275.535
472.022	207.612
475.396	135.075
478.771	117.22
482.146	74.228
485.521	50.931
488.896	42.682
492.27	29.542
495.645	20.762
499.02	9.017
502.395	13.404
505.77	5.717
509.145	9.772
512.519	3.267
515.894	5.377
519.269	15.868
522.644	11.599
526.019	21.418
529.393	5.114
532.768	25.745
536.143	14.172
539.518	2.099
542.893	5.11
546.268	7.13
549.642	36.15
553.017	34.601
556.392	63.772
559.767	102.143
563.141	170.353
566.516	294.784
569.891	473.192
573.266	620.319
576.641	651.495
580.016	718.249
583.39	907.947
586.765	1299.04
590.14	1938.94
593.515	2838.91
596.89	3343.67
600.265	2622.5
603.639	1745.76
607.014	1485.93
610.389	1402.08
613.764	992.508
617.138	607.546
620.513	394.277
623.888	247.845
627.263	126.295
630.638	89.131
634.013	61.213
637.387	51.359
640.762	24.705
644.137	19.858
647.512	14.537
650.887	4.141
654.261	34.263
657.636	2.724
661.011	8.021
664.386	6.109
667.761	5.767
671.135	17.681
674.51	28.906
677.885	8.192
681.26	1.029
684.635	11.856
688.01	9.356
691.384	10.873
694.759	4.767
698.134	7.408
701.509	12.541
704.884	10.71
708.258	2.097
711.633	49.217
715.008	7.916
718.383	9.22
721.758	17.974
725.133	16.149
728.507	3.112
731.882	3.482
735.257	5.782
738.632	3.127
742.007	17.125
745.381	16.386
748.756	8.753
752.131	40.198
755.506	15.134
758.881	17.68
762.255	9.475
765.63	15.028
769.005	8.348
772.38	4.759
775.755	16.753
779.13	19.604
782.504	25.627
785.879	34.455
789.254	29.239
792.629	55.453
796.004	40.435
799.378	66.6
802.753	69.671
806.128	70.594
809.503	63.131
812.878	56.122
816.253	66.177
819.627	56.593
823.002	26.386
826.377	4.292
829.752	7.461
833.127	2.534
836.501	13.968
839.876	0.649
843.251	6.024
846.626	8.121
850.001	7.315
853.375	0.473
856.75	6.491
860.125	15.078
863.5	11.093
866.875	18.616
870.25	11.052
873.624	6.265
876.999	23.315
880.374	22.9
883.749	5.925
887.124	10.889
890.498	28.056
893.873	24.695
897.248	5.943
900.623	25.675
903.998	0.415
907.372	21.411
910.747	35.992
914.122	3.122
917.497	4.105
920.872	9.89
924.247	23.305
927.621	29.838
930.996	43.256
934.371	55.199
937.746	96.588
941.121	152.658
944.495	208.61
947.87	275.133
951.245	414.858
954.62	610.969
957.995	943.383
961.37	1543.57
964.744	2789.06
968.119	5071.52
971.494	8919.69
974.869	16254.4
978.244	29922
981.618	32754.6
984.993	12351.6
988.368	4174.22
991.743	2023.87
995.118	1221.81
998.492	935.733
1001.87	857.429
1005.24	924.331
1008.62	1081.38
1011.99	1156.36
1015.37	1255.19
1018.74	1434.04
1022.12	1650.91
1025.49	1537.66
1028.87	1500.53
1032.24	1652.19
1035.62	1852.56
1038.99	1858.18
1042.37	1429.01
1045.74	1013.88
1049.12	673.889
1052.49	476.849
1055.86	361.158
1059.24	297.703
1062.61	306.218
1065.99	385.8
1069.36	719.721
1072.74	932.046
1076.11	640.971
1079.49	412.581
1082.86	262.514
1086.24	181.068
1089.61	137.507
1092.99	96.997
1096.36	58.211
1099.74	75.945
1103.11	76.062
1106.49	103.988
1109.86	225.898
1113.24	377.413
1116.61	636.098
1119.99	958.93
1123.36	1287.54
1126.73	1645.36
1130.11	1362.33
1133.48	670.27
1136.86	316.723
1140.23	137.106
1143.61	90.716
1146.98	30.119
1150.36	6.157
1153.73	23.053
1157.11	30.158
1160.48	9.747
1163.86	7.275
1167.23	7.666
1170.61	17.902
1173.98	1.204
1177.36	4.378
1180.73	13.305
1184.11	14.067
1187.48	13.203
1190.86	17.909
1194.23	35.573
1197.61	7.186
1200.98	18.76
1204.36	8.483
1207.73	12.17
1211.11	26.858
1214.48	8.97
1217.86	8.955
1221.23	11.803
1224.61	31.293
1227.98	9.038
1231.36	9.424
1234.73	1.054
1238.1	11.528
1241.48	26.973
1244.85	20.953
1248.23	29.275
1251.6	8.2
1254.98	15.485
1258.35	5.034
1261.73	8.849
1265.1	1.638
1268.48	22.566
1271.85	9.796
1275.23	2.5
1278.6	17.311
1281.98	0.586
1285.35	3.259
1288.73	16.36
1292.1	4.715
1295.48	7.114
1298.85	13.685
