Measurement: Raman, 780 nm, unoriented, Raman Data Processed
Mineral: Triplite
Rruff sample: R050615
Ideal chemistry: Mn^2+^_2_(PO_4_)F
Locality: Vienna, Austria
Source: University of Arizona Mineral Museum
Description: Brown massive
Measured chemistry: light phase is triplite: (Mn^2+^_1.09_Fe^2+^_0.88_Ca_0.02_Mg_0.01_)_Σ=2_(P_1.00_O_4_)(F_0.72_(OH)_0.28_)_Σ=1_ ; dark phase is fluorapatite: (Ca_4.44_Mn^2+^_0.44_Fe^2+^_0.12_)_Σ=5_(P_1.00_O_4_)F_1.00_
Raman shift (cm-1)	intensity
103.154	0
106.529	4.2637
109.904	3.59247
113.278	9.08833
116.653	8.75169
120.028	8.11635
123.403	4.67874
126.778	1.25697
130.153	1.38174
133.527	1.99277
136.902	5.02867
140.277	6.2495
143.652	5.80403
147.027	11.3704
150.401	15.6981
153.776	13.139
157.151	13.8787
160.526	15.8291
163.901	15.5522
167.276	18.7806
170.65	22.2584
174.025	19.2197
177.4	19.7057
180.775	14.4431
184.15	9.68042
187.524	8.47
190.899	5.556
194.274	5.20265
197.649	2.53673
201.024	1.78427
204.399	0.547333
207.773	3.62967
211.148	2.55125
214.523	0.062485
217.898	2.62598
221.273	1.11888
224.647	1.02086
228.022	0.421921
231.397	2.31493
234.772	3.28548
238.147	3.07556
241.522	4.5766
244.896	5.56787
248.271	7.23045
251.646	3.84424
255.021	4.07684
258.396	4.13223
261.77	3.6908
265.145	4.48494
268.52	5.57455
271.895	3.91983
275.27	4.61069
278.644	4.55483
282.019	4.25585
285.394	3.0406
288.769	3.37455
292.144	2.83307
295.519	1.728
298.893	1.57295
302.268	0.832809
305.643	1.50087
309.018	2.37118
312.393	1.44199
315.767	0.25972
319.142	0.768532
322.517	3.08447
325.892	1.13165
329.267	4.06271
332.642	3.53806
336.016	1.08081
339.391	0.090683
342.766	2.7465
346.141	0.030708
349.516	1.41518
352.89	1.20241
356.265	1.25147
359.64	0.002266
363.015	0.943604
366.39	0.945755
369.764	1.93915
373.139	1.59803
376.514	2.74668
379.889	1.12386
383.264	1.7868
386.639	3.35433
390.013	6.54543
393.388	7.19918
396.763	9.53658
400.138	12.9529
403.513	20.2756
406.887	27.8738
410.262	41.3558
413.637	54.4605
417.012	71.6156
420.387	84.7567
423.762	87.3201
427.136	79.8437
430.511	64.9485
433.886	45.9304
437.261	34.6925
440.636	33.617
444.01	34.1948
447.385	36.0347
450.76	39.2974
454.135	39.8446
457.51	35.8616
460.884	31.7474
464.259	24.4714
467.634	19.8537
471.009	18.1463
474.384	11.3181
477.759	10.9953
481.133	10.4895
484.508	8.76433
487.883	6.80193
491.258	7.86248
494.633	5.45358
498.007	6.85306
501.382	4.17446
504.757	4.69157
508.132	3.56518
511.507	3.0397
514.881	0.771095
518.256	0.932343
521.631	1.18074
525.006	1.91165
528.381	1.3448
531.756	0.764526
535.13	0.194702
538.505	0.477791
541.88	0.848297
545.255	2.10743
548.63	2.26856
552.004	3.6994
555.379	5.36184
558.754	7.63209
562.129	11.0565
565.504	14.776
568.879	19.8683
572.253	20.6956
575.628	21.8336
579.003	22.0553
582.378	26.3199
585.753	32.3701
589.127	40.4827
592.502	51.2028
595.877	58.4705
599.252	62.5674
602.627	51.7662
606.001	39.8863
609.376	29.7147
612.751	23.6777
616.126	15.1847
619.501	10.7779
622.875	4.67754
626.25	5.91872
629.625	2.85056
633	0.949226
636.375	1.69668
639.75	0.704498
643.124	0.688736
646.499	1.27857
649.874	3.14416
653.249	3.72917
656.624	2.99068
659.999	4.21245
663.373	2.79153
666.748	3.58425
670.123	5.89387
673.498	6.78805
676.873	7.41062
680.247	8.2824
683.622	7.14684
686.997	10.3934
690.372	10.1757
693.747	8.41494
697.121	9.04224
700.496	6.03931
703.871	5.07562
707.246	5.80899
710.621	2.38317
713.995	3.54369
717.37	1.84773
720.745	0.928925
724.12	0.595711
727.495	-0.068526
730.87	1.56815
734.244	0.624184
737.619	0.752266
740.994	0.870918
744.369	0.303116
747.744	0.982498
751.119	1.32511
754.493	2.17145
757.868	4.47115
761.243	3.83162
764.618	5.32613
767.993	7.75742
771.367	5.25206
774.742	5.65067
778.117	7.75452
781.492	6.95038
784.867	7.44248
788.241	7.65343
791.616	8.08224
794.991	6.53472
798.366	6.15576
801.741	7.44836
805.115	8.08632
808.49	7.52821
811.865	9.35087
815.24	6.98914
818.615	7.79246
821.99	6.73203
825.364	7.11861
828.739	5.58585
832.114	4.69275
835.489	5.58201
838.864	4.88272
842.239	4.71162
845.613	4.51829
848.988	3.39796
852.363	4.15386
855.738	5.7407
859.112	5.93594
862.487	4.0837
865.862	4.21791
869.237	3.10815
872.612	3.71494
875.987	3.54934
879.361	3.7443
882.736	3.66328
886.111	2.97321
889.486	0.053894
892.861	0.42836
896.236	1.62208
899.61	1.6523
902.985	0.56765
906.36	2.02279
909.735	1.4296
913.11	1.82068
916.484	1.62746
919.859	1.3205
923.234	0.279846
926.609	0.756271
929.984	0.358902
933.359	3.81472
936.733	6.92075
940.108	8.03812
943.483	15.1274
946.858	20.5824
950.232	30.4727
953.607	42.0455
956.982	63.364
960.357	97.9049
963.732	142.974
967.107	203.834
970.481	279.862
973.856	370.13
977.231	453.866
980.606	446.457
983.981	293.881
987.356	144.132
990.73	76.0842
994.105	48.5756
997.48	30.2724
1000.86	22.0874
1004.23	19.685
1007.6	18.4636
1010.98	16.6956
1014.35	17.7218
1017.73	18.4682
1021.1	18.7091
1024.48	20.8701
1027.85	24.7412
1031.23	28.2436
1034.6	27.0185
1037.98	27.581
1041.35	23.1658
1044.73	18.6592
1048.1	12.7258
1051.48	10.5527
1054.85	6.78842
1058.23	7.5176
1061.6	5.95029
1064.98	9.3858
1068.35	8.66804
1071.73	8.19522
1075.1	5.67859
1078.47	3.03661
1081.85	0.152573
1085.22	0.580093
1088.6	0.913513
1091.97	1.22524
1095.35	0.446037
1098.72	2.65851
1102.1	2.3152
1105.47	0.043339
1108.85	4.29274
1112.22	6.60259
1115.6	6.03077
1118.97	7.29876
1122.35	10.8314
1125.72	7.89751
1129.1	4.82581
1132.47	4.23104
1135.85	2.89664
1139.22	1.94564
1142.6	0.969318
1145.97	0.790672
1149.35	2.01934
1152.72	1.0335
1156.1	1.58107
1159.47	2.50754
1162.85	2.66677
1166.22	2.32282
1169.6	3.26921
1172.97	1.91853
1176.35	2.7244
1179.72	4.36931
1183.1	4.23617
1186.47	3.45277
1189.84	5.35406
1193.22	3.83257
1196.59	4.86505
1199.97	5.58219
1203.34	5.27009
1206.72	4.74529
1210.09	3.05878
1213.47	3.14142
1216.84	1.12674
1220.22	2.81345
1223.59	3.09336
1226.97	2.83378
1230.34	1.4313
1233.72	1.25648
1237.09	1.32715
1240.47	2.05937
1243.84	3.4118
1247.22	2.22894
1250.59	1.28488
1253.97	2.63161
1257.34	1.00622
1260.71	1.2623
1264.09	3.48851
1267.46	2.58911
1270.84	0.763401
1274.21	0.761719
1277.59	0.997845
1280.96	1.75491
1284.34	0.063927
