Measurement: Raman, 785 nm, unoriented, Raman Data Processed
Mineral: Triplite
Rruff sample: R050186
Ideal chemistry: Mn^2+^_2_(PO_4_)F
Locality: Wuzhou, Guangxi Autonomous Region, China
Source: John Lucking
Description: Orangish red fragments
Measured chemistry: (Mn^2+^_1.60_Fe^2+^_0.21_Mg_0.15_Ca_0.04_)_Σ=2_(P_1.00_O_4_)(F_0.80_(OH)_0.20_)_Σ=1_
Raman shift (cm-1)	intensity
125.004	0
127.897	19.6197
130.79	66.1195
133.682	86.1296
136.575	110.496
139.468	174.005
142.36	226.42
145.253	336.679
148.146	364.691
151.038	346.128
153.931	302.278
156.824	305.309
159.717	273.34
162.609	271.637
165.502	282.728
168.395	295.424
171.287	321.554
174.18	338.669
177.073	370.158
179.965	333.607
182.858	305.024
185.751	259.341
188.644	211.51
191.536	148.075
194.429	95.9053
197.322	69.5772
200.214	41.3507
203.107	28.2022
206	26.4866
208.893	24.3693
211.785	35.6401
214.678	45.1136
217.571	69.6965
220.463	52.3304
223.356	52.8038
226.249	32.3138
229.141	16.1494
232.034	0.207672
234.927	19.6858
237.82	1.64612
240.712	0.583527
243.605	1.22983
246.498	4.26306
249.39	6.67612
252.283	22.3143
255.176	15.7179
258.068	18.4008
260.961	3.88864
263.854	0.755219
266.747	0.969971
269.639	32.2161
272.532	30.7092
275.425	42.9385
278.317	47.1073
281.21	29.134
284.103	1.56325
286.995	0.993347
289.888	8.89592
292.781	2.29367
295.673	3.62541
298.566	7.2478
301.459	18.7285
304.352	41.7448
307.244	60.3596
310.137	93.4191
313.03	130.607
315.922	129.738
318.815	130.038
321.708	136.213
324.601	126.83
327.493	102.063
330.386	72.4889
333.279	64.263
336.171	52.2712
339.064	50.1071
341.957	22.4937
344.849	27.2845
347.742	21.5877
350.635	5.49532
353.527	5.81935
356.42	4.14278
359.313	13.6304
362.206	4.18771
365.098	6.80757
367.991	2.63354
370.884	4.77693
373.776	3.24303
376.669	14.1348
379.562	11.8192
382.454	7.19897
385.347	8.64673
388.24	24.0418
391.133	37.1647
394.025	52.8632
396.918	61.4015
399.811	69.7109
402.703	85.5853
405.596	120.344
408.489	149.139
411.382	224.295
414.274	324.688
417.167	482.733
420.06	762.687
422.952	1114.35
425.845	1532.43
428.738	1891.49
431.63	1788.37
434.523	1327.03
437.416	991.986
440.308	859.161
443.201	878.592
446.094	981.964
448.987	1147.39
451.879	1256.96
454.772	1133.11
457.665	866.822
460.557	596.636
463.45	402.703
466.343	298.621
469.236	216.715
472.128	161.642
475.021	120.727
477.914	88.9118
480.806	59.8074
483.699	53.2972
486.592	39.6655
489.484	36.7131
492.377	31.875
495.27	19.9908
498.163	11.0851
501.055	8.78462
503.948	0.881454
506.841	4.10318
509.733	11.4146
512.626	1.8756
515.519	5.80077
518.411	2.29444
521.304	3.60252
524.197	3.47912
527.09	7.38037
529.982	1.47536
532.875	3.61055
535.768	2.12052
538.66	1.61323
541.553	3.964
544.446	3.25662
547.338	5.16097
550.231	21.4218
553.124	14.0033
556.016	31.3963
558.909	37.2876
561.802	43.343
564.695	59.008
567.587	84.922
570.48	140.652
573.373	177.245
576.265	176.874
579.158	152.299
582.051	147.314
584.943	199.322
587.836	271.745
590.729	414.661
593.621	601.023
596.514	824.432
599.407	1037.96
602.3	1071.58
605.192	1121.55
608.085	1239.65
610.978	1334.46
613.87	1084.21
616.763	696.867
619.656	423.085
622.548	270.909
625.441	180.077
628.334	124.968
631.227	86.673
634.119	56.3474
637.012	45.4879
639.905	29.9952
642.797	20.9926
645.69	11.8455
648.583	18.1131
651.476	1.26445
654.368	11.7622
657.261	5.01927
660.154	4.18855
663.046	4.34994
665.939	0.83329
668.832	2.84599
671.724	1.21092
674.617	2.76983
677.51	2.64986
680.403	0.906998
683.295	1.73643
686.188	2.47814
689.081	5.98473
691.973	0.831024
694.866	5.07676
697.759	3.60973
700.651	8.64343
703.544	2.82017
706.437	9.77467
709.33	5.1388
712.222	16.2488
715.115	3.56455
718.008	8.64378
720.9	4.23148
723.793	5.36878
726.686	14.7315
729.578	12.1902
732.471	5.08521
735.364	10.0144
738.256	10.2904
741.149	8.60666
744.042	5.81518
746.935	8.0422
749.827	4.72232
752.72	3.90919
755.613	6.4965
758.505	12.4565
761.398	4.95157
764.291	3.33092
767.183	3.41454
770.076	6.61467
772.969	11.7027
775.862	8.76891
778.754	6.38348
781.647	13.216
784.54	8.59943
787.432	15.9878
790.325	26.5201
793.218	13.7307
796.111	13.9306
799.003	4.89761
801.896	4.21157
804.789	13.3485
807.681	22.2875
810.574	14.7389
813.467	13.1507
816.359	15.0674
819.252	20.9292
822.145	19.4923
825.038	18.1323
827.93	27.7283
830.823	21.9352
833.716	15.9563
836.608	22.0419
839.501	32.8524
842.394	28.5241
845.286	34.3441
848.179	21.9702
851.072	26.069
853.965	28.2998
856.857	18.8172
859.75	27.881
862.643	31.5485
865.535	29.6775
868.428	25.6053
871.321	30.1966
874.213	36.7277
877.106	35.9558
879.999	42.6769
882.891	37.0622
885.784	33.7479
888.677	34.2563
891.57	32.8388
894.462	29.3674
897.355	25.3373
900.248	6.42963
903.14	26.1522
906.033	19.9037
908.926	15.2698
911.818	4.85754
914.711	0.627594
917.604	7.4157
920.497	3.9596
923.389	12.6621
926.282	5.85286
929.175	19.0763
932.067	11.0061
934.96	11.9242
937.853	7.83003
940.745	7.33488
943.638	21.2682
946.531	33.9593
949.424	80.4002
952.316	116.498
955.209	212.377
958.102	332.063
960.994	491.393
963.887	830.919
966.78	1403.85
969.673	2456.36
972.565	4499.46
975.458	8306.27
978.351	14026.9
981.243	18467.4
984.136	14034.8
987.029	6075.52
989.921	2516.15
992.814	1223.05
995.707	704.506
998.6	459.734
1001.49	333.195
1004.38	273.301
1007.28	286.798
1010.17	257.228
1013.06	251.223
1015.96	237.249
1018.85	205.836
1021.74	227.345
1024.63	254.27
1027.53	344.428
1030.42	432.294
1033.31	603.105
1036.2	829.565
1039.1	998.55
1041.99	1051.82
1044.88	883.685
1047.78	670.833
1050.67	446.822
1053.56	299.342
1056.45	212.478
1059.35	206.67
1062.24	272.522
1065.13	494.745
1068.02	930.599
1070.92	1340.14
1073.81	1173.13
1076.7	640.77
1079.6	324.834
1082.49	164.955
1085.38	102.027
1088.27	56.1994
1091.17	30.2809
1094.06	5.05248
1096.95	1.85355
1099.84	22.3721
1102.74	28.9661
1105.63	10.7606
1108.52	13.3542
1111.41	9.17667
1114.31	0.799393
1117.2	12.5412
1120.09	48.7423
1122.99	61.5433
1125.88	85.2883
1128.77	75.8195
1131.66	55.1364
1134.56	49.0462
1137.45	46.4669
1140.34	44.4666
1143.23	49.0435
1146.13	41.4135
1149.02	46.1346
1151.91	42.0413
1154.81	42.0605
1157.7	39.6008
1160.59	39.087
1163.48	15.6722
1166.38	20.7194
1169.27	20.241
1172.16	18.3422
1175.05	24.8598
1177.95	26.1652
1180.84	19.7617
1183.73	33.571
1186.62	32.4315
1189.52	33.7928
1192.41	30.1449
1195.3	43.9783
1198.2	40.0035
1201.09	33.1559
1203.98	17.1663
1206.87	19.8073
1209.77	13.6082
1212.66	25.5221
1215.55	17.9849
1218.44	8.53541
1221.34	16.7848
1224.23	12.7249
1227.12	6.61014
1230.02	8.5662
1232.91	5.20339
1235.8	4.81058
1238.69	7.89287
1241.59	7.80398
1244.48	2.8932
1247.37	1.30112
1250.26	10.0742
1253.16	17.9005
1256.05	28.7658
1258.94	5.78235
1261.84	9.13843
1264.73	12.5425
1267.62	3.93842
1270.51	0.072998
