Measurement: Raman, 532 nm, unoriented, Raman Data Processed
Mineral: Triplite
Rruff sample: R060935
Ideal chemistry: Mn^2+^_2_(PO_4_)F
Locality: near Alchuri, Shigar Valley, Pakistan
Source: Herb Obodda
Description: Red translucent single crystal fragment
Measured chemistry: (Mn^2+^_1.63_Fe^2+^_0.24_Ca_0.13_)_Σ=2_(P_1.00_O_4_)(F_0.75_(OH)_0.25_)_Σ=1_
Raman shift (cm-1)	intensity
115.738	0
119.112	8.30737
122.487	82.2628
125.862	110.18
129.237	170.04
132.612	360.497
135.987	632.433
139.361	829.568
142.736	660.011
146.111	465.093
149.486	431.266
152.861	474.947
156.235	686.533
159.61	909.477
162.985	1100.63
166.36	1271.54
169.735	1578.04
173.109	1914.03
176.484	2231.27
179.859	2345.92
183.234	2174.89
186.609	1900.28
189.983	1700.94
193.358	1424
196.733	1002.64
200.108	683.054
203.483	430.098
206.858	314.422
210.232	265.564
213.607	252.558
216.982	209.498
220.357	171.648
223.732	26.9082
227.107	23.705
230.481	63.4501
233.856	39.2605
237.231	6.71753
240.606	68.3905
243.981	125.405
247.355	167.536
250.73	209.247
254.105	210.073
257.48	183.196
260.855	184.298
264.229	262.877
267.604	423.129
270.979	664.32
274.354	892.551
277.729	1024.1
281.103	941.461
284.478	657.542
287.853	414.742
291.228	249.8
294.603	167.093
297.978	162.686
301.352	182.156
304.727	276.718
308.102	308.086
311.477	351.612
314.852	347.151
318.226	314.093
321.601	238.653
324.976	187.127
328.351	155.644
331.726	123.687
335.101	99.3808
338.475	50.746
341.85	38.3629
345.225	16.2501
348.6	2.91876
351.975	27.8906
355.349	23.9841
358.724	33.2188
362.099	37.1758
365.474	6.50275
368.849	33.7369
372.224	54.0049
375.598	108.217
378.973	123.055
382.348	196.47
385.723	227.585
389.098	310.153
392.472	401.133
395.847	472.424
399.222	563.832
402.597	678.881
405.972	838.144
409.346	1092.82
412.721	1484.41
416.096	2244.37
419.471	3664.15
422.846	5606.97
426.221	8508.42
429.595	10167.4
432.97	7986.49
436.345	5815.5
439.72	4942.39
443.094	5078.11
446.469	5592.31
449.844	5915.37
453.219	5192.8
456.594	3649.35
459.969	2352.34
463.343	1518.83
466.718	1049.97
470.093	725.532
473.468	499.215
476.843	385.093
480.217	254.565
483.592	193.98
486.967	145.308
490.342	113.766
493.717	67.7637
497.092	52.9397
500.466	18.6411
503.841	13.1649
507.216	7.05664
510.591	13.2936
513.966	15.6803
517.341	2.69907
520.715	16.8447
524.09	11.0297
527.465	28.6758
530.84	12.0244
534.215	7.44299
537.589	0.985596
540.964	8.77768
544.339	20.2529
547.714	41.5041
551.089	89.8533
554.463	138.103
557.838	176.343
561.213	272.727
564.588	454.034
567.963	645.204
571.337	925.141
574.712	1116.26
578.087	1031.95
581.462	1093.32
584.837	1553.27
588.212	2478.92
591.586	3913.55
594.961	6130.36
598.336	8325.51
601.711	8377.92
605.086	7658.19
608.46	7863.46
611.835	6860.3
615.21	4220.27
618.585	2406.22
621.96	1486.09
625.335	951.077
628.709	614.138
632.084	382.294
635.459	259.497
638.834	174.492
642.209	99.6983
645.583	56.7809
648.958	42.0113
652.333	23.0221
655.708	11.7381
659.083	8.08874
662.457	2.32895
665.832	1.58731
669.207	5.89804
672.582	21.6566
675.957	13.5084
679.332	13.5801
682.706	8.40939
686.081	6.7713
689.456	12.687
692.831	15.2533
696.206	13.5638
699.58	2.93787
702.955	2.3707
706.33	11.7349
709.705	9.65207
713.08	2.08847
716.455	13.8636
719.829	16.2256
723.204	8.91724
726.579	9.56833
729.954	7.86093
733.328	4.44199
736.703	18.8252
740.078	4.92209
743.453	25.2917
746.828	38.7184
750.203	26.3912
753.577	5.95645
756.952	31.492
760.327	40.8041
763.702	44.3623
767.077	43.8512
770.452	75.2041
773.826	88.7024
777.201	120.255
780.576	149.549
783.951	181.473
787.326	227.646
790.7	260.76
794.075	302.97
797.45	374.008
800.825	429.774
804.2	455.145
807.574	430.381
810.949	429.281
814.324	427.214
817.699	381.601
821.074	353.662
824.448	314.604
827.823	289.396
831.198	267.05
834.573	251.166
837.948	249.238
841.323	227.403
844.697	232.319
848.072	227.734
851.447	209.196
854.822	237.976
858.197	216.168
861.571	222.4
864.946	246.668
868.321	266.725
871.696	249.112
875.071	258.268
878.446	289.469
881.82	254.063
885.195	233.559
888.57	195.353
891.945	173.854
895.32	157.75
898.694	111.715
902.069	86.3549
905.444	62.6585
908.819	13.2858
912.194	4.32843
915.568	24.987
918.943	43.8071
922.318	75.9588
925.693	81.504
929.068	80.2424
932.442	83.6573
935.817	53.1764
939.192	18.5602
942.567	76.5231
945.942	240.054
949.317	503.669
952.691	1062.9
956.066	1850.63
959.441	3227.28
962.816	5972.6
966.191	11394.2
969.566	20588.7
972.94	35878.8
976.315	60490
979.69	86911.8
983.065	59777.2
986.439	19250.3
989.814	6848.38
993.189	3113.06
996.564	1652.52
999.939	1098.81
1003.31	1107.93
1006.69	1361.36
1010.06	1447.96
1013.44	1425.77
1016.81	1370.3
1020.19	1502.82
1023.56	1964.78
1026.94	2815.31
1030.31	4193.04
1033.69	5925.35
1037.06	7056.79
1040.44	6684.37
1043.81	4736.69
1047.19	2901.26
1050.56	1759.73
1053.94	1159.63
1057.31	1059.48
1060.68	1430.45
1064.06	2495.35
1067.43	4587.59
1070.81	6975.02
1074.18	5326.9
1077.56	2685.01
1080.93	1481.73
1084.31	873.188
1087.68	542.53
1091.06	321.676
1094.43	162.296
1097.81	19.9273
1101.18	106.359
1104.56	127.648
1107.93	128.901
1111.31	82.3375
1114.68	32.554
1118.06	3.62671
1121.43	61.7833
1124.81	87.5109
1128.18	150.056
1131.56	108.736
1134.93	119.343
1138.31	172.154
1141.68	208.098
1145.06	178.321
1148.43	182.803
1151.81	244.452
1155.18	261.452
1158.56	281.286
1161.93	267.035
1165.31	243.922
1168.68	231.758
1172.05	204.34
1175.43	196.312
1178.8	233.288
1182.18	236.241
1185.55	263.011
1188.93	266.286
1192.3	271.01
1195.68	270.03
1199.05	243.879
1202.43	223.092
1205.8	183.541
1209.18	149.145
1212.55	167.208
1215.93	143.954
1219.3	115.957
1222.68	122.462
1226.05	106.765
1229.43	96.4862
1232.8	100.891
1236.18	79.8791
1239.55	77.6465
1242.92	81.3877
1246.3	79.1606
1249.67	83.1593
1253.05	75.012
1256.42	59.3245
1259.8	37.3081
1263.17	11.5514
1266.55	7.79233
1269.92	11.4027
1273.3	8.13443
1276.67	17.3071
1280.05	3.95999
1283.42	19.9536
1286.8	31.3596
