Measurement: Raman, 780 nm, unoriented, Raman Data Processed
Mineral: Triphylite
Rruff sample: R050366
Ideal chemistry: LiFe^2+^PO_4_
Locality: Cornelia mine, Hagendorf, Bavaria, Germany
Source: Marcus Origlieri
Description: Bluish gray massive associated with brown zwieselite R050279
Measured chemistry: Li_1.00_(Fe^2+^_0.80_Mn^2+^_0.20_)_Î£=1_P_1.00_O_4_ ; Li not measured but estimated by difference and charge balance.
Raman shift (cm-1)	intensity
134.95	0
137.842	5.1539
140.735	12.8203
143.628	25.4526
146.52	46.2499
149.413	38.0695
152.306	20.5753
155.199	27.4408
158.091	23.891
160.984	11.7687
163.877	4.65339
166.769	0.497271
169.662	0.534816
172.555	0.661938
175.447	0.773353
178.34	0.094346
181.233	0.127993
184.126	0.204309
187.018	0.26626
189.911	1.10406
192.804	1.25972
195.696	2.60616
198.589	4.25458
201.482	4.52632
204.375	3.86862
207.267	3.99808
210.16	4.72918
213.053	5.16984
215.945	6.47423
218.838	7.61424
221.731	9.17829
224.623	10.8806
227.516	12.8449
230.409	16.0729
233.302	20.5097
236.194	26.2079
239.087	29.5604
241.98	30.1202
244.872	34.0745
247.765	37.4877
250.658	38.9941
253.55	31.3016
256.443	20.47
259.336	12.1624
262.228	8.47946
265.121	5.92088
268.014	4.29206
270.907	3.51322
273.799	3.37052
276.692	3.7158
279.585	3.85724
282.477	3.78732
285.37	4.7877
288.263	4.93596
291.156	4.19047
294.048	3.46275
296.941	2.569
299.834	1.62129
302.726	1.00356
305.619	1.21984
308.512	0.871577
311.404	0.643543
314.297	0.878133
317.19	0.972165
320.082	1.06973
322.975	0.75382
325.868	0.615785
328.761	0.001405
331.653	0.149572
334.546	0.147217
337.439	0.00242
340.331	0.001242
343.224	0.311382
346.117	0.224393
349.01	0.203796
351.902	0.403801
354.795	0.083198
357.688	0.075899
360.58	0.310391
363.473	0.064484
366.366	0.104025
369.258	0.274015
372.151	0.693947
375.044	0.674197
377.937	1.30753
380.829	1.73657
383.722	2.37385
386.615	3.46958
389.507	4.33298
392.4	5.18937
395.293	6.08557
398.185	7.15922
401.078	7.62677
403.971	8.68357
406.863	7.88687
409.756	8.31125
412.649	8.97527
415.542	10.4395
418.434	12.467
421.327	15.0239
424.22	17.8388
427.112	22.5253
430.005	27.0618
432.898	30.9403
435.791	35.3756
438.683	38.3781
441.576	39.0727
444.469	37.5919
447.361	33.6684
450.254	28.0358
453.147	21.8575
456.039	17.1847
458.932	13.4782
461.825	10.5003
464.717	8.48297
467.61	6.29851
470.503	5.02043
473.396	3.92621
476.288	3.28119
479.181	2.41009
482.074	1.79108
484.966	1.53293
487.859	1.07361
490.752	0.893417
493.644	0.512724
496.537	0.138355
499.43	0.244184
502.323	0.182957
505.215	0.296068
508.108	0.001598
511.001	0.101698
513.893	0.063571
516.786	0.351116
519.679	0.145255
522.572	0.202629
525.464	0.163347
528.357	0.031156
531.25	0.162566
534.142	0.07289
537.035	0.387274
539.928	0.897926
542.82	1.04857
545.713	1.43066
548.606	2.12424
551.499	3.37016
554.391	5.05514
557.284	7.44616
560.177	10.472
563.069	13.2924
565.962	17.3549
568.855	21.8515
571.747	24.8606
574.64	23.6289
577.533	18.7443
580.426	14.1364
583.318	13.2997
586.211	14.4857
589.104	17.1333
591.996	17.3239
594.889	12.5111
597.782	6.7103
600.674	3.48226
603.567	1.90476
606.46	1.75044
609.352	1.98094
612.245	3.37052
615.138	5.09412
618.03	7.56978
620.923	10.1182
623.816	13.6052
626.709	17.942
629.601	16.0241
632.494	9.51983
635.387	5.10726
638.279	2.7803
641.172	2.03669
644.065	1.33757
646.957	1.12387
649.85	0.455339
652.743	0.17028
655.636	0.061037
658.528	0.023986
661.421	0.178238
664.314	0.050565
667.206	0.044208
670.099	0.015394
672.992	0.095252
675.885	0.290363
678.777	0.131272
681.67	0.215938
684.563	0.119816
687.455	0.029344
690.348	0.045806
693.241	0.196047
696.133	0.244883
699.026	0.119714
701.919	0.259673
704.812	0.346647
707.704	0.311837
710.597	0.449945
713.49	0.49702
716.382	0.273216
719.275	0.430335
722.168	0.201168
725.06	0.307695
727.953	0.290481
730.846	0.586412
733.739	0.296863
736.631	0.408914
739.524	0.556161
742.417	0.180502
745.309	0.291314
748.202	0.60035
751.095	0.196558
753.987	0.389947
756.88	0.335284
759.773	0.392693
762.665	0.285634
765.558	0.321051
768.451	0.175636
771.344	0.133973
774.236	0.370819
777.129	0.139509
780.022	0.182015
782.914	0.088677
785.807	0.220167
788.7	0.031443
791.592	0.149151
794.485	0.163664
797.378	0.140365
800.271	0.242219
803.163	0.018083
806.056	0.153189
808.949	0.201416
811.841	0.046219
814.734	0.056589
817.627	0.088356
820.519	0.363836
823.412	0.160109
826.305	0.315744
829.198	0.760275
832.09	0.671929
834.983	0.81876
837.876	0.870896
840.768	1.18973
843.661	1.3471
846.554	1.15285
849.447	1.34267
852.339	1.13236
855.232	0.480793
858.125	0.974888
861.017	0.756683
863.91	0.441931
866.803	0.50726
869.695	0.322274
872.588	0.338791
875.481	0.007084
878.374	0.238426
881.266	0.086629
884.159	0.173631
887.052	0.138271
889.944	0.28401
892.837	0.155357
895.73	0.231005
898.622	0.090344
901.515	0.05827
904.408	0.420005
907.301	0.45392
910.193	0.688894
913.086	1.46401
915.979	2.22416
918.871	3.70457
921.764	5.29644
924.657	7.74969
927.549	11.533
930.442	19.2964
933.335	36.505
936.227	84.9214
939.12	152.586
942.013	225.188
944.906	350.93
947.798	536.018
950.691	583.353
953.584	288.129
956.476	106.999
959.369	41.5359
962.262	21.1146
965.154	13.2575
968.047	9.20696
970.94	7.44353
973.833	6.92061
976.725	6.72816
979.618	9.36251
982.511	13.1664
985.403	21.2307
988.296	31.7172
991.189	44.8905
994.082	61.9543
996.974	79.0694
999.867	75.1365
1002.76	50.2294
1005.65	29.0877
1008.54	17.241
1011.44	12.1769
1014.33	10.3837
1017.22	8.01958
1020.12	4.65009
1023.01	2.12546
1025.9	1.18494
1028.79	0.20664
1031.69	0.081219
1034.58	0.182779
1037.47	0.421449
1040.37	0.376871
1043.26	0.237824
1046.15	0.033026
1049.04	0.11604
1051.94	0.645018
1054.83	2.80258
1057.72	5.76607
1060.61	9.38507
1063.51	14.6998
1066.4	22.4146
1069.29	23.2497
1072.18	12.7948
1075.08	9.5442
1077.97	10.5896
1080.86	11.9844
1083.76	8.57927
1086.65	4.13905
1089.54	2.18808
1092.43	1.30242
1095.33	0.67613
1098.22	0.393052
1101.11	0.062714
1104	0.165186
1106.9	0.037912
1109.79	4.3e-05
1112.68	0.064332
1115.58	0.257466
1118.47	0.049103
1121.36	0.286946
1124.25	0.07245
1127.15	0.009095
1130.04	0.214465
1132.93	0.23176
1135.82	0.241694
1138.72	0.121761
1141.61	0.104401
1144.5	0.214858
1147.39	0.114122
1150.29	0.216704
1153.18	0.051383
1156.07	0.237334
1158.96	0.477816
1161.86	0.318569
1164.75	0.444649
1167.64	0.744942
1170.54	0.61399
1173.43	0.917745
1176.32	0.986798
1179.21	1.18012
1182.11	0.916019
1185	0.905678
1187.89	0.514953
1190.79	0.461809
1193.68	0.147366
1196.57	0.171578
1199.46	0.066035
1202.36	0.17859
1205.25	0.039598
1208.14	0.169007
1211.03	0.065555
1213.93	0.125473
1216.82	0.132209
1219.71	0.024515
1222.61	0.023544
1225.5	0.027622
1228.39	0.043974
1231.28	0.15067
1234.18	0.020072
1237.07	0.198416
1239.96	0.128552
1242.85	0.136274
1245.75	0.158505
1248.64	0.49363
1251.53	0.409203
1254.42	0.599213
1257.32	0.628766
1260.21	0.45207
1263.1	0.389303
1265.99	0.534862
1268.89	0.392411
1271.78	0.578868
1274.67	0.55941
1277.57	0.142443
1280.46	0.169635
1283.35	0.41507
1286.24	0
