Measurement: Raman, 532 nm, unoriented, Raman Data Processed
Mineral: Triphylite
Rruff sample: R050257
Ideal chemistry: LiFe^2+^PO_4_
Locality: Palermo mine, North Groton, Grafton County, New Hampshire, USA
Source: Marcus Origlieri
Description: Dark gray massive
Measured chemistry: Li_1.00_(Fe^2+^_0.73_Mn^2+^_0.19_Mg_0.08_)_Î£=1_P_1.00_O_4_
Raman shift (cm-1)	intensity
103.898	0
107.273	11.4945
110.648	8.4704
114.023	2.37262
117.398	6.45569
120.772	0.593008
124.147	8.55527
127.522	33.1535
130.897	80.9447
134.272	143.097
137.647	212.138
141.021	299.802
144.396	432.048
147.771	650.106
151.146	672.873
154.521	754.548
157.895	842.609
161.27	551.398
164.645	233.417
168.02	80.6711
171.395	45.2507
174.769	26.9916
178.144	27.4271
181.519	39.6754
184.894	60.933
188.269	120.477
191.644	181.79
195.018	302.388
198.393	428.207
201.768	412.432
205.143	251.326
208.518	132.061
211.893	39.4397
215.267	12.7788
218.642	22.1015
222.017	30.9847
225.392	59.8053
228.767	97.4285
232.141	169.571
235.516	294.855
238.891	432.979
242.266	406.829
245.641	396.022
249.015	435.362
252.39	441.379
255.765	311.448
259.14	180.96
262.515	92.7697
265.889	44.4603
269.264	6.72774
272.639	0.4095
276.014	12.0259
279.389	1.41704
282.764	8.58366
286.138	11.262
289.513	21.5905
292.888	16.3825
296.263	11.1148
299.638	7.03998
303.012	11.1732
306.387	14.5573
309.762	48.493
313.137	90.5412
316.512	156.141
319.887	210.04
323.261	227.167
326.636	184.812
330.011	104.616
333.386	61.3819
336.761	45.1393
340.135	22.1472
343.51	18.6783
346.885	2.48508
350.26	0.701553
353.635	3.78265
357.01	9.41573
360.384	8.98759
363.759	2.93482
367.134	2.13199
370.509	1.31333
373.884	8.78734
377.258	15.3785
380.633	31.5755
384.008	47.5369
387.383	65.9219
390.758	108.919
394.132	167.596
397.507	208.681
400.882	268.337
404.257	300.912
407.632	341.994
411.007	379.048
414.381	458.755
417.756	565.857
421.131	695.246
424.506	845.41
427.881	955.644
431.255	1114.94
434.63	1265.24
438.005	1375.87
441.38	1436.5
444.755	1442.16
448.13	1258.9
451.504	1011.64
454.879	782.113
458.254	598.249
461.629	447.941
465.003	341.849
468.378	264.72
471.753	192.647
475.128	160.095
478.503	135.831
481.878	95.6313
485.252	76.0074
488.627	72.3047
492.002	42.9053
495.377	22.4157
498.752	21.1554
502.127	0.861526
505.501	0.218765
508.876	1.47824
512.251	1.4667
515.626	4.04735
519	2.411
522.375	11.4705
525.75	5.939
529.125	5.21389
532.5	1.14287
535.875	3.80502
539.249	8.63115
542.624	3.74918
545.999	22.1342
549.374	61.7624
552.749	98.2625
556.124	136.941
559.498	212.99
562.873	343.918
566.248	528.167
569.623	780.386
572.998	1015.86
576.372	1081.55
579.747	936.753
583.122	888.212
586.497	1104
589.872	1319.45
593.246	970.069
596.621	616.489
599.996	398.922
603.371	234.683
606.746	176.277
610.12	177.606
613.495	292.42
616.87	562.151
620.245	975.9
623.62	1615.31
626.995	2418.91
630.369	2514.94
633.744	1402.09
637.119	661.531
640.494	365.347
643.869	237.584
647.244	170.561
650.618	99.0097
653.993	72.9207
657.368	52.9087
660.743	19.7822
664.117	0.762604
667.492	1.59986
670.867	0.673264
674.242	2.96429
677.617	1.4595
680.992	2.56364
684.366	5.98892
687.741	8.3719
691.116	4.37143
694.491	2.08227
697.866	4.96948
701.24	6.37625
704.615	7.18154
707.99	11.284
711.365	16.2329
714.74	0.729321
718.115	21.2081
721.489	20.3808
724.864	22.827
728.239	23.0002
731.614	26.461
734.989	37.9885
738.363	37.6423
741.738	31.0057
745.113	42.6774
748.488	32.5824
751.863	44.6126
755.237	28.2189
758.612	17.512
761.987	26.435
765.362	34.0176
768.737	31.3434
772.112	28.5
775.486	26.3202
778.861	24.1302
782.236	20.4643
785.611	33.5024
788.986	27.6868
792.361	24.088
795.735	23.0712
799.11	4.44912
802.485	14.7894
805.86	19.2407
809.235	19.7855
812.609	13.8387
815.984	18.3495
819.359	24.951
822.734	31.2314
826.109	43.6247
829.483	46.4081
832.858	46.0852
836.233	71.7832
839.608	69.3975
842.983	74.6386
846.357	76.1814
849.732	74.9161
853.107	60.0552
856.482	50.8856
859.857	32.5774
863.231	28.5932
866.606	2.16518
869.981	2.23009
873.356	10.833
876.731	7.41695
880.106	8.73106
883.48	13.3491
886.855	3.55069
890.23	16.1173
893.605	9.28671
896.98	0.111328
900.355	6.44315
903.729	20.9073
907.104	41.2551
910.479	71.1665
913.854	97.3616
917.229	168.837
920.603	277.552
923.978	427.066
927.353	559.931
930.728	848.391
934.103	1356.85
937.477	2480.89
940.852	5876.29
944.227	13461.3
947.602	25744.4
950.977	39031.8
954.351	22314.4
957.726	7787.43
961.101	2746.24
964.476	1337.18
967.851	857.313
971.226	697.977
974.6	616.039
977.975	554.843
981.35	584.278
984.725	733.663
988.1	999.383
991.475	1409.9
994.849	2030.04
998.224	2864.62
1001.6	3406.04
1004.97	2746.66
1008.35	1479.46
1011.72	798.054
1015.1	506.352
1018.47	413.771
1021.85	253.677
1025.22	109.347
1028.6	27.2371
1031.97	2.86392
1035.35	20.87
1038.72	32.8274
1042.1	15.5677
1045.47	17.5659
1048.85	16.9547
1052.22	49.329
1055.6	167.192
1058.97	456.291
1062.35	1082.6
1065.72	2083.36
1069.1	3013.9
1072.47	1783.4
1075.85	822.97
1079.22	625.838
1082.59	624.733
1085.97	349.268
1089.34	166.229
1092.72	94.6895
1096.09	59.031
1099.47	34.5157
1102.84	25.676
1106.22	13.1052
1109.59	5.01468
1112.97	9.39337
1116.34	8.94667
1119.72	10.2566
1123.09	1.93266
1126.47	13.8915
1129.84	11.5741
1133.22	21.0169
1136.59	11.6304
1139.97	9.94441
1143.34	14.2024
1146.72	4.3391
1150.09	19.3561
1153.47	11.2723
1156.84	2.43002
1160.21	3.62204
1163.59	21.6723
1166.96	4.77927
1170.34	17.7714
1173.71	35.6932
1177.09	30.2292
1180.46	49.2656
1183.84	36.5944
1187.21	46.0348
1190.59	30.4817
1193.96	45.5181
1197.34	26.4615
1200.71	22.359
1204.09	6.9046
1207.46	19.2699
1210.84	3.88172
1214.21	1.14529
1217.59	1.99977
1220.96	4.51652
1224.34	7.68108
1227.71	7.33856
1231.09	7.32584
1234.46	10.6979
1237.84	4.05663
1241.21	4.69729
1244.59	9.97852
1247.96	13.0161
1251.34	23.1638
1254.71	32.0827
1258.09	34.0305
1261.46	49.2394
1264.83	57.9092
1268.21	48.8035
1271.58	41.9795
1274.96	42.0237
1278.33	38.8059
1281.71	47.0997
1285.08	45.2364
1288.46	30.7366
1291.83	33.6687
1295.21	29.8712
1298.58	37.249
1301.96	23.2292
1305.33	29.7704
1308.71	41.4998
1312.08	41.2423
1315.46	65.7693
1318.83	0
