Measurement: Raman, 532 nm, unoriented, Raman Data Processed
Mineral: Triphylite
Rruff sample: R050624
Ideal chemistry: LiFe^2+^PO_4_
Locality: Minas Gerais, Brazil
Source: Gemological Center
Description: Brown fragment
Measured chemistry: Li_1.00_(Fe^2+^_0.55_Mn^2+^_0.45_)_Î£=1_P_1.00_O_4_ ; Li not measured, but estimated by difference
Raman shift (cm-1)	intensity
123.899	0
127.274	11.7274
130.649	60.4186
134.024	181.37
137.399	374.622
140.773	536.842
144.148	778.487
147.523	991.311
150.898	583.114
154.273	515.918
157.647	285.428
161.022	204.842
164.397	117.085
167.772	69.8412
171.147	58.1013
174.522	36.7958
177.896	32.4634
181.271	31.8803
184.646	22.4691
188.021	29.2074
191.396	32.2264
194.77	52.5676
198.145	93.2978
201.52	93.6334
204.895	33.2681
208.27	6.59509
211.645	13.8903
215.019	1.26648
218.394	26.0286
221.769	54.4071
225.144	82.1991
228.519	151.418
231.893	244.546
235.268	339.502
238.643	295.055
242.018	269.672
245.393	303.467
248.768	295.019
252.142	192.448
255.517	90.2731
258.892	35.8171
262.267	13.6885
265.642	4.09363
269.017	5.39478
272.391	6.20367
275.766	2.43274
279.141	11.1885
282.516	23.9187
285.891	44.3417
289.265	45.7224
292.64	38.7988
296.015	28.0129
299.39	27.7871
302.765	31.8101
306.14	43.3164
309.514	66.9705
312.889	87.9424
316.264	105.706
319.639	95.8233
323.014	64.4816
326.389	29.9611
329.763	22.381
333.138	13.9239
336.513	4.71857
339.888	2.64069
343.263	0.705444
346.637	5.19946
350.012	0.971741
353.387	3.71728
356.762	0.018738
360.137	3.14551
363.512	2.3028
366.886	0.771851
370.261	5.65076
373.636	17.449
377.011	26.3497
380.386	43.181
383.76	57.496
387.135	81.6853
390.51	113.519
393.885	145.609
397.26	179.956
400.635	212.659
404.009	226.339
407.384	243.859
410.759	259.088
414.134	294.38
417.509	335.74
420.884	394.964
424.258	460.94
427.633	546.173
431.008	634.033
434.383	722.514
437.758	793.488
441.132	835.681
444.507	796.822
447.882	676.914
451.257	530.472
454.632	398.938
458.007	289.81
461.381	211.791
464.756	159.819
468.131	120.46
471.506	95.4659
474.881	70.0125
478.255	54.8477
481.63	41.1883
485.005	32.058
488.38	19.8721
491.755	15.9752
495.13	7.823
498.504	8.62256
501.879	6.39429
505.254	6.49689
508.629	1.64166
512.004	2.82159
515.379	3.51044
518.753	3.74457
522.128	6.68146
525.503	4.40588
528.878	0.406433
532.253	0.435181
535.627	0.544434
539.002	8.55188
542.377	16.6396
545.752	28.2474
549.127	44.1247
552.501	63.8399
555.876	105.35
559.251	163.277
562.626	255.085
566.001	367.67
569.376	522.471
572.75	709.307
576.125	821.204
579.5	672.7
582.875	541.062
586.25	575.316
589.625	644.699
592.999	517.765
596.374	308.172
599.749	155.892
603.124	75.4585
606.499	56.6527
609.874	56.6113
613.248	88.6931
616.623	154.844
619.998	243.637
623.373	405.592
626.748	563.467
630.122	417.141
633.497	187.408
636.872	102.442
640.247	87.1979
643.622	48.4633
646.996	25.3931
650.371	19.4781
653.746	8.49982
657.121	2.96722
660.496	2.58832
663.871	2.91467
667.245	2.81213
670.62	6.78119
673.995	0.353516
677.37	0.826416
680.745	0.724792
684.12	0.101685
687.494	1.38013
690.869	0.514954
694.244	0.644653
697.619	3.77789
700.994	7.12665
704.368	5.85809
707.743	1.37836
711.118	2.58655
714.493	4.54596
717.868	11.947
721.243	9.10535
724.617	13.1039
727.992	14.4446
731.367	14.7147
734.742	26.9058
738.117	20.2977
741.491	16.4682
744.866	13.6076
748.241	20.2532
751.616	12.3521
754.991	19.4362
758.366	9.49072
761.74	10.691
765.115	5.3938
768.49	12.7273
771.865	7.02814
775.24	2.76569
778.615	3.63055
781.989	4.53076
785.364	5.72284
788.739	0.764526
792.114	4.9541
795.489	8.8277
798.863	12.0487
802.238	22.7265
805.613	29.12
808.988	31.4691
812.363	22.7885
815.737	35.9555
819.112	41.3915
822.487	44.0859
825.862	45.8529
829.237	50.7647
832.612	54.4359
835.986	55.1942
839.361	58.4838
842.736	55.4789
846.111	43.3472
849.486	39.6036
852.861	23.9084
856.235	17.4214
859.61	22.2611
862.985	10.3001
866.36	12.2692
869.735	9.81305
873.11	0.939392
876.484	2.31397
879.859	5.45807
883.234	2.65289
886.609	5.50214
889.984	1.2951
893.358	2.21161
896.733	5.66211
900.108	0.151184
903.483	11.8675
906.858	18.2544
910.232	38.8359
913.607	58.4033
916.982	99.6434
920.357	134.683
923.732	185.755
927.107	283.768
930.481	457.628
933.856	850.586
937.231	2002.33
940.606	4076.89
943.981	7169.77
947.356	13418.6
950.73	19347.6
954.105	9717.4
957.48	3112.5
960.855	1032.59
964.23	519.832
967.605	332.263
970.979	244.229
974.354	222.831
977.729	199.473
981.104	176.116
984.479	206.932
987.853	323.471
991.228	518.742
994.603	809.058
997.978	1293
1001.35	1654.29
1004.73	1344.13
1008.1	715.888
1011.48	390.691
1014.85	290.092
1018.23	233.788
1021.6	124.251
1024.98	36.027
1028.35	5.18384
1031.73	6.85168
1035.1	1.04376
1038.48	4.13647
1041.85	1.68304
1045.22	11.3275
1048.6	9.9101
1051.97	2.40094
1055.35	20.5117
1058.72	66.7086
1062.1	140.049
1065.47	292.947
1068.85	466.364
1072.22	241.282
1075.6	143.848
1078.97	194.089
1082.35	218.99
1085.72	92.3499
1089.1	33.6642
1092.47	19.1822
1095.85	9.96948
1099.22	14.6158
1102.6	15.7396
1105.97	18.2554
1109.35	30.8002
1112.72	41.4507
1116.1	39.7711
1119.47	33.0563
1122.85	20.6341
1126.22	5.55872
1129.6	4.39313
1132.97	2.46759
1136.35	5.703
1139.72	2.05377
1143.1	4.06506
1146.47	6.4519
1149.85	3.42004
1153.22	3.90326
1156.59	4.21033
1159.97	2.23041
1163.34	4.61853
1166.72	5.2309
1170.09	17.8404
1173.47	17.9988
1176.84	27.1717
1180.22	39.3647
1183.59	45.9123
1186.97	48.0751
1190.34	31.0837
1193.72	15.4851
1197.09	8.65045
1200.47	4.99695
1203.84	0.799561
1207.22	0.614319
1210.59	0.30481
1213.97	2.14697
1217.34	8.08032
1220.72	9.73291
1224.09	14.7611
1227.47	15.0838
1230.84	15.9891
1234.21	17.8432
1237.59	12.6572
1240.96	5.69196
1244.34	14.7668
1247.71	17.5336
1251.09	20.269
1254.46	25.5822
1257.84	14.0756
1261.21	9.27478
1264.59	14.4747
1267.96	12.1381
1271.34	12.4552
1274.71	6.42175
1278.09	2.68274
1281.46	5.66821
1284.84	2.89172
1288.21	7.26276
1291.59	10.0051
1294.96	2.07519
1298.34	6.13623
1301.71	1.75232
