Measurement: Raman, 785 nm, unoriented, Raman Data Processed
Mineral: Tripuhyite
Rruff sample: R070383
Ideal chemistry: Fe^3+^Sb^5+^O_4_
Locality: Le Cetine di Cotorniano Mine (Le Cetine Mine; Cetine Mine; Rosia), Chiusdino, Siena Province, Tuscany, Italy
Source: Michael Scott
Description: Transparent green equant crystals associated with valentinite, clinocervantite R070385, and rosiaite R070384
Raman shift (cm-1)	intensity
136.447	0
139.34	0.658989
142.232	9.52139
145.125	23.887
148.018	42.3705
150.911	42.0771
153.803	29.8035
156.696	31.576
159.589	11.9644
162.481	19.9083
165.374	16.496
168.267	27.939
171.16	18.1592
174.052	41.6946
176.945	42.4124
179.838	54.7685
182.73	75.5373
185.623	99.2854
188.516	165.98
191.408	182.746
194.301	89.1558
197.194	66.6233
200.087	71.208
202.979	71.3206
205.872	60.0639
208.765	42.1151
211.657	21.0715
214.55	21.7357
217.443	0.753464
220.335	9.3685
223.228	1.79974
226.121	15.143
229.013	3.26239
231.906	9.81085
234.799	9.90662
237.692	13.8207
240.584	41.1857
243.477	76.4068
246.37	129.145
249.262	160.505
252.155	268.367
255.048	365.824
257.941	215.26
260.833	79.3349
263.726	59.9714
266.619	97.6808
269.511	192.073
272.404	294.712
275.297	362.834
278.19	514.283
281.082	864.755
283.975	1138.75
286.868	557.378
289.76	244.512
292.653	149.704
295.546	126.88
298.438	108.495
301.331	93.8498
304.224	133.156
307.116	193.234
310.009	229.664
312.902	304.139
315.795	501.64
318.687	701.904
321.58	423.877
324.473	156.482
327.365	89.6455
330.258	31.2996
333.151	20.1728
336.043	14.1806
338.936	11.1788
341.829	0.774719
344.721	2.26096
347.614	10.6478
350.507	6.81024
353.4	1.79669
356.292	11.4403
359.185	12.6471
362.078	29.1408
364.97	18.7227
367.863	36.6843
370.756	48.6048
373.649	63.9206
376.541	52.5067
379.434	40.6926
382.327	32.4733
385.219	19.7321
388.112	21.7455
391.005	16.2947
393.897	20.2504
396.79	34.5713
399.683	25.5166
402.575	47.7831
405.468	13.7897
408.361	6.63623
411.254	0.437164
414.146	0.179291
417.039	1.30539
419.932	0.910034
422.824	1.42804
425.717	14.2886
428.61	26.1769
431.502	0.841644
434.395	10.5653
437.288	7.93564
440.181	26.1746
443.073	26.0151
445.966	45.6796
448.859	57.0114
451.751	69.112
454.644	57.1454
457.537	62.884
460.43	55.5815
463.322	74.3127
466.215	107.224
469.108	112.486
472	136.663
474.893	158.979
477.786	153.935
480.678	105.329
483.571	67.2281
486.464	40.0864
489.356	53.3511
492.249	88.5065
495.142	119.19
498.035	169.878
500.927	236.461
503.82	304.169
506.713	417.359
509.605	527.091
512.498	684.363
515.391	903.985
518.284	1233.45
521.176	1865.8
524.069	2941
526.962	4701.77
529.854	6965.23
532.747	9766.43
535.64	13122.3
538.533	14587.2
541.425	10863.1
544.318	5894.17
547.211	3085.75
550.103	1807.28
552.996	1069.05
555.889	705.095
558.781	475.824
561.674	304.37
564.567	212.018
567.459	154.283
570.352	92.3922
573.245	88.0038
576.138	50.6011
579.03	54.5723
581.923	8.75098
584.816	1.56232
587.708	4.53772
590.601	22.9415
593.494	17.9258
596.386	9.55896
599.279	32.4469
602.172	76.4092
605.064	116.567
607.957	198.8
610.85	270.25
613.743	345.528
616.635	278.349
619.528	153.437
622.421	71.8074
625.313	17.7976
628.206	13.3119
631.099	1.63837
633.991	12.0122
636.884	10.9932
639.777	49.2473
642.67	66.5844
645.562	113.821
648.455	184.247
651.348	287.558
654.24	440.481
657.133	664.964
660.026	1022.79
662.918	1498.07
665.811	1943.04
668.704	2329.83
671.597	2590.86
674.489	2371.74
677.382	1649.68
680.275	895.774
683.167	462.736
686.06	233.546
688.953	122.953
691.846	40.7952
694.738	0.009216
697.631	8.69415
700.524	16.5245
703.416	9.44543
706.309	33.7037
709.202	48.7109
712.094	128.97
714.987	201.939
717.88	362.803
720.773	595.062
723.665	856.297
726.558	1386.6
729.451	2230.84
732.343	3406.33
735.236	4739.19
738.129	5990.77
741.021	6213.24
743.914	4573.51
746.807	2609.24
749.699	1415.21
752.592	799.289
755.485	490.771
758.378	333.497
761.27	231.347
764.163	179.841
767.056	120.991
769.948	92.6398
772.841	62.3087
775.734	47.4245
778.626	43.5874
781.519	28.9688
784.412	22.2852
787.305	17.5888
790.197	30.1414
793.09	12.4821
795.983	2.62573
798.875	11.4627
801.768	22.4163
804.661	32.6034
807.553	44.9718
810.446	32.2875
813.339	52.0232
816.232	55.1541
819.124	48.2913
822.017	63.3013
824.91	45.4099
827.802	20.4814
830.695	7.87125
833.588	11.3765
836.481	4.68994
839.373	14.3898
842.266	12.2087
845.159	0.022522
848.051	2.91333
850.944	5.35153
853.837	5.14673
856.729	2.93414
859.622	8.52206
862.515	9.75806
865.408	5.78589
868.3	24.642
871.193	29.4133
874.086	20.8967
876.978	24.561
879.871	36.6677
882.764	22.6762
885.656	19.8468
888.549	52.0397
891.442	25.846
894.335	7.59345
897.227	15.1393
900.12	14.8008
903.013	19.941
905.905	12.1504
908.798	19.735
911.691	8.46526
914.583	9.25205
917.476	4.49225
920.369	2.93584
923.261	12.6787
926.154	8.0632
929.047	14.4994
931.94	17.4637
934.832	12.8462
937.725	20.6041
940.618	18.2635
943.51	23.9209
946.403	22.0022
949.296	13.3919
952.188	27.5104
955.081	16.5799
957.974	13.7842
960.867	12.44
963.759	17.0753
966.652	7.4332
969.545	16.4016
972.437	5.2648
975.33	1.19461
978.223	8.50763
981.115	11.5812
984.008	12.9301
986.901	23.044
989.794	1.86643
992.686	25.3481
995.579	15.2827
998.472	5.00964
1001.36	14.7251
1004.26	22.1172
1007.15	7.366
1010.04	3.09213
1012.93	11.9519
1015.83	6.71072
1018.72	6.46951
1021.61	8.32184
1024.51	10.8422
1027.4	12.0274
1030.29	23.2913
1033.18	5.17483
1036.08	23.1689
1038.97	17.0935
1041.86	25.6112
1044.76	11.2058
1047.65	16.8508
1050.54	34.2181
1053.43	16.8282
1056.33	12.3965
1059.22	19.0747
1062.11	25.2147
1065	18.8318
1067.9	18.8362
1070.79	10.1395
1073.68	10.7258
1076.58	12.6435
1079.47	10.2648
1082.36	4.95969
1085.25	13.8118
1088.14	9.46191
1091.04	10.9763
1093.93	0.971512
1096.82	2.45517
1099.72	8.18486
1102.61	5.44934
1105.5	15.3746
1108.39	10.6058
1111.29	16.4066
1114.18	13.9147
1117.07	10.7375
1119.96	7.24379
1122.86	8.83383
1125.75	2.07124
1128.64	6.17372
1131.54	6.5233
1134.43	21.5825
1137.32	15.3677
1140.21	13.0158
1143.11	23.7331
1146	12.059
1148.89	16.4552
1151.79	11.3859
1154.68	0.614853
1157.57	0.459854
1160.46	12.9614
1163.36	11.7201
1166.25	14.8424
1169.14	9.9572
1172.03	6.64236
1174.93	16.2659
1177.82	15.7337
1180.71	7.6664
1183.6	20.8418
1186.5	8.93475
1189.39	33.3204
1192.28	7.59067
1195.17	12.5727
1198.07	6.9966
1200.96	14.2903
1203.85	4.17171
1206.75	21.1207
1209.64	15.229
1212.53	17.6835
1215.42	15.0425
1218.32	2.74774
1221.21	4.5173
1224.1	2.23566
1226.99	12.3302
1229.89	23.8721
1232.78	10.5224
1235.67	0.076645
