Measurement: Raman, 532 nm, unoriented, Raman Data Processed
Mineral: Triphylite
Rruff sample: R050494
Ideal chemistry: LiFe^2+^PO_4_
Locality: Big Chief mine, Glendale, Pennington County, South Dakota, USA
Source: California Institute of Technology
Description: Bluish gray fragment
Measured chemistry: Li_1.00_(Fe^2+^_0.75_Mn^2+^_0.23_Mg_0.02_)_Î£=1_P_1.00_O_4_ ; Li not measured but estimated by difference
Raman shift (cm-1)	intensity
129.577	116.365
132.952	134.715
136.327	159.481
139.702	196.782
143.076	231.648
146.451	290.784
149.826	323.505
153.201	347.307
156.576	448.838
159.951	294.392
163.325	169.214
166.7	134.44
170.075	125.621
173.45	125.385
176.825	133.893
180.199	150.547
183.574	186.296
186.949	224.661
190.324	265.395
193.699	331.68
197.073	460.156
200.448	548.376
203.823	386.184
207.198	224.107
210.573	162.82
213.948	145.52
217.322	140.167
220.697	146.457
224.072	163.557
227.447	182.523
230.822	212.321
234.196	269.432
237.571	349.842
240.946	374.053
244.321	357.846
247.696	410.029
251.071	456.934
254.445	386.653
257.82	275.161
261.195	203.604
264.57	166.066
267.945	148.299
271.32	136.949
274.694	134.212
278.069	130.172
281.444	131.159
284.819	135.656
288.193	135.561
291.568	136.161
294.943	130.157
298.318	129.153
301.693	128.688
305.068	135.238
308.442	144.051
311.817	156.223
315.192	176.101
318.567	199.417
321.942	209.655
325.317	184.679
328.691	159.877
332.066	140.443
335.441	130.585
338.816	123.663
342.191	121.304
345.565	120.478
348.94	117.512
352.315	119.642
355.69	117.483
359.065	117.172
362.44	118.347
365.814	120.652
369.189	121.693
372.564	122.991
375.939	125.1
379.314	131.134
382.688	135.639
386.063	140.048
389.438	154.994
392.813	165.005
396.188	177.464
399.562	194.139
402.937	204.815
406.312	219.243
409.687	234.055
413.062	254.407
416.437	283.235
419.811	311.417
423.186	349.27
426.561	378.236
429.936	407.285
433.311	430.322
436.685	439.969
440.06	437.228
443.435	417.55
446.81	375.041
450.185	325.584
453.56	278.307
456.934	242.154
460.309	217.387
463.684	199.144
467.059	181.727
470.434	167.791
473.808	156.295
477.183	148.586
480.558	143.997
483.933	139.345
487.308	134.063
490.683	130.529
494.057	127.439
497.432	126.49
500.807	125.366
504.182	125.571
507.557	120.689
510.931	123.814
514.306	119.388
517.681	122.227
521.056	122.542
524.431	120.054
527.806	120.54
531.18	121.114
534.555	124.045
537.93	127.397
541.305	128.869
544.68	134.088
548.054	139.322
551.429	149.541
554.804	167.267
558.179	195.618
561.554	246.944
564.928	317.367
568.303	415.927
571.678	518.576
575.053	572.055
578.428	494.171
581.803	410.749
585.177	420.995
588.552	456.826
591.927	402.184
595.302	286.322
598.677	205.207
602.052	167.884
605.426	154.222
608.801	155.022
612.176	165.272
615.551	203.484
618.926	261.353
622.3	352.241
625.675	457.464
629.05	510.266
632.425	368.415
635.8	228.222
639.174	175.833
642.549	150.916
645.924	139.934
649.299	130.245
652.674	124.727
656.048	122.434
659.423	117.786
662.798	117.748
666.173	115.516
669.548	114.679
672.923	114.874
676.297	113.974
679.672	112.565
683.047	112.763
686.422	109.888
689.797	111.374
693.172	114.09
696.546	112.976
699.921	110.88
703.296	111.654
706.671	113.906
710.046	115.635
713.42	115.442
716.795	117.643
720.17	117.421
723.545	118.774
726.92	120.466
730.294	118.449
733.669	121.995
737.044	119.553
740.419	121.818
743.794	121.36
747.169	120.373
750.543	125.135
753.918	121.48
757.293	123.911
760.668	121.638
764.043	121.756
767.418	123.357
770.792	121.582
774.167	123.601
777.542	123.92
780.917	124.017
784.292	124.525
787.666	126.108
791.041	124.352
794.416	126.307
797.791	122.914
801.166	125.433
804.54	126.362
807.915	123.417
811.29	127.484
814.665	127.402
818.04	127.119
821.415	125.115
824.789	128.856
828.164	130.146
831.539	133.177
834.914	135.772
838.289	137.895
841.663	138.72
845.038	138.494
848.413	140.873
851.788	140.822
855.163	143.369
858.538	145.518
861.912	149.661
865.287	149.429
868.662	151.48
872.037	152.487
875.412	153.31
878.786	158.553
882.161	157.424
885.536	157.353
888.911	160.142
892.286	161.825
895.66	164.731
899.035	166.516
902.41	171.662
905.785	181.188
909.16	184.861
912.535	197.668
915.909	215.441
919.284	243.241
922.659	269.143
926.034	305.672
929.409	366.911
932.784	495.951
936.158	795.307
939.533	1730.11
942.908	3445.38
946.283	6768.4
949.658	11630.7
953.032	9651.07
956.407	3410.25
959.782	1193.92
963.157	598.19
966.532	417.903
969.907	340.15
973.281	301.315
976.656	292.894
980.031	303.499
983.406	336.35
986.781	412.057
990.155	548.654
993.53	772.984
996.905	1077.59
1000.28	1330.6
1003.65	1112.36
1007.03	670.18
1010.4	428.979
1013.78	322.023
1017.15	271.541
1020.53	228.79
1023.9	192.923
1027.28	173.218
1030.65	164.067
1034.03	155.855
1037.4	155.961
1040.78	149.854
1044.15	148.097
1047.53	151.276
1050.9	154.257
1054.28	172.417
1057.65	220.033
1061.03	337.974
1064.4	529.054
1067.78	866.127
1071.15	811.907
1074.53	376.233
1077.9	256.151
1081.28	242.133
1084.65	212.217
1088.03	177.956
1091.4	160.253
1094.78	150.42
1098.15	147.969
1101.52	144.445
1104.9	144.452
1108.27	145.03
1111.65	142.242
1115.02	140.903
1118.4	138.738
1121.77	141.643
1125.15	142.828
1128.52	140.299
1131.9	139.637
1135.27	137.281
1138.65	137.018
1142.02	135.562
1145.4	134.539
1148.77	133.297
1152.15	132.966
1155.52	127.197
1158.9	130.08
1162.27	128.87
1165.65	131.618
1169.02	132.987
1172.4	132.958
1175.77	136.802
1179.14	138.529
1182.52	139.838
1185.89	136.919
1189.27	137.181
1192.64	133.836
1196.02	131.017
1199.39	129.147
1202.77	126.615
1206.14	127.962
1209.52	124.852
1212.89	124.806
1216.27	125.627
1219.64	124.434
1223.02	124.18
1226.39	124.426
1229.77	123.803
1233.14	122.089
1236.52	124.777
1239.89	127.901
1243.27	127.447
1246.64	129.592
1250.02	131.176
1253.39	131.718
1256.77	134.015
1260.14	138.456
1263.52	139.596
1266.89	138.861
1270.27	138.316
1273.64	138.737
1277.02	139.686
1280.39	135.177
1283.76	136.416
1287.14	137.441
1290.51	135.612
1293.89	135.633
1297.26	133.925
1300.64	132.738
