Measurement: Raman, 532 nm, unoriented, Raman Data Processed
Mineral: Tripuhyite
Rruff sample: R070383
Ideal chemistry: Fe^3+^Sb^5+^O_4_
Locality: Le Cetine di Cotorniano Mine (Le Cetine Mine; Cetine Mine; Rosia), Chiusdino, Siena Province, Tuscany, Italy
Source: Michael Scott
Description: Transparent green equant crystals associated with valentinite, clinocervantite R070385, and rosiaite R070384
Raman shift (cm-1)	intensity
139.055	0
142.43	7.86594
145.805	9.83944
149.18	6.39639
152.554	6.99367
155.929	19.7929
159.304	11.1986
162.679	12.844
166.054	3.61324
169.429	5.01173
172.803	5.42284
176.178	0.566452
179.553	13.613
182.928	22.2872
186.303	45.419
189.678	64.6334
193.052	35.8536
196.427	16.4065
199.802	44.6431
203.177	40.5485
206.552	37.4065
209.926	25.8735
213.301	32.9737
216.676	30.589
220.051	20.9696
223.426	17.3891
226.8	13.5428
230.175	0.870438
233.55	3.2498
236.925	0.147217
240.3	6.677
243.675	16.6322
247.049	58.6999
250.424	112.15
253.799	186.986
257.174	159.567
260.549	58.2319
263.923	44.1663
267.298	94.2685
270.673	195.417
274.048	315.9
277.423	582.98
280.798	892.41
284.173	1078.55
287.547	332.871
290.922	166.748
294.297	111.538
297.672	92.3234
301.046	102.363
304.421	107.958
307.796	146.022
311.171	232.641
314.546	379.801
317.921	575.52
321.295	328.628
324.67	139.736
328.045	67.3925
331.42	26.1742
334.795	12.7431
338.17	2.76446
341.544	2.73952
344.919	14.5898
348.294	7.75206
351.669	0.198639
355.044	7.83908
358.418	9.77684
361.793	19.3467
365.168	23.3493
368.543	27.2976
371.918	36.1838
375.293	49.3235
378.667	39.0568
382.042	26.481
385.417	23.2232
388.792	20.2856
392.167	18.7588
395.541	16.5402
398.916	26.8712
402.291	7.46834
405.666	12.2931
409.041	1.01303
412.416	6.78558
415.79	3.81265
419.165	13.9899
422.54	10.0828
425.915	1.49968
429.29	3.7383
432.664	5.55109
436.039	8.64943
439.414	9.73091
442.789	14.4114
446.164	29.1486
449.538	36.0615
452.913	29.9036
456.288	26.3539
459.663	34.9432
463.038	49.4193
466.413	81.1448
469.787	102.847
473.162	120.064
476.537	113.42
479.912	91.1443
483.287	74.5304
486.661	50.9833
490.036	74.8993
493.411	109.472
496.786	180.816
500.161	266.567
503.536	356.038
506.911	475.799
510.285	619.68
513.66	839.606
517.035	1246.58
520.41	1906.96
523.784	3340.57
527.159	5957.56
530.534	9413.22
533.909	12927.9
537.284	15229.1
540.659	11346
544.033	5435.84
547.408	2583.75
550.783	1443
554.158	854.244
557.533	525.89
560.908	327.842
564.282	206.856
567.657	132.458
571.032	90.3519
574.407	57.0756
577.782	15.5571
581.156	8.04172
584.531	28.9854
587.906	15.3827
591.281	19.4902
594.656	20.0474
598.031	78.1798
601.405	179.599
604.78	359.768
608.155	552.624
611.53	724.65
614.905	753.141
618.279	469.211
621.654	187.92
625.029	90.5283
628.404	47.7716
631.779	53.8961
635.154	55.3298
638.528	69.7445
641.903	129.047
645.278	205.519
648.653	334.137
652.028	596.814
655.403	960.493
658.777	1566.08
662.152	2341.27
665.527	3143.96
668.902	3842.82
672.277	3907.36
675.651	2888.66
679.026	1494.55
682.401	697.683
685.776	301.457
689.151	134.47
692.525	13.8083
695.9	26.228
699.275	31.4393
702.65	24.4763
706.025	16.2658
709.399	89.8831
712.774	187.813
716.149	420.342
719.524	715.404
722.899	1186.48
726.274	2158.06
729.648	3628.14
733.023	5495.12
736.398	7305.84
739.773	7939.02
743.148	5676.96
746.523	2911.48
749.897	1426.9
753.272	782.764
756.647	475.956
760.022	306.324
763.397	190.617
766.771	162.302
770.146	112.422
773.521	86.1885
776.896	66.7824
780.271	65.5381
783.646	71.408
787.02	60.623
790.395	62.4013
793.77	70.467
797.145	63.7353
800.52	78.4525
803.894	100.279
807.269	123.169
810.644	157.767
814.019	159.467
817.394	140.911
820.769	103.212
824.143	79.5649
827.518	37.7965
830.893	15.7753
834.268	2.26996
837.643	3.50366
841.018	11.8311
844.392	0.063965
847.767	1.68657
851.142	6.12154
854.517	8.97472
857.891	5.10336
861.266	10.5443
864.641	24.0234
868.016	20.8091
871.391	25.6821
874.766	16.7111
878.14	25.4992
881.515	34.482
884.89	38.3691
888.265	33.6121
891.64	24.0479
895.015	27.3519
898.389	14.8582
901.764	21.8794
905.139	8.38367
908.514	8.87383
911.889	1.106
915.264	0.247643
918.638	2.47811
922.013	1.55129
925.388	10.7388
928.763	12.4067
932.138	12.5334
935.512	17.3417
938.887	16.807
942.262	11.8564
945.637	19.4762
949.012	22.2697
952.386	19.2851
955.761	6.28192
959.136	5.17401
962.511	9.82746
965.886	16.0969
969.261	2.38249
972.635	8.78871
976.01	9.65846
979.385	3.99638
982.76	1.05051
986.135	20.8492
989.51	1.36359
992.884	1.29257
996.259	1.72923
999.634	7.80774
1003.01	3.01971
1006.38	6.72163
1009.76	7.11155
1013.13	7.22969
1016.51	9.7227
1019.88	11.8889
1023.26	13.5234
1026.63	8.64127
1030.01	14.9914
1033.38	11.4983
1036.76	12.1792
1040.13	16.6295
1043.51	24.7878
1046.88	28.3548
1050.26	20.1939
1053.63	23.988
1057.01	29.4061
1060.38	28.2334
1063.76	31.1108
1067.13	21.6015
1070.51	18.3241
1073.88	20.0027
1077.26	5.46734
1080.63	10.3039
1084	12.3563
1087.38	8.0652
1090.75	14.9704
1094.13	6.51135
1097.5	4.09146
1100.88	11.4333
1104.25	8.74021
1107.63	7.14658
1111	2.4324
1114.38	6.25557
1117.75	4.88754
1121.13	2.68837
1124.5	3.08229
1127.88	7.96953
1131.25	6.00427
1134.63	6.38419
1138	10.7259
1141.38	8.66825
1144.75	9.85614
1148.13	12.6347
1151.5	15.0633
1154.88	6.7909
1158.25	17.0468
1161.62	6.16363
1165	9.39919
1168.38	18.0036
1171.75	5.92226
1175.12	1.81441
1178.5	7.26134
1181.87	8.20716
1185.25	7.41072
1188.62	7.95549
1192	8.11846
1195.37	9.48985
1198.75	10.8017
1202.12	6.16602
1205.5	4.96188
1208.87	5.76072
1212.25	2.27622
1215.62	2.2276
1219	0.208687
1222.37	6.57802
1225.75	8.05743
1229.12	1.23607
1232.5	7.05464
1235.87	9.86652
1239.25	8.77299
1242.62	15.524
1246	10.1686
1249.37	18.1861
1252.74	9.91633
1256.12	9.92905
1259.49	24.4869
1262.87	6.03909
1266.24	19.776
1269.62	19.344
1272.99	13.6638
1276.37	13.373
1279.74	25.1305
1283.12	19.9484
1286.49	13.7454
1289.87	14.591
1293.24	4.43876
1296.62	0.990219
1299.99	5.62
1303.37	1.49819
1306.74	8.46668
