Measurement: Raman, 532 nm, unoriented, Raman Data Processed
Mineral: Triplite
Rruff sample: R070645
Ideal chemistry: Mn^2+^_2_(PO_4_)F
Locality: 10 km east of Shah Nassir Peak, Braldu Valley, Baltistan, Northern Areas, Pakistan
Source: Dudley Blauwet Gems
Description: Reddish-orange translucent fragment
Measured chemistry: (Mn^2+^_1.55_Fe^2+^_0.25_Ca_0.20_)_Σ=2_(P_1.00_O_4_)(F_0.85_(OH)_0.15_)_Σ=1_ ; OH not measured but estimated by difference and charge balance
Raman shift (cm-1)	intensity
106.961	0
110.336	411.644
113.711	895.066
117.086	199.471
120.461	36.908
123.835	16.6248
127.21	220.003
130.585	414.948
133.96	412.921
137.335	379.177
140.71	276.326
144.084	73.656
147.459	74.6047
150.834	108.831
154.209	151.337
157.584	312.483
160.958	487.861
164.333	538.779
167.708	626.447
171.083	781.512
174.458	979.864
177.833	1085.22
181.207	1073.74
184.582	949.757
187.957	839.851
191.332	714.283
194.707	563.141
198.081	329.422
201.456	185.573
204.831	116.157
208.206	141.526
211.581	123.46
214.956	146.167
218.33	107.211
221.705	76.1771
225.08	29.8463
228.455	29.1515
231.83	15.5391
235.204	25.8391
238.579	33.2082
241.954	78.6104
245.329	93.6202
248.704	133.13
252.078	197.148
255.453	198.127
258.828	251.126
262.203	300.034
265.578	384.318
268.953	519.704
272.327	646.014
275.702	791.358
279.077	775.971
282.452	602.649
285.827	443.508
289.201	304.844
292.576	188.412
295.951	160.477
299.326	124.033
302.701	165.739
306.075	228.026
309.45	206.772
312.825	216.556
316.2	223.742
319.575	135.075
322.95	141.549
326.324	106.484
329.699	68.3944
333.074	87.902
336.449	0.790894
339.824	21.5629
343.199	2.14618
346.573	18.8969
349.948	3.35602
353.323	15.9136
356.698	5.10309
360.073	27.5054
363.447	17.1155
366.822	30.6626
370.197	5.18823
373.572	59.836
376.947	83.9464
380.322	80.2447
383.696	108.095
387.071	199.839
390.446	209.113
393.821	271.27
397.196	276.674
400.57	370.435
403.945	444.363
407.32	579.229
410.695	737.593
414.07	1083.3
417.445	1542.98
420.819	2147.11
424.194	3164.64
427.569	4309.92
430.944	4278.9
434.318	3415.73
437.693	2927.93
441.068	2819.24
444.443	3060.14
447.818	3235.59
451.193	2831.8
454.567	1978.78
457.942	1281.4
461.317	818.071
464.692	568.052
468.067	386.087
471.442	244.787
474.816	182.684
478.191	125.123
481.566	88.408
484.941	53.6392
488.316	79.5127
491.69	15.8102
495.065	2.37436
498.44	11.5458
501.815	9.03232
505.19	10.7052
508.565	24.2528
511.939	2.34067
515.314	15.7236
518.689	24.5729
522.064	20.88
525.438	14.4569
528.813	1.35785
532.188	8.81522
535.563	28.0261
538.938	45.1199
542.313	32.5276
545.687	50.0404
549.062	54.3582
552.437	84.5698
555.812	157.876
559.187	188.922
562.562	241.52
565.936	319.352
569.311	557.168
572.686	613.221
576.061	549.374
579.436	654.017
582.81	927.005
586.185	1355.75
589.56	2066.92
592.935	3132.32
596.31	4378.67
599.684	4776.69
603.059	4169.11
606.434	3868.34
609.809	3437.9
613.184	2346.15
616.559	1350.46
619.933	804.721
623.308	492.598
626.683	314.212
630.058	175.333
633.433	199.983
636.808	79.0005
640.182	21.0105
643.557	28.0216
646.932	24.2527
650.307	20.4488
653.682	8.6293
657.056	3.49713
660.431	3.96262
663.806	8.95593
667.181	15.6912
670.556	22.8934
673.93	1.97751
677.305	21.7235
680.68	9.36874
684.055	39.8704
687.43	1.17682
690.804	11.5079
694.179	37.5632
697.554	7.57477
700.929	14.4014
704.304	45.421
707.679	11.1831
711.053	44.954
714.428	29.5773
717.803	0.211395
721.178	26.5536
724.553	26.5161
727.928	10.7077
731.302	24.0611
734.677	5.63739
738.052	18.0642
741.427	38.9143
744.802	22.9373
748.176	32.0783
751.551	19.1039
754.926	8.12469
758.301	31.6205
761.676	38.1091
765.051	27.4334
768.425	22.882
771.8	9.48236
775.175	36.9989
778.55	27.7451
781.925	52.1982
785.299	68.2129
788.674	42.2894
792.049	47.5969
795.424	87.176
798.799	62.5822
802.173	90.0665
805.548	95.6746
808.923	119.104
812.298	107.39
815.673	84.6646
819.048	91.7634
822.422	87.5003
825.797	72.8554
829.172	61.7306
832.547	81.128
835.922	75.4831
839.296	121.439
842.671	111.034
846.046	94.0748
849.421	104.454
852.796	104.571
856.17	129.623
859.545	124.513
862.92	120.23
866.295	139.828
869.67	118.739
873.045	145.982
876.419	143.679
879.794	157.156
883.169	149.341
886.544	110.996
889.919	82.8306
893.293	64.2115
896.668	82.4278
900.043	56.9933
903.418	32.8687
906.793	23.5698
910.168	11.4388
913.542	21.6697
916.917	2.14356
920.292	5.7713
923.667	61.0448
927.042	38.8038
930.416	80.3361
933.791	6.30115
937.166	0.97583
940.541	50.8064
943.916	138.633
947.29	333.674
950.665	593.848
954.04	1143.91
957.415	1963.25
960.79	3621.33
964.165	6822.21
967.539	12835.1
970.914	22171.1
974.289	34917.1
977.664	49717.9
981.039	46826.6
984.413	19934.4
987.788	6444.08
991.163	2563.88
994.538	1248.24
997.913	786.435
1001.29	770.21
1004.66	966.696
1008.04	1128.89
1011.41	988.021
1014.79	881.894
1018.16	845.608
1021.54	1008.76
1024.91	1424.37
1028.29	2033.6
1031.66	2789.18
1035.04	3300
1038.41	3214.38
1041.79	2568.53
1045.16	1660.64
1048.54	967.324
1051.91	633.989
1055.29	429.561
1058.66	509.877
1062.03	836.952
1065.41	1505.16
1068.78	2336.79
1072.16	2517.82
1075.53	1610.92
1078.91	863.702
1082.28	492.501
1085.66	275.983
1089.03	152.76
1092.41	67.8376
1095.78	6.84186
1099.16	28.1387
1102.53	65.175
1105.91	62.6549
1109.28	43.9258
1112.66	16.7192
1116.03	27.005
1119.41	38.5078
1122.78	75.0837
1126.16	86.6933
1129.53	103.117
1132.9	130.319
1136.28	133.787
1139.65	135.115
1143.03	142.622
1146.4	148.996
1149.78	130.539
1153.15	185.15
1156.53	196.803
1159.9	209.293
1163.28	179.711
1166.65	179.254
1170.03	128.969
1173.4	139.167
1176.78	109.658
1180.15	138.535
1183.53	165.344
1186.9	154.914
1190.28	174.712
1193.65	149.48
1197.03	154.314
1200.4	141.852
1203.78	114.294
1207.15	123.699
1210.53	107.955
1213.9	88.0043
1217.28	55.1034
1220.65	93.2014
1224.03	77.0483
1227.4	42.2062
1230.78	61.9241
1234.15	59.6006
1237.53	52.8221
1240.9	28.9221
1244.27	81.2341
1247.65	55.8554
1251.02	42.2816
1254.4	50.3684
1257.77	37.4768
1261.15	30.205
1264.52	38.1927
1267.9	10.8116
1271.27	16.5985
1274.65	20.1015
1278.02	0.128174
1281.4	48.8595
1284.77	0.088104
