Measurement: Raman, 514 nm, unoriented, Raman Data Processed
Mineral: Triplite
Rruff sample: R050186
Ideal chemistry: Mn^2+^_2_(PO_4_)F
Locality: Wuzhou, Guangxi Autonomous Region, China
Source: John Lucking
Description: Orangish red fragments
Measured chemistry: (Mn^2+^_1.60_Fe^2+^_0.21_Mg_0.15_Ca_0.04_)_Σ=2_(P_1.00_O_4_)(F_0.80_(OH)_0.20_)_Σ=1_
Raman shift (cm-1)	intensity
51.466	0
55.666	17.136
59.863	2.846
64.059	3.723
68.253	14.441
72.445	30.251
76.635	103.018
80.823	184.006
85.009	259.726
89.193	373.849
93.375	355.157
97.554	289.468
101.732	241.577
105.908	265.359
110.082	272.733
114.254	407.641
118.424	373.038
122.592	267.885
126.758	287.152
130.922	332.857
135.083	422.074
139.243	517.393
143.401	536.776
147.557	483.296
151.711	400.988
155.863	396.869
160.013	392.948
164.161	376.227
168.308	352.707
172.452	348.386
176.594	348.258
180.734	331.32
184.872	310.567
189.008	269.992
193.143	262.593
197.275	210.367
201.405	221.32
205.534	232.588
209.66	240.834
213.784	272.897
217.907	289.512
222.027	271.973
226.146	257.896
230.263	221.374
234.377	189.289
238.49	219.528
242.601	176.042
246.709	175.798
250.816	188.769
254.921	179.934
259.024	175.278
263.125	159.786
267.224	133.445
271.321	173.248
275.416	148.186
279.51	149.251
283.601	93.436
287.69	88.737
291.778	66.112
295.863	72.66
299.947	73.27
304.029	99.973
308.108	119.769
312.186	162.657
316.262	189.633
320.336	219.695
324.408	214.841
328.478	164.067
332.546	95.371
336.612	62.94
340.677	46.39
344.739	27.909
348.799	6.766
352.858	3.807
356.915	2.65
360.969	4.125
365.022	20.998
369.073	6.676
373.122	5.762
377.169	8.769
381.215	2.285
385.258	4.818
389.299	10.82
393.339	35.172
397.376	76.454
401.412	82.808
405.446	111.238
409.478	208.724
413.508	356.267
417.536	629.868
421.562	1051.54
425.586	1632.27
429.609	2172.05
433.629	1716.88
437.648	1152.74
441.665	964.648
445.68	1118.59
449.693	1396.57
453.704	1439.68
457.713	1052.61
461.721	651.646
465.726	405.692
469.73	256.747
473.731	164.804
477.731	100.86
481.729	74.91
485.725	53.954
489.72	42.989
493.712	9.013
497.703	16.02
501.691	23.054
505.678	7.123
509.663	8.732
513.646	2.406
517.627	4.443
521.607	12.992
525.584	5.641
529.56	2.772
533.534	1.08
537.506	6.603
541.476	2.279
545.444	7.987
549.41	27.969
553.375	25.907
557.337	57.205
561.298	90.195
565.257	159.249
569.214	234.029
573.17	327.661
577.123	338.484
581.075	273.885
585.024	357.633
588.972	610.295
592.918	967.51
596.863	1486.18
600.805	1747.62
604.746	1603.47
608.685	1872.67
612.621	1828.63
616.557	1128.89
620.49	622.055
624.421	393.242
628.351	252.767
632.279	190.692
636.205	136.535
640.129	103.295
644.051	95.97
647.972	84.561
651.89	77.068
655.807	59.298
659.722	52.632
663.636	37.849
667.547	32.96
671.457	31.819
675.365	56.104
679.271	39.753
683.175	41.614
687.077	12.355
690.978	40.539
694.877	13.273
698.774	15.246
702.669	18.442
706.562	11.721
710.454	14.168
714.344	21.518
718.232	8.629
722.118	19.924
726.002	4.026
729.885	19.861
733.766	2.1
737.645	5.553
741.522	11.654
745.397	7.768
749.271	19.781
753.143	3.693
757.013	6.498
760.881	18.196
764.748	15.811
768.613	21.333
772.476	25.773
776.337	8.159
780.196	1.512
784.054	13.752
787.91	9.967
791.764	34.136
795.616	45.26
799.467	22.343
803.316	34.386
807.163	37.392
811.008	39.365
814.851	19.255
818.693	29.913
822.533	28.55
826.371	19.332
830.208	17.954
834.042	1.307
837.875	6.547
841.706	4.821
845.536	9.347
849.363	6.56
853.189	4.632
857.013	2.644
860.836	0.618
864.656	0.152
868.475	2.785
872.292	19.603
876.108	9.394
879.922	5.317
883.733	14.023
887.544	18.294
891.352	13.242
895.159	17.197
898.964	29.153
902.767	55.049
906.568	50.552
910.368	43.955
914.166	107.105
917.962	108.519
921.757	116.184
925.55	153.514
929.341	175.812
933.13	211.757
936.918	209.286
940.703	288.885
944.488	376.556
948.27	500.301
952.051	694.123
955.83	1057.02
959.607	1480
963.383	2191.07
967.156	3900.21
970.928	7280.45
974.699	15588.8
978.468	34801.2
982.234	52189.7
986	27344.1
989.763	9482.8
993.525	4290.65
997.285	2656.68
1001.04	1921.67
1004.8	1715.63
1008.55	1634.09
1012.31	1574.36
1016.06	1564.61
1019.81	1500.15
1023.56	1544.36
1027.31	1690.4
1031.05	1881.4
1034.79	2328.34
1038.53	3065.5
1042.27	3565.24
1046.01	2966.14
1049.75	2164.18
1053.48	1470.34
1057.22	1114.64
1060.95	1038.08
1064.68	1162.65
1068.4	2199.33
1072.13	3662.14
1075.86	2505.06
1079.58	1223.08
1083.3	745.207
1087.02	473.441
1090.74	342.775
1094.45	244.209
1098.17	152.743
1101.88	97.379
1105.59	58.111
1109.3	72.938
1113.01	65.859
1116.71	140.871
1120.42	236.973
1124.12	330.163
1127.82	395.568
1131.52	253.704
1135.22	128.598
1138.91	68.924
1142.61	53.311
1146.3	56.075
1149.99	38.566
1153.68	29.626
1157.37	16.406
1161.06	10.93
1164.74	35.053
1168.42	1.989
1172.1	45.239
1175.78	52.261
1179.46	62.019
1183.14	78.375
1186.81	95.929
1190.48	94.862
1194.15	109.883
1197.83	105.687
1201.49	86.335
1205.16	74.169
1208.82	45.41
1212.49	65
1216.15	52.519
1219.81	42.081
1223.46	38.752
1227.12	62.521
1230.78	47.092
1234.43	55.745
1238.08	48.445
1241.73	22.239
1245.38	23.192
1249.03	42.871
1252.67	67.51
1256.31	26.117
1259.95	16.676
1263.6	18.163
1267.23	25.689
1270.87	1.9
1274.51	9.529
1278.14	21.291
1281.77	10.193
1285.4	7.201
1289.03	13.351
1292.66	0.591
1296.28	5.703
1299.91	0.3
1303.53	2.882
1307.15	6.721
1310.77	6.355
1314.38	3.079
1318	4.905
1321.61	2.812
1325.23	4.199
1328.84	14.902
1332.45	14.896
1336.06	20.391
1339.66	25.221
1343.27	26.758
1346.87	29.227
1350.47	24.617
1354.07	28.958
1357.67	33.208
1361.26	31.402
1364.86	30.544
1368.45	23.922
1372.04	31.712
1375.63	39.734
1379.22	26.911
1382.81	42.069
1386.39	41.982
1389.98	48.821
1393.56	43.59
1397.14	55.286
1400.72	73.688
1404.3	49.057
1407.87	54.096
1411.45	51.568
1415.02	31.826
1418.59	66.36
1422.16	56.176
1425.73	47.497
1429.29	31.6
1432.86	40.377
1436.42	61.006
1439.98	55.511
1443.54	63.165
1447.1	50.017
1450.66	35.061
1454.21	44.289
1457.77	31.836
1461.32	40.768
1464.87	16.675
1468.42	39.282
1471.96	23.065
1475.51	35.257
1479.06	26.872
1482.6	38.491
1486.14	16.081
1489.68	30.653
1493.22	2.334
1496.75	27.224
1500.29	9.507
1503.82	8.014
1507.35	35.893
1510.88	22.066
1514.41	39.176
1517.94	25.952
1521.46	0
