Measurement: Raman, 532 nm, unoriented, Raman Data Processed
Mineral: Triphylite
Rruff sample: R100156
Ideal chemistry: LiFe^2+^PO_4_
Locality: Conselheira Pena, Minas Gera√¨s, Brazil
Source: William W. Pinch
Description: Brownish-orange cut stone
Raman shift (cm-1)	intensity
91.0352	0
94.41	0.017871
97.7848	1.73525
101.16	2.21669
104.534	3.31293
107.909	3.56462
111.284	4.72918
114.659	3.28402
118.034	3.26784
121.409	0.835998
124.783	0.380954
128.158	0.641992
131.533	0.867131
134.908	0.200853
138.283	4.9432
141.657	14.516
145.032	33.3123
148.407	46.2206
151.782	56.4053
155.157	64.4105
158.532	35.7489
161.906	22.7103
165.281	13.2404
168.656	12.6628
172.031	13.9007
175.406	8.55124
178.78	7.64634
182.155	7.29592
185.53	10.5953
188.905	13.5711
192.28	22.2378
195.655	36.133
199.029	50.6095
202.404	42.8426
205.779	16.8199
209.154	5.77621
212.529	1.62026
215.904	3.14335
219.278	6.49601
222.653	13.9666
226.028	23.5688
229.403	38.9815
232.778	63.8156
236.152	83.9796
239.527	80.666
242.902	87.4419
246.277	99.4439
249.652	86.3909
253.026	54.7319
256.401	27.6745
259.776	14.2937
263.151	6.37023
266.526	1.92202
269.901	0.117231
273.276	0.459919
276.65	0.469255
280.025	3.6069
283.4	6.38678
286.775	9.58541
290.15	8.57507
293.524	6.48244
296.899	4.92688
300.274	2.95621
303.649	2.72189
307.024	3.01289
310.399	2.94967
313.773	3.65255
317.148	4.56367
320.523	3.61167
323.898	1.71322
327.273	0.097862
330.647	0.115826
334.022	0.064462
337.397	1.60587
340.772	0.725015
344.147	0.24926
347.522	1.49425
350.896	0.185488
354.271	0.297404
357.646	1.00664
361.021	0.389478
364.396	1.35027
367.77	1.14605
371.145	2.84114
374.52	5.42127
377.895	5.89286
381.27	9.57048
384.644	11.8018
388.019	17.508
391.394	22.482
394.769	28.9398
398.144	37.3302
401.519	42.0086
404.894	45.084
408.268	42.8547
411.643	40.3821
415.018	41.8963
418.393	46.7266
421.767	54.3041
425.142	63.0129
428.517	77.2472
431.892	93.9141
435.267	109.935
438.642	121.162
442.017	126.346
445.391	112.714
448.766	94.1431
452.141	73.4252
455.516	55.1359
458.891	39.629
462.265	30.5445
465.64	22.0675
469.015	16.52
472.39	11.944
475.765	9.2384
479.139	7.69498
482.514	4.25571
485.889	3.65591
489.264	2.67098
492.639	1.88204
496.014	1.13626
499.388	1.33189
502.763	0.243564
506.138	0.454909
509.513	0.02841
512.888	0.078573
516.263	0.042335
519.637	0.666695
523.012	1.26504
526.387	0.09368
529.762	0.186142
533.137	0.177437
536.511	0.480349
539.886	1.12224
543.261	3.01205
546.636	3.60012
550.011	7.73697
553.386	9.89836
556.76	15.4915
560.135	23.568
563.51	35.0581
566.885	53.866
570.26	78.9617
573.635	109.532
577.009	117.336
580.384	89.6199
583.759	74.8421
587.134	88.1819
590.509	107.182
593.883	90.6088
597.258	50.1968
600.633	24.7544
604.008	12.6174
607.383	8.70608
610.758	7.79713
614.132	10.3267
617.507	14.8458
620.882	24.3667
624.257	40.9799
627.632	50.002
631.006	31.9032
634.381	15.6871
637.756	9.84103
641.131	6.47892
644.506	4.87681
647.881	2.23853
651.255	1.72957
654.63	1.07389
658.005	0.435343
661.38	0.46518
664.755	0.086769
668.13	0.133756
671.504	0.012182
674.879	0.362414
678.254	0.03047
681.629	0.220971
685.004	0.333084
688.378	0.129755
691.753	0.137777
695.128	0.162753
698.503	0.245323
701.878	1.02057
705.253	1.19907
708.627	1.70054
712.002	2.58676
715.377	1.86692
718.752	1.05404
722.127	1.52427
725.501	2.76138
728.876	1.91367
732.251	1.99014
735.626	2.15588
739.001	2.50111
742.375	3.38433
745.75	2.65063
749.125	3.1391
752.5	3.03628
755.875	2.78918
759.25	2.3191
762.625	2.90581
765.999	3.12442
769.374	2.44272
772.749	2.1493
776.124	2.9596
779.499	2.92716
782.873	1.97083
786.248	2.52801
789.623	1.85638
792.998	0.783315
796.373	1.61824
799.747	0.976256
803.122	0.964583
806.497	1.9589
809.872	0.764174
813.247	0.478556
816.621	0.428081
819.996	1.1982
823.371	2.16208
826.746	3.6822
830.121	4.32733
833.496	5.77222
836.87	6.61121
840.245	9.3632
843.62	8.85542
846.995	9.04622
850.37	7.7435
853.745	5.83432
857.119	4.94018
860.494	3.37933
863.869	2.94911
867.244	1.5234
870.619	0.908524
873.994	0.841322
877.368	0.974052
880.743	0.969831
884.118	0.853491
887.493	0.724125
890.868	1.79708
894.242	0.752728
897.617	0.166342
900.992	0.088406
904.367	1.27516
907.742	2.62525
911.116	5.22682
914.491	9.09162
917.866	16.1335
921.241	24.8732
924.616	38.578
927.991	58.0153
931.365	98.3408
934.74	194.37
938.115	438.257
941.49	860.593
944.865	1662.26
948.24	3258.3
951.614	3434.68
954.989	1380.48
958.364	428.486
961.739	163.633
965.114	89.6792
968.489	57.9524
971.863	42.4821
975.238	38.2842
978.613	40.8666
981.988	50.5144
985.362	72.3625
988.737	112.125
992.112	179.488
995.487	293.024
998.862	469.37
1002.24	557.933
1005.61	404.264
1008.99	210.867
1012.36	115.755
1015.74	78.7831
1019.11	54.4275
1022.49	28.2157
1025.86	12.2353
1029.23	5.44065
1032.61	2.56135
1035.98	0.500534
1039.36	1.34973
1042.73	2.65347
1046.11	2.63893
1049.48	1.75105
1052.86	0.273724
1056.23	2.79909
1059.61	9.65126
1062.98	20.7748
1066.36	44.9238
1069.73	54.6075
1073.11	29.9151
1076.48	26.4175
1079.86	37.1567
1083.23	28.6452
1086.61	13.0291
1089.98	5.82958
1093.36	4.74728
1096.73	4.98717
1100.11	3.9418
1103.48	2.20321
1106.86	1.25413
1110.23	0.070026
1113.61	0.514734
1116.98	0.732738
1120.36	1.81464
1123.73	1.55461
1127.11	1.78323
1130.48	1.40131
1133.86	1.11015
1137.23	0.903134
1140.6	0.485987
1143.98	1.09052
1147.35	0.294038
1150.73	0.050238
1154.1	0.193683
1157.48	0.207961
1160.85	0.229523
1164.23	0.973253
1167.6	3.13207
1170.98	3.03558
1174.35	5.34514
1177.73	5.22395
1181.1	5.45587
1184.48	5.37841
1187.85	4.08763
1191.23	3.30792
1194.6	1.53195
1197.98	1.80197
1201.35	0.948688
1204.73	0.614597
1208.1	0.275262
1211.48	0.138646
1214.85	0.243227
1218.22	0.218614
1221.6	0.437491
1224.97	0.136461
1228.35	0.092412
1231.72	0.079292
1235.1	0.708075
1238.47	0.573519
1241.85	0.903243
1245.22	1.54204
1248.6	2.38329
1251.97	3.24988
1255.35	3.39472
1258.72	4.20385
1262.1	4.4237
1265.47	3.40733
1268.85	3.84649
1272.22	3.59249
1275.6	2.53386
1278.97	3.16674
1282.35	1.97537
1285.72	1.63062
1289.1	0.646969
1292.47	0.12543
1295.85	0.385139
1299.22	0.422083
1302.6	0
