Measurement: Raman, 514 nm, unoriented, Raman Data Processed
Mineral: Triplite
Rruff sample: R050226
Ideal chemistry: Mn^2+^_2_(PO_4_)F
Locality: Fremont County, Colorado, USA
Source: Marcus Origlieri
Description: Reddish brown massive
Measured chemistry: (Mn^2+^_1.20_Mg_0.49_Fe^2+^_0.27_Ca_0.04_)_Σ=2_(P_1.00_O_4_)(F_0.95_(OH)_0.05_)_Σ=1_
Raman shift (cm-1)	intensity
154.48	0
158.63	19.923
162.779	158.292
166.926	231.666
171.07	142.06
175.213	130.023
179.354	245.321
183.493	182.803
187.63	361.415
191.765	478.839
195.898	604.956
200.029	847.793
204.158	952.845
208.285	1099.4
212.41	178.089
216.533	118.544
220.654	99.492
224.773	87.253
228.891	8.939
233.006	29.723
237.119	84.81
241.231	43.353
245.34	36.54
249.448	2.523
253.553	11.72
257.657	0.052
261.758	91.015
265.858	23.895
269.956	16.919
274.052	375.223
278.146	108.157
282.237	187.401
286.327	208.106
290.416	299.137
294.502	365.73
298.586	629.949
302.668	273.887
306.749	156.599
310.827	147.101
314.903	128.373
318.978	166.241
323.051	109.903
327.121	68.229
331.19	4.206
335.257	29.625
339.322	27.278
343.385	14.514
347.446	26.284
351.505	32.085
355.563	33.193
359.618	7.075
363.672	70.606
367.723	106.891
371.773	88.221
375.821	125.44
379.866	130.925
383.91	155.924
387.952	223.413
391.992	231.208
396.031	294.679
400.067	376.781
404.101	487.121
408.134	551.866
412.165	704.61
416.193	881.573
420.22	1262.18
424.245	1606.98
428.268	1554.24
432.289	1227.88
436.309	950.968
440.326	755.803
444.342	678.085
448.355	727.995
452.367	748.033
456.377	759.961
460.385	606.788
464.391	463.508
468.395	444.482
472.398	354.844
476.398	303.705
480.397	252.97
484.394	165.815
488.389	202.834
492.382	110.167
496.373	104.062
500.362	168.983
504.349	54.45
508.335	49.67
512.319	33.712
516.3	0.403
520.28	65.615
524.259	20.985
528.235	45.164
532.209	27.298
536.182	4.479
540.152	19.818
544.121	13.124
548.088	1.428
552.053	11.127
556.017	43.934
559.978	80.769
563.938	146.572
567.895	211.357
571.851	303.155
575.805	406.96
579.758	399.783
583.708	402.567
587.657	439.458
591.603	547.703
595.548	797.913
599.491	913.11
603.432	1006.17
607.372	902.384
611.309	841.871
615.245	753.26
619.179	743.446
623.111	678.802
627.041	621.938
630.97	661.885
634.896	790.77
638.821	777.593
642.744	779.449
646.665	866.271
650.584	835.667
654.502	829.132
658.418	805.639
662.331	790.824
666.244	803.638
670.154	826.212
674.062	860.755
677.969	937.736
681.874	959.977
685.777	1029.35
689.678	1132.45
693.577	1077.57
697.475	1114.42
701.371	1004
705.265	922.802
709.157	846.115
713.047	630.384
716.936	470.066
720.823	428.88
724.708	317.488
728.591	231.093
732.472	187.252
736.352	99.519
740.23	154.609
744.106	17.583
747.98	113.115
751.853	56.748
755.723	19.632
759.592	41.784
763.459	100.182
767.325	39.498
771.188	101.736
775.05	24.912
778.91	43.03
782.768	128.094
786.625	117.108
790.479	98.075
794.332	48.993
798.183	103.862
802.033	146.683
805.88	96.458
809.726	101.191
813.57	64.88
817.413	85.526
821.253	89.137
825.092	15.713
828.929	23.246
832.764	0.72
836.598	17.902
840.429	35.656
844.259	60.895
848.088	53.019
851.914	15.427
855.739	51.202
859.562	41.933
863.383	53.092
867.203	41.132
871.02	1.285
874.836	32.229
878.65	29.608
882.463	22.856
886.274	31.397
890.083	24.213
893.89	42.737
897.695	81.787
901.499	135.888
905.301	87.314
909.102	141.591
912.9	170.998
916.697	160.127
920.492	215.229
924.285	261.901
928.077	286.017
931.867	382.855
935.655	469.885
939.442	527.917
943.226	538.932
947.009	692.851
950.791	875.809
954.57	1095.78
958.348	1591.77
962.124	2088.75
965.899	3161.66
969.671	4750.64
973.442	7697.54
977.211	12371.3
980.979	18030.9
984.745	19270.3
988.509	13103.3
992.271	6661.62
996.032	3756.25
999.791	2494.83
1003.55	2081.7
1007.3	1735.54
1011.06	1621.02
1014.81	1438.56
1018.56	1429.41
1022.31	1370.99
1026.06	1440.81
1029.8	1543.59
1033.55	1566.5
1037.29	1651
1041.03	1739.68
1044.77	1700.25
1048.5	1576.59
1052.24	1473.75
1055.97	1300.5
1059.7	1192.84
1063.43	1378.98
1067.16	1101.6
1070.89	1059.18
1074.61	1131.39
1078.34	1047.84
1082.06	956.279
1085.78	878.791
1089.5	758.199
1093.21	694.533
1096.93	588.543
1100.64	522.634
1104.35	475.295
1108.06	456.399
1111.77	348.958
1115.48	450.918
1119.18	409.984
1122.89	382.781
1126.59	420.899
1130.29	400.956
1133.99	338.087
1137.68	213.283
1141.38	192.452
1145.07	163.67
1148.76	108.921
1152.45	111.215
1156.14	31.56
1159.83	24.928
1163.51	48.289
1167.19	43.384
1170.88	25.142
1174.56	7.07
1178.23	11.683
1181.91	78.567
1185.59	1.795
1189.26	26.943
1192.93	3.962
1196.6	2.094
1200.27	7.234
1203.94	2.767
1207.6	46.191
1211.27	16.918
1214.93	15.465
1218.59	75.73
1222.25	19.542
1225.9	6.262
1229.56	46.89
1233.21	23.603
1236.86	25.051
1240.51	28.501
1244.16	38.126
1247.81	54.441
1251.45	33.679
1255.1	13.15
1258.74	75.975
1262.38	51.208
1266.02	73.331
1269.66	33.394
1273.29	86.815
1276.93	29.743
1280.56	25.787
1284.19	125.655
1287.82	61.626
1291.45	69.431
1295.07	150.191
1298.7	143.912
1302.32	109.597
1305.94	102.244
1309.56	131.861
1313.18	183.518
1316.8	202.569
1320.41	167.316
1324.02	158.935
1327.63	162.329
1331.24	165.104
1334.85	140.12
1338.46	86.799
1342.06	92.082
1345.67	87.234
1349.27	120.534
1352.87	6.157
1356.47	46.011
1360.07	64.567
1363.66	136.589
1367.25	42.716
1370.85	42.356
1374.44	110.236
1378.03	132.892
1381.61	86.322
1385.2	35.021
1388.78	54.731
1392.37	125.848
1395.95	61.874
1399.53	65.782
1403.1	34.586
1406.68	80.423
1410.26	106.183
1413.83	7.136
1417.4	72.553
1420.97	13.308
1424.54	86.042
1428.1	3.844
1431.67	47.475
1435.23	70.253
1438.8	131.199
1442.36	65.091
1445.91	71.409
1449.47	105.433
1453.03	92.634
1456.58	106.629
1460.13	95.725
1463.68	104.665
1467.23	83.749
1470.78	74.888
1474.33	123.835
1477.87	12.311
1481.42	156.003
1484.96	78.883
1488.5	128.956
1492.04	122.346
1495.57	92.255
1499.11	114.07
1502.64	29.245
1506.17	73.119
1509.71	159.483
1513.23	117.135
1516.76	0
