Measurement: Raman, 785 nm, unoriented, Raman Data Processed
Mineral: Triphylite
Rruff sample: R050424
Ideal chemistry: LiFe^2+^PO_4_
Locality: Karibib, Namibia
Source: John Lucking
Description: Lime-green fine-grained massive
Measured chemistry: Li_1.00_(Fe^2+^_0.70_Mn^2+^_0.28_Mg_0.02_)_Î£=1_P_1.00_O_4_
Raman shift (cm-1)	intensity
54.2952	0
57.67	18.5203
61.0449	1.7436
64.4197	13.8674
67.7945	84.1667
71.1693	24.5765
74.5441	34.1311
77.9189	56.8062
81.2938	62.2858
84.6686	38.3196
88.0434	37.8275
91.4182	23.303
94.793	17.5703
98.1679	18.6024
101.543	3.72328
104.918	18.6909
108.292	10.3282
111.667	13.1824
115.042	12.9516
118.417	7.69101
121.792	18.5051
125.166	15.1449
128.541	71.594
131.916	175.79
135.291	255.187
138.666	424.118
142.041	695.159
145.415	1344.5
148.79	1698.96
152.165	1351.12
155.54	1483.25
158.915	865.957
162.289	499.394
165.664	224.984
169.039	180.201
172.414	118.418
175.789	78.4194
179.163	72.6984
182.538	56.6837
185.913	52.9594
189.288	43.4226
192.663	71.1862
196.037	84.8589
199.412	101.419
202.787	71.4737
206.162	6.15349
209.537	25.2327
212.912	6.96439
216.286	12.717
219.661	23.6521
223.036	27.7472
226.411	25.3248
229.786	27.3932
233.161	87.8733
236.535	156.043
239.91	176.102
243.285	238.368
246.66	394.003
250.035	411.842
253.409	315.76
256.784	202.034
260.159	127.231
263.534	136.362
266.909	118.455
270.284	62.0546
273.658	20.6278
277.033	29.344
280.408	81.2191
283.783	110.707
287.158	147.254
290.532	176.708
293.907	127.16
297.282	118.763
300.657	99.3074
304.032	46.6305
307.406	22.0973
310.781	20.6285
314.156	27.0682
317.531	29.1995
320.906	44.4019
324.281	11.0845
327.655	4.07062
331.03	15.133
334.405	16.8548
337.78	24.3023
341.155	11.8549
344.529	47.1413
347.904	30.3512
351.279	5.9521
354.654	24.9731
358.029	0.018936
361.404	55.186
364.778	0.33493
368.153	10.9167
371.528	50.4409
374.903	25.7703
378.278	54.5259
381.652	11.1476
385.027	32.3606
388.402	43.4471
391.777	76.3151
395.152	77.1844
398.527	129.644
401.901	145.907
405.276	200.007
408.651	218.218
412.026	284.305
415.401	392.655
418.776	540.336
422.15	673.408
425.525	957.673
428.9	1227.34
432.275	1684.5
435.649	2137.88
439.024	2539.39
442.399	2812.79
445.774	2727.86
449.149	2311.67
452.524	1804.98
455.898	1375.95
459.273	1040.78
462.648	751.127
466.023	545.322
469.398	412.884
472.772	301.667
476.147	223.748
479.522	179.081
482.897	133.859
486.272	99.7937
489.647	61.9424
493.021	26.178
496.396	66.9308
499.771	33.2758
503.146	21.536
506.521	46.9573
509.896	59.1628
513.27	2.70746
516.645	19.4829
520.02	7.72592
523.395	24.9618
526.77	23.8129
530.144	4.66791
533.519	15.1454
536.894	7.03052
540.269	10.4166
543.644	24.9993
547.019	72.0188
550.393	85.5975
553.768	124.137
557.143	224.988
560.518	401.941
563.893	664.908
567.267	980.474
570.642	1366.08
574.017	1637.9
577.392	1312.18
580.767	732.066
584.141	489.542
587.516	465.513
590.891	460.231
594.266	451.541
597.641	418.622
601.016	271.159
604.39	241.523
607.765	304.797
611.14	511.465
614.515	1054.06
617.89	1988.77
621.264	3328.46
624.639	5310.56
628.014	6820.99
631.389	4428.61
634.764	1980.75
638.139	976.845
641.513	548.571
644.888	353.613
648.263	222.034
651.638	127.862
655.013	102.069
658.388	24.2339
661.762	21.4342
665.137	5.35532
668.512	24.5718
671.887	5.88976
675.261	5.62094
678.636	14.6001
682.011	0.014709
685.386	28.3502
688.761	12.2504
692.136	0.63089
695.51	20.77
698.885	11.3564
702.26	14.7653
705.635	21.5267
709.01	40.6567
712.385	30.4952
715.759	45.4039
719.134	46.414
722.509	63.2766
725.884	33.7879
729.259	60.3066
732.633	46.7485
736.008	41.7232
739.383	65.7965
742.758	24.621
746.133	35.6134
749.508	58.6583
752.882	44.2084
756.257	45.0219
759.632	23.623
763.007	29.5833
766.382	20.1549
769.756	39.1519
773.131	31.789
776.506	29.8087
779.881	10.7773
783.256	30.4378
786.63	64.1206
790.005	26.6425
793.38	44.1838
796.755	37.4759
800.13	22.5192
803.505	39.0012
806.879	19.7844
810.254	17.5287
813.629	30.3377
817.004	27.8834
820.379	51.8307
823.754	30.5742
827.128	40.9168
830.503	18.5559
833.878	4.30156
837.253	51.8354
840.628	37.4329
844.002	10.769
847.377	22.0385
850.752	49.3946
854.127	27.1176
857.502	6.03992
860.876	69.4781
864.251	11.5145
867.626	26.055
871.001	11.6933
874.376	4.53601
877.75	2.18857
881.125	2.27094
884.5	24.3882
887.875	20.4691
891.25	1.66879
894.625	1.23914
898	18.6539
901.374	16.6816
904.749	17.0142
908.124	21.7274
911.499	37.5658
914.874	40.8877
918.248	59.1855
921.623	79.0203
924.998	183.949
928.373	275.578
931.748	477.544
935.122	964.116
938.497	2507.48
941.872	6249.92
945.247	12816.2
948.622	24415.4
951.996	22285.3
955.371	9337.52
958.746	3038.1
962.121	1216.44
965.496	620.178
968.871	443.224
972.245	329.876
975.62	306.802
978.995	370.221
982.37	438.227
985.745	583.359
989.12	741.713
992.494	1018.23
995.869	1484.78
999.244	1934.39
1002.62	1784.74
1005.99	942.467
1009.37	558.339
1012.74	473.011
1016.12	555.678
1019.49	443.132
1022.87	306.86
1026.24	115.184
1029.62	32.4377
1032.99	8.97482
1036.37	11.7176
1039.74	18.4086
1043.12	15.8474
1046.49	14.83
1049.87	62.0973
1053.24	233.501
1056.62	524.556
1059.99	1407.48
1063.37	2959.66
1066.74	5707.19
1070.12	5417.59
1073.49	2146.4
1076.87	1005.94
1080.24	1060.15
1083.61	813.598
1086.99	341.847
1090.36	201.294
1093.74	139.18
1097.11	80.6716
1100.49	84.7716
1103.86	32.827
1107.24	51.0739
1110.61	32.7897
1113.99	25.6088
1117.36	21.2327
1120.74	29.1819
1124.11	23.178
1127.49	32.5021
1130.86	24.4496
1134.24	15.598
1137.61	56.8738
1140.99	8.13467
1144.36	7.15941
1147.74	30.5122
1151.11	12.4256
1154.49	4.00238
1157.86	4.70221
1161.23	32.2699
1164.61	24.5116
1167.98	26.3662
1171.36	52.0254
1174.73	54.5524
1178.11	70.4063
1181.48	66.3064
1184.86	31.54
1188.23	43.1684
1191.61	34.6568
1194.98	27.815
1198.36	34.127
1201.73	56.6854
1205.11	53.9962
1208.48	45.4502
1211.86	45.7713
1215.23	14.3162
1218.61	8.21098
1221.98	33.5034
1225.36	44.0138
1228.73	3.45515
1232.11	46.1367
1235.48	47.4181
1238.86	14.0268
1242.23	0.126862
