Measurement: Raman, 532 nm, unoriented, Raman Data Processed
Mineral: Triplite
Rruff sample: R050226
Ideal chemistry: Mn^2+^_2_(PO_4_)F
Locality: Fremont County, Colorado, USA
Source: Marcus Origlieri
Description: Reddish brown massive
Measured chemistry: (Mn^2+^_1.20_Mg_0.49_Fe^2+^_0.27_Ca_0.04_)_Σ=2_(P_1.00_O_4_)(F_0.95_(OH)_0.05_)_Σ=1_
Raman shift (cm-1)	intensity
127.494	0
130.387	1.36711
133.28	3.76125
136.172	5.15915
139.065	4.54762
141.958	4.19856
144.85	5.32404
147.743	7.27948
150.636	6.84745
153.529	9.33989
156.421	9.98771
159.314	7.33136
162.207	7.5345
165.099	7.6004
167.992	5.92693
170.885	5.18231
173.777	3.51518
176.67	1.64291
179.563	1.2911
182.456	0.087685
185.348	0.459091
188.241	1.38908
191.134	0.133381
194.026	0.497574
196.919	0.237602
199.812	0.89497
202.704	1.54998
205.597	2.5177
208.49	3.81247
211.382	6.25966
214.275	6.77528
217.168	12.1048
220.061	14.2526
222.953	16.7573
225.846	15.5493
228.739	10.0641
231.631	6.08195
234.524	5.78376
237.417	5.57051
240.31	6.17403
243.202	5.8013
246.095	5.70994
248.988	4.4871
251.88	2.73246
254.773	3.44573
257.666	3.56196
260.558	2.40138
263.451	4.06504
266.344	4.97744
269.236	6.76807
272.129	8.85084
275.022	10.6581
277.915	13.0546
280.807	15.3441
283.7	18.0641
286.593	20.9704
289.485	24.8231
292.378	24.6958
295.271	22.5962
298.163	18.403
301.056	14.7831
303.949	11.5484
306.842	8.43242
309.734	6.54847
312.627	4.77414
315.52	3.10078
318.412	2.48708
321.305	1.043
324.198	1.38649
327.091	0.280708
329.983	0.840584
332.876	0.301491
335.769	0.420494
338.661	0.504436
341.554	0.140846
344.447	0.202896
347.339	0.366982
350.232	0.012001
353.125	0.176464
356.017	0.076374
358.91	0.340904
361.803	0.607906
364.696	0.824711
367.588	1.10701
370.481	1.81472
373.374	2.96945
376.266	3.68282
379.159	3.59443
382.052	5.60957
384.945	7.97228
387.837	7.95092
390.73	9.54806
393.623	12.8803
396.515	14.9208
399.408	16.9216
402.301	20.0971
405.193	21.7947
408.086	20.8016
410.979	19.0807
413.872	17.333
416.764	16.3998
419.657	17.4807
422.55	19.8735
425.442	22.6101
428.335	28.5301
431.228	32.4899
434.12	34.6772
437.013	32.4547
439.906	26.8664
442.798	22.5195
445.691	18.9541
448.584	17.3634
451.477	19.4957
454.369	18.3382
457.262	15.9749
460.155	12.3602
463.047	9.43323
465.94	6.26045
468.833	3.98807
471.726	3.22221
474.618	1.66425
477.511	1.01825
480.404	1.68497
483.296	0.363319
486.189	1.42405
489.082	2.13203
491.974	2.31031
494.867	3.02519
497.76	2.0631
500.652	2.99667
503.545	1.58172
506.438	1.17804
509.331	0.032536
512.223	1.30335
515.116	0.196037
518.009	0.45084
520.901	0.11644
523.794	0.508026
526.687	1.23001
529.58	0.099411
532.472	0.055153
535.365	0.53717
538.258	0.166004
541.15	0.68272
544.043	1.409
546.936	0.135159
549.828	0.339802
552.721	0.805756
555.614	0.271496
558.506	0.262669
561.399	1.09382
564.292	1.06528
567.185	1.53722
570.077	2.82069
572.97	3.5974
575.863	4.51939
578.755	4.9178
581.648	6.08693
584.541	7.49304
587.433	10.0002
590.326	15.1586
593.219	18.5878
596.111	23.4785
599.004	28.5406
601.897	30.1365
604.79	30.2441
607.682	26.3162
610.575	22.1981
613.468	17.832
616.36	15.5522
619.253	12.1068
622.146	10.2902
625.038	9.63262
627.931	7.9747
630.824	6.75774
633.717	6.41136
636.609	7.73344
639.502	8.02889
642.395	11.2829
645.287	11.3704
648.18	13.1564
651.073	14.0773
653.966	15.0887
656.858	14.5681
659.751	14.6728
662.644	13.3642
665.536	13.9828
668.429	12.1575
671.322	11.2422
674.214	11.7018
677.107	11.253
680	12.1043
682.893	12.3081
685.785	11.9483
688.678	11.9683
691.571	11.6608
694.463	11.4783
697.356	11.1715
700.249	10.7089
703.141	9.03408
706.034	6.9893
708.927	7.16985
711.819	5.05383
714.712	4.03394
717.605	3.59112
720.498	1.82089
723.39	0.727757
726.283	0.453003
729.176	0.765446
732.068	0.527714
734.961	0.301975
737.854	1.52299
740.746	0.099949
743.639	0.540737
746.532	0.223133
749.425	0.186687
752.317	0.236694
755.21	1.57966
758.103	1.88722
760.995	3.29839
763.888	4.59139
766.781	4.82482
769.673	6.62569
772.566	7.77065
775.459	9.69553
778.352	10.8368
781.244	12.2253
784.137	13.1602
787.03	15.6901
789.922	16.0074
792.815	16.9901
795.708	17.8863
798.601	17.7397
801.493	17.0545
804.386	17.8977
807.279	17.119
810.171	16.181
813.064	15.903
815.957	15.0849
818.849	14.1845
821.742	12.6054
824.635	10.6413
827.528	8.07379
830.42	8.14998
833.313	7.12668
836.206	5.29795
839.098	4.8647
841.991	3.94318
844.884	2.34818
847.776	2.58542
850.669	1.59441
853.562	1.40953
856.455	2.65491
859.347	1.63802
862.24	1.35012
865.133	1.15099
868.025	1.95876
870.918	0.854527
873.811	2.39864
876.703	1.10109
879.596	1.09876
882.489	1.19066
885.381	0.450462
888.274	0.408909
891.167	0.327835
894.06	0.114174
896.952	0.350651
899.845	0.224262
902.738	1.10953
905.63	0.247372
908.523	0.17902
911.416	0.66856
914.308	0.047909
917.201	0.485443
920.094	0.06982
922.987	0.782814
925.879	0.374645
928.772	0.869106
931.665	1.29553
934.557	1.38868
937.45	3.73882
940.343	5.97093
943.236	8.4833
946.128	11.6682
949.021	16.7426
951.914	21.7443
954.806	30.967
957.699	37.263
960.592	45.3231
963.484	60.4905
966.377	89.2805
969.27	133.089
972.163	190.847
975.055	266.954
977.948	340.44
980.841	407.997
983.733	428.613
986.626	371.388
989.519	246.262
992.411	137.029
995.304	73.6318
998.197	42.6163
1001.09	26.426
1003.98	18.9955
1006.88	14.7931
1009.77	11.0419
1012.66	10.5443
1015.55	8.26011
1018.45	8.07922
1021.34	8.36274
1024.23	9.28995
1027.12	8.08822
1030.02	6.08633
1032.91	5.70396
1035.8	5.33582
1038.69	4.2592
1041.59	3.78566
1044.48	2.69036
1047.37	2.11438
1050.27	1.598
1053.16	0.353409
1056.05	0.781963
1058.94	0.349453
1061.84	0.134716
1064.73	0.911278
1067.62	1.08896
1070.51	1.52188
1073.41	2.83931
1076.3	1.55096
1079.19	1.45065
1082.09	1.685
1084.98	0.858192
1087.87	0.296726
1090.76	0.787704
1093.66	0.586105
1096.55	0.291714
1099.44	1.17977
1102.33	0.165253
1105.23	0.136421
1108.12	0.937786
1111.01	0.163982
1113.9	0.609329
1116.8	1.46834
1119.69	2.04506
1122.58	2.19672
1125.47	3.60122
1128.37	4.01387
1131.26	4.81528
1134.15	3.95298
1137.05	4.24429
1139.94	1.45167
1142.83	0.652203
1145.72	1.72446
1148.62	0.916451
1151.51	1.4488
1154.4	1.35786
1157.3	1.6735
1160.19	0.485252
1163.08	1.72974
1165.97	1.75864
1168.87	0.574409
1171.76	0.979607
1174.65	1.7216
1177.54	1.77441
1180.44	1.90565
1183.33	2.26261
1186.22	2.13097
1189.12	1.80968
1192.01	2.20538
1194.9	2.11418
1197.79	2.64485
1200.69	2.10141
1203.58	1.84073
1206.47	1.90144
1209.36	2.25825
1212.26	0.971954
1215.15	0.807865
1218.04	1.05313
1220.93	1.00988
1223.83	0.284142
1226.72	0.479561
1229.61	0.226013
1232.51	0.204117
1235.4	0.695862
1238.29	0.421112
1241.18	0.228588
1244.08	1.25167
1246.97	1.95782
1249.86	0.987404
1252.75	1.74804
1255.65	1.3945
1258.54	1.00385
1261.43	0.65308
1264.33	0.860542
1267.22	0.479778
1270.11	0.836082
1273	0.428616
1275.9	0.410603
1278.79	0.46199
1281.68	0.100742
