Measurement: Raman, 780 nm, unoriented, Raman Data Processed
Mineral: Triphylite
Rruff sample: R100156
Ideal chemistry: LiFe^2+^PO_4_
Locality: Conselheira Pena, Minas Gera√¨s, Brazil
Source: William W. Pinch
Description: Brownish-orange cut stone
Raman shift (cm-1)	intensity
90.6055	0
93.9803	1.07573
97.3551	4.07167
100.73	5.22135
104.105	24.2036
107.48	16.5749
110.854	2.75807
114.229	0.77372
117.604	0.134714
120.979	1.55192
124.354	3.90699
127.728	7.2238
131.103	11.3049
134.478	18.8273
137.853	27.1842
141.228	34.1704
144.602	58.7238
147.977	53.1549
151.352	52.7734
154.727	46.7846
158.102	17.1679
161.477	10.5777
164.851	4.39556
168.226	2.95596
171.601	1.95412
174.976	0.371164
178.351	0.504358
181.726	0.558858
185.1	0.367969
188.475	0.717717
191.85	2.78899
195.225	8.09757
198.6	15.4402
201.974	13.1325
205.349	6.01225
208.724	2.8312
212.099	1.53612
215.474	2.20536
218.848	3.72065
222.223	5.45247
225.598	8.83521
228.973	16.2939
232.348	33.186
235.722	45.4746
239.097	33.9624
242.472	32.5055
245.847	38.5575
249.222	32.7676
252.597	21.1903
255.971	11.2911
259.346	6.17258
262.721	3.59778
266.096	1.40514
269.471	1.08579
272.846	0.213582
276.22	1.40209
279.595	3.1206
282.97	5.28924
286.345	7.5724
289.719	7.5461
293.094	5.70974
296.469	4.55236
299.844	2.78099
303.219	2.36807
306.594	2.61126
309.968	3.21575
313.343	3.0246
316.718	4.20628
320.093	2.98696
323.468	1.56447
326.842	0.622305
330.217	0.328686
333.592	0.362962
336.967	0.35849
340.342	0.561892
343.717	0.178442
347.091	0.411144
350.466	0.171333
353.841	0.035758
357.216	0.008967
360.591	0.072906
363.965	0.407085
367.34	0.603042
370.715	1.26098
374.09	1.62084
377.465	2.58981
380.839	3.68841
384.214	5.63196
387.589	7.61437
390.964	10.9046
394.339	15.6189
397.714	20.708
401.088	24.5675
404.463	25.6246
407.838	23.31
411.213	21.5014
414.588	20.9632
417.962	21.7186
421.337	23.8622
424.712	27.1966
428.087	33.277
431.462	40.2091
434.837	48.3739
438.211	56.2754
441.586	59.0277
444.961	56.0318
448.336	46.7074
451.711	35.8851
455.085	27.8151
458.46	19.9652
461.835	15.4614
465.21	11.0696
468.585	8.39896
471.959	6.44386
475.334	4.84896
478.709	3.47936
482.084	2.67668
485.459	1.71544
488.834	1.83873
492.208	1.06769
495.583	0.919535
498.958	0.877044
502.333	0.245981
505.708	0.139903
509.082	0.469526
512.457	0.061308
515.832	0.418458
519.207	0.267017
522.582	0.272312
525.957	0.229938
529.331	0.268831
532.706	0.201125
536.081	0.60283
539.456	0.909867
542.831	1.15164
546.205	1.59295
549.58	3.04656
552.955	3.77874
556.33	5.31781
559.705	8.27223
563.08	11.569
566.454	17.4428
569.829	28.2971
573.204	43.072
576.579	48.852
579.954	36.621
583.328	34.1946
586.703	49.4108
590.078	72.9787
593.453	61.6838
596.828	33.1217
600.202	14.9201
603.577	7.03816
606.952	4.51124
610.327	3.84172
613.702	3.68711
617.077	4.80155
620.451	9.25148
623.826	18.5608
627.201	25.5801
630.576	16.0086
633.951	7.98026
637.325	4.9825
640.7	3.63392
644.075	2.18779
647.45	1.68275
650.825	0.741823
654.199	0.05134
657.574	0.405198
660.949	0.020356
664.324	0.26921
667.699	0.089319
671.073	0.057109
674.448	0.00315
677.823	0.376562
681.198	0.003429
684.573	0.012484
687.948	0.147929
691.322	0.287106
694.697	0.174542
698.072	0.362062
701.447	0.390641
704.822	0.901785
708.197	0.889544
711.571	0.567864
714.946	0.22781
718.321	0.534608
721.696	0.904818
725.071	0.779345
728.445	0.449896
731.82	1.2247
735.195	0.993862
738.57	1.22279
741.945	0.868465
745.319	1.1651
748.694	1.4102
752.069	1.0441
755.444	1.119
758.819	0.42689
762.193	0.957648
765.568	0.606339
768.943	0.145132
772.318	1.01946
775.693	0.693925
779.068	0.946969
782.442	0.760153
785.817	1.04115
789.192	0.445553
792.567	0.332702
795.942	0.269197
799.317	0.277549
802.691	0.143445
806.066	0.361709
809.441	0.251269
812.816	0.164512
816.191	0.463494
819.565	0.919357
822.94	0.709272
826.315	1.46501
829.69	1.92563
833.065	2.51695
836.439	2.69583
839.814	3.68595
843.189	4.33017
846.564	4.38609
849.939	3.69416
853.313	3.07258
856.688	2.55392
860.063	1.84956
863.438	1.25281
866.813	0.487879
870.188	0.930191
873.562	0.139755
876.937	0.077054
880.312	0.381708
883.687	0.523271
887.062	0.318623
890.437	0.128895
893.811	0.748212
897.186	0.357885
900.561	0.712898
903.936	0.150244
907.311	0.579351
910.685	1.28352
914.06	2.46683
917.435	4.4876
920.81	7.04656
924.185	11.1917
927.559	17.4798
930.934	29.3461
934.309	53.9349
937.684	100.511
941.059	182.203
944.433	407.868
947.808	1117.69
951.183	1401.2
954.558	562.166
957.933	171.979
961.308	65.3651
964.682	36.5722
968.057	23.8041
971.432	17.8124
974.807	16.17
978.182	16.2961
981.557	20.3088
984.931	27.6155
988.306	38.7183
991.681	61.0976
995.056	103.696
998.431	195.068
1001.8	234.885
1005.18	171.608
1008.55	86.4065
1011.93	46.3789
1015.3	32.9915
1018.68	23.3666
1022.05	13.0647
1025.43	6.34824
1028.8	2.96029
1032.18	1.45396
1035.55	0.719607
1038.93	0.095903
1042.3	0.523403
1045.68	0.800426
1049.05	0.738098
1052.43	0.47339
1055.8	0.056159
1059.18	1.54978
1062.55	4.39534
1065.93	11.5868
1069.3	16.4194
1072.68	8.16551
1076.05	8.17961
1079.43	15.2518
1082.8	12.9867
1086.18	4.97545
1089.55	2.39418
1092.92	1.77851
1096.3	1.35096
1099.67	1.43858
1103.05	0.705897
1106.42	1.15144
1109.8	0.03668
1113.17	0.139562
1116.55	0.558874
1119.92	0.530328
1123.3	0.431002
1126.67	0.39211
1130.05	0.963125
1133.42	0.489971
1136.8	0.723466
1140.17	0.100264
1143.55	0.417074
1146.92	0.371137
1150.3	0.089027
1153.67	0.42067
1157.05	0.66416
1160.42	0.674559
1163.8	0.7708
1167.17	1.19569
1170.55	1.01164
1173.92	1.33726
1177.3	2.10098
1180.67	2.46409
1184.05	2.20869
1187.42	2.09829
1190.8	1.24316
1194.17	1.41892
1197.55	0.761875
1200.92	0.59235
1204.29	0.203558
1207.67	0.281369
1211.04	0.068815
1214.42	0.025317
1217.79	0.212112
1221.17	0.226014
1224.54	0.022457
1227.92	0.151705
1231.29	0.075134
1234.67	0.081207
1238.04	0.675701
1241.42	0.488336
1244.79	0.368896
1248.17	0.96548
1251.54	1.13899
1254.92	1.37263
1258.29	1.12942
1261.67	1.21013
1265.04	0.750713
1268.42	0.365557
1271.79	0.705555
1275.16	0.473091
1278.54	0.264716
1281.91	0.47662
