Measurement: Raman, 532 nm, unoriented, Raman Data Processed
Mineral: Triplite
Rruff sample: R050615
Ideal chemistry: Mn^2+^_2_(PO_4_)F
Locality: Vienna, Austria
Source: University of Arizona Mineral Museum
Description: Brown massive
Measured chemistry: light phase is triplite: (Mn^2+^_1.09_Fe^2+^_0.88_Ca_0.02_Mg_0.01_)_Σ=2_(P_1.00_O_4_)(F_0.72_(OH)_0.28_)_Σ=1_ ; dark phase is fluorapatite: (Ca_4.44_Mn^2+^_0.44_Fe^2+^_0.12_)_Σ=5_(P_1.00_O_4_)F_1.00_
Raman shift (cm-1)	intensity
132.577	0
135.952	20.0982
139.327	48.5206
142.702	38.7916
146.077	49.6958
149.451	67.5519
152.826	72.359
156.201	71.856
159.576	62.1349
162.951	63.5376
166.326	53.6743
169.7	57.8226
173.075	49.9471
176.45	49.954
179.825	40.1106
183.2	36.3041
186.575	31.6874
189.949	19.9385
193.324	21.231
196.699	8.47266
200.074	9.56358
203.449	3.35228
206.823	4.13258
210.198	6.94344
213.573	0.156876
216.948	3.19008
220.323	3.57771
223.697	0.860138
227.072	2.91983
230.447	1.98285
233.822	1.50841
237.197	1.6751
240.572	1.13394
243.946	5.36694
247.321	5.99916
250.696	1.17722
254.071	1.38896
257.446	4.17079
260.82	1.92352
264.195	4.6835
267.57	7.90814
270.945	8.81883
274.32	8.78386
277.695	6.79034
281.07	5.46314
284.444	4.03984
287.819	4.04135
291.194	2.66508
294.569	1.18851
297.943	1.54246
301.318	2.49686
304.693	4.95616
308.068	3.98003
311.443	5.07823
314.818	0.99852
318.192	6.81578
321.567	8.23644
324.942	4.43117
328.317	9.00471
331.692	10.6159
335.067	3.57146
338.441	3.77592
341.816	6.22765
345.191	3.94801
348.566	3.57854
351.941	2.60674
355.315	0.468384
358.69	0.031006
362.065	0.172134
365.44	0.273224
368.815	0.548218
372.19	2.80178
375.565	2.80199
378.939	0.592636
382.314	4.1093
385.689	5.36572
389.064	11.9331
392.438	11.93
395.813	16.6109
399.188	21.3267
402.563	33.8848
405.938	47.0555
409.313	65.4269
412.688	87.2766
416.062	109.543
419.437	129.298
422.812	123.136
426.187	110.131
429.562	92.6261
432.936	59.9495
436.311	41.4755
439.686	36.9797
443.061	33.6943
446.436	31.738
449.81	33.1705
453.185	36.1562
456.56	32.9826
459.935	27.7664
463.31	21.833
466.685	16.105
470.059	17.1055
473.434	12.9415
476.809	10.2099
480.184	5.93346
483.559	7.19549
486.933	9.67874
490.308	11.3431
493.683	10.4823
497.058	11.5175
500.433	10.3312
503.808	10.2846
507.183	8.629
510.557	6.22428
513.932	6.57428
517.307	4.2605
520.682	4.1955
524.057	1.35197
527.431	0.938568
530.806	0.098824
534.181	1.65607
537.556	1.9483
540.931	0.664864
544.306	3.86723
547.68	1.12931
551.055	3.83224
554.43	4.0925
557.805	9.72179
561.18	15.5679
564.554	22.145
567.929	31.7849
571.304	35.0337
574.679	41.0605
578.054	41.8606
581.428	53.1467
584.803	70.9363
588.178	88.794
591.553	103.029
594.928	120.786
598.303	115.737
601.677	93.8665
605.052	68.1793
608.427	51.9432
611.802	37.354
615.177	23.1251
618.552	15.0022
621.926	9.42862
625.301	6.34381
628.676	4.53117
632.051	3.73811
635.426	3.38083
638.801	4.7608
642.175	6.08841
645.55	8.14806
648.925	10.8807
652.3	12.2453
655.675	17.6182
659.049	20.8263
662.424	23.6121
665.799	26.5595
669.174	25.8503
672.549	31.7239
675.923	31.6826
679.298	35.0655
682.673	33.932
686.048	29.1954
689.423	33.4227
692.798	27.6016
696.172	23.3914
699.547	20.9582
702.922	16.5097
706.297	10.9375
709.672	10.1309
713.047	4.01115
716.421	5.49187
719.796	3.15097
723.171	1.7751
726.546	3.55801
729.921	1.47815
733.295	1.87389
736.67	2.15865
740.045	1.76096
743.42	2.15726
746.795	5.10991
750.17	9.11238
753.544	11.3297
756.919	17.303
760.294	21.8049
763.669	23.883
767.044	27.8315
770.418	30.5653
773.793	32.3109
777.168	30.3796
780.543	31.3655
783.918	28.5194
787.293	28.1919
790.667	25.3377
794.042	23.3394
797.417	21.0341
800.792	20.9212
804.167	21.7221
807.542	19.8427
810.916	14.0269
814.291	16.245
817.666	16.0851
821.041	14.298
824.416	11.8351
827.79	8.63478
831.165	7.25124
834.54	7.5312
837.915	7.31912
841.29	7.11465
844.665	7.30231
848.039	8.83855
851.414	8.35102
854.789	6.37804
858.164	7.1632
861.539	8.88599
864.913	10.6958
868.288	8.2412
871.663	7.87846
875.038	5.11153
878.413	7.81736
881.788	6.43246
885.162	6.39296
888.537	5.69011
891.912	2.97115
895.287	1.75543
898.662	0.796669
902.037	2.9748
905.411	0.292259
908.786	3.70652
912.161	0.107841
915.536	5.21655
918.911	2.94034
922.285	3.80948
925.66	2.98963
929.035	1.76346
932.41	10.8926
935.785	10.5359
939.159	16.9172
942.534	29.9036
945.909	51.2254
949.284	68.8478
952.659	109.706
956.034	163.995
959.409	250.219
962.783	378.663
966.158	553.865
969.533	781.5
972.908	1054.97
976.283	1305.69
979.657	1355.7
983.032	964.29
986.407	505.366
989.782	259.569
993.157	155.465
996.532	101.001
999.906	70.0974
1003.28	57.1625
1006.66	47.9404
1010.03	48.0552
1013.41	51.1184
1016.78	52.8944
1020.15	58.8793
1023.53	64.4638
1026.9	74.4595
1030.28	82.4049
1033.65	87.4246
1037.03	84.2323
1040.4	68.7531
1043.78	45.2103
1047.15	29.9412
1050.53	18.124
1053.9	14.3926
1057.28	12.8254
1060.65	16.5302
1064.03	20.9966
1067.4	27.8029
1070.78	17.9978
1074.15	12.6426
1077.53	6.12361
1080.9	1.90274
1084.28	0.491989
1087.65	6.21138
1091.03	6.56229
1094.4	3.21484
1097.78	3.0304
1101.15	2.24562
1104.53	6.22466
1107.9	9.38992
1111.28	21.0392
1114.65	28.7015
1118.03	36.9652
1121.4	42.7919
1124.78	31.8698
1128.15	21.9445
1131.52	11.9699
1134.9	5.79768
1138.27	3.07398
1141.65	3.67902
1145.02	2.45145
1148.4	0.965996
1151.77	0.153526
1155.15	2.6036
1158.52	3.02268
1161.9	7.49934
1165.27	5.33198
1168.65	6.70848
1172.02	10.6257
1175.4	11.2985
1178.77	12.3469
1182.15	12.8182
1185.52	10.2327
1188.9	12.477
1192.27	13.6078
1195.65	16.0385
1199.02	10.5278
1202.4	15.5559
1205.77	12.5542
1209.14	9.19523
1212.52	11.7019
1215.89	8.92165
1219.27	6.27195
1222.64	7.61616
1226.02	7.31446
1229.39	6.46254
1232.77	6.64945
1236.14	6.79832
1239.52	6.90179
1242.89	7.65703
1246.27	5.04408
1249.64	5.75794
1253.02	5.59871
1256.39	4.35539
1259.77	8.04351
1263.14	3.00846
1266.52	2.85796
1269.89	5.23151
1273.27	1.04188
1276.64	3.10884
1280.02	9.22739
1283.39	3.22675
1286.77	2.44382
1290.14	0.416965
1293.52	3.99489
1296.89	1.86704
1300.27	0.284859
