Measurement: Raman, 780 nm, unoriented, Raman Data Processed
Mineral: Triphylite
Rruff sample: R050624
Ideal chemistry: LiFe^2+^PO_4_
Locality: Minas Gerais, Brazil
Source: Gemological Center
Description: Brown fragment
Measured chemistry: Li_1.00_(Fe^2+^_0.55_Mn^2+^_0.45_)_Î£=1_P_1.00_O_4_ ; Li not measured, but estimated by difference
Raman shift (cm-1)	intensity
103.154	0
106.529	16.074
109.904	3.4744
113.278	5.10263
116.653	6.97018
120.028	2.50958
123.403	4.75186
126.778	3.34412
130.153	8.70782
133.527	22.954
136.902	52.0735
140.277	88.8208
143.652	172.251
147.027	190.987
150.401	142.691
153.776	132.753
157.151	39.6529
160.526	16.0134
163.901	3.02809
167.276	1.99106
170.65	0.700409
174.025	5.42326
177.4	1.03613
180.775	7.60825
184.15	6.22356
187.524	10.081
190.899	19.7661
194.274	24.6303
197.649	41.6552
201.024	38.9886
204.399	27.8614
207.773	24.2817
211.148	30.8396
214.523	33.9875
217.898	34.9758
221.273	46.828
224.647	56.8739
228.022	72.0886
231.397	94.4638
234.772	110.027
238.147	125.831
241.522	144.025
244.896	170.355
248.271	156.204
251.646	109.493
255.021	63.8161
258.396	41.4597
261.77	26.6702
265.145	20.5038
268.52	12.9784
271.895	13.0607
275.27	9.09767
278.644	8.84311
282.019	8.23013
285.394	11.1851
288.769	9.72586
292.144	8.67706
295.519	5.88022
298.893	4.41101
302.268	4.26555
305.643	4.06352
309.018	5.58942
312.393	5.84453
315.767	2.6734
319.142	3.62563
322.517	2.36179
325.892	2.39282
329.267	0.514061
332.642	1.0334
336.016	0.233696
339.391	2.98651
342.766	0.555794
346.141	1.34386
349.516	1.98224
352.89	0.568588
356.265	0.636993
359.64	1.24667
363.015	1.19838
366.39	2.16491
369.764	2.30783
373.139	1.82275
376.514	4.84411
379.889	7.60558
383.264	10.208
386.639	13.4186
390.013	21.0664
393.388	29.3544
396.763	28.6838
400.138	32.6961
403.513	30.9145
406.887	35.1735
410.262	36.376
413.637	39.3083
417.012	45.2064
420.387	53.4718
423.762	63.9121
427.136	82.166
430.511	99.4148
433.886	118.994
437.261	137.272
440.636	148.604
444.01	141.266
447.385	117.39
450.76	93.2821
454.135	68.1142
457.51	50.7304
460.884	37.6892
464.259	30.0263
467.634	22.2597
471.009	18.1491
474.384	10.8485
477.759	14.7194
481.133	8.86757
484.508	5.6732
487.883	2.15696
491.258	4.4984
494.633	3.267
498.007	4.58546
501.382	2.17507
504.757	2.2644
508.132	2.95938
511.507	1.08533
514.881	0.945824
518.256	0.812531
521.631	0.13694
525.006	1.88987
528.381	0.732056
531.756	0.4328
535.13	1.67211
538.505	1.9641
541.88	3.47737
545.255	6.24108
548.63	6.99197
552.004	14.1849
555.379	24.159
558.754	38.6556
562.129	54.9886
565.504	73.2918
568.879	108.985
572.253	148.036
575.628	173.079
579.003	125.698
582.378	79.4297
585.753	63.6337
589.127	74.275
592.502	69.7585
595.877	41.2812
599.252	20.2809
602.627	6.89494
606.001	0.999893
609.376	1.17704
612.751	0.035973
616.126	6.80271
619.501	9.12663
622.875	27.1392
626.25	43.4442
629.625	34.2405
633	20.5543
636.375	22.6988
639.75	37.6445
643.124	16.6901
646.499	7.00069
649.874	8.16597
653.249	5.18785
656.624	2.25874
659.999	1.15471
663.373	4.75079
666.748	9.28352
670.123	9.39125
673.498	6.87233
676.873	2.59514
680.247	2.68781
683.622	3.927
686.997	0.873741
690.372	4.40271
693.747	0.054176
697.121	1.64287
700.496	2.4106
703.871	0.192825
707.246	0.843468
710.621	1.89583
713.995	1.59615
717.37	0.402473
720.745	1.00471
724.12	3.56969
727.495	5.37484
730.87	5.69592
734.244	12.5685
737.619	12.9404
740.994	10.5189
744.369	6.96096
747.744	6.19961
751.119	4.94415
754.493	7.34828
757.868	6.1907
761.243	4.1443
764.618	3.31325
767.993	1.61455
771.367	1.02458
774.742	0.437172
778.117	1.87973
781.492	1.58663
784.867	2.15666
788.241	1.61167
791.616	4.3211
794.991	8.05347
798.366	9.32751
801.741	15.0061
805.115	18.2016
808.49	24.9449
811.865	26.0521
815.24	24.3037
818.615	29.4183
821.99	36.8319
825.364	35.9333
828.739	33.623
832.114	35.0121
835.489	36.7213
838.864	36.0666
842.239	35.1925
845.613	29.9467
848.988	27.1294
852.363	18.0304
855.738	17.5621
859.112	13.8094
862.487	10.4504
865.862	8.59949
869.237	5.39096
872.612	8.71718
875.987	2.34934
879.361	0.273064
882.736	0.848785
886.111	1.17331
889.486	0.642174
892.861	0.958672
896.236	0.389214
899.61	1.37731
902.985	0.160614
906.36	0.241287
909.735	4.62503
913.11	7.26531
916.484	14.7477
919.859	22.1801
923.234	32.3495
926.609	53.4299
929.984	91.095
933.359	195.757
936.733	459.039
940.108	780.832
943.483	1317.69
946.858	2361.21
950.232	3656.91
953.607	1886.11
956.982	604.193
960.357	195.414
963.732	94.386
967.107	56.9727
970.481	39.1007
973.856	34.1773
977.231	35.1934
980.606	43.3466
983.981	59.6736
987.356	100.785
990.73	159.485
994.105	238.573
997.48	370.624
1000.86	512.512
1004.23	464.819
1007.6	253.156
1010.98	127.649
1014.35	79.3592
1017.73	58.4125
1021.1	29.8263
1024.48	7.66023
1027.85	1.00337
1031.23	2.17636
1034.6	0.158401
1037.98	2.21375
1041.35	4.80617
1044.73	0.096359
1048.1	3.50501
1051.48	2.73406
1054.85	2.01535
1058.23	7.72385
1061.6	20.5979
1064.98	39.4818
1068.35	69.9692
1071.73	37.2568
1075.1	16.726
1078.47	21.1608
1081.85	32.7272
1085.22	15.6124
1088.6	5.42031
1091.97	0.582718
1095.35	2.92557
1098.72	5.71629
1102.1	5.12775
1105.47	10.2273
1108.85	21.1831
1112.22	30.6062
1115.6	26.4715
1118.97	16.1629
1122.35	9.29076
1125.72	6.72572
1129.1	2.08659
1132.47	0.390846
1135.85	1.16231
1139.22	2.171
1142.6	1.36485
1145.97	2.86549
1149.35	3.25849
1152.72	1.4849
1156.1	2.70702
1159.47	1.92486
1162.85	3.52762
1166.22	5.26076
1169.6	3.47617
1172.97	5.44162
1176.35	9.74826
1179.72	12.8696
1183.1	19.9894
1186.47	22.2007
1189.84	14.3206
1193.22	9.99198
1196.59	3.5872
1199.97	0.713272
1203.34	2.50557
1206.72	2.40193
1210.09	2.29374
1213.47	3.82082
1216.84	8.80855
1220.22	8.78484
1223.59	9.40923
1226.97	13.4298
1230.34	12.3938
1233.72	12.1376
1237.09	10.1509
1240.47	9.70924
1243.84	8.72408
1247.22	5.97637
1250.59	7.8699
1253.97	8.42365
1257.34	9.19093
1260.71	7.63758
1264.09	7.32221
1267.46	3.17293
1270.84	3.04978
1274.21	0.328995
1277.59	2.55096
1280.96	4.25845
1284.34	1.12485
