Measurement: Raman, 532 nm, unoriented, Raman Data Processed
Mineral: Triplite
Rruff sample: R050186
Ideal chemistry: Mn^2+^_2_(PO_4_)F
Locality: Wuzhou, Guangxi Autonomous Region, China
Source: John Lucking
Description: Orangish red fragments
Measured chemistry: (Mn^2+^_1.60_Fe^2+^_0.21_Mg_0.15_Ca_0.04_)_Σ=2_(P_1.00_O_4_)(F_0.80_(OH)_0.20_)_Σ=1_
Raman shift (cm-1)	intensity
82.9955	0
86.3703	30.6335
89.7451	37.966
93.1199	90.5885
96.4947	96.2853
99.8696	95.6474
103.244	44.7353
106.619	2.37809
109.994	15.5381
113.369	33.5267
116.744	219.803
120.118	394.632
123.493	593.366
126.868	786.188
130.243	902.517
133.618	937.424
136.993	1037.46
140.367	1179.56
143.742	1274.12
147.117	1250.89
150.492	1131.46
153.867	1088.23
157.241	1110.65
160.616	1130.66
163.991	1090.79
167.366	1029.18
170.741	1107.6
174.115	1174.1
177.49	1149.09
180.865	1065.49
184.24	979.918
187.615	865.991
190.989	775.22
194.364	656.46
197.739	474.508
201.114	340.852
204.489	247.558
207.864	184.219
211.238	150.428
214.613	125.498
217.988	100.212
221.363	62.6426
224.738	7.51898
228.113	29.4115
231.487	36.7748
234.862	18.8778
238.237	43.54
241.612	17.9177
244.987	65.7136
248.361	59.65
251.736	38.3937
255.111	30.7797
258.486	10.8215
261.861	12.7291
265.236	73.2493
268.61	166.293
271.985	263.195
275.36	343.295
278.735	357.716
282.11	324.66
285.484	241.343
288.859	182.467
292.234	104.535
295.609	112.913
298.984	94.5717
302.358	105.391
305.733	98.796
309.108	149.799
312.483	134.449
315.858	144.367
319.233	152.017
322.607	158.567
325.982	103.433
329.357	53.6662
332.732	45.8582
336.107	21.1165
339.481	21.2602
342.856	3.51001
346.231	2.83606
349.606	8.05267
352.981	5.03748
356.355	10.5343
359.73	7.89383
363.105	22.9234
366.48	7.1467
369.855	23.9295
373.229	17.8587
376.604	50.6817
379.979	75.1564
383.354	115.91
386.729	170.062
390.104	208.715
393.478	278.406
396.853	333.069
400.228	397.962
403.603	521.259
406.978	678.559
410.353	984.601
413.727	1476.94
417.102	2266.33
420.477	3362.16
423.852	4296.87
427.227	5145.21
430.601	5357.91
433.976	3979.51
437.351	2756.03
440.726	2355.24
444.101	2412.02
447.475	2648.04
450.85	2944.1
454.225	2725.11
457.6	2049.84
460.975	1412.78
464.349	978.235
467.724	747.13
471.099	530.291
474.474	382.425
477.849	256.663
481.224	190.43
484.598	121.36
487.973	108.554
491.348	76.5213
494.723	39.0088
498.098	29.7267
501.473	18.4219
504.847	14.4054
508.222	6.72629
511.597	5.8866
514.972	13.2839
518.347	12.0976
521.721	7.13586
525.096	5.16586
528.471	1.98843
531.846	1.3894
535.221	0.331848
538.595	3.05749
541.97	4.41211
545.345	30.8966
548.72	62.0301
552.095	82.7523
555.47	117.036
558.844	197.906
562.219	269.225
565.594	386.698
568.969	514.697
572.344	661.499
575.718	751.966
579.093	719.768
582.468	838.581
585.843	1173.03
589.218	1740.58
592.592	2648.3
595.967	3679.67
599.342	4647.79
602.717	4447.36
606.092	3717.39
609.467	3450.65
612.841	3023.07
616.216	1979.16
619.591	1188.74
622.966	748.9
626.341	516.179
629.715	336.345
633.09	219.59
636.465	121.466
639.84	67.5986
643.215	50.5333
646.59	28.4554
649.964	19.03
653.339	4.1785
656.714	3.58447
660.089	11.7344
663.464	2.11127
666.838	2.63782
670.213	0.157227
673.588	1.14307
676.963	0.189362
680.338	2.73297
683.712	3.05319
687.087	3.03751
690.462	9.54102
693.837	2.13596
697.212	11.9173
700.587	3.35336
703.961	0.557037
707.336	21.1284
710.711	19.9893
714.086	12.9063
717.461	11.4513
720.835	2.44437
724.21	13.4246
727.585	14.1445
730.96	28.6332
734.335	6.12921
737.71	21.8125
741.084	0.838135
744.459	15.2864
747.834	23.3
751.209	10.9239
754.584	28.6718
757.958	29.1482
761.333	10.4536
764.708	18.6712
768.083	29.7227
771.458	25.8691
774.832	8.38116
778.207	43.5577
781.582	32.1708
784.957	35.2978
788.332	40.7794
791.707	47.2033
795.081	54.1412
798.456	72.127
801.831	64.8121
805.206	65.0887
808.581	66.0148
811.955	68.9031
815.33	76.7037
818.705	86.7859
822.08	102.744
825.455	118.083
828.83	102.631
832.204	123.181
835.579	104.955
838.954	133.652
842.329	112.601
845.704	149.619
849.078	133.714
852.453	158.208
855.828	174.829
859.203	164.857
862.578	175.568
865.952	174.929
869.327	174.902
872.702	168.224
876.077	156.513
879.452	154.962
882.827	140.952
886.201	136.819
889.576	93.1828
892.951	73.8668
896.326	67.9288
899.701	53.7338
903.075	39.2792
906.45	1.55365
909.825	4.24725
913.2	17.0526
916.575	17.8293
919.949	34.1611
923.324	44.1301
926.699	54.876
930.074	60.7387
933.449	53.047
936.823	2.0003
940.198	41.3849
943.573	161.246
946.948	306.449
950.323	570.509
953.698	949.186
957.072	1638.33
960.447	2724.5
963.822	4869.65
967.197	9065.82
970.572	16946.1
973.947	29591.8
977.321	48075.9
980.696	68244.4
984.071	56033.8
987.446	21518.6
990.821	7741.88
994.195	3570.9
997.57	1952.87
1000.95	1219.67
1004.32	979.894
1007.7	950.381
1011.07	942.345
1014.44	888.217
1017.82	861.952
1021.19	996.645
1024.57	1168.22
1027.94	1404.19
1031.32	1746.91
1034.69	2349.52
1038.07	2990.15
1041.44	3217.26
1044.82	2755.46
1048.19	1975.68
1051.57	1307.59
1054.94	901.08
1058.32	759.003
1061.69	1050.55
1065.07	1711.6
1068.44	2831.02
1071.82	3813.75
1075.19	2618.11
1078.57	1210.02
1081.94	542.505
1085.32	274.064
1088.69	129.496
1092.07	21.5703
1095.44	50.4398
1098.82	54.6342
1102.19	93.9194
1105.56	97.2809
1108.94	50.7642
1112.31	0.178711
1115.69	95.971
1119.06	209.574
1122.44	345.644
1125.81	453.332
1129.19	423.531
1132.56	283.946
1135.94	190.673
1139.31	160.024
1142.69	167.375
1146.06	166.86
1149.44	158.012
1152.81	161.304
1156.19	133.695
1159.56	118.635
1162.94	102.076
1166.31	47.1894
1169.69	59.7484
1173.06	62.9442
1176.43	74.553
1179.81	79.3035
1183.18	113.019
1186.56	125.385
1189.93	127.23
1193.31	145.2
1196.68	131.923
1200.06	131.633
1203.43	94.9581
1206.81	72.1273
1210.18	45.0814
1213.56	44.375
1216.93	37.1842
1220.31	19.5598
1223.68	42.7978
1227.06	33.2824
1230.43	22.4094
1233.81	8.10523
1237.18	18.1809
1240.56	24.2572
1243.93	22.315
1247.31	35.5171
1250.68	29.2871
1254.06	42.0988
1257.43	38.122
1260.81	25.3892
1264.18	33.409
1267.56	6.23044
1270.93	8.93741
1274.31	3.79541
1277.68	0.286224
1281.06	3.37854
1284.43	32.3247
1287.8	22.7972
1291.18	5.5155
1294.55	29.5361
