Measurement: Raman, 514 nm, unoriented, Raman Data Processed
Mineral: Triphylite
Rruff sample: R050257
Ideal chemistry: LiFe^2+^PO_4_
Locality: Palermo mine, North Groton, Grafton County, New Hampshire, USA
Source: Marcus Origlieri
Description: Dark gray massive
Measured chemistry: Li_1.00_(Fe^2+^_0.73_Mn^2+^_0.19_Mg_0.08_)_Î£=1_P_1.00_O_4_
Raman shift (cm-1)	intensity
52.866	0
57.065	0.208
61.262	4.185
65.458	14.943
69.651	35.491
73.842	116.782
78.031	101.741
82.218	119.119
86.404	101.079
90.587	279.654
94.768	251.276
98.947	324.786
103.124	362.95
107.3	468.632
111.473	227.743
115.644	325.221
119.813	226.018
123.981	274.099
128.146	299.6
132.309	382.994
136.47	546.724
140.63	886.354
144.787	1485.91
148.942	1773.47
153.096	1649.06
157.247	1594.71
161.396	1131.42
165.544	540.205
169.689	229.062
173.833	130.992
177.974	75.994
182.114	81.064
186.251	69.2
190.387	99.398
194.52	158.078
198.652	203.398
202.782	214.056
206.909	215.13
211.035	106.07
215.159	75.984
219.281	73.729
223.4	75.558
227.518	77.348
231.634	176.397
235.748	315.864
239.86	428.561
243.97	506.443
248.079	654.481
252.185	716.652
256.289	560.937
260.391	312.322
264.492	162.793
268.59	95.34
272.687	62.954
276.781	43.63
280.874	80.361
284.964	117.142
289.053	130.971
293.14	116.84
297.225	84.741
301.308	36.664
305.389	28.61
309.468	17.58
313.545	23.573
317.62	40.59
321.693	51.629
325.765	36.69
329.834	4.771
333.902	13.869
337.967	19.98
342.031	14.901
346.093	20.795
350.153	0.723
354.21	8.657
358.267	17.586
362.321	24.554
366.373	12.624
370.423	1.271
374.471	17.088
378.518	45.913
382.563	57.806
386.605	93.778
390.646	150.803
394.685	217.888
398.722	317.019
402.757	397.184
406.79	403.385
410.821	449.615
414.851	519.865
418.878	662.132
422.904	800.402
426.927	1088.67
430.949	1394.94
434.969	1853.21
438.987	2377.47
443.003	2678.74
447.018	2679.99
451.03	2119.25
455.041	1629.49
459.049	1261.74
463.056	999.97
467.061	759.197
471.064	557.415
475.065	422.578
479.064	323.827
483.062	263.022
487.057	187.198
491.051	161.357
495.043	138.131
499.032	119.962
503.02	96.538
507.007	69.609
510.991	67.977
514.973	70.951
518.954	49.954
522.933	27.204
526.91	36.632
530.885	39.371
534.858	35.767
538.829	35.824
542.799	62.664
546.766	79.992
550.732	108.297
554.696	128.334
558.658	191.424
562.618	290.83
566.576	475.401
570.533	775.085
574.488	1010.35
578.44	856.946
582.391	699.452
586.341	868.69
590.288	1171.5
594.233	1112.62
598.177	783.821
602.119	467.761
606.059	284.722
609.997	215.64
613.933	250.74
617.868	413.127
621.801	834.582
625.731	1839.67
629.66	2262.92
633.588	1286.88
637.513	643.329
641.437	376.879
645.358	285.88
649.278	188.32
653.196	136.49
657.113	88.598
661.027	50.086
664.94	33.4
668.851	15.4
672.76	19.333
676.667	20.197
680.572	8.026
684.476	0.214
688.378	14.447
692.278	9.986
696.176	13.793
700.072	3.341
703.967	2.767
707.86	2.759
711.751	3.625
715.64	13.382
719.527	0.041
723.413	9.59
727.297	9.944
731.179	3.425
735.059	11.726
738.937	13.971
742.814	4.835
746.689	20.293
750.562	0.375
754.433	8.593
758.303	1.375
762.17	9.706
766.036	6.152
769.901	7.037
773.763	7.282
777.624	5.426
781.482	10.913
785.339	9.298
789.195	13.729
793.048	0.779
796.9	8.744
800.75	7.299
804.598	8.119
808.445	16.526
812.289	0.923
816.132	9.695
819.973	1.63
823.813	24.582
827.65	29.091
831.486	38.738
835.32	82.771
839.152	105.454
842.983	149.095
846.812	174.439
850.639	153.296
854.464	130.343
858.288	106.603
862.11	92.502
865.93	80.701
869.748	63.096
873.564	57.356
877.379	89.342
881.192	101.786
885.004	99.484
888.813	129.186
892.621	164.781
896.427	147.043
900.232	175.878
904.034	224.69
907.835	297.061
911.634	340.845
915.432	460.361
919.227	568.284
923.021	733.116
926.813	969.095
930.604	1309.31
934.393	1880.3
938.18	3000.63
941.965	6168.03
945.749	17668.6
949.53	51991.4
953.311	42075.1
957.089	15358.4
960.866	5464.86
964.641	2831.42
968.414	2047.44
972.185	1702.05
975.955	1588.85
979.723	1565.75
983.49	1731.75
987.254	2029.85
991.017	2655.07
994.779	3782.39
998.538	5859.82
1002.3	7349.4
1006.05	5443.12
1009.81	2990.95
1013.56	1989.9
1017.31	1738.97
1021.06	1336.14
1024.81	851.428
1028.55	573.827
1032.3	426.326
1036.04	325.28
1039.78	279.627
1043.52	206.411
1047.26	197.281
1050.99	159.24
1054.73	200.076
1058.46	241.337
1062.19	404.902
1065.92	1019.02
1069.65	1870.73
1073.37	1109.13
1077.1	813.309
1080.82	1349.93
1084.54	1165.45
1088.26	532.043
1091.97	273.792
1095.69	179.389
1099.4	122.683
1103.12	93.202
1106.83	85.276
1110.54	61.369
1114.24	50.695
1117.95	53.682
1121.65	98.904
1125.35	106.161
1129.06	50.452
1132.75	46.774
1136.45	32.125
1140.15	41.504
1143.84	32.907
1147.53	37.333
1151.22	26.779
1154.91	13.241
1158.6	12.719
1162.28	18.209
1165.97	35.723
1169.65	23.23
1173.33	35.815
1177.01	65.514
1180.69	66.138
1184.36	86.763
1188.04	60.414
1191.71	32.925
1195.38	23.464
1199.05	8.832
1202.71	2.752
1206.38	2.813
1210.04	19.209
1213.71	14.943
1217.37	29.735
1221.03	25.594
1224.68	19.759
1228.34	8.71
1231.99	12.345
1235.65	16.089
1239.3	3.532
1242.95	3.801
1246.59	10.137
1250.24	24.45
1253.88	37.676
1257.53	61.847
1261.17	60.984
1264.81	80.107
1268.45	77.237
1272.08	83.056
1275.72	79.232
1279.35	78.159
1282.98	74.034
1286.61	84.401
1290.24	80.616
1293.87	91.318
1297.49	45.959
1301.11	58.615
1304.73	49.214
1308.36	75.673
1311.97	43.076
1315.59	60.428
1319.2	26.73
1322.82	31.99
1326.43	34.218
1330.04	29.359
1333.65	42.445
1337.26	40.702
1340.86	46.799
1344.47	31.271
1348.07	54.806
1351.67	65.368
1355.27	41.866
1358.87	44.984
1362.46	36.322
1366.06	49.202
1369.65	28.417
1373.24	25.617
1376.83	19.11
1380.42	25.082
1384	28.623
1387.59	10.003
1391.17	9.8
1394.75	28.524
1398.33	45.144
1401.91	24.659
1405.49	14.067
1409.06	14.363
1412.64	21.546
1416.21	29.608
1419.78	25.531
1423.35	23.949
1426.91	30.143
1430.48	21.58
1434.05	35.378
1437.61	38.571
1441.17	14.433
1444.73	1.549
1448.29	33.648
1451.84	26.521
1455.4	21.145
1458.95	24.995
1462.5	22.867
1466.05	18.572
1469.6	17.175
1473.15	26.725
1476.69	15.525
1480.24	1.284
1483.78	13.599
1487.32	8.574
1490.86	0.361
1494.39	22.652
1497.93	13.593
1501.46	24.237
1505	18.351
1508.53	31.16
1512.06	0.518
1515.59	9.903
1519.11	0.607
