Measurement: Raman, 785 nm, unoriented, Raman Data Processed
Mineral: Triphylite
Rruff sample: R050257
Ideal chemistry: LiFe^2+^PO_4_
Locality: Palermo mine, North Groton, Grafton County, New Hampshire, USA
Source: Marcus Origlieri
Description: Dark gray massive
Measured chemistry: Li_1.00_(Fe^2+^_0.73_Mn^2+^_0.19_Mg_0.08_)_Î£=1_P_1.00_O_4_
Raman shift (cm-1)	intensity
54.2952	0
57.67	9.35165
61.0449	0.118265
64.4197	10.834
67.7945	34.3349
71.1693	18.8943
74.5441	39.1191
77.9189	47.3936
81.2938	49.8239
84.6686	51.2168
88.0434	39.5451
91.4182	18.7528
94.793	8.23443
98.1679	9.16949
101.543	2.32028
104.918	3.00434
108.292	13.059
111.667	8.8757
115.042	6.84916
118.417	25.209
121.792	25.9284
125.166	59.1841
128.541	134.756
131.916	283.556
135.291	269.432
138.666	243.992
142.041	245.319
145.415	334.769
148.79	508.224
152.165	578.354
155.54	583.901
158.915	591.807
162.289	340.466
165.664	186.052
169.039	157.825
172.414	98.1936
175.789	81.1072
179.163	111.923
182.538	112.732
185.913	173.849
189.288	256.976
192.663	342.958
196.037	516.08
199.412	611.244
202.787	539.967
206.162	305.939
209.537	140.143
212.912	67.9556
216.286	34.8276
219.661	33.7006
223.036	60.0288
226.411	103.461
229.786	160.81
233.161	227.625
236.535	342.094
239.91	455.403
243.285	480.165
246.66	570.908
250.035	643.702
253.409	601.865
256.784	414.064
260.159	215.08
263.534	108.917
266.909	41.7748
270.284	20.713
273.658	5.01997
277.033	25.5068
280.408	1.00163
283.783	17.8204
287.158	1.14537
290.532	24.7344
293.907	8.82706
297.282	11.5125
300.657	24.7607
304.032	26.5698
307.406	38.0236
310.781	58.786
314.156	87.2468
317.531	135.241
320.906	168.988
324.281	155.048
327.655	110.356
331.03	85.4401
334.405	60.8341
337.78	40.8212
341.155	24.2336
344.529	5.5889
347.904	3.12394
351.279	4.6637
354.654	10.1039
358.029	1.78404
361.404	24.0289
364.778	8.22449
368.153	10.7188
371.528	7.28366
374.903	7.29191
378.278	34.0774
381.652	16.5615
385.027	56.427
388.402	53.4352
391.777	89.6992
395.152	100.379
398.527	150.339
401.901	160.042
405.276	199.216
408.651	178.294
412.026	236.308
415.401	298.055
418.776	341.269
422.15	393.56
425.525	470.119
428.9	522.941
432.275	569.459
435.649	602.853
439.024	605.354
442.399	560.933
445.774	519.017
449.149	403.094
452.524	322.72
455.898	268.546
459.273	194.734
462.648	150.89
466.023	107.658
469.398	85.6697
472.772	68.1609
476.147	44.4172
479.522	43.0231
482.897	45.4945
486.272	25.2173
489.647	13.8236
493.021	9.65004
496.396	22.5384
499.771	15.4774
503.146	10.8176
506.521	10.0967
509.896	14.3671
513.27	1.1059
516.645	2.9048
520.02	5.42657
523.395	8.88516
526.77	7.29347
530.144	2.63578
533.519	11.3972
536.894	11.6599
540.269	2.24593
543.644	38.9154
547.019	57.5281
550.393	68.6834
553.768	93.7174
557.143	155.011
560.518	256.027
563.893	394.733
567.267	575.011
570.642	792.184
574.017	974.034
577.392	903.615
580.767	669.005
584.141	623.489
587.516	723.651
590.891	690.926
594.266	453.624
597.641	274.604
601.016	136.914
604.39	109.792
607.765	54.679
611.14	57.834
614.515	110.528
617.89	190.342
621.264	328.27
624.639	472.603
628.014	686.09
631.389	539.557
634.764	257.034
638.139	141.571
641.513	77.5918
644.888	58.7982
648.263	36.7594
651.638	16.0425
655.013	21.6264
658.388	8.47944
661.762	10.2413
665.137	2.92702
668.512	8.96153
671.887	1.22678
675.261	2.24394
678.636	14.2233
682.011	3.52271
685.386	15.5541
688.761	12.4729
692.136	2.83246
695.51	8.11566
698.885	7.44425
702.26	5.8039
705.635	12.3851
709.01	17.1659
712.385	20.651
715.759	19.5987
719.134	31.1933
722.509	28.3304
725.884	7.2911
729.259	25.4874
732.633	19.4337
736.008	31.1396
739.383	30.8304
742.758	7.44357
746.133	28.4653
749.508	27.0065
752.882	22.909
756.257	34.8015
759.632	21.0596
763.007	36.5736
766.382	13.293
769.756	26.398
773.131	23.9661
776.506	16.4945
779.881	13.8038
783.256	9.8106
786.63	37.4625
790.005	0.024338
793.38	17.3284
796.755	21.6302
800.13	2.20415
803.505	15.4819
806.879	6.07548
810.254	1.93285
813.629	14.8495
817.004	3.45882
820.379	10.7431
823.754	2.72032
827.128	22.0211
830.503	15.4446
833.878	8.62596
837.253	32.8837
840.628	39.2068
844.002	24.2098
847.377	42.0775
850.752	32.4549
854.127	25.8711
857.502	10.3963
860.876	46.3048
864.251	4.82375
867.626	4.95048
871.001	0.306931
874.376	2.84071
877.75	3.44663
881.125	12.2798
884.5	6.89123
887.875	0.665024
891.25	1.56065
894.625	4.34967
898	6.01256
901.374	15.0876
904.749	7.80112
908.124	8.55675
911.499	63.7195
914.874	79.819
918.248	134.315
921.623	195.692
924.998	296.495
928.373	396.375
931.748	621.467
935.122	1076.24
938.497	2367.76
941.872	5359.18
945.247	10311.5
948.622	18692.3
951.996	19206.4
955.371	8437.12
958.746	2824.03
962.121	1038.44
965.496	523.353
968.871	333.538
972.245	234.052
975.62	183.812
978.995	181.117
982.37	189.925
985.745	306.998
989.12	496.36
992.494	772.413
995.869	1068.56
999.244	1486.63
1002.62	1678.48
1005.99	1182.07
1009.37	625.983
1012.74	329.712
1016.12	190.125
1019.49	111.327
1022.87	52.9797
1026.24	17.959
1029.62	4.64899
1032.99	3.89378
1036.37	5.45442
1039.74	2.15039
1043.12	11.1501
1046.49	9.69882
1049.87	2.01869
1053.24	48.5806
1056.62	97.3158
1059.99	254.569
1063.37	508.591
1066.74	910.907
1070.12	963.36
1073.49	474.623
1076.87	219.216
1080.24	155.957
1083.61	118.522
1086.99	58.1529
1090.36	63.9549
1093.74	65.8093
1097.11	32.1135
1100.49	46.65
1103.86	23.977
1107.24	21.1899
1110.61	11.8597
1113.99	26.5373
1117.36	17.0586
1120.74	11.9922
1124.11	11.5386
1127.49	19.8936
1130.86	30.394
1134.24	16.2465
1137.61	32.0594
1140.99	4.01673
1144.36	0.246788
1147.74	18.3952
1151.11	19.88
1154.49	6.2682
1157.86	4.16814
1161.23	14.3537
1164.61	9.53151
1167.98	12.4211
1171.36	13.9921
1174.73	30.8297
1178.11	22.4875
1181.48	40.7618
1184.86	20.1298
1188.23	29.5234
1191.61	11.1177
1194.98	4.30727
1198.36	11.3184
1201.73	30.4649
1205.11	14.5587
1208.48	40.1776
1211.86	18.4321
1215.23	4.71474
1218.61	6.15055
1221.98	22.7906
1225.36	28.4185
1228.73	1.68248
1232.11	17.9733
1235.48	25.0496
1238.86	9.4662
1242.23	2.49473
