Measurement: Raman, 532 nm, unoriented, Raman Data Processed
Mineral: Triphylite
Rruff sample: R050424
Ideal chemistry: LiFe^2+^PO_4_
Locality: Karibib, Namibia
Source: John Lucking
Description: Lime-green fine-grained massive
Measured chemistry: Li_1.00_(Fe^2+^_0.70_Mn^2+^_0.28_Mg_0.02_)_Î£=1_P_1.00_O_4_
Raman shift (cm-1)	intensity
103.898	0
107.273	29.8708
110.648	14.8836
114.023	11.6051
117.398	24.2554
120.772	9.89201
124.147	73.3976
127.522	178.149
130.897	373.492
134.272	606.566
137.647	994.34
141.021	1662.99
144.396	2885.67
147.771	3684.07
151.146	2347.45
154.521	2407.23
157.895	1539.82
161.27	944.527
164.645	358.666
168.02	189.632
171.395	136.344
174.769	89.1498
178.144	81.5199
181.519	71.5459
184.894	11.1038
188.269	9.83536
191.644	19.9483
195.018	75.0734
198.393	147.84
201.768	103.099
205.143	20.0739
208.518	8.70795
211.893	25.4678
215.267	8.78174
218.642	73.8893
222.017	92.281
225.392	108.683
228.767	161.225
232.141	273.677
235.516	445.3
238.891	645.376
242.266	893.063
245.641	1313.55
249.015	1597.33
252.39	1336.13
255.765	779.356
259.14	503.192
262.515	434.213
265.889	453.566
269.264	319.141
272.639	241.262
276.014	226.541
279.389	293.428
282.764	401.786
286.138	411.944
289.513	385.257
292.888	403.736
296.263	379.175
299.638	280.444
303.012	137.161
306.387	104.93
309.762	81.5699
313.137	81.7627
316.512	88.0818
319.887	68.212
323.261	26.5088
326.636	9.86111
330.011	5.93994
333.386	29.0115
336.761	9.83078
340.135	17.7415
343.51	12.2055
346.885	16.4444
350.26	11.0789
353.635	19.4458
357.01	7.74652
360.384	0.993561
363.759	58.4517
367.134	109.337
370.509	145.6
373.884	46.0429
377.258	19.1488
380.633	40.3918
384.008	23.5369
387.383	46.4618
390.758	89.3347
394.132	146.514
397.507	201.782
400.882	279.617
404.257	367.476
407.632	419.565
411.007	515.5
414.381	726.571
417.756	904.884
421.131	1295.86
424.506	1789.48
427.881	2357.84
431.255	3371.55
434.63	4393.65
438.005	5410.98
441.38	6162.53
444.755	6171.99
448.13	5328.81
451.504	4384.74
454.879	3344.17
458.254	2475.28
461.629	1786.87
465.003	1319.26
468.378	971.983
471.753	703.218
475.128	498.284
478.503	379.967
481.878	267.673
485.252	185.289
488.627	159.768
492.002	81.7506
495.377	85.1304
498.752	75.2752
502.127	55.5114
505.501	116.207
508.876	154.339
512.251	71.8939
515.626	10.872
519	10.6175
522.375	28.2607
525.75	29.272
529.125	32.2474
532.5	15.9108
535.875	16.4692
539.249	7.7038
542.624	18.9166
545.999	57.0917
549.374	171.598
552.749	247.465
556.124	399.135
559.498	714.465
562.873	1167.47
566.248	1787.25
569.623	2591.33
572.998	3290.84
576.372	2987.18
579.747	1888.56
583.122	1238.65
586.497	1081.41
589.872	1249.13
593.246	1291.64
596.621	1121.55
599.996	695.191
603.371	441.056
606.746	410.445
610.12	530.189
613.495	1017.9
616.87	1943.02
620.245	3509.2
623.62	5582.49
626.995	7685.61
630.369	6149.3
633.744	2786.01
637.119	1344.41
640.494	752.123
643.869	523.846
647.244	343.157
650.618	193.917
653.993	127.776
657.368	86.7258
660.743	27.7387
664.117	2.51709
667.492	7.78726
670.867	6.74322
674.242	5.19864
677.617	2.51834
680.992	2.43265
684.366	14.7008
687.741	8.35355
691.116	23.4655
694.491	19.2128
697.866	1.00314
701.24	22.8227
704.615	26.1317
707.99	19.397
711.365	38.7439
714.74	23.1179
718.115	57.7039
721.489	56.7339
724.864	66.157
728.239	58.5676
731.614	69.0433
734.989	77.7318
738.363	69.6634
741.738	58.3705
745.113	84.8996
748.488	22.4388
751.863	63.9233
755.237	71.1012
758.612	27.2082
761.987	39.7212
765.362	71.6416
768.737	47.2607
772.112	53.0472
775.486	52.6039
778.861	70.8435
782.236	54.8033
785.611	81.109
788.986	52.9729
792.361	81.2936
795.735	59.8049
799.11	17.8057
802.485	40.0208
805.86	55.3473
809.235	36.246
812.609	28.8909
815.984	40.5363
819.359	43.6123
822.734	56.2492
826.109	56.4464
829.483	54.4856
832.858	44.9766
836.233	65.0485
839.608	48.9357
842.983	54.5906
846.357	89.8646
849.732	55.0608
853.107	47.8034
856.482	64.0797
859.857	7.46719
863.231	36.5954
866.606	27.3046
869.981	4.62677
873.356	34.1627
876.731	13.0764
880.106	17.7637
883.48	2.35144
886.855	2.20441
890.23	22.0889
893.605	45.5409
896.98	1.91339
900.355	37.1053
903.729	6.6803
907.104	22.7745
910.479	39.5157
913.854	69.0893
917.229	136.204
920.603	223.714
923.978	386.082
927.353	597.886
930.728	1055.13
934.103	1944.48
937.477	4258.48
940.852	12004.3
944.227	29163.2
947.602	55689.4
950.977	71637.8
954.351	32666.2
957.726	10596.5
961.101	3682.86
964.476	1822.31
967.851	1137.45
971.226	878.502
974.6	856.359
977.975	1024.38
981.35	1395.72
984.725	1714.95
988.1	2237.69
991.475	3300.63
994.849	5227.15
998.224	7642.33
1001.6	8615.14
1004.97	5675.12
1008.35	3233.42
1011.72	2609.73
1015.1	2981.37
1018.47	2828.61
1021.85	1952.87
1025.22	1196.88
1028.6	430.01
1031.97	112.98
1035.35	3.07703
1038.72	53.8422
1042.1	62.4142
1045.47	45.4507
1048.85	77.1271
1052.22	172.226
1055.6	534.716
1058.97	1577.63
1062.35	4086.93
1065.72	7846.5
1069.1	10649.8
1072.47	4925.32
1075.85	2860.93
1079.22	3400.69
1082.59	3461.76
1085.97	1515.31
1089.34	631.506
1092.72	318.362
1096.09	195.183
1099.47	121.915
1102.84	71.0587
1106.22	55.9487
1109.59	5.32733
1112.97	53.286
1116.34	71.1501
1119.72	70.9048
1123.09	28.1287
1126.47	6.49255
1129.84	0.647522
1133.22	23.2623
1136.59	16.6077
1139.97	5.50397
1143.34	23.0107
1146.72	7.95972
1150.09	17.1069
1153.47	9.32227
1156.84	4.89136
1160.21	8.68018
1163.59	58.2211
1166.96	38.6864
1170.34	93.1728
1173.71	99.4222
1177.09	121.619
1180.46	136.736
1183.84	115.741
1187.21	119.03
1190.59	73.9935
1193.96	75.0795
1197.34	74.4746
1200.71	66.7528
1204.09	17.2586
1207.46	39.3967
1210.84	12.9629
1214.21	8.9566
1217.59	12.3629
1220.96	7.72888
1224.34	5.99817
1227.71	1.43988
1231.09	42.8426
1234.46	17.975
1237.84	37.7753
1241.21	28.4741
1244.59	53.266
1247.96	66.4222
1251.34	68.6402
1254.71	111.285
1258.09	111.738
1261.46	104.19
1264.83	110.844
1268.21	81.3777
1271.58	86.6898
1274.96	73.0453
1278.33	56.7656
1281.71	89.4808
1285.08	122.479
1288.46	61.7574
1291.83	57.1216
1295.21	39.9881
1298.58	81.4346
1301.96	58.0763
1305.33	46.4146
1308.71	65.1265
1312.08	2.11456
