Measurement: Raman, 780 nm, unoriented, Raman Data Processed
Mineral: Triphylite
Rruff sample: R050494
Ideal chemistry: LiFe^2+^PO_4_
Locality: Big Chief mine, Glendale, Pennington County, South Dakota, USA
Source: California Institute of Technology
Description: Bluish gray fragment
Measured chemistry: Li_1.00_(Fe^2+^_0.75_Mn^2+^_0.23_Mg_0.02_)_Î£=1_P_1.00_O_4_ ; Li not measured but estimated by difference
Raman shift (cm-1)	intensity
123.192	0.062201
126.567	3.0024
129.942	13.1662
133.317	20.8977
136.692	30.0446
140.066	48.0255
143.441	57.0292
146.816	72.4758
150.191	71.4667
153.566	58.1424
156.94	60.2791
160.315	30.5187
163.69	10.0241
167.065	0.812033
170.44	0.758797
173.815	1.29201
177.189	0.359159
180.564	0.013832
183.939	2.49056
187.314	3.70933
190.689	6.98734
194.064	8.67393
197.438	10.9286
200.813	13.7983
204.188	6.66236
207.563	3.3435
210.938	1.52218
214.312	0.066547
217.687	2.16823
221.062	4.80771
224.437	5.61665
227.812	6.51828
231.186	7.30285
234.561	10.2665
237.936	15.0648
241.311	12.9709
244.686	10.8907
248.061	10.1354
251.435	11.3349
254.81	8.33086
258.185	3.59513
261.56	3.077
264.935	1.60489
268.31	0.809993
271.684	1.27306
275.059	0.405455
278.434	0.574339
281.809	1.55433
285.184	1.2685
288.558	2.9703
291.933	2.56906
295.308	2.09095
298.683	1.81
302.058	2.27139
305.433	3.04402
308.807	3.19701
312.182	6.05923
315.557	6.51661
318.932	6.64145
322.307	6.85257
325.682	4.3938
329.056	2.88173
332.431	2.52044
335.806	0.829136
339.181	2.30861
342.556	0.168231
345.93	0.076077
349.305	0.889538
352.68	0.547026
356.055	0.211993
359.43	0.418341
362.805	0.961152
366.179	0.843082
369.554	0.188716
372.929	0.997008
376.304	0.957218
379.679	1.95884
383.053	2.93825
386.428	2.0396
389.803	3.83462
393.178	5.31419
396.553	6.55192
399.928	8.48171
403.302	10.4072
406.677	11.9087
410.052	14.3701
413.427	18.5599
416.802	23.2375
420.176	27.5117
423.551	35.9934
426.926	44.2391
430.301	49.0671
433.676	57.4596
437.05	60.8283
440.425	63.9789
443.8	60.2576
447.175	53.5577
450.55	42.1563
453.925	32.7605
457.299	24.6144
460.674	18.1519
464.049	13.4436
467.424	11.4361
470.799	8.23172
474.173	6.24643
477.548	5.07684
480.923	3.50807
484.298	2.48357
487.673	3.14285
491.048	1.46975
494.422	0.963157
497.797	0.78892
501.172	1.55729
504.547	1.07299
507.922	0.285482
511.296	0.437256
514.671	0.535084
518.046	0.459444
521.421	0.386318
524.796	0.272688
528.171	0.342082
531.545	0.394259
534.92	0.171663
538.295	1.1667
541.67	0.000596
545.045	0.983624
548.419	1.6216
551.794	2.87503
555.169	4.89059
558.544	7.80625
561.919	12.7732
565.294	16.8913
568.668	23.0262
572.043	28.538
575.418	29.8157
578.793	25.8264
582.168	21.7772
585.543	23.6481
588.917	24.5941
592.292	21.8472
595.667	14.5537
599.042	7.55985
602.417	6.28025
605.791	7.58403
609.166	13.0993
612.541	25.0917
615.916	46.507
619.291	67.3925
622.665	91.466
626.04	114.508
629.415	108.365
632.79	60.8052
636.165	27.0285
639.54	13.5427
642.914	9.56799
646.289	6.5668
649.664	2.14115
653.039	1.28986
656.414	2.11317
659.788	1.5861
663.163	0.507497
666.538	0.156006
669.913	0.539715
673.288	0.417078
676.663	0.023177
680.037	0.142804
683.412	0.234463
686.787	1.02684
690.162	0.669418
693.537	0.42795
696.912	1.01828
700.286	0.820551
703.661	0.290454
707.036	0.671717
710.411	0.493217
713.786	1.26929
717.16	0.910035
720.535	1.30472
723.91	1.89919
727.285	0.51039
730.66	2.05617
734.034	1.05691
737.409	1.94219
740.784	2.10891
744.159	0.687844
747.534	1.07679
750.909	0.429215
754.283	1.61766
757.658	0.277202
761.033	0.075211
764.408	0.951856
767.783	0.139327
771.158	0.50946
774.532	0.778514
777.907	0.601123
781.282	0.997417
784.657	1.03397
788.032	0.441418
791.406	0.81792
794.781	0.052038
798.156	0.235557
801.531	1.23951
804.906	0.268186
808.281	0.70149
811.655	1.04717
815.03	0.48719
818.405	0.096537
821.78	0.226986
825.155	0.991798
828.529	1.39281
831.904	1.97326
835.279	1.59768
838.654	1.56499
842.029	1.62893
845.404	0.991764
848.778	1.33178
852.153	3.02066
855.528	1.84944
858.903	0.930796
862.278	1.64081
865.653	1.51521
869.027	0.737022
872.402	1.39911
875.777	0.449711
879.152	0.67627
882.527	0.33597
885.901	0.752473
889.276	0.016802
892.651	0.500102
896.026	0.47239
899.401	0.5231
902.775	0.875624
906.15	0.183968
909.525	0.10197
912.9	1.90443
916.275	2.26883
919.65	4.01606
923.024	6.23117
926.399	10.4595
929.774	17.6292
933.149	32.8211
936.524	82.2694
939.899	206.149
943.273	332.439
946.648	526.815
950.023	748.335
953.398	469.739
956.773	159.459
960.147	52.5621
963.522	23.6095
966.897	14.8628
970.272	10.9484
973.647	9.92013
977.021	10.6695
980.396	12.2522
983.771	17.2959
987.146	25.9343
990.521	38.2552
993.896	52.0925
997.27	67.6264
1000.64	71.6477
1004.02	47.6803
1007.39	23.2762
1010.77	13.4304
1014.14	10.2805
1017.52	6.69599
1020.89	3.77031
1024.27	0.974795
1027.64	0.249009
1031.02	1.01771
1034.39	0.724328
1037.77	0.406204
1041.14	0.784973
1044.52	0.887355
1047.89	0.711211
1051.27	3.12214
1054.64	7.52197
1058.02	21.0474
1061.39	38.0848
1064.77	59.4786
1068.14	81.9659
1071.52	56.8981
1074.89	23.1
1078.27	15.226
1081.64	13.5776
1085.02	8.45001
1088.39	4.7439
1091.77	2.29424
1095.14	1.68292
1098.52	1.23934
1101.89	1.16478
1105.27	0.996443
1108.64	0.040947
1112.01	0.786419
1115.39	1.02294
1118.76	1.21709
1122.14	0.610241
1125.51	0.348006
1128.89	1.37885
1132.26	0.322235
1135.64	0.484287
1139.01	0.223929
1142.39	0.262231
1145.76	0.007746
1149.14	0.060322
1152.51	0.959561
1155.89	0.212081
1159.26	0.061814
1162.64	0.393522
1166.01	0.750616
1169.39	0.752197
1172.76	1.38876
1176.14	1.77522
1179.51	1.75255
1182.88	1.81733
1186.26	1.81741
1189.63	1.01384
1193.01	2.06968
1196.38	1.53307
1199.76	0.39339
1203.13	0.422394
1206.51	0.617023
1209.88	0.504033
1213.26	0.40242
1216.63	0.040934
1220.01	0.372883
1223.38	0.913489
1226.76	0.800014
1230.13	1.41242
1233.51	1.50588
1236.88	0.303477
1240.26	1.59408
1243.63	0.84587
1247.01	1.21909
1250.38	1.09195
1253.76	1.92724
1257.13	1.60141
1260.51	0.760916
1263.88	1.85951
1267.26	0.764507
1270.63	1.13007
1274.01	1.24875
1277.38	1.29999
1280.76	0.461682
1284.13	0.268799
