Measurement: Raman, 532 nm, unoriented, Raman Data Processed
Mineral: Triphylite
Rruff sample: R050366
Ideal chemistry: LiFe^2+^PO_4_
Locality: Cornelia mine, Hagendorf, Bavaria, Germany
Source: Marcus Origlieri
Description: Bluish gray massive associated with brown zwieselite R050279
Measured chemistry: Li_1.00_(Fe^2+^_0.80_Mn^2+^_0.20_)_Î£=1_P_1.00_O_4_ ; Li not measured but estimated by difference and charge balance.
Raman shift (cm-1)	intensity
134.298	0
137.673	13.9849
141.047	43.2335
144.422	103.142
147.797	210.019
151.172	88.4104
154.547	67.296
157.921	74.7087
161.296	34.6544
164.671	11.3845
168.046	0.084253
171.421	1.03387
174.796	1.74785
178.17	1.38857
181.545	0.564926
184.92	0.223644
188.295	0.345903
191.67	1.56745
195.044	5.25577
198.419	9.83996
201.794	11.3151
205.169	9.43671
208.544	9.93673
211.918	11.3424
215.293	12.8355
218.668	15.7695
222.043	21.3577
225.418	24.1701
228.792	27.1288
232.167	35.0553
235.542	47.9371
238.917	60.1502
242.292	52.5005
245.667	58.9494
249.041	69.8328
252.416	68.5259
255.791	44.564
259.166	25.6566
262.541	15.1457
265.916	10.1129
269.29	7.38249
272.665	6.62999
276.04	7.04717
279.415	7.91441
282.79	9.73324
286.164	11.7745
289.539	13.8582
292.914	12.153
296.289	8.3169
299.664	5.04494
303.038	4.02059
306.413	4.48576
309.788	5.60987
313.163	6.99914
316.538	8.40828
319.913	10.9036
323.287	9.16219
326.662	5.53809
330.037	2.63677
333.412	1.52838
336.787	0.712202
340.161	0.559895
343.536	0.751707
346.911	0.738043
350.286	0.565962
353.661	0.832319
357.036	0.801125
360.41	0.332151
363.785	0.191383
367.16	0.069666
370.535	0.98542
373.91	1.58346
377.284	2.43546
380.659	3.73488
384.034	6.05986
387.409	8.954
390.784	11.8987
394.159	15.508
397.533	19.6009
400.908	23.8706
404.283	26.7738
407.658	30.783
411.033	35.4328
414.408	41.9753
417.782	53.0252
421.157	65.3253
424.532	82.4758
427.907	102.955
431.282	127.276
434.656	148.689
438.031	172.934
441.406	184.119
444.781	178.415
448.156	154.713
451.531	123.788
454.905	93.2043
458.28	70.1351
461.655	51.4113
465.03	39.043
468.404	29.4484
471.779	22.023
475.154	17.4475
478.529	12.607
481.904	9.46963
485.279	7.32284
488.653	4.77999
492.028	3.3255
495.403	2.35472
498.778	1.2305
502.153	0.705494
505.527	0.082676
508.902	0.061037
512.277	0.334393
515.652	0.292385
519.027	0.877501
522.402	0.560452
525.776	0.325897
529.151	0.57906
532.526	0.10334
535.901	0.754992
539.276	1.92776
542.65	3.42388
546.025	5.73941
549.4	10.4843
552.775	17.0011
556.15	27.5743
559.525	45.4428
562.899	66.5847
566.274	92.6333
569.649	124.08
573.024	145.553
576.399	120.355
579.774	78.8371
583.148	62.7151
586.523	68.0942
589.898	72.3207
593.273	59.6447
596.648	38.0386
600.022	20.7877
603.397	14.9171
606.772	16.9713
610.147	29.1664
613.522	56.58
616.896	92.4047
620.271	146.066
623.646	228.83
627.021	308.319
630.396	257.706
633.771	120.303
637.145	54.755
640.52	29.4078
643.895	17.9139
647.27	10.4668
650.645	6.38389
654.019	3.4321
657.394	1.80371
660.769	0.470795
664.144	0.555401
667.519	0.100979
670.894	0.511572
674.268	0.196135
677.643	0.472099
681.018	0.345728
684.393	0.250917
687.768	0.042372
691.143	0.086258
694.517	0.007386
697.892	0.267263
701.267	0.336103
704.642	0.795905
708.016	0.84152
711.391	0.901893
714.766	1.76634
718.141	1.43643
721.516	2.17515
724.891	1.88917
728.265	1.95405
731.64	1.96735
735.015	2.09385
738.39	1.93151
741.765	1.94979
745.139	2.01506
748.514	1.92944
751.889	2.15423
755.264	1.55737
758.639	1.55876
762.014	1.2808
765.388	1.27773
768.763	1.59074
772.138	1.40673
775.513	1.27401
778.888	1.27322
782.263	1.18533
785.637	1.05522
789.012	0.754326
792.387	1.23092
795.762	0.797268
799.137	0.452169
802.511	0.468134
805.886	0.46023
809.261	0.359364
812.636	0.372541
816.011	0.559315
819.385	0.787445
822.76	0.728525
826.135	1.85801
829.51	1.87323
832.885	2.86032
836.26	3.10356
839.634	3.73969
843.009	4.55581
846.384	4.11863
849.759	4.19838
853.134	2.69522
856.509	2.91309
859.883	2.16979
863.258	1.32394
866.633	0.73641
870.008	0.529613
873.383	0.16538
876.757	0.21962
880.132	0.326143
883.507	0.371639
886.882	0.708136
890.257	1.06201
893.631	0.606779
897.006	0.095825
900.381	0.1388
903.756	0.732544
907.131	2.46138
910.506	3.57298
913.88	6.71229
917.255	11.8067
920.63	18.9753
924.005	26.7843
927.38	40.9291
930.755	68.1904
934.129	138.276
937.504	361.706
940.879	692.501
944.254	1131.8
947.629	2139.35
951.003	2839.16
954.378	1195.89
957.753	377.489
961.128	143.61
964.503	79.1696
967.877	51.5856
971.252	40.0446
974.627	33.5095
978.002	32.9864
981.377	39.8189
984.751	57.0223
988.126	86.4066
991.501	125.167
994.876	183.18
998.251	244.267
1001.63	193.79
1005	102.313
1008.38	54.2644
1011.75	39.3933
1015.12	38.2254
1018.5	26.0153
1021.88	9.8782
1025.25	2.45437
1028.62	0.850677
1032	1.57472
1035.37	1.59906
1038.75	1.56373
1042.12	0.614767
1045.5	2.28168
1048.87	5.84544
1052.25	15.0985
1055.62	38.9884
1059	84.6352
1062.37	142.567
1065.75	265.925
1069.12	383.047
1072.5	181.256
1075.87	82.4848
1079.25	74.4058
1082.62	72.4952
1086	35.5642
1089.37	15.5548
1092.75	8.02115
1096.12	4.28835
1099.49	1.95195
1102.87	1.11474
1106.24	0.622334
1109.62	0.331114
1112.99	0.175037
1116.37	0.4678
1119.74	0.629473
1123.12	0.617376
1126.49	0.452618
1129.87	1.22756
1133.24	0.542295
1136.62	0.892714
1139.99	0.160255
1143.37	0.463678
1146.74	0.118134
1150.12	0.203703
1153.49	0.568241
1156.87	0.102114
1160.24	0.529276
1163.62	1.17187
1166.99	1.97591
1170.37	2.59088
1173.74	3.98252
1177.12	4.36233
1180.49	4.37038
1183.87	4.24541
1187.24	3.4884
1190.62	2.88384
1193.99	1.8254
1197.37	1.18855
1200.74	1.05378
1204.12	0.896261
1207.49	0.73629
1210.86	0.150009
1214.24	0.33787
1217.61	0.384544
1220.99	0.257296
1224.36	0.202787
1227.74	0.379572
1231.11	0.043222
1234.49	0.398071
1237.86	0.345049
1241.24	0.809132
1244.61	1.09968
1247.99	1.72751
1251.36	1.85384
1254.74	3.014
1258.11	2.81758
1261.49	2.88134
1264.86	3.17687
1268.24	2.87063
1271.61	2.80423
1274.99	2.3405
1278.36	1.45587
1281.73	1.89522
1285.11	1.2749
1288.48	1.18442
1291.86	0.616571
1295.23	0.778158
1298.61	0.244036
1301.98	0.013416
