Measurement: Raman, 532 nm, unoriented, Raman Data Processed
Mineral: Trolleite
Rruff sample: R050545
Ideal chemistry: Al_4_(PO_4_)_3_(OH)_3_
Locality: near Laws, Mono County, California, USA
Source: University of Arizona Mineral Museum
Description: Colorless to light blue massive fragment, 2-fold twin around [1/2 0 1]
Measured chemistry: (Al_3.93_Fe^3+^_0.06_Cr_0.01_)_Î£=4_(P_1.00_O_4_)_3_(OH)_3_; OH estimated by difference
Raman shift (cm-1)	intensity
152.155	0
155.048	8.61847
157.94	27.3021
160.833	63.8614
163.726	127.969
166.618	240.79
169.511	468.102
172.404	797.157
175.297	529.434
178.189	241.54
181.082	287.753
183.975	415.831
186.867	551.442
189.76	740.761
192.653	1021
195.545	1549.43
198.438	2441.29
201.331	2011.78
204.224	672.962
207.116	254.842
210.009	88.6235
212.902	19.6696
215.794	3.94037
218.687	14.8134
221.58	8.32654
224.472	15.2905
227.365	5.56744
230.258	17.5391
233.15	22.6395
236.043	16.3463
238.936	32.1008
241.829	110.412
244.721	193.321
247.614	211.292
250.507	215.213
253.399	294.613
256.292	428.055
259.185	401.371
262.077	195.829
264.97	128.459
267.863	88.5992
270.756	87.5336
273.648	174.741
276.541	316.078
279.434	479.895
282.326	707.203
285.219	1094.25
288.112	1633.89
291.005	1881.95
293.897	1301.6
296.79	697.514
299.683	464.311
302.575	389.472
305.468	433.167
308.361	564.81
311.253	819.645
314.146	1045.92
317.039	842.078
319.932	433.368
322.824	219.271
325.717	166.42
328.61	172.329
331.502	206.459
334.395	288.718
337.288	422.63
340.18	536.386
343.073	463.978
345.966	249.596
348.858	131.613
351.751	91.3853
354.644	128.462
357.536	195.713
360.429	236.744
363.322	187.065
366.215	80.491
369.107	0.686035
372	34.1527
374.893	28.7598
377.785	8.88336
380.678	61.5322
383.571	81.8145
386.464	92.4968
389.356	143.388
392.249	238.611
395.142	362.319
398.034	448.894
400.927	454.671
403.82	480.497
406.712	467.846
409.605	396.207
412.498	332.384
415.39	255.903
418.283	225.205
421.176	254.074
424.069	334.326
426.961	433.334
429.854	415.861
432.747	171.47
435.639	40.2739
438.532	4.02673
441.425	17.8156
444.317	14.5193
447.21	3.10724
450.103	54.3516
452.996	120.229
455.888	199.613
458.781	312.208
461.674	498.911
464.566	741.888
467.459	847.338
470.352	525.445
473.245	242.865
476.137	134.289
479.03	86.1373
481.923	51.2464
484.815	36.8244
487.708	41.581
490.601	59.6435
493.493	84.9044
496.386	110.317
499.279	135.425
502.171	148.654
505.064	154.885
507.957	152.028
510.85	135.917
513.742	105.883
516.635	70.28
519.528	36.8963
522.42	20.2126
525.313	6.21021
528.206	3.00409
531.098	2.84015
533.991	3.09601
536.884	2.42828
539.777	12.9467
542.669	24.4962
545.562	37.9181
548.455	47.9947
551.347	61.0116
554.24	61.0105
557.133	60.2817
560.025	66.6941
562.918	62.9332
565.811	61.345
568.704	63.5946
571.596	64.0747
574.489	56.693
577.382	22.0994
580.274	4.72247
583.167	8.02728
586.06	27.8808
588.952	101.004
591.845	202.786
594.738	365.138
597.631	573.063
600.523	717.566
603.416	559.952
606.309	294.983
609.201	185.155
612.094	161.508
614.987	198.198
617.88	241.595
620.772	274.596
623.665	236.723
626.558	150.503
629.45	54.3735
632.343	11.2806
635.236	6.90759
638.128	6.29236
641.021	5.82739
643.914	28.1836
646.807	58.7974
649.699	82.7208
652.592	82.2761
655.485	59.9225
658.377	38.3776
661.27	35.6335
664.163	43.3818
667.055	68.0806
669.948	95.1746
672.841	129.731
675.734	150.233
678.626	164.209
681.519	177.101
684.412	203.548
687.304	223.926
690.197	216.44
693.09	161.955
695.982	97.1591
698.875	58.0754
701.768	30.6014
704.66	19.4148
707.553	9.65881
710.446	4.06567
713.339	3.85864
716.231	5.74072
719.124	3.48157
722.017	5.01129
724.909	0.901733
727.802	4.508
730.695	6.3775
733.587	15.0488
736.48	21.4921
739.373	26.3279
742.266	33.7053
745.158	35.5764
748.051	30.0068
750.944	34.1557
753.836	43.0682
756.729	58.4993
759.622	72.1093
762.514	94.0257
765.407	126.212
768.3	169.624
771.193	224.276
774.085	317.229
776.978	438.459
779.871	596.569
782.763	776.897
785.656	987.075
788.549	1107.81
791.441	1039.96
794.334	812.985
797.227	548.468
800.12	362.873
803.012	243.215
805.905	166.755
808.798	122.486
811.69	92.1
814.583	66.116
817.476	49.7841
820.368	40.769
823.261	27.7105
826.154	20.0969
829.047	21.4819
831.939	7.55438
834.832	5.31146
837.725	7.50617
840.617	2.53491
843.51	6.01434
846.403	4.79565
849.295	2.57379
852.188	4.74127
855.081	8.07159
857.973	2.26074
860.866	5.01703
863.759	1.22894
866.652	6.50348
869.544	2.19238
872.437	0.161133
875.33	0.388306
878.222	0.844543
881.115	1.1806
884.008	0.526672
886.9	3.38385
889.793	4.39044
892.686	1.83386
895.579	5.12323
898.471	5.35358
901.364	4.63202
904.257	2.82526
907.149	0.854919
910.042	1.3642
912.935	5.63422
915.827	5.11816
918.72	5.6236
921.613	9.79474
924.506	8.5069
927.398	7.63538
930.291	5.44727
933.184	10.4236
936.076	6.99261
938.969	10.3967
941.862	16.0056
944.755	27.9646
947.647	28.1707
950.54	38.3154
953.433	57.5737
956.325	71.6724
959.218	94.1794
962.111	103.769
965.003	104.375
967.896	101.558
970.789	112.991
973.682	122.911
976.574	141.644
979.467	130.716
982.36	112.72
985.252	91.8901
988.145	75.5709
991.038	62.4725
993.93	52.5087
996.823	41.1174
999.716	33.6413
1002.61	22.3989
1005.5	12.0954
1008.39	6.7251
1011.29	3.83649
1014.18	3.52722
1017.07	4.69183
1019.97	5.69055
1022.86	11.2377
1025.75	11.1865
1028.64	8.67987
1031.54	5.50946
1034.43	1.43274
1037.32	10.4368
1040.21	31.4337
1043.11	71.6437
1046	128.024
1048.89	220.267
1051.78	358.295
1054.68	527.684
1057.57	720.987
1060.46	953.575
1063.36	1131.31
1066.25	976.466
1069.14	654.479
1072.03	429.049
1074.93	243.989
1077.82	133.794
1080.71	71.7653
1083.6	60.559
1086.5	85.4716
1089.39	152.383
1092.28	256.336
1095.17	411.187
1098.07	579.525
1100.96	676.194
1103.85	641.405
1106.75	530.416
1109.64	458.997
1112.53	456.39
1115.42	535.553
1118.32	669.886
1121.21	739.155
1124.1	684.639
1126.99	587.027
1129.89	523.712
1132.78	513.115
1135.67	551.003
1138.57	608.789
1141.46	643.279
1144.35	611.796
1147.24	507.84
1150.14	356.527
1153.03	244.105
1155.92	195.342
1158.81	196.205
1161.71	253.622
1164.6	339.1
1167.49	410.441
1170.38	393.145
1173.28	286.173
1176.17	174.823
1179.06	102.779
1181.96	63.853
1184.85	26.8865
1187.74	1.02026
1190.63	18.048
1193.53	20.2406
1196.42	15.6582
1199.31	7.72522
1202.2	2.48364
1205.1	18.4098
1207.99	27.0207
1210.88	36.8857
1213.78	26.0641
1216.67	9.80627
1219.56	1.23779
1222.45	5.83545
1225.35	18.032
1228.24	42.1869
1231.13	82.1323
1234.02	122.755
1236.92	115.145
1239.81	106.212
1242.7	133.41
1245.6	183.535
1248.49	232.316
1251.38	266.185
1254.27	230.186
1257.17	148.625
1260.06	83.1702
1262.95	44.5601
1265.84	27.8943
1268.74	17.4734
1271.63	12.2825
1274.52	5.27454
1277.41	0.843628
1280.31	2.78253
1283.2	2.17963
1286.09	3.82922
1288.99	6.44519
1291.88	2.625
1294.77	8.06879
1297.66	5.30865
1300.56	3.88708
1303.45	0
