Measurement: Raman, 780 nm, unoriented, Raman Data Processed
Mineral: Trolleite
Rruff sample: R050425
Ideal chemistry: Al_4_(PO_4_)_3_(OH)_3_
Locality: Halsjoberg, Varmland, Sweden
Source: Marcus Origlieri
Description: Pale green granular aggregate
Measured chemistry: (Al_3.95_Fe^3+^_0.05_)_Î£=4_(P_1.00_O_4_)_3_(OH)_3_
Raman shift (cm-1)	intensity
118.371	0
121.746	10.4372
125.121	43.5841
128.496	87.7733
131.87	27.9847
135.245	7.52386
138.62	0.464767
141.995	1.48925
145.37	4.48431
148.744	8.70813
152.119	13.3227
155.494	15.3295
158.869	23.7955
162.244	41.8754
165.619	70.4797
168.994	113.93
172.368	158.614
175.743	82.442
179.118	57.2383
182.493	54.2797
185.868	69.5221
189.242	96.8453
192.617	138.198
195.992	216.697
199.367	232.582
202.742	154.57
206.117	118.881
209.491	85.5443
212.866	58.5495
216.241	36.8045
219.616	20.5707
222.991	10.0711
226.365	4.6382
229.74	4.5945
233.115	5.45161
236.49	1.53281
239.865	12.6296
243.239	27.9643
246.614	37.2142
249.989	44.0396
253.364	63.8859
256.739	88.4514
260.114	62.0888
263.488	40.6347
266.863	20.9344
270.238	11.7718
273.613	16.9107
276.988	30.2797
280.363	56.9079
283.737	100.052
287.112	165.64
290.487	203.796
293.862	124.242
297.237	53.1292
300.611	24.8239
303.986	22.8695
307.361	36.6062
310.736	62.9141
314.111	81.8005
317.486	52.4158
320.86	16.9709
324.235	3.66293
327.61	2.59876
330.985	8.24529
334.36	19.1968
337.734	33.0664
341.109	38.4115
344.484	20.8838
347.859	7.1878
351.234	10.8439
354.608	25.7216
357.983	33.4929
361.358	32.321
364.733	16.1184
368.108	0.392868
371.483	7.62095
374.857	1.97557
378.232	10.9765
381.607	22.3909
384.982	16.0741
388.357	12.4812
391.731	28.0308
395.106	46.5765
398.481	63.7145
401.856	73.0989
405.231	81.993
408.606	76.5602
411.98	63.7255
415.355	51.8778
418.73	60.0237
422.105	87.5208
425.48	133.475
428.854	150.245
432.229	65.1686
435.604	12.4054
438.979	4.29163
442.354	2.49766
445.729	11.8546
449.103	33.1814
452.478	60.2102
455.853	110.707
459.228	203.84
462.603	357.58
465.978	387.14
469.352	202.43
472.727	86.3559
476.102	42.1946
479.477	23.3325
482.852	14.879
486.226	15.3472
489.601	16.2204
492.976	21.6031
496.351	26.2671
499.726	31.9359
503.101	36.2692
506.475	37.3049
509.85	35.2036
513.225	25.6075
516.6	15.5948
519.975	8.59824
523.35	2.8779
526.724	0.196625
530.099	0.964165
533.474	1.34323
536.849	1.02085
540.224	0.960526
543.598	1.85226
546.973	3.98635
550.348	6.99679
553.723	8.05752
557.098	6.96808
560.472	8.35436
563.847	9.19103
567.222	12.2641
570.597	15.1193
573.972	12.8245
577.347	5.97401
580.721	1.48065
584.096	3.7914
587.471	7.98354
590.846	15.9405
594.221	31.1073
597.596	51.2717
600.97	57.6297
604.345	35.3848
607.72	24.7326
611.095	28.6081
614.47	39.9005
617.844	60.8486
621.219	69.3527
624.594	49.4958
627.969	20.3619
631.344	4.68404
634.718	0.458279
638.093	0.610661
641.468	3.28305
644.843	8.17458
648.218	12.8577
651.593	15.1994
654.967	10.7219
658.342	8.55363
661.717	12.6313
665.092	16.1587
668.467	25.3611
671.841	34.7142
675.216	41.8642
678.591	43.1615
681.966	46.0732
685.341	51.295
688.716	50.0515
692.091	38.9502
695.465	25.5044
698.84	14.317
702.215	5.91724
705.59	3.59758
708.965	1.85021
712.339	0.096279
715.714	0.759808
719.089	2.11266
722.464	0.79287
725.839	0.315212
729.213	0.153587
732.588	0.368561
735.963	0.416077
739.338	1.38955
742.713	1.84875
746.087	3.05817
749.462	3.86255
752.837	6.04314
756.212	7.25322
759.587	11.5167
762.962	13.8919
766.336	19.8848
769.711	25.8394
773.086	34.7123
776.461	47.1611
779.836	64.8893
783.211	87.9495
786.585	108.844
789.96	115.862
793.335	98.6061
796.71	72.9183
800.085	49.6776
803.46	34.335
806.834	23.1564
810.209	17.116
813.584	13.523
816.959	10.7911
820.334	9.79397
823.708	7.25059
827.083	7.13061
830.458	5.48635
833.833	4.71651
837.208	4.43902
840.582	4.46365
843.957	4.24663
847.332	5.2541
850.707	3.59582
854.082	3.04839
857.457	2.05285
860.831	3.21546
864.206	1.6039
867.581	2.28197
870.956	1.38257
874.331	1.44314
877.706	0.787815
881.08	0.245312
884.455	0.735001
887.83	1.43003
891.205	0.29974
894.58	0.459063
897.954	0.724112
901.329	0.191952
904.704	1.20104
908.079	0.218466
911.454	0.470497
914.828	1.0661
918.203	0.047834
921.578	1.33085
924.953	2.0253
928.328	1.99227
931.703	3.08239
935.077	3.52106
938.452	5.39017
941.827	8.43179
945.202	12.2158
948.577	18.384
951.952	24.8423
955.326	32.1882
958.701	41.1968
962.076	44.9019
965.451	43.1433
968.826	43.387
972.2	47.2287
975.575	50.6624
978.95	49.9013
982.325	43.901
985.7	32.8523
989.074	25.3338
992.449	22.9003
995.824	15.5856
999.199	12.0217
1002.57	7.76776
1005.95	4.87384
1009.32	1.82112
1012.7	1.3746
1016.07	1.71917
1019.45	2.87848
1022.82	1.8522
1026.2	2.32365
1029.57	1.26079
1032.95	1.07513
1036.32	3.2244
1039.7	5.40633
1043.07	11.3034
1046.45	23.0504
1049.82	43.0748
1053.2	68.928
1056.57	99.4828
1059.95	137.047
1063.32	157.817
1066.69	119.908
1070.07	75.8089
1073.44	45.6784
1076.82	28.2669
1080.19	18.2904
1083.57	17.9636
1086.94	26.8675
1090.32	42.2013
1093.69	68.5148
1097.07	96.6438
1100.44	117.678
1103.82	113.578
1107.19	95.7043
1110.57	92.5163
1113.94	109.66
1117.32	136.291
1120.69	135.537
1124.07	105.154
1127.44	78.1972
1130.82	59.9046
1134.19	55.085
1137.57	56.0537
1140.94	59.0151
1144.32	54.0233
1147.69	40.7197
1151.07	28.6342
1154.44	23.9139
1157.82	30.1262
1161.19	41.7501
1164.57	48.8275
1167.94	52.3287
1171.32	42.7878
1174.69	28.7192
1178.06	21.9484
1181.44	19.7413
1184.81	9.51497
1188.19	1.77011
1191.56	3.26086
1194.94	2.81729
1198.31	2.03196
1201.69	0.854019
1205.06	0.884884
1208.44	0.235886
1211.81	0.554607
1215.19	0.232655
1218.56	0.649136
1221.94	3.20052
1225.31	7.45944
1228.69	14.6699
1232.06	22.5762
1235.44	22.8021
1238.81	15.1312
1242.19	14.9813
1245.56	17.2843
1248.94	21.0411
1252.31	20.9734
1255.68	12.4342
1259.06	6.15846
1262.43	4.03126
1265.81	2.08176
1269.18	1.26903
1272.56	0.063637
1275.93	0.626827
1279.31	0.86894
