Measurement: Raman, 532 nm, unoriented, Raman Data Processed
Mineral: Trolleite
Rruff sample: R050425
Ideal chemistry: Al_4_(PO_4_)_3_(OH)_3_
Locality: Halsjoberg, Varmland, Sweden
Source: Marcus Origlieri
Description: Pale green granular aggregate
Measured chemistry: (Al_3.95_Fe^3+^_0.05_)_Î£=4_(P_1.00_O_4_)_3_(OH)_3_
Raman shift (cm-1)	intensity
117.042	0
120.417	2.10657
123.792	23.0812
127.167	61.1976
130.541	14.947
133.916	3.2592
137.291	9.59
140.666	7.07974
144.041	19.3324
147.416	43.838
150.79	61.954
154.165	124.935
157.54	175.27
160.915	241.649
164.29	331.49
167.664	483.166
171.039	722.732
174.414	530.528
177.789	396.146
181.164	449.22
184.538	530.024
187.913	655.395
191.288	856.249
194.663	1222.37
198.038	1476.82
201.412	681.399
204.787	289.71
208.162	151.07
211.537	76.7477
214.912	34.1816
218.287	12.8186
221.661	4.93756
225.036	1.78503
228.411	12.2713
231.786	19.9502
235.161	9.74469
238.536	14.6822
241.91	53.5201
245.285	80.7619
248.66	89.7376
252.035	128.382
255.41	183.971
258.784	156.983
262.159	103.189
265.534	85.2173
268.909	96.7792
272.284	178.723
275.659	285.347
279.033	420.094
282.408	612.232
285.783	893.446
289.158	1155.8
292.533	890.929
295.907	483.184
299.282	331.208
302.657	311.866
306.032	372.273
309.407	493.478
312.781	607.77
316.156	466.589
319.531	231.43
322.906	129.538
326.281	98.1397
329.656	95.5221
333.03	107.65
336.405	138.063
339.78	152.375
343.155	97.4712
346.53	35.3311
349.904	27.7702
353.279	48.6147
356.654	73.4935
360.029	77.4917
363.404	45.8488
366.779	2.51688
370.153	21.0435
373.528	9.91467
376.903	27.7964
380.278	80.4053
383.653	100.397
387.027	112.701
390.402	165.445
393.777	251.873
397.152	305.298
400.527	313.507
403.901	325.123
407.276	310.32
410.651	263.619
414.026	222.963
417.401	205.736
420.776	237.748
424.15	321.231
427.525	385.939
430.9	211.259
434.275	46.8589
437.65	2.18362
441.024	14.263
444.399	0.100098
447.774	45.855
451.149	124.576
454.524	220.881
457.899	359.332
461.273	568.542
464.648	738.823
468.023	521.941
471.398	200.697
474.773	69.186
478.147	19.7597
481.522	2.66571
484.897	5.64337
488.272	18.8998
491.647	41.9687
495.022	69.3789
498.396	87.8692
501.771	102.218
505.146	109.523
508.521	104.778
511.896	84.1096
515.27	54.8545
518.645	33.0589
522.02	18.5579
525.395	4.79282
528.77	0.860352
532.145	4.65494
535.519	0.98468
538.894	1.86313
542.269	9.24014
545.644	16.4045
549.019	22.8331
552.394	24.6
555.768	23.9598
559.143	31.7346
562.518	41.3556
565.893	55.1232
569.268	70.9303
572.642	72.8993
576.017	43.537
579.392	5.99481
582.767	2.6712
586.142	24.8994
589.516	62.8706
592.891	125.375
596.266	211.746
599.641	264.745
603.016	178.43
606.39	94.301
609.765	82.9771
613.14	113.85
616.515	162.909
619.89	202.807
623.265	171.837
626.639	85.8262
630.014	17.2471
633.389	5.92003
636.764	5.20361
640.139	7.25244
643.514	28.0982
646.888	51.6322
650.263	63.127
653.638	49.9099
657.013	30.9761
660.388	27.4237
663.762	34.5786
667.137	52.9391
670.512	78.9044
673.887	105.265
677.262	125.476
680.636	140.798
684.011	162.969
687.386	174.347
690.761	147.251
694.136	95.8499
697.511	55.9601
700.885	29.9106
704.26	16.6006
707.635	7.02839
711.01	2.75304
714.385	1.22098
717.76	2.68734
721.134	3.00082
724.509	2.63313
727.884	0.086624
731.259	0.212265
734.634	2.74635
738.008	7.51907
741.383	12.3336
744.758	15.3427
748.133	21.6764
751.508	31.522
754.882	42.7655
758.257	56.9474
761.632	77.4227
765.007	101.316
768.382	135.454
771.756	182.432
775.131	256.995
778.506	351.202
781.881	460.505
785.256	566.232
788.631	610.559
792.005	541.567
795.38	398.776
798.755	267.599
802.13	182.302
805.505	129.257
808.88	96.3092
812.254	73.2039
815.629	59.2962
819.004	48.2875
822.379	39.8585
825.754	33.9482
829.128	28.8894
832.503	26.0406
835.878	25.7976
839.253	23.3085
842.628	23.2484
846.003	20.7369
849.377	18.0345
852.752	15.9281
856.127	12.9974
859.502	11.5151
862.877	9.35004
866.251	5.43417
869.626	3.09287
873.001	1.27052
876.376	0.793091
879.751	0.997696
883.125	1.60799
886.5	1.67103
889.875	0.702141
893.25	0.428497
896.625	1.08198
900	0.232658
903.374	0.089729
906.749	2.27197
910.124	1.90197
913.499	2.16314
916.874	2.7731
920.249	5.84286
923.623	5.18363
926.998	7.88673
930.373	11.6551
933.748	13.2335
937.123	17.9997
940.497	25.9702
943.872	37.6961
947.247	56.9022
950.622	81.6171
953.997	114.742
957.371	153.043
960.746	181.497
964.121	194.405
967.496	207.543
970.871	225.834
974.245	243.049
977.62	246.555
980.995	222.893
984.37	184.749
987.745	151.423
991.12	123.857
994.494	97.2257
997.869	73.5061
1001.24	50.9465
1004.62	30.2655
1007.99	10.6466
1011.37	0.50827
1014.74	7.43039
1018.12	11.472
1021.49	10.9619
1024.87	8.79575
1028.24	4.33842
1031.62	3.41699
1034.99	13.0222
1038.37	30.5484
1041.74	65.8301
1045.12	126.81
1048.49	231.553
1051.87	380.528
1055.24	553.636
1058.62	742.12
1061.99	863.613
1065.37	709.584
1068.74	450.631
1072.12	271.217
1075.49	155.171
1078.87	89.9616
1082.24	65.5315
1085.62	84.0863
1088.99	145.702
1092.36	247.542
1095.74	373.458
1099.11	474.45
1102.49	485.906
1105.86	433.625
1109.24	428.968
1112.61	485.799
1115.99	579.908
1119.36	620.481
1122.74	517.87
1126.11	405.094
1129.49	340.275
1132.86	322.584
1136.24	344.438
1139.61	360.566
1142.99	342.068
1146.36	267.801
1149.74	181.452
1153.11	142.219
1156.49	151.13
1159.86	199.158
1163.23	252.541
1166.61	277.18
1169.98	234.102
1173.36	153.153
1176.73	103.065
1180.11	76.5949
1183.48	38.5344
1186.86	3.55865
1190.23	10.256
1193.61	13.4231
1196.98	10.8153
1200.36	5.371
1203.73	0.708511
1207.11	3.42624
1210.48	1.25447
1213.86	2.41939
1217.23	2.05365
1220.61	7.82652
1223.98	26.7129
1227.36	54.871
1230.73	92.5842
1234.11	100.564
1237.48	81.5087
1240.86	75.8936
1244.23	95.5996
1247.61	125.572
1250.98	121.378
1254.36	82.3637
1257.73	45.8245
1261.11	25.7972
1264.48	14.3249
1267.86	10.0577
1271.23	6.13377
1274.6	3.95734
1277.98	3.1865
1281.35	1.82519
