Measurement: Raman, 780 nm, unoriented, Raman Data Processed
Mineral: Trolleite
Rruff sample: R050545
Ideal chemistry: Al_4_(PO_4_)_3_(OH)_3_
Locality: near Laws, Mono County, California, USA
Source: University of Arizona Mineral Museum
Description: Colorless to light blue massive fragment, 2-fold twin around [1/2 0 1]
Measured chemistry: (Al_3.93_Fe^3+^_0.06_Cr_0.01_)_Î£=4_(P_1.00_O_4_)_3_(OH)_3_; OH estimated by difference
Raman shift (cm-1)	intensity
95.2696	0
98.6445	19.8764
102.019	4.01328
105.394	10.2295
108.769	1.70609
112.144	6.28052
115.519	15.0512
118.893	26.5135
122.268	15.9964
125.643	0.811005
129.018	1.92111
132.393	5.79654
135.767	13.2325
139.142	11.2178
142.517	8.84695
145.892	36.2105
149.267	43.9367
152.642	59.284
156.016	80.8069
159.391	109.733
162.766	165.091
166.141	244.998
169.516	388.266
172.89	501.447
176.265	211.202
179.64	151.083
183.015	152.44
186.39	175.077
189.764	249.428
193.139	368.351
196.514	660.862
199.889	859.073
203.264	335.016
206.639	122.587
210.013	38.0185
213.388	6.55276
216.763	10.3959
220.138	16.3229
223.513	4.06842
226.887	3.49765
230.262	1.61667
233.637	15.6968
237.012	57.2631
240.387	123.065
243.762	169.622
247.136	176.553
250.511	169.797
253.886	230.595
257.261	284.658
260.636	120.521
264.01	34.9822
267.385	17.9712
270.76	51.4526
274.135	117.185
277.51	179.871
280.885	293.264
284.259	484.691
287.634	782.133
291.009	856.079
294.384	449.294
297.759	161.343
301.134	51.9775
304.508	21.7906
307.883	57.8306
311.258	141.887
314.633	203.653
318.007	106.251
321.382	27.5069
324.757	22.3888
328.132	42.2384
331.507	80.2029
334.882	138.613
338.256	212.723
341.631	230.199
345.006	136.55
348.381	90.7809
351.756	97.4169
355.13	154.322
358.505	210.126
361.88	196.527
365.255	106.626
368.63	21.7393
372.005	11.261
375.379	8.83212
378.754	25.5101
382.129	45.2397
385.504	16.5053
388.879	21.5995
392.253	53.4573
395.628	101.53
399.003	121.069
402.378	132.773
405.753	134.487
409.128	93.7574
412.502	62.6294
415.877	29.8765
419.252	29.2259
422.627	57.1902
426.002	120.259
429.377	145.366
432.751	50.6902
436.126	1.18185
439.501	12.0866
442.876	8.89899
446.25	1.84109
449.625	9.86224
453	29.5853
456.375	42.8258
459.75	81.3293
463.125	155.331
466.5	214.202
469.874	145.661
473.249	71.3037
476.624	51.0353
479.999	46.12
483.373	47.6397
486.748	61.4609
490.123	79.5234
493.498	99.7024
496.873	122.403
500.248	133.956
503.622	140.025
506.997	138
510.372	120.662
513.747	98.3072
517.122	65.118
520.496	45.236
523.871	29.1556
527.246	17.2473
530.621	14.3083
533.996	6.62836
537.371	0.587708
540.745	5.92093
544.12	8.1311
547.495	8.1514
550.87	9.67886
554.245	18.0142
557.62	17.03
560.994	19.7765
564.369	15.1159
567.744	17.3454
571.119	15.8943
574.494	11.3899
577.868	2.07983
581.243	7.36935
584.618	7.01819
587.993	25.7167
591.368	49.431
594.742	94.0418
598.117	159.171
601.492	173.167
604.867	97.7712
608.242	54.8372
611.616	49.4999
614.991	62.6003
618.366	93.7819
621.741	98.7994
625.116	73.9396
628.491	30.1318
631.865	6.07742
635.24	0.022736
638.615	0.640076
641.99	3.85332
645.365	12.4745
648.74	29.5641
652.114	26.9054
655.489	23.2349
658.864	26.3873
662.239	41.6294
665.614	63.1165
668.988	91.5468
672.363	117.232
675.738	136.382
679.113	138.671
682.488	143.401
685.862	150.921
689.237	141.281
692.612	96.4196
695.987	54.9204
699.362	31.7372
702.737	15.6929
706.111	7.82632
709.486	2.41528
712.861	1.37887
716.236	0.562347
719.611	0.741333
722.986	1.24517
726.36	2.84685
729.735	0.623199
733.11	1.55968
736.485	1.96348
739.86	5.33472
743.234	9.9473
746.609	6.61075
749.984	9.26552
753.359	12.9354
756.734	19.5082
760.109	27.8317
763.483	36.6818
766.858	53.4006
770.233	83.914
773.608	123.147
776.982	175.481
780.357	234.181
783.732	305.535
787.107	366.135
790.482	346.331
793.857	252.557
797.231	161.423
800.606	100.891
803.981	62.5468
807.356	45.3124
810.731	31.0915
814.106	20.4142
817.48	17.4842
820.855	14.5778
824.23	8.23291
827.605	6.71545
830.98	5.82072
834.354	2.11586
837.729	3.52866
841.104	4.54188
844.479	4.03081
847.854	3.63335
851.229	1.70578
854.603	3.23872
857.978	2.41585
861.353	5.32587
864.728	3.52307
868.103	2.16722
871.477	8.01263
874.852	3.22974
878.227	4.02461
881.602	0.13504
884.977	3.50717
888.351	3.63219
891.726	2.62695
895.101	0.792786
898.476	1.31842
901.851	1.46651
905.226	0.020203
908.6	3.54215
911.975	3.47421
915.35	0.513809
918.725	0.291
922.1	3.00218
925.474	6.57808
928.849	0.439224
932.224	0.471954
935.599	4.95731
938.974	6.40808
942.348	5.88481
945.723	15.136
949.098	17.3047
952.473	24.0089
955.848	36.3521
959.223	43.3799
962.597	45.9525
965.972	42.1781
969.347	41.3146
972.722	40.9564
976.097	46.4057
979.471	40.598
982.846	31.8738
986.221	23.9127
989.596	17.9824
992.971	14.879
996.346	8.92021
999.72	6.79546
1003.1	3.66473
1006.47	3.03319
1009.85	1.67403
1013.22	1.37698
1016.59	1.65924
1019.97	2.19861
1023.34	3.18611
1026.72	4.02652
1030.09	0.222351
1033.47	0.617188
1036.84	3.18765
1040.22	13.4815
1043.59	31.3188
1046.97	60.1292
1050.34	104.506
1053.72	164.039
1057.09	235.73
1060.47	321.786
1063.84	353.599
1067.22	239.129
1070.59	135.613
1073.97	72.8946
1077.34	36.0443
1080.72	21.0115
1084.09	26.391
1087.47	45.2038
1090.84	85.1509
1094.21	139.061
1097.59	199.002
1100.96	229.579
1104.34	208.032
1107.71	171.671
1111.09	169.329
1114.46	203.465
1117.84	263.834
1121.21	285.27
1124.59	244.981
1127.96	201.965
1131.34	181.026
1134.71	196.422
1138.09	212.003
1141.46	227.056
1144.84	205.648
1148.21	148.457
1151.59	102.082
1154.96	77.1879
1158.34	79.0292
1161.71	102.089
1165.09	129.762
1168.46	139.392
1171.84	106.26
1175.21	62.908
1178.59	35.2405
1181.96	26.8066
1185.34	8.16243
1188.71	5.10626
1192.09	6.353
1195.46	4.56728
1198.84	5.98088
1202.21	0.732437
1205.58	5.87404
1208.96	7.44188
1212.33	8.63545
1215.71	3.04153
1219.08	0.555496
1222.46	7.63115
1225.83	19.1217
1229.21	33.9929
1232.58	52.1235
1235.96	44.407
1239.33	35.0707
1242.71	35.4604
1246.08	45.8497
1249.46	61.3384
1252.83	60.4173
1256.21	34.3401
1259.58	12.9094
1262.96	7.37039
1266.33	4.52025
1269.71	0.321365
1273.08	4.98825
1276.45	5.21091
1279.83	6.47296
1283.2	3.1817
