Measurement: Raman, 780 nm, unoriented, Raman Data RAW
Mineral: Trona
Rruff sample: R050228
Ideal chemistry: Na_3_(HCO_3_)(CO_3_)2H_2_O
Locality: Stauffer mine, Green River, Wyoming, USA
Source: Marcus Origlieri
Description: Aggregate of pale yellowish brown flattened crystals
Measured chemistry: Na_3.00_(CO_3_)(HCO_3_)Â·2H_2_O ; CO2 and H not measured but estimated by stoichiometry. The lighter inclusion is dolomite.
Raman shift (cm-1)	intensity
154.547	0
157.439	16.7461
160.332	43.7285
163.225	19.1973
166.117	110.731
169.01	130.25
171.903	157.35
174.796	221.023
177.688	285.455
180.581	355.137
183.474	470.768
186.366	468.779
189.259	340.164
192.152	215.435
195.044	227.682
197.937	210.496
200.83	221.637
203.722	279.494
206.615	310.647
209.508	351.908
212.401	429.977
215.293	464.594
218.186	436.639
221.079	420.471
223.971	495.977
226.864	457.494
229.757	341.822
232.649	294.389
235.542	252.369
238.435	200.19
241.327	134.603
244.22	118.498
247.113	72.4766
250.006	62.918
252.898	58.8691
255.791	31.2969
258.684	51.1875
261.576	47.8457
264.469	39.793
267.362	35.791
270.255	34.7617
273.147	35.3262
276.04	27.209
278.933	44.9121
281.825	23.5684
284.718	28.5195
287.611	8.10156
290.503	3.50391
293.396	1.14453
296.289	15.0039
299.182	4.30469
302.074	3.56055
304.967	24.7402
307.86	18.6602
310.752	26.7168
313.645	1.32812
316.538	39.1309
319.43	38.9336
322.323	34.7285
325.216	25.0762
328.109	43.7734
331.001	49.4473
333.894	55.1172
336.787	82.3262
339.679	79.2051
342.572	65.3418
345.465	74.6309
348.357	81.6914
351.25	91.8457
354.143	38.6016
357.036	66.0508
359.928	49.1621
362.821	36.6016
365.714	32.1875
368.606	50.6504
371.499	57.4805
374.392	28.8008
377.284	18.5332
380.177	10.9785
383.07	2.36133
385.962	7.5293
388.855	32.7324
391.748	5.11719
394.641	0.605469
397.533	11.5879
400.426	41.0293
403.319	17.8359
406.211	37.1543
409.104	36.2168
411.997	31.3594
414.889	57.8223
417.782	43.0195
420.675	29.9824
423.568	119.369
426.46	42.125
429.353	87.0059
432.246	110.772
435.138	93.4023
438.031	80.1699
440.924	73.6504
443.817	121.871
446.709	96.8574
449.602	58.5352
452.495	81.4121
455.387	55.3828
458.28	67.3164
461.173	86.6973
464.065	108.082
466.958	102.656
469.851	65.7461
472.743	73.9277
475.636	57.957
478.529	49.3164
481.422	78.457
484.314	18.873
487.207	32.2656
490.1	72.3047
492.992	54.625
495.885	52.9141
498.778	61.2109
501.671	41.9453
504.563	97.5762
507.456	66.5781
510.349	60.6152
513.241	71.085
516.134	83.4727
519.027	29.4512
521.919	50.0127
524.812	32.958
527.705	48.2744
530.597	30.9121
533.49	4.57422
536.383	36.668
539.276	0.303711
542.168	33.9346
545.061	0.59375
547.954	33.7432
550.846	19.7881
553.739	44.6084
556.632	34.626
559.524	36.126
562.417	36.0234
565.31	1.66504
568.203	11.0469
571.095	43.1123
573.988	1.48535
576.881	22.5449
579.773	3.31055
582.666	20.2061
585.559	41.0654
588.452	18.6719
591.344	25.707
594.237	15.7207
597.13	1.71777
600.022	19.1348
602.915	33.9111
605.808	22.9678
608.7	28.9951
611.593	22.4463
614.486	52.3691
617.379	49.9336
620.271	1.12109
623.164	7.25781
626.057	33.5674
628.949	19.5273
631.842	15.6865
634.735	62.0684
637.627	59.4951
640.52	28.4834
643.413	33.8965
646.306	70.9404
649.198	64.1357
652.091	28.1943
654.984	29.8047
657.876	20.1729
660.769	31.6172
663.662	2.96484
666.554	11.3115
669.447	43.6934
672.34	15.0615
675.232	0.146484
678.125	22.1582
681.018	37.9668
683.911	37.2148
686.803	57.6992
689.696	49.7754
692.589	28.1436
695.481	15.8945
698.374	7.56152
701.267	25.3838
704.159	11.9922
707.052	29.3877
709.945	58.9072
712.838	47.0713
715.73	66.7715
718.623	36.2588
721.516	38.6426
724.408	44.5801
727.301	26.415
730.194	33.8145
733.087	39.7451
735.979	40.2412
738.872	28.0791
741.765	30.0186
744.657	28.793
747.55	6.66309
750.443	57.0557
753.335	2.09375
756.228	1.39746
759.121	20.708
762.014	11.0361
764.906	15.0898
767.799	2.46191
770.692	3.76269
773.584	18.0645
776.477	19.3057
779.37	5.67285
782.262	29.8799
785.155	23.9404
788.048	15.96
790.941	51.5625
793.833	39.3877
796.726	80.0606
799.619	40.915
802.511	40.041
805.404	43.6523
808.297	98.0527
811.189	54.5303
814.082	29.3818
816.975	54.2998
819.867	58.9551
822.76	45.6416
825.653	59.8633
828.546	56.7637
831.438	52.5332
834.331	75.251
837.224	55.7598
840.116	51.9277
843.009	51.0469
845.902	17.916
848.794	42.5772
851.687	34.2891
854.58	32.9268
857.473	14.8565
860.365	52.8906
863.258	37.0205
866.151	40.4443
869.043	46.7002
871.936	24.3857
874.829	31.376
877.721	17.8447
880.614	17.835
883.507	39.9385
886.4	41.542
889.292	37.4736
892.185	51.3272
895.078	23.1035
897.97	7.55469
900.863	11.5352
903.756	26.0898
906.649	15.5225
909.541	23.3086
912.434	7.25293
915.327	29.4971
918.219	45.2139
921.112	35.2734
924.005	17.5088
926.897	22.6016
929.79	29.5898
932.683	24.0674
935.575	10.4502
938.468	27.5791
941.361	20.0059
944.254	48.4756
947.146	11.376
950.039	38.7227
952.932	27.04
955.824	28.2314
958.717	32.2734
961.61	33.7998
964.502	46.501
967.395	26.3252
970.288	9.57129
973.181	28.1211
976.073	30.0781
978.966	11.709
981.859	3.22363
984.751	2.87793
987.644	10.8203
990.537	7.86816
993.429	2.51074
996.322	31.3574
999.215	6.13769
1002.11	15.9258
1005	15.1748
1007.89	33.4736
1010.79	13.7725
1013.68	45.3633
1016.57	46.5068
1019.46	52.541
1022.36	69.4746
1025.25	62.6621
1028.14	69.8477
1031.04	85.6064
1033.93	128.766
1036.82	134.103
1039.71	187.576
1042.61	235.124
1045.5	319.075
1048.39	411.309
1051.28	622.807
1054.18	785.895
1057.07	1005.67
1059.96	1212.92
1062.85	1091.61
1065.75	705.298
1068.64	390.296
1071.53	215.441
1074.42	162.717
1077.32	119.945
1080.21	65.584
1083.1	51.8555
1086	42.8594
1088.89	60.4883
1091.78	38.626
1094.67	36.5117
1097.57	32.5869
1100.46	15.919
1103.35	6.99707
1106.24	12.0664
1109.14	16.1035
1112.03	2.56152
1114.92	6.69434
1117.82	11.332
1120.71	16.1133
1123.6	16.1143
1126.49	6.11426
1129.39	5.24512
1132.28	18.4375
1135.17	34.3047
1138.06	9.77344
1140.96	18.2812
1143.85	34.376
1146.74	15.625
1149.63	51.1973
1152.53	44.0635
1155.42	53.2471
1158.31	59.5322
1161.21	47.1777
1164.1	54.7373
1166.99	57.0098
1169.88	67.2148
1172.78	52.752
1175.67	49.752
1178.56	51.2725
1181.45	53.4033
1184.35	54.6699
1187.24	60.6475
1190.13	36.9863
1193.03	57.1738
1195.92	44.0342
1198.81	49.5518
1201.7	38.8994
1204.6	29.3936
1207.49	25.0986
1210.38	32.1963
1213.28	24.3701
1216.17	50.7617
1219.06	8.67969
1221.95	16.1162
1224.85	24.2773
1227.74	24.75
1230.63	24.9648
1233.52	32.417
1236.42	19.8262
1239.31	37
1242.2	21.2705
1245.09	36.0957
1247.99	31.2822
1250.88	0.044922
1253.77	3.34668
1256.66	13.1484
1259.56	22.4443
1262.45	5.07324
1265.34	9.66211
1268.24	20.6191
1271.13	27.2422
1274.02	23.1611
1276.91	7.86523
1279.81	6.86523
1282.7	16.6035
1285.59	7.83496
