Measurement: Raman, 514 nm, unoriented, Raman Data Processed
Mineral: Trona
Rruff sample: R050499
Ideal chemistry: Na_3_(HCO_3_)(CO_3_)2H_2_O
Locality: Searles Lake, Trona, San Bernardino County, California, USA
Source: California Institute of Technology
Description: Gray columnar massive
Measured chemistry: Na_3.00_(CO_3_)(HCO_3_)Â·2H_2_O ; CO_3_ and HCO_3_ were estimated by stoichiometry
Raman shift (cm-1)	intensity
84.837	0
89.777	472.576
94.714	6160.31
99.649	10377.8
104.582	12582.4
109.512	18896
114.44	4971.87
119.365	533.852
124.288	367.612
129.209	789.269
134.127	6779.61
139.043	20358.5
143.956	11806.8
148.867	4644.08
153.775	4391.58
158.681	2942.14
163.585	4064.25
168.486	8514.53
173.385	14400.4
178.282	19685.5
183.176	31334.7
188.067	27390.5
192.956	12007.6
197.843	6311.5
202.727	5148.6
207.609	4332.83
212.489	4892.16
217.366	5639.93
222.24	8796.23
227.112	9684.01
231.982	6693.91
236.849	3684.86
241.714	1975.52
246.577	921.83
251.437	427.541
256.294	197.888
261.149	153.554
266.002	68.9653
270.852	2.88574
275.7	6.52734
280.545	49.6597
285.388	37.8994
290.229	101.598
295.067	0.615234
299.902	37.4087
304.735	60.0938
309.566	98.2773
314.394	50.4443
319.22	155.432
324.043	60.0332
328.864	174.631
333.682	88.8687
338.498	167.177
343.311	221.528
348.122	354.509
352.931	263.203
357.737	246.578
362.54	302.912
367.341	366.006
372.14	396.794
376.936	280.052
381.73	490.656
386.521	315.259
391.31	436.791
396.096	439.691
400.88	542.553
405.661	425.154
410.44	332.295
415.216	389.733
419.99	271.468
424.761	373.807
429.53	180.003
434.297	215.269
439.061	263.134
443.822	217.807
448.581	95.1582
453.337	261.726
458.091	122.449
462.843	198.096
467.592	90.0459
472.338	164.09
477.082	72.6269
481.824	186.999
486.563	235.419
491.3	104.969
496.034	153.585
500.765	155.523
505.494	150.446
510.221	113.292
514.945	178.57
519.666	39.2256
524.385	141.079
529.102	131.352
533.816	12.1611
538.527	126.141
543.236	119.152
547.943	132.505
552.647	43.0469
557.348	57.4853
562.047	164.966
566.744	145.697
571.438	283.229
576.129	228.644
580.818	93.7754
585.504	219.238
590.188	93.9785
594.87	188.822
599.549	144.392
604.225	235.468
608.899	135.894
613.57	164.982
618.239	104.715
622.905	37.3359
627.569	162.685
632.23	173.191
636.889	78.9287
641.545	193.388
646.198	164.903
650.849	110.231
655.498	139.145
660.144	50.8965
664.787	93.4072
669.428	136.376
674.067	177.596
678.703	98.4043
683.336	63.2734
687.967	78.1123
692.595	200.324
697.221	102.815
701.844	137.498
706.465	77.8945
711.083	66.4619
715.698	51.6455
720.311	74.7012
724.922	78.6045
729.53	42.8418
734.135	1.85254
738.738	19.748
743.338	1.58008
747.936	27.6445
752.531	95.9619
757.124	133.25
761.714	136.02
766.302	269.019
770.887	94.3848
775.469	286.934
780.049	304.768
784.626	135.31
789.201	200.38
793.773	214.578
798.343	242.193
802.91	144.417
807.475	144.94
812.037	172.072
816.596	221.859
821.153	163.779
825.707	223.925
830.259	271.219
834.808	290.062
839.355	95.0684
843.899	273.438
848.441	790.072
852.98	527.898
857.516	231.571
862.05	90.6719
866.581	72.6523
871.11	46.956
875.636	100.173
880.159	112.048
884.68	72.1162
889.199	28.4355
893.714	212.626
898.228	98.8369
902.738	22.1475
907.246	28.0977
911.752	13.123
916.255	114.014
920.755	53.5977
925.253	53.3252
929.748	95.0537
934.241	109.746
938.731	72.4717
943.218	185.198
947.703	3.91406
952.186	191.602
956.665	108.447
961.142	121.413
965.617	221.444
970.089	217.48
974.558	237.566
979.025	103.736
983.489	287.098
987.951	259.53
992.41	369.033
996.866	442.697
1001.32	573.796
1005.77	577.906
1010.22	589.203
1014.67	610.433
1019.11	824.622
1023.55	1200.62
1027.99	1130.36
1032.42	1718.65
1036.86	2320.89
1041.29	3336.74
1045.72	4920.55
1050.14	8630.57
1054.56	17584.3
1058.98	34580.4
1063.4	36291.2
1067.82	17648.7
1072.23	7916.68
1076.64	4149.35
1081.05	2383.74
1085.45	1571.64
1089.85	1006.71
1094.25	801.557
1098.65	462.575
1103.04	360.123
1107.43	211.068
1111.82	4.49805
1116.21	251.053
1120.59	216.723
1124.97	185.547
1129.35	40.8965
1133.73	223.023
1138.1	119.676
1142.47	146.129
1146.84	99.5606
1151.21	217.797
1155.57	120.41
1159.93	41.4844
1164.29	50.6328
1168.64	31.4102
1172.99	6.74609
1177.34	122.455
1181.69	97.8418
1186.04	27.4746
1190.38	193.746
1194.72	166.961
1199.05	143.231
1203.39	8.4082
1207.72	199.107
1212.05	155.803
1216.37	167.34
1220.7	120.635
1225.02	82.2539
1229.34	282.869
1233.65	8.25391
1237.97	89.4141
1242.28	185.185
1246.59	55.3594
1250.89	76.457
1255.19	30.4473
1259.49	80.2793
1263.79	171.039
1268.09	21.6055
1272.38	179.91
1276.67	28.2871
1280.95	276.815
1285.24	212.699
1289.52	3.59961
1293.8	305.807
1298.08	258.152
1302.35	40.1543
1306.62	222.217
1310.89	13.0742
1315.15	210.732
1319.42	163.279
1323.68	241.65
1327.94	88.1094
1332.19	203.982
1336.44	271.107
1340.69	134.607
1344.94	16.5156
1349.19	268.387
1353.43	357.363
1357.67	144.795
1361.9	264.434
1366.14	106.922
1370.37	151.982
1374.6	148.803
1378.83	90.5332
1383.05	244.965
1387.27	85.8106
1391.49	15.5703
1395.7	206.398
1399.92	116.42
1404.13	200.537
1408.34	388.541
1412.54	235.287
1416.74	482.008
1420.94	830.719
1425.14	1606.66
1429.34	2282.06
1433.53	1445.12
1437.72	825.459
1441.9	417.262
1446.09	446.356
1450.27	288.256
1454.45	254.652
1458.63	24.375
1462.8	19.0488
1466.97	96.5898
1471.14	17.7305
1475.31	71.625
1479.47	180.523
1483.63	144.68
1487.79	216.486
1491.94	68.6699
1496.09	70.2754
1500.24	71.7422
1504.39	229.461
1508.54	204.057
1512.68	224.369
1516.82	184.025
1520.95	363.072
1525.09	413.438
1529.22	332.752
1533.35	261.119
1537.47	170.633
1541.6	163.346
1545.72	152.504
1549.83	93.6973
1553.95	410.404
1558.06	134.248
1562.17	179.635
1566.28	59.166
1570.38	0
