Measurement: Raman, 514 nm, unoriented, Raman Data Processed
Mineral: Trona
Rruff sample: R050228
Ideal chemistry: Na_3_(HCO_3_)(CO_3_)2H_2_O
Locality: Stauffer mine, Green River, Wyoming, USA
Source: Marcus Origlieri
Description: Aggregate of pale yellowish brown flattened crystals
Measured chemistry: Na_3.00_(CO_3_)(HCO_3_)Â·2H_2_O ; CO2 and H not measured but estimated by stoichiometry. The lighter inclusion is dolomite.
Raman shift (cm-1)	intensity
94.714	0
99.649	712.674
104.582	2359.43
109.512	2356.43
114.44	1133.45
119.365	225.787
124.288	67.6484
129.209	850.455
134.127	2448.1
139.043	3843.38
143.956	2527.87
148.867	1142.41
153.775	808.879
158.681	799.606
163.585	1293.39
168.486	2539.02
173.385	3842.27
178.282	5315.46
183.176	6487.73
188.067	5104.54
192.956	3169.49
197.843	1654.67
202.727	1435.93
207.609	1340.18
212.489	1434.73
217.366	1907.92
222.24	2298.63
227.112	2253.39
231.982	1607.91
236.849	1180.08
241.714	693.076
246.577	484.732
251.437	236.549
256.294	116.117
261.149	106.607
266.002	131.596
270.852	104.994
275.7	84.1562
280.545	155.5
285.388	4.92969
290.229	54.1387
295.067	4.58203
299.902	124.621
304.735	150.508
309.566	63.6113
314.394	198.133
319.22	63.1992
324.043	65.8164
328.864	355.453
333.682	138.725
338.498	142.141
343.311	122.818
348.122	0.935547
352.931	138.502
357.737	25.084
362.54	202.621
367.341	221.816
372.14	215.447
376.936	187.894
381.73	58.9746
386.521	70.8945
391.31	199.678
396.096	234.498
400.88	39.1934
405.661	313.139
410.44	273.603
415.216	320.231
419.99	0.259766
424.761	63.1953
429.53	62.9609
434.297	164.477
439.061	131.977
443.822	392.963
448.581	163.676
453.337	228.209
458.091	168.654
462.843	152.469
467.592	25.1914
472.338	285.244
477.082	40.377
481.824	101.883
486.563	215.219
491.3	16.0215
496.034	169.961
500.765	190.387
505.494	111.139
510.221	149.004
514.945	336.637
519.666	52.916
524.385	153.217
529.102	210.736
533.816	287.606
538.527	477.059
543.236	227.432
547.943	268.869
552.647	332.635
557.348	350.639
562.047	325.945
566.744	551.15
571.438	410.736
576.129	116.738
580.818	348.842
585.504	161.885
590.188	399.578
594.87	195.682
599.549	145.627
604.225	240.252
608.899	193.158
613.57	53.793
618.239	387.815
622.905	311.799
627.569	63.623
632.23	282.565
636.889	5.76562
641.545	137.121
646.198	493.932
650.849	63.3984
655.498	214.977
660.144	258.576
664.787	155.568
669.428	232.336
674.067	220.19
678.703	226.062
683.336	251.188
687.967	324.203
692.595	330.336
697.221	374.434
701.844	260.402
706.465	20.7109
711.083	271.5
715.698	263
720.311	22.0977
724.922	34.9375
729.53	36.8594
734.135	239.965
738.738	120.422
743.338	167.394
747.936	262.481
752.531	221.773
757.124	181.805
761.714	101.938
766.302	491.305
770.887	165.781
775.469	165.547
780.049	258.484
784.626	372.039
789.201	452.805
793.773	401.695
798.343	267.676
802.91	59.6758
807.475	193.988
812.037	313.66
816.596	118.785
821.153	195.18
825.707	233.457
830.259	456.773
834.808	222.785
839.355	326.66
843.899	443.715
848.441	460.703
852.98	338.777
857.516	337.836
862.05	293.789
866.581	240.742
871.11	351.574
875.636	284.293
880.159	147.672
884.68	317.098
889.199	324.062
893.714	422.785
898.228	386.305
902.738	199.606
907.246	60.3945
911.752	138.59
916.255	221.789
920.755	85.5117
925.253	30.3711
929.748	260.711
934.241	98.1367
938.731	236.422
943.218	429.574
947.703	435.918
952.186	409.715
956.665	61.9453
961.142	139.887
965.617	280.414
970.089	110.644
974.558	56.7656
979.025	104.117
983.489	332.027
987.951	236.035
992.41	241.731
996.866	17.4258
1001.32	80.8125
1005.77	413.785
1010.22	270.891
1014.67	423.094
1019.11	375.348
1023.55	619.293
1027.99	627.195
1032.42	609.086
1036.86	864.539
1041.29	1023.08
1045.72	1429.12
1050.14	2408.33
1054.56	4994.62
1058.98	8211.9
1063.4	7679.07
1067.82	4317.03
1072.23	2097.52
1076.64	1124.69
1081.05	635.07
1085.45	291.625
1089.85	360.367
1094.25	430.137
1098.65	346.004
1103.04	321.961
1107.43	36.1406
1111.82	119.566
1116.21	103.543
1120.59	539.703
1124.97	281.793
1129.35	26.3164
1133.73	320.992
1138.1	118.269
1142.47	111.246
1146.84	216.008
1151.21	105.348
1155.57	496.195
1159.93	318.836
1164.29	409.602
1168.64	231.004
1172.99	393.844
1177.34	283.754
1181.69	316.406
1186.04	410.273
1190.38	244.617
1194.72	388.481
1199.05	176.961
1203.39	228.996
1207.72	438.668
1212.05	111.992
1216.37	491.781
1220.7	683.32
1225.02	388.848
1229.34	316.242
1233.65	462.559
1237.97	375.484
1242.28	426.082
1246.59	441.848
1250.89	214.637
1255.19	210.121
1259.49	26.1797
1263.79	303.91
1268.09	242.074
1272.38	419.137
1276.67	162.453
1280.95	93.6719
1285.24	400.691
1289.52	2.82031
1293.8	283.438
1298.08	535
1302.35	384.031
1306.62	108.945
1310.89	30.168
1315.15	215.129
1319.42	287.562
1323.68	378.508
1327.94	810.406
1332.19	506.383
1336.44	463.25
1340.69	510.492
1344.94	594.613
1349.19	488.602
1353.43	358.465
1357.67	568.742
1361.9	332.418
1366.14	512.258
1370.37	388.144
1374.6	742.785
1378.83	148.43
1383.05	649.562
1387.27	108.879
1391.49	557.906
1395.7	579.035
1399.92	392.488
1404.13	511.379
1408.34	592.945
1412.54	535.352
1416.74	241.832
1420.94	512.008
1425.14	717.012
1429.34	607.031
1433.53	671.309
1437.72	644.285
1441.9	125.262
1446.09	193.543
1450.27	147.785
1454.45	219.074
1458.63	533.344
1462.8	461.641
1466.97	318.121
1471.14	299.723
1475.31	310
1479.47	418.781
1483.63	194.188
1487.79	74.2539
1491.94	578.832
1496.09	72.8867
1500.24	475.91
1504.39	319.254
1508.54	415.152
1512.68	146.727
1516.82	320.805
1520.95	322.762
1525.09	371.746
1529.22	279.945
1533.35	306.465
1537.47	69.3164
1541.6	452.207
1545.72	216.957
1549.83	180.676
1553.95	336.07
1558.06	474.047
1562.17	293.168
1566.28	117.223
1570.38	0
