Measurement: Raman, 532 nm, unoriented, Raman Data Processed
Mineral: Trona
Rruff sample: R050499
Ideal chemistry: Na_3_(HCO_3_)(CO_3_)2H_2_O
Locality: Searles Lake, Trona, San Bernardino County, California, USA
Source: California Institute of Technology
Description: Gray columnar massive
Measured chemistry: Na_3.00_(CO_3_)(HCO_3_)Â·2H_2_O ; CO_3_ and HCO_3_ were estimated by stoichiometry
Raman shift (cm-1)	intensity
146.435	0
149.328	98.2712
152.221	549.545
155.114	1173.25
158.006	786.628
160.899	216.37
163.792	135.474
166.684	281.969
169.577	356.369
172.47	355.957
175.363	484.881
178.255	550.234
181.148	507.434
184.041	576.101
186.933	612.785
189.826	345.451
192.719	165.669
195.611	85.9065
198.504	42.96
201.397	9.39429
204.29	19.9004
207.182	29.8655
210.075	36.1643
212.968	8.08423
215.86	19.0349
218.753	40.5881
221.646	70.0317
224.538	78.8169
227.431	93.8242
230.324	86.3962
233.216	89.145
236.109	100.171
239.002	91.6958
241.895	92.981
244.787	105.611
247.68	116.173
250.573	127.784
253.465	129.541
256.358	130.958
259.251	144.757
262.144	134.732
265.036	102.77
267.929	84.0554
270.822	70.8613
273.714	76.8494
276.607	53.7402
279.5	63.095
282.392	55.0542
285.285	55.3816
288.178	41.5217
291.07	45.2695
293.963	38.8023
296.856	38.6724
299.748	26.2766
302.641	20.1611
305.534	15.1209
308.427	22.2351
311.319	32.0764
314.212	8.96289
317.105	18.9851
319.997	15.4697
322.89	22.6907
325.783	7.3457
328.675	1.67334
331.568	6.70606
334.461	5.80713
337.354	7.59497
340.246	14.8125
343.139	17.8562
346.032	26.1592
348.924	21.6155
351.817	22.1956
354.71	9.64917
357.603	27.4334
360.495	23.2275
363.388	14.5325
366.281	8.10742
369.173	3.59106
372.066	5.21973
374.959	0.956299
377.851	3.81934
380.744	7.5022
383.637	0.30957
386.529	17.6916
389.422	19.0444
392.315	21.2314
395.208	18.7459
398.1	14.2766
400.993	28.7881
403.886	11.3784
406.778	10.3042
409.671	7.07666
412.564	16.7019
415.457	16.0586
418.349	15.6104
421.242	25.1995
424.135	30.1753
427.027	12.3674
429.92	13.1963
432.813	3.32983
435.705	4.93262
438.598	14.654
441.491	10.2168
444.384	8.21338
447.276	6.90356
450.169	13.7297
453.062	13.5942
455.954	9.53784
458.847	18.2454
461.74	6.63818
464.632	8.07446
467.525	19.3347
470.418	12.355
473.31	13.7932
476.203	19.3398
479.096	25.4976
481.989	19.0608
484.881	20.8999
487.774	11.6814
490.667	2.2417
493.559	22.7956
496.452	15.8198
499.345	7.66724
502.238	7.99634
505.13	3.46997
508.023	11.7659
510.916	1.72705
513.808	2.2832
516.701	14.2673
519.594	1.6228
522.486	9.99268
525.379	6.11841
528.272	29.3169
531.164	20.8896
534.057	16.8706
536.95	11.4492
539.843	15.9453
542.735	14.115
545.628	13.4116
548.521	12.1631
551.413	26.0461
554.306	27.9712
557.199	18.4067
560.091	19.6885
562.984	20.76
565.877	10.2434
568.77	12.5137
571.662	0.813232
574.555	17.0371
577.448	11.6069
580.34	17.9748
583.233	38.5139
586.126	29.6621
589.019	14.7065
591.911	21.5855
594.804	7.8645
597.697	24.4343
600.589	14.99
603.482	22.9128
606.375	14.7114
609.267	7.73779
612.16	4.82373
615.053	3.63623
617.946	1.14795
620.838	18.2981
623.731	25.8049
626.624	17.2717
629.516	40.323
632.409	30.405
635.302	42.1699
638.194	33.398
641.087	36.3115
643.98	35.5249
646.872	32.5293
649.765	26.8501
652.658	9.58447
655.551	3.57349
658.443	9.02808
661.336	12.7043
664.229	6.83594
667.121	13.8252
670.014	7.9436
672.907	6.61987
675.799	5.84009
678.692	3.49853
681.585	2.28272
684.478	10.6213
687.37	13.3508
690.263	29.5779
693.156	37.1013
696.048	41.5063
698.941	61.7358
701.834	72.2363
704.726	52.918
707.619	56.8481
710.512	47.1643
713.405	28.6555
716.297	31.2754
719.19	29.9446
722.083	35.7368
724.975	33.8918
727.868	23.0142
730.761	40.4956
733.653	29.4846
736.546	40.0205
739.439	40.1379
742.332	34.4402
745.224	23.1013
748.117	27.6099
751.01	46.564
753.902	49.5352
756.795	38.4878
759.688	31.9988
762.58	20.7324
765.473	27.6201
768.366	28.1538
771.259	33.4688
774.151	31.0405
777.044	23.7202
779.937	5.59424
782.829	21.3691
785.722	30.9004
788.615	26.9895
791.507	30.7141
794.4	22.4753
797.293	1.25903
800.186	9.07764
803.078	1.36108
805.971	10.6055
808.864	14.4104
811.756	13.8882
814.649	13.6538
817.542	3.81763
820.434	11.5193
823.327	3.31201
826.22	3.36426
829.112	11.4832
832.005	0.883789
834.898	16.2642
837.791	9.19385
840.683	32.6362
843.576	9.6394
846.469	16.4641
849.361	26.9321
852.254	39.5369
855.147	16.5825
858.04	14.7305
860.932	10.1631
863.825	18.0225
866.718	5.42554
869.61	12.0864
872.503	0.567871
875.396	3.73242
878.288	9.87549
881.181	10.2134
884.074	11.4937
886.967	17.1899
889.859	7.42334
892.752	10.3291
895.645	7.54248
898.537	15.874
901.43	14.5117
904.323	24.335
907.216	20.3955
910.108	17.1099
913.001	23.1279
915.894	23.7398
918.786	19.9927
921.679	10.291
924.572	11.6123
927.464	18.4673
930.357	8.46289
933.25	6.97266
936.143	3.24121
939.035	1.69238
941.928	0.096191
944.821	2.50586
947.713	3.42432
950.606	10.8262
953.499	6.62939
956.391	15.5195
959.284	22.1855
962.177	1.00635
965.069	4.37256
967.962	15.29
970.855	3.65869
973.748	5.82031
976.64	13.5996
979.533	1.62451
982.426	7.33301
985.318	20.2954
988.211	34.9097
991.104	16.9077
993.996	11.5737
996.889	13.1509
999.782	33.4082
1002.67	33.8892
1005.57	34.5293
1008.46	16.9141
1011.35	10.3574
1014.25	38.5337
1017.14	13.6582
1020.03	36.2935
1022.92	36.9136
1025.82	55.5845
1028.71	53.4004
1031.6	86.6021
1034.49	93.8545
1037.39	143.251
1040.28	180.324
1043.17	253.764
1046.07	360.307
1048.96	542.562
1051.85	806.189
1054.74	1194.5
1057.64	1804.05
1060.53	2511.9
1063.42	2555.18
1066.31	1807.86
1069.21	1055.4
1072.1	619.186
1074.99	398.177
1077.88	266.302
1080.78	186.149
1083.67	134.67
1086.56	105.348
1089.46	95.0391
1092.35	48.2759
1095.24	45.0928
1098.13	30.3398
1101.03	15.2056
1103.92	28.3848
1106.81	9.46289
1109.7	21.1641
1112.6	25.3955
1115.49	12.3921
1118.38	2.95068
1121.28	14.3521
1124.17	4.71094
1127.06	5.4624
1129.95	1.97852
1132.85	7.42822
1135.74	0.591797
1138.63	2.4292
1141.52	12.1187
1144.42	8.10986
1147.31	18.064
1150.2	13.8008
1153.1	4.56982
1155.99	0.125488
1158.88	22.208
1161.77	26.2109
1164.67	13.3643
1167.56	24.4907
1170.45	28.7324
1173.34	24.7983
1176.24	22.1118
1179.13	32.4531
1182.02	26.4683
1184.91	31.1558
1187.81	28.875
1190.7	25.689
1193.59	12.0068
1196.48	26.4834
1199.38	37.0078
1202.27	44.8174
1205.16	38.1728
1208.06	29.7144
1210.95	14.6675
1213.84	22.3174
1216.73	18.3594
1219.63	22.3525
1222.52	27.6011
1225.41	29.0737
1228.31	25.1094
1231.2	25.646
1234.09	15.1426
1236.98	4.6167
1239.88	4.87305
1242.77	22.3584
1245.66	18.4995
1248.55	16.6382
1251.45	32.6533
1254.34	23.48
1257.23	3.38769
1260.12	13.9043
1263.02	8.22168
1265.91	22.3105
1268.8	14.0718
1271.7	33.1103
1274.59	16.1304
1277.48	16.1445
1280.37	24.6636
1283.27	24.9204
1286.16	26.5088
1289.05	23.1035
1291.94	27.5107
1294.84	20.9634
1297.73	9.43213
1300.62	3.39648
