Measurement: Raman, 780 nm, unoriented, Raman Data Processed
Mineral: Trona
Rruff sample: R050499
Ideal chemistry: Na_3_(HCO_3_)(CO_3_)2H_2_O
Locality: Searles Lake, Trona, San Bernardino County, California, USA
Source: California Institute of Technology
Description: Gray columnar massive
Measured chemistry: Na_3.00_(CO_3_)(HCO_3_)Â·2H_2_O ; CO_3_ and HCO_3_ were estimated by stoichiometry
Raman shift (cm-1)	intensity
144.19	0
147.082	24.1736
149.975	248.153
152.868	751.963
155.76	983.659
158.653	410.951
161.546	172.55
164.439	227.4
167.331	368.939
170.224	399.848
173.117	490.497
176.009	605.923
178.902	574.431
181.795	607.352
184.687	754.161
187.58	604.702
190.473	297.902
193.365	128.361
196.258	54.9911
199.151	4.85779
202.044	18.9924
204.936	18.8528
207.829	18.4762
210.722	4.87878
213.614	33.9534
216.507	44.9896
219.4	65.7992
222.292	98.795
225.185	132.607
228.078	125.068
230.971	94.4227
233.863	74.8206
236.756	52.8886
239.649	42.4262
242.541	40.3033
245.434	28.8152
248.327	37.0595
251.22	37.8041
254.112	40.492
257.005	43.2544
259.898	36.8201
262.79	25.3626
265.683	17.1204
268.576	7.60522
271.468	8.31445
274.361	7.85779
277.254	4.19659
280.147	14.3898
283.039	11.7532
285.932	13.36
288.825	21.4055
291.717	16.3054
294.61	15.8912
297.503	14.3123
300.395	11.3124
303.288	8.10632
306.181	6.20136
309.074	6.15137
311.966	1.94067
314.859	2.33582
317.752	5.77258
320.644	4.44672
323.537	1.3656
326.43	1.27814
329.322	0.312805
332.215	2.70239
335.108	0.921936
338	0.673218
340.893	1.91821
343.786	1.6626
346.679	2.03162
349.571	0.998535
352.464	1.61267
355.357	1.55005
358.249	3.20557
361.142	6.14002
364.035	1.36231
366.928	2.50574
369.82	3.50659
372.713	0.422791
375.606	2.33832
378.498	2.90222
381.391	2.19031
384.284	0.972229
387.176	3.90399
390.069	1.46338
392.962	0.392822
395.854	1.52936
398.747	1.43848
401.64	8.8147
404.533	4.36963
407.425	2.42493
410.318	3.60254
413.211	5.23114
416.103	6.12756
418.996	3.08405
421.889	7.47406
424.781	8.59747
427.674	8.08002
430.567	5.39923
433.46	6.23669
436.352	8.51135
439.245	8.59625
442.138	5.59949
445.03	9.26733
447.923	5.8186
450.816	6.38586
453.709	3.61285
456.601	6.521
459.494	6.30682
462.387	7.84241
465.279	7.35992
468.172	10.0377
471.065	7.85577
473.957	7.6499
476.85	7.70166
479.743	7.05444
482.635	14.5155
485.528	5.52844
488.421	5.21314
491.314	7.13739
494.206	3.64496
497.099	3.02496
499.992	0.765259
502.884	0.548218
505.777	3.01416
508.67	4.42883
511.562	4.35675
514.455	4.33502
517.348	4.98871
520.241	2.78583
523.133	0.809021
526.026	3.02393
528.919	0.152527
531.811	0.40686
534.704	0.422119
537.597	3.73547
540.49	1.61292
543.382	0.036133
546.275	2.90198
549.168	6.87079
552.06	4.14313
554.953	3.24383
557.846	3.3728
560.738	4.48254
563.631	4.33557
566.524	2.06299
569.417	1.52991
572.309	3.29504
575.202	4.51794
578.095	8.32929
580.987	6.42786
583.88	3.66644
586.773	3.75854
589.665	5.81976
592.558	6.54523
595.451	3.25678
598.343	8.07916
601.236	5.96796
604.129	5.1908
607.021	8.54004
609.914	7.92493
612.807	5.1189
615.7	6.11383
618.592	9.20514
621.485	7.65533
624.378	12.4253
627.27	10.3176
630.163	18.4224
633.056	15.8276
635.948	13.5287
638.841	18.4642
641.734	17.5512
644.627	14.1523
647.519	7.04944
650.412	7.52618
653.305	4.96344
656.197	3.36591
659.09	0.905579
661.983	2.41242
664.875	1.24121
667.768	2.64832
670.661	0.338196
673.554	1.53375
676.446	2.37964
679.339	0.623169
682.232	0.840576
685.125	0.42041
688.017	0.240234
690.91	5.047
693.803	8.87354
696.695	14.5521
699.588	21.4446
702.481	19.3429
705.373	13.0858
708.266	12.9542
711.159	12.1765
714.052	10.858
716.944	9.60474
719.837	6.4928
722.73	7.2088
725.622	8.74127
728.515	10.8051
731.408	10.0622
734.3	13.7341
737.193	13.732
740.086	10.5234
742.979	10.7225
745.871	10.4308
748.764	10.41
751.657	13.1606
754.549	7.05054
757.442	7.31671
760.335	9.41144
763.227	11.5928
766.12	8.67145
769.013	6.68964
771.905	4.84021
774.798	10.3908
777.691	6.21729
780.584	5.00977
783.476	6.93726
786.369	4.74976
789.262	3.94739
792.154	3.60602
795.047	3.61438
797.94	1.1571
800.832	0.083801
803.725	3.63513
806.618	1.34741
809.511	8.69574
812.403	6.91077
815.296	3.37152
818.189	1.11523
821.081	1.10986
823.974	1.69574
826.867	0.208862
829.76	1.88281
832.652	1.67834
835.545	3.99524
838.438	6.42926
841.33	4.8418
844.223	8.55292
847.116	16.6258
850.008	22.0848
852.901	20.1477
855.794	3.15198
858.687	2.19922
861.579	4.89203
864.472	3.56445
867.365	3.90338
870.257	2.8186
873.15	2.89349
876.043	4.25281
878.935	2.56757
881.828	3.86371
884.721	0.749207
887.614	4.0415
890.506	1.44952
893.399	4.39026
896.292	1.92511
899.184	4.34045
902.077	4.94257
904.97	4.41205
907.862	4.0769
910.755	2.70117
913.648	2.43964
916.54	1.11914
919.433	2.3573
922.326	4.57001
925.218	3.39069
928.111	1.52557
931.004	4.40155
933.897	3.50507
936.789	3.06513
939.682	3.54358
942.575	1.9997
945.467	0.943237
948.36	2.17755
951.253	1.09033
954.145	2.06018
957.038	3.03833
959.931	3.67535
962.824	3.06409
965.716	3.00348
968.609	1.14685
971.502	1.30243
974.394	1.01446
977.287	0.519409
980.18	2.13507
983.072	0.052979
985.965	3.21905
988.858	0.056274
991.751	2.8562
994.643	3.08673
997.536	10.5164
1000.43	11.4794
1003.32	3.71057
1006.21	5.48993
1009.11	5.36365
1012	6.88568
1014.89	9.34381
1017.78	12.9712
1020.68	16.6586
1023.57	20.05
1026.46	24.6096
1029.36	32.1618
1032.25	48.0193
1035.14	59.0659
1038.03	78.9972
1040.93	106.042
1043.82	149.06
1046.71	226.505
1049.61	335.678
1052.5	473.18
1055.39	678.636
1058.28	947.448
1061.17	1117.18
1064.07	907.72
1066.96	548.61
1069.85	316.655
1072.75	194.474
1075.64	123.419
1078.53	85.2648
1081.42	62.2972
1084.32	46.9699
1087.21	38.1122
1090.1	27.2038
1092.99	18.6348
1095.89	14.6735
1098.78	8.67487
1101.67	5.26996
1104.57	5.16632
1107.46	2.08228
1110.35	0.402161
1113.24	3.12329
1116.14	1.22388
1119.03	0.795898
1121.92	2.60852
1124.82	0.801819
1127.71	0.384521
1130.6	1.04016
1133.49	0.799744
1136.39	0.628235
1139.28	1.51477
1142.17	0.802917
1145.06	1.87061
1147.96	0.344177
1150.85	0.663696
1153.74	2.37207
1156.63	3.14673
1159.53	5.13415
1162.42	0.124573
1165.31	3.42835
1168.2	5.07483
1171.1	4.24591
1173.99	4.4455
1176.88	3.96832
1179.78	6.09595
1182.67	6.10773
1185.56	5.6496
1188.45	6.17163
1191.35	3.90326
1194.24	4.48346
1197.13	5.02905
1200.03	5.15265
1202.92	7.37024
1205.81	5.09625
1208.7	5.35498
1211.6	2.89197
1214.49	3.91644
1217.38	3.84491
1220.27	3.02637
1223.17	0.421814
1226.06	1.95068
1228.95	0.493958
1231.85	3.64929
1234.74	5.06958
1237.63	4.37885
1240.52	4.04822
1243.42	3.03668
1246.31	2.34326
1249.2	1.7038
1252.09	1.21625
1254.99	2.6778
1257.88	0.212402
1260.77	3.44812
1263.66	2.15833
1266.56	0.590393
1269.45	2.7547
1272.34	3.99396
1275.23	3.33087
1278.13	0.053223
