Measurement: Raman, 532 nm, unoriented, Raman Data Processed
Mineral: Tsaregorodtsevite
Rruff sample: R060033
Ideal chemistry: N(CH_3_)_4_Si_4_(SiAl)O_12_
Locality: Yaruta, Man-Hambo Mountain Range, North Urals, Russia
Source: University of Arizona Mineral Museum
Description: Tan colored pseudo cubo-dodecahedra
Measured chemistry: N(CH_3_)_4_Si_4.00_(Si_1.00_Al_1.00_)_Î£=2_O_12_
Raman shift (cm-1)	intensity
140.48	0
143.373	0.229706
146.266	5.67539
149.158	9.49554
152.051	11.3237
154.944	16.956
157.836	20.1543
160.729	21.6609
163.622	22.842
166.514	22.7602
169.407	27.7476
172.3	23.4123
175.192	20.8861
178.085	19.0674
180.978	12.2291
183.871	12.8917
186.763	11.753
189.656	7.97626
192.549	2.99365
195.441	1.2236
198.334	1.77548
201.227	1.96741
204.119	1.35043
207.012	0.588196
209.905	1.73547
212.798	4.41476
215.69	3.68808
218.583	4.48498
221.476	6.81058
224.368	5.2713
227.261	7.64911
230.154	9.37436
233.047	9.25668
235.939	15.2143
238.832	17.6816
241.725	22.5273
244.617	24.3012
247.51	29.4468
250.403	27.6668
253.295	23.1476
256.188	18.24
259.081	15.4193
261.974	8.92917
264.866	5.9588
267.759	5.16913
270.652	3.86435
273.544	3.25851
276.437	0.712952
279.33	0.663116
282.222	0.42807
285.115	0.781555
288.008	3.1658
290.901	1.20834
293.793	1.97961
296.686	3.47769
299.579	4.14294
302.471	3.55646
305.364	7.6622
308.257	6.65067
311.149	9.7041
314.042	11.4423
316.935	14.7119
319.827	22.6654
322.72	23.6379
325.613	30.2802
328.506	41.0033
331.398	46.5044
334.291	48.5817
337.184	50.8957
340.076	43.9476
342.969	29.6761
345.862	17.5148
348.755	14.4295
351.647	22.1401
354.54	42.9996
357.433	66.9922
360.325	104.179
363.218	154.703
366.111	230.263
369.003	307.073
371.896	288.012
374.789	208.428
377.682	114.013
380.574	47.4037
383.467	16.2026
386.36	5.05084
389.252	0.039307
392.145	1.87134
395.038	2.93036
397.93	0.139435
400.823	3.53641
403.716	7.29083
406.608	13.4319
409.501	20.3234
412.394	31.7088
415.287	47.0915
418.179	68.1491
421.072	103.957
423.965	162.639
426.857	230.494
429.75	330.214
432.643	462.247
435.536	615.911
438.428	703.177
441.321	620.59
444.214	469.681
447.106	384.772
449.999	355.151
452.892	338.545
455.784	316.206
458.677	283.389
461.57	259.062
464.462	246.694
467.355	202.309
470.248	130.06
473.141	71.4371
476.033	39.3932
478.926	23.7282
481.819	14.6319
484.711	11.553
487.604	7.27283
490.497	5.4642
493.389	5.48611
496.282	1.45276
499.175	0.563873
502.068	0.039063
504.96	1.99991
507.853	0.247284
510.746	0.099609
513.638	0.098846
516.531	0.849457
519.424	1.12756
522.317	0.541748
525.209	0.409058
528.102	1.36014
530.995	1.19724
533.887	5.1026
536.78	1.01303
539.673	0.258331
542.565	2.55633
545.458	3.53143
548.351	4.2164
551.244	5.92136
554.136	4.56894
557.029	5.45242
559.922	9.54053
562.814	9.06644
565.707	9.04309
568.6	10.2765
571.492	11.1896
574.385	12.6121
577.278	12.4835
580.17	14.6213
583.063	14.2143
585.956	16.6789
588.848	16.1357
591.741	18.5753
594.634	16.3148
597.527	19.3498
600.419	19.6115
603.312	17.9738
606.205	13.9472
609.097	14.1987
611.99	12.2995
614.883	12.6738
617.775	10.2812
620.668	11.2256
623.561	9.94348
626.454	8.82681
629.346	9.27057
632.239	9.19812
635.132	5.94543
638.024	5.35764
640.917	4.61227
643.81	5.51462
646.702	7.68915
649.595	7.43344
652.488	5.94302
655.381	3.56036
658.273	3.48798
661.166	3.65848
664.059	0.910217
666.951	1.21698
669.844	0.878693
672.737	0.210541
675.63	1.06082
678.522	0.283447
681.415	0.576996
684.308	0.961121
687.2	0.909027
690.093	0.13562
692.986	3.12198
695.878	0.767487
698.771	2.35626
701.664	0.400848
704.557	2.76868
707.449	1.86041
710.342	3.39328
713.235	5.28662
716.127	5.04929
719.02	8.42328
721.913	15.603
724.805	23.0612
727.698	36.0602
730.591	56.3985
733.484	80.481
736.376	100.287
739.269	98.775
742.162	91.8622
745.054	90.2851
747.947	110.442
750.84	163.746
753.732	293.523
756.625	471.904
759.518	743.384
762.41	1193.82
765.303	1687.44
768.196	1492.55
771.089	591.928
773.981	173.894
776.874	73.8824
779.767	39.1228
782.659	25.1792
785.552	13.2052
788.445	9.43692
791.337	6.65445
794.23	5.0003
797.123	4.3179
800.016	2.56696
802.908	2.99835
805.801	2.37921
808.694	2.81213
811.586	4.00671
814.479	5.11942
817.372	5.81421
820.264	4.77075
823.157	3.24149
826.05	4.94785
828.943	5.55908
831.835	3.71323
834.728	0.964569
837.621	2.98868
840.513	0.240265
843.406	0.983978
846.299	0.45874
849.192	0.72998
852.084	0.336334
854.977	0.61441
857.87	1.81296
860.762	0.883789
863.655	1.49771
866.548	0.341431
869.44	0.121307
872.333	3.33505
875.226	0.748016
878.119	0.686066
881.011	1.87167
883.904	0.796173
886.797	2.47479
889.689	5.03238
892.582	8.27225
895.475	11.5877
898.367	13.0583
901.26	16.2489
904.153	19.4548
907.045	22.3077
909.938	23.2117
912.831	23.8415
915.724	23.8362
918.616	27.1418
921.509	32.7546
924.402	35.907
927.294	41.7049
930.187	48.1108
933.08	51.7744
935.972	56.421
938.865	69.4739
941.758	96.8156
944.651	155.631
947.543	254.883
950.436	403.316
953.329	594.117
956.221	798.048
959.114	891.187
962.007	748.814
964.899	468.801
967.792	238.993
970.685	123.057
973.578	73.9849
976.47	55.3917
979.363	43.7178
982.256	38.0397
985.148	32.3665
988.041	32.4746
990.934	31.4816
993.826	32.4811
996.719	32.6652
999.612	36.0043
1002.5	37.5362
1005.4	36.4513
1008.29	33.9142
1011.18	29.0693
1014.08	30.5011
1016.97	25.2447
1019.86	20.3609
1022.75	13.9622
1025.65	8.35699
1028.54	4.29157
1031.43	3.46533
1034.32	0.970581
1037.22	1.37344
1040.11	2.78058
1043	0.331757
1045.89	0.223663
1048.79	1.55563
1051.68	1.53214
1054.57	2.04102
1057.47	1.11426
1060.36	0.034241
1063.25	0.176636
1066.14	0.186432
1069.04	2.99176
1071.93	3.34912
1074.82	4.66873
1077.71	2.39554
1080.61	3.56973
1083.5	2.27646
1086.39	3.00272
1089.29	2.87353
1092.18	2.88794
1095.07	0.728638
1097.96	0.406799
1100.86	1.03299
1103.75	0.633423
1106.64	0.925629
1109.53	2.30917
1112.43	2.67578
1115.32	2.48032
1118.21	1.38626
1121.11	4.83911
1124	4.25067
1126.89	5.75839
1129.78	3.4577
1132.68	5.48431
1135.57	6.26004
1138.46	7.08212
1141.35	10.3204
1144.25	13.5568
1147.14	17.26
1150.03	20.5963
1152.92	26.3563
1155.82	30.6424
1158.71	37.0089
1161.6	49.2706
1164.5	65.7467
1167.39	88.2514
1170.28	111.745
1173.17	133.611
1176.07	130.361
1178.96	105.573
1181.85	81.6533
1184.74	71.7656
1187.64	63.7568
1190.53	62.0297
1193.42	55.6936
1196.32	55.5157
1199.21	50.83
1202.1	43.4651
1204.99	36.253
1207.89	32.5397
1210.78	21.1571
1213.67	16.1565
1216.56	13.4299
1219.46	11.3329
1222.35	10.2732
1225.24	7.07059
1228.13	7.20715
1231.03	3.2963
1233.92	4.55756
1236.81	2.5061
1239.71	0.780182
1242.6	3.23319
1245.49	1.21368
1248.38	0.04187
1251.28	0.22464
1254.17	0.31369
1257.06	2.14478
1259.95	3.33969
1262.85	0.748169
1265.74	2.23022
1268.63	2.57571
1271.53	0.032166
