Measurement: Raman, 532 nm, unoriented, Raman Data Processed
Mineral: Tsaregorodtsevite
Rruff sample: R060373
Ideal chemistry: N(CH_3_)_4_Si_4_(SiAl)O_12_
Locality: Mun-Hambo, north Urals, Hanty- Manskiisky, Autonomous District, Russia
Source: Michael Scott
Description: Colorless single crystals with octahedral and cubic forms
Measured chemistry: N(CH_3_)_4_Si_4.00_(Si_0.97_Al_1.03_)_Î£=2_O_12_; trace amounts of Na; N and CH_3_ not measured but assumed by stoichiometry
Raman shift (cm-1)	intensity
172.934	0
175.827	2.04184
178.72	6.17996
181.612	0.789063
184.505	0.333679
187.398	7.42551
190.29	2.19257
193.183	7.21808
196.076	2.37534
198.968	3.74155
201.861	4.40787
204.754	3.65183
207.647	6.43988
210.539	3.65637
213.432	5.01718
216.325	2.366
219.217	6.95462
222.11	3.48813
225.003	3.98132
227.895	10.6971
230.788	10.7531
233.681	12.2925
236.573	19.7563
239.466	19.1481
242.359	25.4254
245.252	28.9585
248.144	25.0647
251.037	26.6028
253.93	25.3994
256.822	16.3889
259.715	13.7014
262.608	11.0964
265.5	8.0791
268.393	7.30792
271.286	5.39414
274.179	4.23792
277.071	2.13892
279.964	1.5506
282.857	1.24381
285.75	1.80411
288.642	1.03784
291.535	0.382996
294.428	4.40848
297.32	2.35562
300.213	4.67172
303.106	5.58057
305.998	8.30335
308.891	10.6892
311.784	10.3179
314.676	14.9641
317.569	16.776
320.462	19.8231
323.355	26.4472
326.247	29.908
329.14	37.8175
332.033	42.9742
334.925	45.2904
337.818	45.4387
340.711	41.2706
343.603	28.0758
346.496	18.2411
349.389	8.12921
352.281	16.8387
355.174	28.0863
358.067	43.4449
360.96	77.1927
363.852	143.196
366.745	244.753
369.638	319.174
372.53	267.564
375.423	183.144
378.316	93.6183
381.209	38.2992
384.101	12.7605
386.994	5.10693
389.887	0.199219
392.779	1.35055
395.672	4.16284
398.565	0.980927
401.457	4.39746
404.35	10.1061
407.243	14.0236
410.135	25.5593
413.028	32.2919
415.921	46.8767
418.814	69.2788
421.706	102.378
424.599	153.63
427.492	230.529
430.384	366.193
433.277	561.977
436.17	797.559
439.062	889.572
441.955	732.342
444.848	538.839
447.741	444.553
450.633	408.233
453.526	383.799
456.419	351.193
459.311	307.562
462.204	275.672
465.097	254.015
467.99	200.428
470.882	120.037
473.775	63.1409
476.668	38.1542
479.56	24.22
482.453	17.5068
485.346	13.2126
488.238	13.1024
491.131	9.73895
494.024	5.41699
496.916	2.85721
499.809	2.86917
502.702	0.563629
505.595	0.14389
508.487	2.34146
511.38	0.476959
514.273	0.159485
517.165	2.04178
520.058	0.627808
522.951	0.619995
525.844	2.61319
528.736	2.32224
531.629	2.12741
534.522	2.52429
537.414	2.37604
540.307	5.87335
543.2	0.188934
546.092	0.08786
548.985	6.68509
551.878	7.41699
554.771	3.19699
557.663	8.19949
560.556	9.80508
563.449	10.273
566.341	12.286
569.234	13.6546
572.127	12.2214
575.019	13.3434
577.912	13.3651
580.805	13.1646
583.697	15.6848
586.59	17.1798
589.483	19.7172
592.376	19.2854
595.268	18.259
598.161	17.4146
601.054	19.2679
603.946	19.1145
606.839	18.9712
609.732	16.0976
612.625	15.3599
615.517	16.9189
618.41	12.6765
621.303	9.21381
624.195	9.69318
627.088	7.67053
629.981	9.05322
632.873	5.07519
635.766	3.06784
638.659	5.52039
641.552	1.71289
644.444	3.03159
647.337	3.47867
650.23	5.99161
653.122	3.1651
656.015	1.37329
658.908	2.4122
661.8	0.077637
664.693	0.898895
667.586	0.809631
670.479	1.78134
673.371	0.299805
676.264	0.908936
679.157	1.54526
682.049	0.664429
684.942	0.586456
687.835	2.23929
690.727	0.507751
693.62	0.475891
696.513	1.79425
699.405	1.2829
702.298	2.07944
705.191	4.90027
708.084	3.29806
710.976	4.98425
713.869	4.0296
716.762	7.52545
719.654	2.74371
722.547	9.83096
725.44	21.381
728.332	38.4125
731.225	62.082
734.118	101.02
737.011	117.578
739.903	111.951
742.796	97.4873
745.689	102.594
748.581	119.81
751.474	154.692
754.367	244.698
757.26	424.283
760.152	799.5
763.045	1535.1
765.938	2314.13
768.83	1660.97
771.723	545.985
774.616	166.694
777.508	71.2231
780.401	42.5506
783.294	22.4813
786.187	13.6008
789.079	10.2813
791.972	6.41589
794.865	4.25275
797.757	5.43494
800.65	4.34225
803.543	6.17609
806.435	5.77496
809.328	6.04263
812.221	6.81345
815.114	10.1788
818.006	8.98434
820.899	7.99359
823.792	5.71585
826.684	2.84372
829.577	4.25885
832.47	3.26343
835.362	3.80508
838.255	1.82486
841.148	1.84869
844.04	1.28735
846.933	0.031494
849.826	1.30951
852.719	1.65869
855.611	0.280823
858.504	0.527832
861.397	1.0668
864.289	2.92633
867.182	0.693634
870.075	6.82953
872.967	2.19675
875.86	2.17398
878.753	0.477661
881.646	5.96405
884.538	1.97372
887.431	0.350586
890.324	2.81531
893.216	3.24463
896.109	11.6171
899.002	14.355
901.894	17.3749
904.787	16.8253
907.68	20.5403
910.573	17.2752
913.465	18.7074
916.358	23.4314
919.251	19.0765
922.143	23.6236
925.036	24.3242
927.929	30.931
930.822	37.2669
933.714	38.1474
936.607	38.8738
939.5	44.4496
942.392	65.1842
945.285	100.801
948.178	176.792
951.07	299.875
953.963	500.133
956.856	711.226
959.749	800.072
962.641	649.102
965.534	387.662
968.427	186.87
971.319	96.1349
974.212	57.5088
977.105	47.2173
979.997	36.9253
982.89	29.2519
985.783	27.3801
988.676	28.0792
991.568	27.4238
994.461	24.815
997.354	26.3816
1000.25	25.8659
1003.14	28.9933
1006.03	28.2624
1008.92	29.7948
1011.82	29.136
1014.71	25.0794
1017.6	20.4233
1020.5	16.412
1023.39	11.1556
1026.28	8.03012
1029.17	4.03928
1032.07	0.134155
1034.96	0.921997
1037.85	0.508636
1040.74	1.58429
1043.64	0.273224
1046.53	1.86743
1049.42	0.182556
1052.32	2.51822
1055.21	1.50833
1058.1	0.456268
1060.99	3.31335
1063.89	0.676727
1066.78	0.230621
1069.67	2.81894
1072.56	0.929749
1075.46	1.89432
1078.35	6.4054
1081.24	4.1535
1084.13	3.3421
1087.03	3.54373
1089.92	2.43268
1092.81	4.53781
1095.7	3.45215
1098.6	1.00214
1101.49	2.90729
1104.38	0.609222
1107.28	0.581207
1110.17	3.37109
1113.06	4.82205
1115.95	4.97153
1118.85	3.14816
1121.74	5.21423
1124.63	5.77124
1127.53	6.94
1130.42	8.9559
1133.31	10.7614
1136.2	13.1003
1139.1	16.3547
1141.99	19.6882
1144.88	19.4871
1147.77	18.7043
1150.67	24.8043
1153.56	30.618
1156.45	34.3451
1159.35	42.5874
1162.24	54.4505
1165.13	70.8879
1168.02	91.8633
1170.92	122.091
1173.81	143.433
1176.7	137.498
1179.59	107.539
1182.49	86.9684
1185.38	79.6329
1188.27	75.0053
1191.16	67.9095
1194.06	68.8113
1196.95	64.0503
1199.84	62.0953
1202.73	50.0343
1205.63	44.8061
1208.52	35.4051
1211.41	32.1122
1214.31	24.9773
1217.2	19.1142
1220.09	11.7829
1222.98	11.2658
1225.88	9.00601
1228.77	6.12863
1231.66	6.84247
1234.56	2.15164
1237.45	2.72385
1240.34	3.77182
1243.23	0.657776
1246.13	2.00848
1249.02	0.058228
1251.91	2.00305
1254.8	1.13602
1257.7	1.42923
1260.59	2.05365
1263.48	2.16235
1266.38	1.96191
1269.27	3.24686
1272.16	3.62649
1275.05	5.43778
1277.95	8.43018
1280.84	14.1083
1283.73	18.9001
1286.62	25.4438
1289.52	27.7474
1292.41	26.1369
1295.3	19.3569
1298.19	9.08624
1301.09	0.720703
