Measurement: Raman, 780 nm, unoriented, Raman Data Processed
Mineral: Tsaregorodtsevite
Rruff sample: R060373
Ideal chemistry: N(CH_3_)_4_Si_4_(SiAl)O_12_
Locality: Mun-Hambo, north Urals, Hanty- Manskiisky, Autonomous District, Russia
Source: Michael Scott
Description: Colorless single crystals with octahedral and cubic forms
Measured chemistry: N(CH_3_)_4_Si_4.00_(Si_0.97_Al_1.03_)_Î£=2_O_12_; trace amounts of Na; N and CH_3_ not measured but assumed by stoichiometry
Raman shift (cm-1)	intensity
137.816	0
140.709	2.36035
143.602	2.64996
146.494	6.36523
149.387	8.92529
152.28	16.6401
155.173	17.835
158.065	21.1746
160.958	27.5467
163.851	31.9006
166.743	35.8196
169.636	32.0095
172.529	31.131
175.422	27.2562
178.314	21.3176
181.207	15.7119
184.1	13.8338
186.992	3.73962
189.885	2.38318
192.778	2.86957
195.67	1.46539
198.563	2.57758
201.456	0.036987
204.349	1.85346
207.241	0.549408
210.134	5.89166
213.027	5.67361
215.919	4.58771
218.812	8.82388
221.705	8.91806
224.597	10.3641
227.49	11.1244
230.383	15.0765
233.275	17.3088
236.168	23.1274
239.061	33.9004
241.954	34.7612
244.846	40.9992
247.739	46.6529
250.632	38.8895
253.524	33.5413
256.417	27.3681
259.31	18.4318
262.202	16.3722
265.095	9.11478
267.988	7.17929
270.881	7.172
273.773	1.95746
276.666	0.392395
279.559	3.3588
282.451	0.040436
285.344	0.765015
288.237	2.24225
291.13	0.691895
294.022	4.65997
296.915	2.00589
299.808	4.47311
302.7	4.59259
305.593	7.80386
308.486	11.0932
311.378	8.68066
314.271	11.882
317.164	14.1877
320.057	17.3653
322.949	19.4413
325.842	25.2859
328.735	29.4326
331.627	39.3371
334.52	42.5302
337.413	43.4743
340.305	41.3171
343.198	24.3695
346.091	13.7206
348.984	7.20337
351.876	4.63736
354.769	9.63034
357.662	19.3139
360.554	40.5074
363.447	77.4702
366.34	139.186
369.233	204.707
372.125	215.775
375.018	174.539
377.911	94.5219
380.803	36.2604
383.696	13.8499
386.589	3.60864
389.481	2.66061
392.374	1.49771
395.267	0.02301
398.159	1.12027
401.052	2.27945
403.945	9.73184
406.838	13.4031
409.73	23.7878
412.623	31.2843
415.516	43.4859
418.408	61.8273
421.301	87.8995
424.194	129.396
427.087	204.514
429.979	322.492
432.872	517.773
435.765	745.656
438.657	864.535
441.55	727.349
444.443	525.696
447.335	411.555
450.228	360.377
453.121	331.202
456.014	300.342
458.906	259.269
461.799	231.014
464.692	224.602
467.584	190.149
470.477	124.166
473.37	66.098
476.262	39.1043
479.155	25.5846
482.048	19.035
484.94	14.5027
487.833	11.5013
490.726	9.77527
493.619	10.7691
496.511	5.90784
499.404	4.54193
502.297	1.32044
505.189	0.288605
508.082	0.065369
510.975	0.817139
513.867	1.76895
516.76	1.53964
519.653	0.184387
522.545	2.56944
525.438	0.335693
528.331	0.691956
531.224	2.2263
534.116	1.4081
537.009	0.233109
539.902	1.23958
542.794	0.314194
545.687	0.747986
548.58	3.86105
551.472	5.86883
554.365	3.31
557.258	7.62856
560.151	8.43057
563.043	10.7314
565.936	12.2716
568.829	12.6153
571.721	12.0819
574.614	13.4739
577.507	16.341
580.399	18.1016
583.292	16.7886
586.185	18.8033
589.078	20.2688
591.97	21.3106
594.863	20.0994
597.756	23.731
600.649	26.1258
603.541	24.9121
606.434	25.3244
609.327	22.8578
612.219	21.0406
615.112	16.4204
618.005	17.1091
620.897	16.3046
623.79	12.6502
626.683	12.0402
629.576	12.2347
632.468	9.11583
635.361	10.1223
638.254	4.65038
641.146	4.94634
644.039	6.18217
646.932	5.75882
649.824	4.68895
652.717	3.54613
655.61	0.791885
658.503	2.14848
661.395	2.84706
664.288	0.243118
667.181	1.43712
670.073	1.36321
672.966	2.17206
675.859	0.804184
678.751	1.48352
681.644	0.281525
684.537	1.23161
687.429	0.54158
690.322	0.18605
693.215	1.50316
696.108	0.246582
699	0.823364
701.893	1.5845
704.786	0.702072
707.678	2.21169
710.571	0.897583
713.464	2.70383
716.356	0.236954
719.249	7.34561
722.142	9.22597
725.035	15.5524
727.927	26.2748
730.82	48.2843
733.713	78.4661
736.605	98.9461
739.498	94.3302
742.391	81.8987
745.284	81.824
748.176	90.3104
751.069	109.477
753.962	158.286
756.854	286.759
759.747	577.056
762.64	1159.39
765.532	1861.85
768.425	1475.55
771.318	516.184
774.211	150.699
777.103	65.2154
779.996	35.9759
782.889	19.4871
785.781	12.1185
788.674	5.38676
791.567	3.9066
794.459	3.01727
797.352	1.0256
800.245	1.12006
803.138	1.59457
806.03	0.592316
808.923	5.18665
811.816	6.31401
814.708	5.93051
817.601	7.44733
820.494	5.98291
823.386	5.34164
826.279	3.90045
829.172	1.80096
832.064	5.29527
834.957	3.31314
837.85	1.75053
840.743	2.25897
843.635	0.912567
846.528	0.472809
849.421	0.038651
852.313	0.373413
855.206	0.817322
858.099	0.167572
860.991	0.704147
863.884	0.744797
866.777	2.05247
869.67	1.44643
872.562	2.15128
875.455	0.400757
878.348	1.78549
881.24	0.20668
884.133	0.930862
887.026	2.92219
889.918	0.945053
892.811	2.86473
895.704	5.50453
898.597	9.6694
901.489	12.0593
904.382	12.5342
907.275	13.9601
910.167	14.9118
913.06	15.7807
915.953	17.5306
918.846	17.7828
921.738	20.9043
924.631	23.2121
927.524	29.0951
930.416	29.9099
933.309	33.818
936.202	32.8029
939.094	38.5656
941.987	54.1453
944.88	82.4226
947.773	138.809
950.665	239.702
953.558	399.605
956.451	571.796
959.343	634.832
962.236	508.207
965.129	300.005
968.021	149.909
970.914	77.376
973.807	45.9991
976.699	34.1822
979.592	27.861
982.485	25.5125
985.378	22.3922
988.27	21.4436
991.163	20.6429
994.056	19.8678
996.948	19.5308
999.841	21.8341
1002.73	20.4728
1005.63	21.1352
1008.52	20.3397
1011.41	19.3127
1014.3	17.888
1017.2	16.3015
1020.09	10.1704
1022.98	7.79506
1025.88	5.07779
1028.77	2.13393
1031.66	1.1687
1034.55	3.4852
1037.45	0.294464
1040.34	1.55727
1043.23	0.778183
1046.12	1.56441
1049.02	0.924469
1051.91	0.443008
1054.8	0.231232
1057.69	0.254395
1060.59	1.09702
1063.48	2.19359
1066.37	2.24214
1069.27	2.7011
1072.16	5.60039
1075.05	5.43814
1077.94	3.85204
1080.84	4.77727
1083.73	4.01265
1086.62	4.15881
1089.52	4.53474
1092.41	2.37132
1095.3	0.922165
1098.19	0.060913
1101.09	2.00937
1103.98	0.342789
1106.87	1.65892
1109.76	1.33995
1112.66	1.09447
1115.55	4.53439
1118.44	4.49435
1121.34	4.62807
1124.23	4.06444
1127.12	3.89551
1130.01	5.05997
1132.9	7.24425
1135.8	8.27678
1138.69	8.66576
1141.58	13.1556
1144.48	12.6957
1147.37	15.2993
1150.26	16.0082
1153.15	20.6682
1156.05	26.3802
1158.94	28.858
1161.83	38.2521
1164.72	47.8165
1167.62	63.5563
1170.51	85.04
1173.4	96.0508
1176.3	91.5107
1179.19	75.9206
1182.08	59.5929
1184.97	50.2896
1187.87	49.9428
1190.76	48.7055
1193.65	48.0104
1196.55	45.7249
1199.44	42.9207
1202.33	34.7455
1205.22	28.4467
1208.12	24.6428
1211.01	22.9934
1213.9	15.1916
1216.79	12.737
1219.69	10.2694
1222.58	10.0454
1225.47	9.85082
1228.37	4.24477
1231.26	4.09465
1234.15	4.68213
1237.04	4.13602
1239.93	0.511322
1242.83	0.893143
1245.72	0.105667
1248.61	1.41156
1251.51	0.052078
1254.4	0.701874
1257.29	1.0955
1260.18	2.53424
1263.08	3.2498
1265.97	1.2283
1268.86	0.902847
1271.76	0.793365
1274.65	0.568558
1277.54	1.49497
1280.43	2.48729
1283.33	1.07735
