Measurement: Raman, 780 nm, unoriented, Raman Data Processed
Mineral: Tsaregorodtsevite
Rruff sample: R060033
Ideal chemistry: N(CH_3_)_4_Si_4_(SiAl)O_12_
Locality: Yaruta, Man-Hambo Mountain Range, North Urals, Russia
Source: University of Arizona Mineral Museum
Description: Tan colored pseudo cubo-dodecahedra
Measured chemistry: N(CH_3_)_4_Si_4.00_(Si_1.00_Al_1.00_)_Î£=2_O_12_
Raman shift (cm-1)	intensity
139.289	0
142.182	0.418015
145.074	2.51717
147.967	7.11868
150.86	12.0048
153.752	14.3481
156.645	17.7584
159.538	17.9148
162.431	20.4989
165.323	19.9289
168.216	20.0862
171.109	19.2772
174.001	17.1604
176.894	13.8478
179.787	12.3774
182.679	8.90021
185.572	7.98358
188.465	5.76123
191.358	4.35339
194.25	0.973404
197.143	0.48381
200.036	0.566284
202.928	0.460022
205.821	0.190186
208.714	0.599258
211.607	0.413727
214.499	0.848251
217.392	2.01016
220.285	2.81145
223.177	3.65027
226.07	3.54437
228.963	6.47923
231.855	6.42943
234.748	9.02623
237.641	11.0691
240.533	12.5985
243.426	14.8268
246.319	15.1604
249.212	15.9392
252.104	13.9417
254.997	12.2148
257.89	7.71586
260.782	7.38549
263.675	4.21536
266.568	3.70567
269.46	2.84158
272.353	1.90023
275.246	2.13139
278.139	0.324669
281.031	0.39061
283.924	0.339935
286.817	0.878456
289.709	0.59137
292.602	0.784134
295.495	0.230438
298.387	0.654175
301.28	1.83139
304.173	1.56609
307.065	4.42032
309.958	3.9624
312.851	5.87335
315.744	5.18606
318.636	6.65421
321.529	9.99996
324.422	12.6982
327.314	13.4801
330.207	17.9207
333.1	20.1316
335.993	18.9109
338.885	18.3139
341.778	13.2786
344.671	10.6503
347.563	11.6161
350.456	18.4618
353.349	27.9121
356.241	39.068
359.134	58.7472
362.027	82.3035
364.92	123.552
367.812	169.274
370.705	159.122
373.598	106.996
376.49	59.2069
379.383	25.1894
382.276	11.3534
385.168	3.49577
388.061	0.966583
390.954	0.819038
393.846	1.13248
396.739	0.480049
399.632	2.04019
402.525	4.64095
405.417	8.3305
408.31	13.9647
411.203	18.7454
414.095	29.1769
416.988	47.9001
419.881	74.64
422.774	106.535
425.666	146.293
428.559	198.684
431.452	281.753
434.344	381.431
437.237	452.926
440.13	414.931
443.022	314.274
445.915	252.095
448.808	227.654
451.7	213.944
454.593	196.976
457.486	173.409
460.379	153.437
463.271	133.405
466.164	106.312
469.057	69.0983
471.949	37.897
474.842	22.7429
477.735	15.0981
480.627	10.1057
483.52	6.67958
486.413	5.6282
489.305	4.14482
492.198	2.63799
495.091	0.598984
497.984	0.958496
500.876	1.04762
503.769	1.0429
506.662	0.544991
509.554	0.070343
512.447	0.509407
515.34	0.115318
518.232	0.247246
521.125	0.504341
524.018	0.115585
526.911	1.13552
529.803	2.32293
532.696	0.206268
535.589	0.603622
538.481	0.15757
541.374	1.43714
544.267	1.22721
547.159	2.38511
550.052	3.30263
552.945	3.92888
555.838	3.58456
558.73	4.48594
561.623	4.27474
564.516	5.69108
567.408	6.53921
570.301	5.68064
573.194	6.53104
576.087	7.96231
578.979	8.15785
581.872	9.22067
584.765	10.1685
587.657	10.8282
590.55	11.1681
593.443	11.1155
596.335	10.6727
599.228	9.34181
602.121	9.33075
605.014	8.97926
607.906	8.51537
610.799	8.0097
613.692	6.32882
616.584	5.55064
619.477	6.8177
622.37	5.30586
625.262	5.19593
628.155	4.07682
631.048	2.8466
633.941	3.42627
636.833	3.60717
639.726	2.663
642.619	2.97681
645.511	3.72324
648.404	4.15944
651.297	3.07307
654.189	2.67283
657.082	2.03816
659.975	0.584511
662.867	0.031555
665.76	0.299248
668.653	0.030655
671.546	1.06516
674.438	0.538391
677.331	0.931465
680.224	0.454872
683.116	0.130035
686.009	0.159554
688.902	0.187462
691.794	0.559349
694.687	0.763313
697.58	0.70356
700.473	0.84066
703.365	0.461143
706.258	1.56193
709.151	2.33408
712.043	0.577232
714.936	2.8644
717.829	4.73775
720.721	7.96015
723.614	12.1358
726.507	19.3517
729.399	29.678
732.292	44.6122
735.185	58.0828
738.078	57.6287
740.97	53.6489
743.863	54.4108
746.756	69.0682
749.648	109.022
752.541	178.126
755.434	248.819
758.327	375.943
761.219	607.029
764.112	911.392
767.005	883.829
769.897	368.82
772.79	106.516
775.683	39.9798
778.575	20.577
781.468	11.9011
784.361	6.33722
787.254	4.57062
790.146	1.66256
793.039	2.06944
795.932	1.0613
798.824	0.606941
801.717	0.058411
804.61	0.737503
807.502	1.07827
810.395	1.62056
813.288	1.38658
816.181	2.01395
819.073	1.71881
821.966	1.53966
824.859	2.02411
827.751	0.9277
830.644	1.59106
833.537	1.2623
836.429	0.523285
839.322	0.776436
842.215	1.0811
845.107	0.155861
848	0.124176
850.893	0.325111
853.786	0.445431
856.678	0.211044
859.571	0.497368
862.464	0.350651
865.356	0.510712
868.249	0.175274
871.142	0.480015
874.034	0.702034
876.927	0.844639
879.82	0.563602
882.713	0.170654
885.605	0.417107
888.498	0.072704
891.391	2.78962
894.283	3.70494
897.176	5.95704
900.069	6.77969
902.962	7.29877
905.854	8.47253
908.747	9.38629
911.64	8.02901
914.532	8.76021
917.425	10.1449
920.318	11.0891
923.21	12.8917
926.103	15.9001
928.996	17.73
931.889	19.7907
934.781	21.7594
937.674	26.4068
940.567	38.458
943.459	60.5645
946.352	95.8169
949.245	148.801
952.137	218.936
955.03	302.31
957.923	354.079
960.816	316.134
963.708	207.931
966.601	108.679
969.494	56.0064
972.386	31.0914
975.279	21.995
978.172	16.5426
981.064	14.035
983.957	12.4375
986.85	12.1339
989.742	12.4438
992.635	11.9711
995.528	12.4085
998.421	13.5453
1001.31	14.2127
1004.21	14.091
1007.1	13.6073
1009.99	12.5623
1012.88	10.7983
1015.78	9.02512
1018.67	7.90522
1021.56	5.82047
1024.45	3.21354
1027.35	1.18159
1030.24	0.346088
1033.13	0.228706
1036.03	0.094624
1038.92	0.552586
1041.81	0.242744
1044.7	0.075302
1047.6	0.928368
1050.49	0.126556
1053.38	0.270763
1056.28	0.290676
1059.17	0.541725
1062.06	1.24641
1064.95	1.31447
1067.85	1.23781
1070.74	1.04346
1073.63	0.846531
1076.52	2.25993
1079.42	1.7772
1082.31	2.4401
1085.2	0.785957
1088.09	1.03357
1090.99	1.0436
1093.88	0.721096
1096.77	0.406338
1099.66	1.24725
1102.56	0.250492
1105.45	0.455898
1108.34	0.574997
1111.24	1.01104
1114.13	0.855083
1117.02	0.443638
1119.91	0.450985
1122.81	2.26875
1125.7	1.54971
1128.59	2.40544
1131.48	2.87568
1134.38	3.7566
1137.27	4.6519
1140.16	5.5291
1143.06	5.70211
1145.95	7.19032
1148.84	10.2644
1151.73	11.3483
1154.63	15.314
1157.52	18.4221
1160.41	24.2394
1163.3	31.2646
1166.2	40.2321
1169.09	50.149
1171.98	60.0587
1174.88	61.4705
1177.77	51.6246
1180.66	40.1282
1183.55	32.3145
1186.45	30.2874
1189.34	28.4052
1192.23	27.317
1195.12	26.3761
1198.02	23.5789
1200.91	19.7696
1203.8	16.9761
1206.69	13.2602
1209.59	10.3974
1212.48	9.20424
1215.37	5.69628
1218.27	5.31977
1221.16	3.68931
1224.05	3.09885
1226.94	1.61355
1229.84	1.48811
1232.73	1.84364
1235.62	0.731644
1238.52	1.09865
1241.41	0.150116
1244.3	0.533646
1247.19	0.78833
1250.09	0.171242
1252.98	1.42637
1255.87	0.287983
1258.76	1.28827
1261.66	0.344326
1264.55	0
