Measurement: Raman, 532 nm, unoriented, Raman Data Processed
Mineral: Tschermigite
Rruff sample: R050276
Ideal chemistry: NH_4_Al(SO_4_)_2_12H_2_O
Locality: near Wamsutter, Wyoming, USA
Source: Marcus Origlieri
Description: Colorless fibrous columnar aggregate
Raman shift (cm-1)	intensity
97.3625	0
100.737	4.38526
104.112	1.2564
107.487	6.62646
110.862	19.9259
114.237	47.5814
117.611	109.852
120.986	155.913
124.361	178.611
127.736	176.383
131.111	201.172
134.486	250.772
137.86	283.532
141.235	297.544
144.61	295.82
147.985	304.336
151.359	318.258
154.734	327.272
158.109	329.438
161.484	316.71
164.859	294.912
168.234	272.435
171.608	245.742
174.983	240.461
178.358	245.146
181.733	261.184
185.108	290.522
188.482	313.148
191.857	316.341
195.232	286.923
198.607	232.286
201.982	176.363
205.357	122.676
208.731	85.1952
212.106	62.0491
215.481	49.8492
218.856	45.1974
222.231	42.5344
225.606	42.5206
228.98	40.8553
232.355	35.7125
235.73	32.4742
239.105	29.9603
242.48	26.28
245.854	22.4204
249.229	13.9015
252.604	7.94953
255.979	1.86787
259.354	3.62109
262.728	4.91871
266.103	6.07751
269.478	5.70007
272.853	6.04238
276.228	1.46603
279.603	0.791451
282.977	1.99268
286.352	6.57111
289.727	9.37109
293.102	14.0479
296.477	19.1924
299.851	26.655
303.226	33.2634
306.601	41.1429
309.976	51.2302
313.351	60.0877
316.726	73.4682
320.1	83.9505
323.475	89.2582
326.85	90.5485
330.225	83.4846
333.6	72.7606
336.974	58.2862
340.349	46.0402
343.724	36.2556
347.099	27.4287
350.474	20.7194
353.849	15.7778
357.223	11.9578
360.598	7.94463
363.973	6.03555
367.348	5.79057
370.723	1.40958
374.097	0.983353
377.472	0.600384
380.847	1.12762
384.222	1.58315
387.597	1.43746
390.971	0.447983
394.346	1.67324
397.721	0.342842
401.096	1.41959
404.471	2.67481
407.846	5.42586
411.22	8.45071
414.595	16.0012
417.97	24.9646
421.345	36.9617
424.72	57.0236
428.094	81.0721
431.469	113.353
434.844	147.845
438.219	172.726
441.594	180.369
444.969	184.083
448.343	197.575
451.718	219.144
455.093	240.83
458.468	253.959
461.843	236.468
465.217	203.786
468.592	168.27
471.967	131.938
475.342	103.352
478.717	76.8793
482.091	61.2327
485.466	49.4875
488.841	39.908
492.216	35.2298
495.591	29.1644
498.966	27.2265
502.34	26.4398
505.715	28.2773
509.09	29.8209
512.465	34.576
515.84	35.8384
519.215	38.391
522.589	34.9373
525.964	36.3623
529.339	35.1672
532.714	36.6223
536.089	33.1857
539.463	29.8879
542.838	24.6691
546.213	16.2874
549.588	8.33663
552.963	3.84024
556.337	2.33945
559.712	4.11136
563.087	4.58026
566.462	4.26214
569.837	0.160347
573.212	2.43732
576.586	6.07873
579.961	14.0632
583.336	21.8273
586.711	31.55
590.086	42.3965
593.46	63.9812
596.835	89.93
600.21	122.662
603.585	163.163
606.96	215.006
610.335	273.331
613.709	314.027
617.084	306.937
620.459	271.107
623.834	231.943
627.209	199.817
630.583	167.715
633.958	136.701
637.333	108.686
640.708	84.0795
644.083	63.8602
647.457	47.812
650.832	34.9415
654.207	26.6381
657.582	18.7978
660.957	13.9615
664.332	11.3427
667.706	6.41807
671.081	5.12083
674.456	5.53443
677.831	2.99242
681.206	2.34691
684.58	1.39244
687.955	1.84646
691.33	0.159622
694.705	0.951469
698.08	0.828751
701.455	0.760735
704.829	0.610992
708.204	0.006699
711.579	0.313808
714.954	0.801285
718.329	0.126083
721.703	0.120449
725.078	0.006088
728.453	0.764896
731.828	0.580517
735.203	1.07252
738.577	1.43157
741.952	2.66021
745.327	2.75319
748.702	3.32346
752.077	3.97263
755.452	4.25839
758.826	5.07483
762.201	7.00117
765.576	6.55337
768.951	7.83964
772.326	8.02262
775.701	8.71416
779.075	9.12388
782.45	5.98027
785.825	6.74163
789.2	4.99995
792.574	3.43181
795.949	3.0998
799.324	2.51297
802.699	1.9005
806.074	1.74074
809.449	1.36323
812.823	1.37819
816.198	0.727604
819.573	0.329952
822.948	0.960438
826.323	0.593712
829.697	1.27468
833.072	1.16922
836.447	1.41219
839.822	3.04285
843.197	3.25047
846.572	3.85507
849.946	4.07104
853.321	5.181
856.696	6.89198
860.071	5.87268
863.446	8.00687
866.821	8.16487
870.195	6.71537
873.57	8.117
876.945	7.17321
880.32	6.90644
883.695	7.32095
887.069	6.06006
890.444	5.16115
893.819	4.60693
897.194	3.84056
900.569	2.32549
903.943	1.31696
907.318	0.707298
910.693	0.3451
914.068	0.284378
917.443	1.16002
920.818	0.039795
924.192	0.617218
927.567	0.421997
930.942	1.4428
934.317	3.62387
937.692	6.41482
941.067	6.99831
944.441	11.6138
947.816	18.1274
951.191	25.7393
954.566	37.4403
957.941	57.8723
961.315	84.7465
964.69	126.983
968.065	206.573
971.44	327.613
974.815	531.387
978.189	875.234
981.564	1359.67
984.939	2137.87
988.314	3906.97
991.689	5048.49
995.063	1860
998.438	565.222
1001.81	243.61
1005.19	126.805
1008.56	73.5537
1011.94	44.406
1015.31	28.0774
1018.69	16.9018
1022.06	10.2361
1025.44	6.10964
1028.81	4.20433
1032.19	1.18385
1035.56	1.2909
1038.94	2.37481
1042.31	1.81802
1045.69	1.68758
1049.06	0.39016
1052.43	0.21463
1055.81	0.999512
1059.18	3.51775
1062.56	3.69583
1065.93	6.04163
1069.31	11.7931
1072.68	16.6955
1076.06	23.0745
1079.43	33.1152
1082.81	43.4239
1086.18	55.1354
1089.56	67.4655
1092.93	82.9321
1096.31	92.5257
1099.68	96.7592
1103.06	100.417
1106.43	103.397
1109.81	104.513
1113.18	105.937
1116.56	119.306
1119.93	143.117
1123.31	178.88
1126.68	225.029
1130.06	265.495
1133.43	268.434
1136.81	219.666
1140.18	154.468
1143.56	100.392
1146.93	66.904
1150.31	46.4419
1153.68	32.9354
1157.06	22.5649
1160.43	17.1505
1163.8	14.1458
1167.18	9.99865
1170.55	6.52188
1173.93	5.23457
1177.3	4.45743
1180.68	3.30025
1184.05	1.27916
1187.43	1.86958
1190.8	1.0074
1194.18	0.665802
1197.55	0.077011
1200.93	0.702633
1204.3	0.903282
1207.68	0.498562
1211.05	1.78124
1214.43	0.217464
1217.8	0.481495
1221.18	0.322338
1224.55	0.429874
1227.93	1.81889
1231.3	1.16758
1234.67	2.74993
1238.05	1.19663
1241.42	3.72915
1244.8	3.41233
1248.17	3.29007
1251.55	1.54678
1254.92	0.738697
1258.3	0.749981
1261.67	0.915764
1265.05	1.15306
1268.42	0.981606
1271.8	0.53101
1275.17	1.46082
1278.55	1.48275
1281.92	1.95449
1285.3	1.12271
1288.67	1.91081
