Measurement: Raman, 514 nm, unoriented, Raman Data Processed
Mineral: Tschermigite
Rruff sample: R050276
Ideal chemistry: NH_4_Al(SO_4_)_2_12H_2_O
Locality: near Wamsutter, Wyoming, USA
Source: Marcus Origlieri
Description: Colorless fibrous columnar aggregate
Raman shift (cm-1)	intensity
98.947	0
103.124	204.746
107.3	309.894
111.473	571
115.644	877.191
119.813	708.923
123.981	513.284
128.146	470.702
132.309	505.493
136.47	854.384
140.63	1363.29
144.787	1262.23
148.942	916.364
153.096	862.155
157.247	793.814
161.396	697.077
165.544	608.26
169.689	516.085
173.833	548.872
177.974	572.587
182.114	714.473
186.251	905.946
190.387	1179.08
194.52	882.246
198.652	561.403
202.782	535.388
206.909	382.008
211.035	412.604
215.159	350.325
219.281	334.585
223.4	395.174
227.518	452.255
231.634	456.889
235.748	361.233
239.86	339.174
243.97	318.626
248.079	234.438
252.185	240.14
256.289	148.954
260.391	49.445
264.492	143.74
268.59	99.245
272.687	123.096
276.781	65.167
280.874	55.047
284.964	2.487
289.053	16.7
293.14	119.622
297.225	107.575
301.308	105.874
305.389	20.221
309.468	133.584
313.545	37.077
317.62	102.81
321.693	70.314
325.765	32.625
329.834	34.677
333.902	4.405
337.967	153.541
342.031	18.863
346.093	10.478
350.153	22.012
354.21	28.834
358.267	2.075
362.321	107.727
366.373	66.08
370.423	34.182
374.471	14.063
378.518	138.773
382.563	210.427
386.605	28.801
390.646	161.409
394.685	81.569
398.722	89.867
402.757	59.123
406.79	67.166
410.821	190.255
414.851	286.521
418.878	170.835
422.904	90.924
426.927	368.062
430.949	240.049
434.969	404.984
438.987	630.848
443.003	596.657
447.018	659.411
451.03	513.543
455.041	566.809
459.049	591.325
463.056	702.14
467.061	642.203
471.064	508.068
475.065	323.5
479.064	333.998
483.062	181.026
487.057	159.798
491.051	64.179
495.043	138.653
499.032	137.25
503.02	280.878
507.007	229.645
510.991	259.003
514.973	272.121
518.954	270.362
522.933	235.752
526.91	255.919
530.885	283.812
534.858	223.223
538.829	344.808
542.799	491.977
546.766	153.183
550.732	61.77
554.696	300.99
558.658	177.936
562.618	164.688
566.576	112.546
570.533	176.972
574.488	223.799
578.44	187.868
582.391	90.513
586.341	227.73
590.288	372.864
594.233	257.029
598.177	373.463
602.119	526.26
606.059	562.057
609.997	697.476
613.933	673.136
617.868	822.939
621.801	489.736
625.731	925.132
629.66	634.589
633.588	765.24
637.513	552.356
641.437	591.279
645.358	415.594
649.278	304.375
653.196	458.519
657.113	185.615
661.027	291.631
664.94	142.639
668.851	105.262
672.76	87.488
676.667	222.289
680.572	207.326
684.476	159.309
688.378	103.871
692.278	221.973
696.176	49.746
700.072	160.715
703.967	325.66
707.86	62.035
711.751	31.705
715.64	305.207
719.527	234.365
723.413	155.965
727.297	213.436
731.179	30.336
735.059	31.957
738.937	149.441
742.814	58.943
746.689	253.311
750.562	58.555
754.433	100.658
758.303	236.52
762.17	2.832
766.036	34.346
769.901	144.936
773.763	285.986
777.624	122.688
781.482	105.26
785.339	135.711
789.195	112.041
793.048	232.197
796.9	216.131
800.75	89.949
804.598	204.639
808.445	154.131
812.289	227.484
816.132	113.738
819.973	43.57
823.813	192.029
827.65	174.113
831.486	172.035
835.32	110.875
839.152	223.625
842.983	52.703
846.812	73.684
850.639	200.396
854.464	87.264
858.288	246.479
862.11	185.246
865.93	206.48
869.748	198.605
873.564	197.789
877.379	46.791
881.192	242.176
885.004	321.945
888.813	510.561
892.621	436.986
896.427	254.855
900.232	241.432
904.034	471.062
907.835	524.895
911.634	220.342
915.432	485.262
919.227	294.738
923.021	278.895
926.813	368.689
930.604	524.293
934.393	328.188
938.18	554.105
941.965	497.5
945.749	343.564
949.53	429.607
953.311	503.938
957.089	687.85
960.866	793.238
964.641	1020.17
968.414	1409.43
972.185	1884.43
975.955	2970.09
979.723	4641.91
983.49	7539.67
987.254	17641.9
991.017	35169.7
994.779	12739.9
998.538	3840.78
1002.3	1421.39
1006.05	911.883
1009.81	642.586
1013.56	605.316
1017.31	561.537
1021.06	344.43
1024.81	437.596
1028.55	228.74
1032.3	188.984
1036.04	171.387
1039.78	316.084
1043.52	352.754
1047.26	252
1050.99	246.984
1054.73	207.701
1058.46	351.582
1062.19	344.705
1065.92	252.223
1069.65	191.629
1073.37	533.777
1077.1	311.98
1080.82	436.119
1084.54	687.98
1088.26	775.703
1091.97	572.184
1095.69	927.82
1099.4	717.234
1103.12	513.619
1106.83	231.641
1110.54	475.891
1114.24	373.074
1117.95	322.047
1121.65	317.193
1125.35	460.631
1129.06	294.049
1132.75	579.688
1136.45	806.053
1140.15	94.396
1143.84	275.449
1147.53	164.357
1151.22	69.713
1154.91	6.27
1158.6	5.545
1162.28	15.002
1165.97	206.273
1169.65	37.535
1173.33	15.105
1177.01	214.74
1180.69	57.205
1184.36	10.156
1188.04	120.939
1191.71	284.812
1195.38	9.67
1199.05	27.088
1202.71	343.533
1206.38	32.711
1210.04	168.195
1213.71	263.357
1217.37	100.355
1221.03	257.184
1224.68	245.82
1228.34	441.027
1231.99	274.451
1235.65	408.395
1239.3	184.061
1242.95	272.529
1246.59	485.754
1250.24	382.926
1253.88	203.008
1257.53	25.809
1261.17	145.344
1264.81	415.828
1268.45	426.697
1272.08	101.48
1275.72	139.334
1279.35	309.627
1282.98	82.295
1286.61	236.238
1290.24	192.375
1293.87	162.814
1297.49	60.02
1301.11	281.26
1304.73	194.469
1308.36	273.521
1311.97	179.756
1315.59	332.049
1319.2	163.795
1322.82	290.436
1326.43	345.865
1330.04	195.975
1333.65	27.832
1337.26	0.727
1340.86	329.219
1344.47	158.58
1348.07	117.486
1351.67	20.92
