Measurement: Raman, 780 nm, unoriented, Raman Data Processed
Mineral: Tschermigite
Rruff sample: R050276
Ideal chemistry: NH_4_Al(SO_4_)_2_12H_2_O
Locality: near Wamsutter, Wyoming, USA
Source: Marcus Origlieri
Description: Colorless fibrous columnar aggregate
Raman shift (cm-1)	intensity
97.0119	0
100.387	2.35232
103.761	0.721634
107.136	2.23528
110.511	6.99742
113.886	18.7918
117.261	26.1106
120.636	20.9507
124.01	10.1855
127.385	3.72563
130.76	7.47742
134.135	13.0543
137.51	23.3698
140.885	32.9901
144.259	40.8766
147.634	51.4196
151.009	60.8084
154.384	69.2019
157.759	74.0759
161.133	72.2579
164.508	65.6261
167.883	58.4662
171.258	54.4141
174.633	52.8513
178.007	60.9034
181.382	73.9917
184.757	88.4646
188.132	97.527
191.507	100.876
194.882	89.0631
198.256	69.5056
201.631	46.7154
205.006	26.6759
208.381	14.4401
211.756	8.76543
215.131	5.87074
218.505	4.84354
221.88	6.5472
225.255	7.15003
228.63	8.19318
232.005	8.98674
235.379	8.00754
238.754	9.37271
242.129	8.32099
245.504	7.91039
248.879	5.81353
252.253	3.36842
255.628	0.837925
259.003	0.071129
262.378	0.529594
265.753	1.43531
269.127	1.57291
272.502	1.18998
275.877	0.558151
279.252	1.19896
282.627	2.17034
286.002	4.07945
289.376	5.87532
292.751	7.01927
296.126	9.12524
299.501	11.1379
302.876	14.334
306.25	17.5018
309.625	20.4097
313	22.3604
316.375	26.0435
319.75	29.0337
323.125	29.8195
326.499	30.0026
329.874	28.0263
333.249	23.0718
336.624	19.9227
339.999	16.5307
343.373	12.5454
346.748	10.9069
350.123	8.11303
353.498	5.99061
356.873	4.232
360.248	2.97266
363.622	1.37125
366.997	1.6484
370.372	1.20708
373.747	0.674421
377.122	0.201298
380.497	1.06265
383.871	1.20358
387.246	0.910786
390.621	0.313583
393.996	0.014679
397.37	0.23572
400.745	0.165272
404.12	0.701065
407.495	2.33593
410.87	4.35359
414.245	6.92379
417.619	11.0608
420.994	15.6304
424.369	23.605
427.744	32.4488
431.119	43.6616
434.493	54.6962
437.868	64.5484
441.243	69.5931
444.618	69.0408
447.993	72.283
451.368	78.2822
454.742	87.0367
458.117	89.9183
461.492	83.9199
464.867	72.8243
468.242	59.3349
471.616	49.2208
474.991	37.8577
478.366	28.8073
481.741	22.3482
485.116	16.7607
488.491	14.1528
491.865	12.2787
495.24	9.52831
498.615	9.48118
501.99	9.36919
505.365	10.6036
508.74	12.2411
512.114	11.8884
515.489	13.6253
518.864	12.4163
522.239	13.7247
525.614	13.0915
528.988	13.4555
532.363	13.4215
535.738	12.6584
539.113	11.5874
542.488	8.9093
545.862	6.41426
549.237	4.31532
552.612	1.21925
555.987	0.889709
559.362	1.20503
562.737	1.97844
566.111	0.948219
569.486	0.158794
572.861	1.0208
576.236	3.03066
579.611	5.61014
582.986	8.03802
586.36	12.8864
589.735	17.1443
593.11	26.2028
596.485	35.115
599.86	46.5665
603.234	60.1798
606.609	77.0475
609.984	96.024
613.359	109.303
616.734	108.948
620.108	96.0914
623.483	83.1163
626.858	71.9378
630.233	60.1641
633.608	49.0238
636.982	39.512
640.357	31.2336
643.732	22.9058
647.107	17.6288
650.482	13.1134
653.857	9.61655
657.231	6.7025
660.606	5.92952
663.981	4.06708
667.356	2.55442
670.731	1.68388
674.106	1.92302
677.48	1.08958
680.855	0.968491
684.23	0.427774
687.605	0.777176
690.98	0.668255
694.354	0.25684
697.729	0.377539
701.104	0.127792
704.479	0.165199
707.854	0.062265
711.229	0.189592
714.603	0.280783
717.978	0.084333
721.353	0.080055
724.728	0.053764
728.102	0.206005
731.477	0.586452
734.852	0.161398
738.227	1.10062
741.602	0.824631
744.977	1.1361
748.351	1.49872
751.726	1.19551
755.101	1.08437
758.476	2.59407
761.851	2.61011
765.226	2.06868
768.6	2.45793
771.975	3.13788
775.35	3.12952
778.725	2.71166
782.1	2.48362
785.474	1.94211
788.849	1.75083
792.224	0.982082
795.599	0.925652
798.974	0.713694
802.348	0.430696
805.723	0.272409
809.098	0.636387
812.473	0.645555
815.848	0.190535
819.223	0.267385
822.597	0.255793
825.972	0.266123
829.347	0.014965
832.722	0.576052
836.097	0.603331
839.471	0.556097
842.846	1.36456
846.221	1.5176
849.596	2.303
852.971	2.21232
856.346	2.03884
859.72	1.97154
863.095	3.02122
866.47	2.61741
869.845	2.75895
873.22	3.84358
876.595	2.43415
879.969	2.73454
883.344	2.52315
886.719	2.69615
890.094	2.48226
893.469	1.48652
896.843	1.13192
900.218	0.805843
903.593	1.42989
906.968	0.094761
910.343	0.196337
913.717	0.337381
917.092	0.170147
920.467	0.461308
923.842	0.319948
927.217	0.741615
930.591	0.13422
933.966	1.01218
937.341	1.32376
940.716	2.36633
944.091	3.77302
947.466	5.51279
950.84	9.63545
954.215	13.71
957.59	20.4341
960.965	31.5077
964.34	47.0126
967.715	75.4764
971.089	120.321
974.464	202.893
977.839	338.704
981.214	473.295
984.589	701.843
987.963	1172.27
991.338	1649.69
994.713	658.524
998.088	195.801
1001.46	81.9284
1004.84	43.5969
1008.21	23.9177
1011.59	15.09
1014.96	8.79669
1018.34	5.10769
1021.71	2.48222
1025.09	1.74897
1028.46	0.801121
1031.84	0.276499
1035.21	0.449215
1038.59	0.179886
1041.96	0.525751
1045.34	0.15062
1048.71	0.555819
1052.09	0.328806
1055.46	0.344948
1058.84	0.887575
1062.21	0.968908
1065.58	2.04256
1068.96	3.64967
1072.33	5.43276
1075.71	7.71574
1079.08	10.3667
1082.46	13.9569
1085.83	18.3598
1089.21	22.3116
1092.58	27.3838
1095.96	31.5182
1099.33	32.4174
1102.71	32.5332
1106.08	32.1258
1109.46	33.5946
1112.83	36.344
1116.21	38.8449
1119.58	46.2059
1122.96	57.7439
1126.33	71.5095
1129.71	82.2749
1133.08	82.362
1136.45	67.8998
1139.83	48.5359
1143.2	32.3307
1146.58	21.9141
1149.95	15.1267
1153.33	10.2003
1156.7	7.40099
1160.08	5.64556
1163.45	3.79979
1166.83	3.12887
1170.2	2.49809
1173.58	1.84333
1176.95	1.2496
1180.33	1.24575
1183.7	0.862303
1187.08	0.516057
1190.45	0.465165
1193.83	0.359583
1197.2	0.151735
1200.58	0.4342
1203.95	0.142423
1207.33	0.157865
1210.7	0.073616
1214.08	0.291101
1217.45	0.223598
1220.83	0.471972
1224.2	0.259369
1227.58	0.410873
1230.95	1.12746
1234.33	0.819907
1237.7	1.32664
1241.08	1.23073
1244.45	0.493164
1247.82	0.538115
1251.2	0.514709
1254.57	0.523368
1257.95	0.48806
1261.32	0.534905
1264.7	0.171006
1268.07	0.000899
1271.45	0.313267
1274.82	0.239299
1278.2	0
