Measurement: Raman, 785 nm, unoriented, Raman Data Processed
Mineral: Tsepinite-K
Rruff sample: R070215
Ideal chemistry: (K,Ba,Na)_2_(Ti,Nb)_2_Si_4_O_12_(OH,O)_2_3H_2_O
Locality: Karnasurt Mt, Lovozero Massif, Kola Peninsula, Murmanskaya Oblast'; Northern Region, Russia
Source: Michael Scott
Description: Light orange acicular crystals
Raman shift (cm-1)	intensity
188.516	0
191.408	23.7695
194.301	55.0469
197.194	383.282
200.087	815.092
202.979	1248.33
205.872	1717.7
208.765	1965.67
211.657	2294.85
214.55	2553.8
217.443	2907.55
220.335	2966.37
223.228	3032.95
226.121	2778.36
229.013	2478.1
231.906	2080.05
234.799	1666.45
237.692	1434.08
240.584	1287.02
243.477	1191.71
246.37	1069.68
249.262	720.32
252.155	532.184
255.048	453.685
257.941	308.941
260.833	359.127
263.726	308.502
266.619	310.19
269.511	459.671
272.404	504.92
275.297	721.858
278.19	883.552
281.082	1010.95
283.975	1169.67
286.868	1338.4
289.76	1505.22
292.653	1618.3
295.546	1869.67
298.438	2199.72
301.331	2587.22
304.224	3019.43
307.116	3351.16
310.009	3553.12
312.902	3614.91
315.795	3328.02
318.687	3113.56
321.58	2966.58
324.473	3061.55
327.365	3102.77
330.258	3234.44
333.151	3259.5
336.043	3144.08
338.936	2777.13
341.829	2310.07
344.721	1944.47
347.614	1678.73
350.507	1475.26
353.4	1505.23
356.292	1244.66
359.185	1006.09
362.078	668.69
364.97	521.943
367.863	218.802
370.756	79.0264
373.649	34.2441
376.541	38.8154
379.434	106.656
382.327	155.664
385.219	165.118
388.112	146.261
391.005	98.3516
393.897	21.0957
396.79	74.7471
399.683	184.339
402.575	258.251
405.468	343.482
408.361	353.813
411.254	449.672
414.146	526.018
417.039	674.611
419.932	908.182
422.824	1111.2
425.717	1403.16
428.61	1506.26
431.502	1743.1
434.395	1835.16
437.288	1910.06
440.181	1843.83
443.073	1838.23
445.966	1595.82
448.859	1279.46
451.751	859.934
454.644	573.083
457.537	204.223
460.43	75.2647
463.322	65.2139
466.215	148.353
469.108	449.224
472	901.833
474.893	1636.06
477.786	2757.89
480.678	4078.34
483.571	5738.57
486.464	7202.98
489.356	7928.9
492.249	7087.58
495.142	4895.4
498.035	2871.1
500.927	1579.1
503.82	959.628
506.713	888.355
509.605	1098.26
512.498	1714.84
515.391	2496.5
518.284	3433.57
521.176	4444.46
524.069	5303.35
526.962	5595.76
529.854	5390.05
532.747	4723.22
535.64	3907.48
538.533	3168.24
541.425	2453.11
544.318	1884.65
547.211	1504.22
550.103	1068.25
552.996	799.733
555.889	576.217
558.781	454.615
561.674	370.523
564.567	308.28
567.459	281.368
570.352	212.326
573.245	190.467
576.138	125.576
579.03	199.22
581.923	156.019
584.816	164.006
587.708	174.817
590.601	140.035
593.494	56.4346
596.386	60.627
599.279	31.6123
602.172	91.8975
605.064	83.71
607.957	44.001
610.85	55.9033
613.743	58.7578
616.635	60.6826
619.528	86.1494
622.421	104.47
625.313	4.36133
628.206	37.7373
631.099	2.74023
633.991	7.53125
636.884	93.6103
639.777	84.5361
642.67	160.119
645.562	296.022
648.455	467.19
651.348	516.116
654.24	703.086
657.133	814.993
660.026	941.878
662.918	1009.25
665.811	1178.74
668.704	1116.45
671.597	1107.77
674.489	1061.65
677.382	932.566
680.275	807.662
683.167	580.119
686.06	525.28
688.953	337.88
691.846	279.844
694.738	202.573
697.631	165.026
700.524	68.2129
703.416	104.199
706.309	65.1953
709.202	117.524
712.094	158.385
714.987	310.567
717.88	352.768
720.773	533.766
723.665	732.688
726.558	863.457
729.451	973.474
732.343	1091.36
735.236	1168.33
738.129	1368.08
741.021	1495.42
743.914	1589.02
746.807	1558.78
749.699	1623.97
752.592	1637.72
755.485	1616.42
758.378	1496.69
761.27	1312.54
764.163	1250.73
767.056	1197.19
769.948	1043.05
772.841	982.684
775.734	862.309
778.626	821.945
781.519	707.027
784.412	699.057
787.305	756.497
790.197	692.09
793.09	701.752
795.983	648.566
798.875	624.793
801.768	587.944
804.661	564.049
807.553	456.412
810.446	467.94
813.339	406.409
816.232	391.099
819.124	399.6
822.017	330.423
824.91	228.455
827.802	180.459
830.695	176.668
833.588	107.999
836.481	0.936035
839.373	23.9238
842.266	4.07568
845.159	45.6538
848.051	84.2085
850.944	77.1328
853.837	78.3345
856.729	39.0493
859.622	6.68457
862.515	60.5566
865.408	288.827
868.3	548.449
871.193	900.872
874.086	1376.79
876.978	1816.18
879.871	2157.43
882.764	2383.44
885.656	2188.85
888.549	1938.2
891.442	1719.81
894.335	1488.89
897.227	1291.1
900.12	1282.14
903.013	1271.32
905.905	1246.16
908.798	1246.85
911.691	1215.23
914.583	1336.1
917.476	1442.52
920.369	1564.95
923.261	1797.86
926.154	2183.38
929.047	2546.18
931.94	2922.36
934.832	3377.25
937.725	3712.15
940.618	3834.07
943.51	3969.67
946.403	4091.02
949.296	3908.06
952.188	3820.52
955.081	3447.6
957.974	2978.03
960.867	2342.9
963.759	1655.7
966.652	1101.27
969.545	609.761
972.437	323.908
975.33	156.249
978.223	41.3813
981.115	24.5303
984.008	20.4521
986.901	9.89941
989.794	19.9092
992.686	2.92676
995.579	18.3574
998.472	7.99951
1001.36	7.34277
1004.26	17.7651
1007.15	49.9868
1010.04	43.3115
1012.93	32.2978
1015.83	53.0747
1018.72	71.9331
1021.61	111.979
1024.51	205.879
1027.4	279.328
1030.29	436.011
1033.18	575.519
1036.08	731.655
1038.97	927.549
1041.86	1095.65
1044.76	1274.01
1047.65	1394.55
1050.54	1362.54
1053.43	1317.58
1056.33	1153.41
1059.22	1045.85
1062.11	846.817
1065	663.238
1067.9	561.45
1070.79	449.6
1073.68	371.846
1076.58	282.009
1079.47	261.875
1082.36	206.718
1085.25	159.345
1088.14	75.022
1091.04	57.311
1093.93	26.4439
1096.82	37.1782
1099.72	47.3565
1102.61	23.9138
1105.5	20.4319
1108.39	9.90796
1111.29	17.2373
1114.18	10.5007
1117.07	44.0523
1119.96	29.876
1122.86	79.4009
1125.75	1.23511
1128.64	60.3752
1131.54	38.6162
1134.43	70.6482
1137.32	24.9834
1140.21	48.6694
1143.11	57.8076
1146	17.7783
1148.89	78.9683
1151.79	79.093
1154.68	65.7288
1157.57	62.0371
1160.46	60.302
1163.36	45.0691
1166.25	82.8865
1169.14	26.2341
1172.03	86.6973
1174.93	39.9299
1177.82	28.616
1180.71	25.0132
1183.6	50.686
1186.5	32.9761
1189.39	1.75488
1192.28	39.8071
1195.17	21.2004
1198.07	41.7192
1200.96	35.9482
1203.85	4.27734
1206.75	26.1025
1209.64	50.0938
1212.53	24.8777
1215.42	51.676
1218.32	33.1653
1221.21	13.738
1224.1	15.4292
1226.99	36.6382
