Measurement: Raman, 532 nm, unoriented, Raman Data Processed
Mineral: Tsepinite-K
Rruff sample: R070215
Ideal chemistry: (K,Ba,Na)_2_(Ti,Nb)_2_Si_4_O_12_(OH,O)_2_3H_2_O
Locality: Karnasurt Mt, Lovozero Massif, Kola Peninsula, Murmanskaya Oblast'; Northern Region, Russia
Source: Michael Scott
Description: Light orange acicular crystals
Raman shift (cm-1)	intensity
170.393	0
173.286	125.539
176.178	345.705
179.071	98.4199
181.964	66.6152
184.856	41.1484
187.749	251.707
190.642	466.744
193.535	1084.9
196.427	2090.18
199.32	2950.76
202.213	3814.04
205.105	4587.9
207.998	5307.27
210.891	5820.26
213.783	5959.21
216.676	6072.92
219.569	6016.72
222.462	5625.57
225.354	5317.05
228.247	4632.88
231.14	4022.78
234.032	3467.41
236.925	2791.27
239.818	2422.77
242.71	2028.84
245.603	1831.42
248.496	1616.9
251.388	1327.88
254.281	1352.89
257.174	1321.81
260.067	1318.63
262.959	1529.96
265.852	1635.75
268.745	1832.26
271.637	2014.92
274.53	2464.34
277.423	2782.65
280.315	3011.21
283.208	3145.88
286.101	3196.63
288.994	3663.3
291.886	4022.26
294.779	4580.47
297.672	4993.56
300.564	5695.48
303.457	6218.9
306.35	6673.06
309.243	6830.64
312.135	6737.29
315.028	6227.79
317.921	5788.33
320.813	5399.78
323.706	5265.65
326.599	5090.18
329.491	5163.32
332.384	5244.18
335.277	5165.72
338.17	4705.98
341.062	4512.98
343.955	4246.06
346.848	3940.36
349.74	3903.45
352.633	3538.04
355.526	2980.66
358.418	2232
361.311	1570.37
364.204	1072.58
367.097	526.326
369.989	225.853
372.882	122.961
375.775	479.088
378.667	292.59
381.56	400.131
384.453	375.926
387.346	353.459
390.238	45.2129
393.131	18.9727
396.024	225.82
398.916	462.201
401.809	524.957
404.702	598.969
407.594	632.066
410.487	655.992
413.38	789.519
416.272	966.957
419.165	1354.67
422.058	1941.44
424.951	2486.99
427.843	3100.04
430.736	3439.18
433.629	3995.81
436.521	4290.7
439.414	4441.1
442.307	4143.44
445.2	3713.67
448.092	2979.37
450.985	1988.92
453.878	1315.29
456.77	503.828
459.663	178.191
462.556	40.0586
465.448	474.035
468.341	1278.01
471.234	2764.8
474.127	5120.04
477.019	8164.91
479.912	12015
482.805	15934.6
485.697	19297.4
488.59	20145.1
491.483	17348
494.375	11813.5
497.268	6638.25
500.161	3595.03
503.053	2387
505.946	2501.94
508.839	3342.14
511.732	5151.54
514.624	7645.56
517.517	10277.3
520.41	12905.2
523.302	14922
526.195	15643.8
529.088	14572.2
531.981	12673.4
534.873	10525.3
537.766	8461.91
540.659	6599.86
543.551	5165.18
546.444	4083.41
549.337	3111.84
552.229	2482.82
555.122	1830.53
558.015	1537.3
560.908	1274.81
563.8	1092.94
566.693	942.902
569.586	623.891
572.478	745.418
575.371	502.641
578.264	573.066
581.156	302.918
584.049	527.961
586.942	435.562
589.835	381.957
592.727	100.316
595.62	144.918
598.513	166.863
601.405	199.34
604.298	234.723
607.191	159.117
610.083	175.906
612.976	163.277
615.869	168.551
618.762	156.785
621.654	18.1328
624.547	8.92969
627.44	214.086
630.332	144.289
633.225	450.602
636.118	313.828
639.01	604.383
641.903	659.289
644.796	988.281
647.689	1303.07
650.581	1576.26
653.474	2054.26
656.367	2235.66
659.259	2565.13
662.152	2748.7
665.045	2948.09
667.938	2984.49
670.83	2817.18
673.723	2793.22
676.616	2516.38
679.508	2000.11
682.401	1567.5
685.294	1195.25
688.186	802.898
691.079	566.926
693.972	409.727
696.865	74.2656
699.757	140.754
702.65	85.6562
705.543	231.621
708.435	175.406
711.328	416.731
714.221	677.57
717.113	930.934
720.006	1190.28
722.899	1417.03
725.792	1993.19
728.684	2337.7
731.577	2845.53
734.47	3079.58
737.362	3529.09
740.255	3699.25
743.148	3939.02
746.04	4016.86
748.933	4036.91
751.826	4025.88
754.719	3928.39
757.611	3881.44
760.504	3604.95
763.397	3315.43
766.289	3153.43
769.182	2796.44
772.075	2551.55
774.967	2459.47
777.86	2293.89
780.753	2132.35
783.646	2196.64
786.538	2085.16
789.431	2024.94
792.324	2007.69
795.216	1971.64
798.109	1809.12
801.002	1603.74
803.894	1601.66
806.787	1383.04
809.68	1312.38
812.573	962.066
815.465	938.894
818.358	816.555
821.251	719.723
824.143	463.125
827.036	357.84
829.929	281.988
832.822	88.7305
835.714	36.4492
838.607	285.352
841.5	224.891
844.392	147.379
847.285	275.426
850.178	202.023
853.07	62.7344
855.963	20.3867
858.856	475.062
861.749	921.016
864.641	1880.88
867.534	3107.37
870.427	4486.25
873.319	6654.45
876.212	8479.23
879.105	10109.1
881.997	10703.7
884.89	10141.5
887.783	8935.71
890.676	7463.45
893.568	6449.07
896.461	5803.97
899.354	5202.94
902.246	4954.81
905.139	4927.63
908.032	4553.27
910.924	4370.27
913.817	4402.25
916.71	4516.07
919.602	4897.14
922.495	5623.44
925.388	6318.44
928.281	7443.48
931.173	8386.82
934.066	9363.53
936.959	9880.1
939.851	10596
942.744	11068.5
945.637	11124.5
948.529	11182.6
951.422	10295.7
954.315	9573.72
957.208	8348.17
960.1	6537.02
962.993	4589.41
965.886	3018.31
968.778	1568.42
971.671	676.141
974.564	229.035
977.457	73.1641
980.349	0.304688
983.242	186.352
986.135	91.6016
989.027	6.88672
991.92	195.734
994.813	131.172
997.705	11.7773
1000.6	139.531
1003.49	62.1953
1006.38	149.75
1009.28	194.328
1012.17	329.664
1015.06	551.992
1017.95	571.691
1020.85	967.75
1023.74	1297.22
1026.63	1630.86
1029.53	2283.3
1032.42	3092.67
1035.31	3943.97
1038.2	4524.62
1041.1	5195.6
1043.99	5861.93
1046.88	6164.59
1049.77	6102.07
1052.67	5736.63
1055.56	5092.7
1058.45	4343.75
1061.35	3816.11
1064.24	3100.68
1067.13	2752.47
1070.02	2148.43
1072.92	1828.87
1075.81	1354.41
1078.7	1055.11
1081.59	789.473
1084.49	759.406
1087.38	591.203
1090.27	312.59
1093.16	138.672
1096.06	208.152
1098.95	164.414
1101.84	118.555
1104.73	4.41016
1107.63	23.3086
1110.52	29.8789
1113.41	121.981
1116.31	81.1055
1119.2	29.4688
1122.09	117.211
1124.98	16.5898
1127.88	85.2109
1130.77	73.4414
1133.66	257.371
1136.56	191.844
1139.45	164.484
1142.34	273.984
1145.23	32.4805
1148.13	185.16
1151.02	284.238
1153.91	214.375
1156.8	419.004
1159.7	237.637
1162.59	358.144
1165.48	294.609
1168.38	330.391
1171.27	352.078
1174.16	333.633
1177.05	27.2539
1179.95	253.731
1182.84	157.891
1185.73	87.5625
1188.62	119.613
1191.52	263.758
1194.41	210.293
1197.3	71.5469
1200.19	269.574
1203.09	66.168
1205.98	66.4297
1208.87	105.379
1211.77	118.93
1214.66	230.82
1217.55	312.023
1220.44	223.785
1223.34	67.7227
1226.23	154.109
1229.12	251.16
1232.01	150.973
1234.91	195.773
1237.8	247.484
1240.69	179.203
1243.59	163.453
1246.48	105.246
1249.37	264.691
1252.26	197.828
1255.16	101.926
1258.05	25.5039
1260.94	226.629
1263.83	189.934
1266.73	69.1172
1269.62	118.535
1272.51	113.594
1275.4	143.531
1278.3	164.25
1281.19	131.211
1284.08	158.57
1286.98	57.5391
1289.87	175.613
1292.76	75.8516
1295.65	19.8828
1298.55	0
