Measurement: Raman, 780 nm, unoriented, Raman Data Processed
Mineral: Tsumcorite
Rruff sample: R110036
Ideal chemistry: Pb^2+^Zn^2+^_2_(As^5+^O_4_)_2_2H_2_O
Locality: Tsumeb, Namibia
Source: William W Pinch
Description: Orange wedge-shaped crystals
Raman shift (cm-1)	intensity
173.081	0
175.974	2.89368
178.867	1.26282
181.759	5.28857
184.652	38.235
187.545	69.0516
190.437	101.402
193.33	128.307
196.223	156.595
199.115	180.673
202.008	183.461
204.901	159.827
207.794	132.892
210.686	107.525
213.579	86.4871
216.472	113.077
219.364	126.145
222.257	109.564
225.15	95.012
228.042	102.348
230.935	122.117
233.828	158.143
236.721	190.842
239.613	204.478
242.506	193.835
245.399	153.115
248.291	109.424
251.184	49.4155
254.077	1.46631
256.969	28.8253
259.862	48.4733
262.755	44.4635
265.648	6.5155
268.54	73.0577
271.433	176.647
274.326	318.754
277.218	487.098
280.111	690.609
283.004	900.919
285.897	1053.92
288.789	1130.75
291.682	1071.53
294.575	930.596
297.467	733.365
300.36	561.105
303.253	434.74
306.145	379.098
309.038	403.837
311.931	500.663
314.824	661.76
317.716	871.694
320.609	1086.49
323.502	1331.19
326.394	1667.63
329.287	2076.55
332.18	2495.53
335.072	2712.48
337.965	2627.35
340.858	2331.05
343.75	2062.56
346.643	1875.75
349.536	1797.14
352.429	1751.11
355.321	1703.88
358.214	1634.16
361.107	1476.46
364	1277.81
366.892	1036.01
369.785	802.051
372.678	577.712
375.57	390.365
378.463	243.865
381.356	141.468
384.248	69.656
387.141	24.0369
390.034	15.7966
392.926	21.6562
395.819	28.5228
398.712	50.8423
401.605	68.062
404.497	29.3751
407.39	23.3827
410.283	63.2029
413.175	68.2966
416.068	31.7159
418.961	28.4133
421.853	124.624
424.746	223.038
427.639	327.49
430.532	442.63
433.424	522.477
436.317	591.931
439.21	619.184
442.102	630.817
444.995	616.722
447.888	592.618
450.781	577.834
453.673	564.31
456.566	584.888
459.459	650.95
462.351	743.82
465.244	878.753
468.137	1078.87
471.029	1360.88
473.922	1781.32
476.815	2337.14
479.707	3057.94
482.6	3970.31
485.493	5067.51
488.386	6209.48
491.278	6887.71
494.171	6538.27
497.064	5241.3
499.956	3742.47
502.849	2585.62
505.742	1815.42
508.635	1319.79
511.527	1005.55
514.42	805.654
517.313	656.771
520.205	534.319
523.098	443.193
525.991	344.706
528.883	243.415
531.776	159.548
534.669	90.1899
537.562	35.4331
540.454	3.91852
543.347	17.1188
546.24	23.1976
549.132	23.8945
552.025	18.1113
554.918	9.61368
557.81	0.98764
560.703	10.6481
563.596	19.9681
566.489	37.3866
569.381	56.312
572.274	64.3236
575.167	78.0753
578.059	93.9289
580.952	105.029
583.845	122.436
586.737	134.031
589.63	153.905
592.523	169.782
595.415	180.517
598.308	197.456
601.201	201.698
604.094	209.776
606.986	208.689
609.879	210.579
612.772	207.561
615.664	210.082
618.557	212.688
621.45	212.252
624.342	214.306
627.235	220.916
630.128	221.656
633.021	226.936
635.913	232.149
638.806	235.866
641.699	241.664
644.591	250.641
647.484	261.983
650.377	274.864
653.269	282.537
656.162	293.663
659.055	286.814
661.948	276.846
664.84	255.897
667.733	242.261
670.626	226.001
673.518	202.997
676.411	184.375
679.304	161.567
682.197	140.915
685.089	118.4
687.982	93.61
690.875	71.7794
693.767	47.8793
696.66	20.5463
699.553	3.46796
702.445	18.8741
705.338	31.9767
708.231	38.7074
711.124	45.522
714.016	40.2495
716.909	33.8893
719.802	13.5413
722.694	18.0016
725.587	43.9039
728.48	72.8101
731.372	116.491
734.265	140.222
737.158	175.334
740.051	228.918
742.943	280.845
745.836	341.083
748.729	376.89
751.621	378.843
754.514	349.699
757.407	287.931
760.299	210.827
763.192	137.432
766.085	69.4056
768.977	21.4898
771.87	9.18848
774.763	8.79529
777.656	22.8326
780.548	93.8198
783.441	182.079
786.334	319.983
789.226	512.659
792.119	791.459
795.012	1105.83
797.904	1476.46
800.797	1939.13
803.69	2468.99
806.583	3128.09
809.475	3917.63
812.368	4869.93
815.261	6026.9
818.153	7445.57
821.046	8971.51
823.939	10420.4
826.832	11607.3
829.724	12611
832.617	13262.6
835.51	13309.6
838.402	12471.6
841.295	10945.5
844.188	9149.36
847.08	7488.16
849.973	6098.26
852.866	5008.27
855.759	4096.4
858.651	3387.36
861.544	2797.95
864.437	2347.14
867.329	1954.57
870.222	1618.56
873.115	1327.62
876.007	1086.41
878.9	859.934
881.793	664.971
884.686	511.324
887.578	379.078
890.471	252.083
893.364	146.449
896.256	72.3468
899.149	6.97626
902.042	37.0241
904.934	59.7955
907.827	70.4816
910.72	66.9855
913.612	44.1843
916.505	7.85583
919.398	38.2863
922.291	85.3601
925.183	139.616
928.076	179.06
930.969	185.454
933.861	166.897
936.754	141.506
939.647	120.815
942.539	117.012
945.432	122.072
948.325	129.813
951.218	151.834
954.11	164.811
957.003	176.037
959.896	179.775
962.788	169.839
965.681	149.328
968.574	125.979
971.466	104.55
974.359	85.1798
977.252	78.9808
980.145	78.7489
983.037	85.2866
985.93	85.7793
988.823	84.288
991.715	88.3065
994.608	85.8949
997.501	81.7735
1000.39	75.163
1003.29	68.0759
1006.18	57.9097
1009.07	53.4486
1011.96	45.5231
1014.86	37.6772
1017.75	40.2464
1020.64	24.3535
1023.53	22.4317
1026.43	16.6386
1029.32	13.3959
1032.21	13.7468
1035.11	9.24402
1038	8.41269
1040.89	9.03662
1043.78	10.4211
1046.68	6.56839
1049.57	9.18396
1052.46	5.12457
1055.36	7.1209
1058.25	0.921448
1061.14	3.97133
1064.03	0.06443
1066.93	1.75028
1069.82	1.48723
1072.71	2.9317
1075.6	3.32488
1078.5	0.925026
1081.39	2.10418
1084.28	1.76674
1087.17	0.526703
1090.07	1.84442
1092.96	0.321762
1095.85	1.1095
1098.74	2.62885
1101.64	5.76589
1104.53	0.020203
1107.42	0.717644
1110.32	0.069649
1113.21	0.603943
1116.1	0.449867
1118.99	0.104469
1121.89	0.379082
1124.78	0.252838
1127.67	2.02097
1130.57	3.16297
1133.46	4.87764
1136.35	4.99686
1139.24	0.391518
1142.14	3.79677
1145.03	4.73811
1147.92	5.30741
1150.81	5.46027
1153.71	5.1519
1156.6	4.9066
1159.49	5.98671
1162.38	7.91007
1165.28	7.13621
1168.17	7.01739
1171.06	9.83461
1173.96	8.47197
1176.85	12.9416
1179.74	9.48292
1182.63	6.7125
1185.53	8.82012
1188.42	9.56548
1191.31	5.45387
1194.2	4.69135
1197.1	1.82037
1199.99	6.1387
1202.88	6.19387
1205.78	4.98854
1208.67	11.9898
1211.56	5.62061
1214.45	4.29958
1217.35	5.50206
1220.24	5.32446
1223.13	6.11357
1226.02	5.08083
1228.92	2.83815
1231.81	5.09049
1234.7	4.5719
1237.6	4.84893
1240.49	5.67562
1243.38	5.69935
1246.27	4.84467
1249.17	4.77611
1252.06	2.33662
1254.95	5.00025
1257.84	3.24645
1260.74	2.48991
1263.63	1.84691
1266.52	2.33331
1269.41	2.27018
1272.31	4.85914
1275.2	2.06356
1278.09	1.17281
1280.98	3.84635
1283.88	0.033569
