Measurement: Raman, 780 nm, unoriented, Raman Data Processed
Mineral: Tsumgallite
Rruff sample: R100125
Ideal chemistry: GaOOH
Locality: Tsumeb, Namibia
Source: William W. Pinch
Description: Pale green platy crystals, associated with galena and tennantite
Raman shift (cm-1)	intensity
164.369	0
167.262	6.47247
170.155	0.055664
173.047	7.04193
175.94	4.83472
178.833	14.6624
181.726	23.6818
184.618	31.9078
187.511	48.3954
190.404	61.2163
193.296	62.5645
196.189	45.6931
199.082	23.8388
201.974	11.5447
204.867	7.50214
207.76	2.73315
210.652	3.71564
213.545	1.42041
216.438	2.07288
219.331	0.738586
222.223	7.50488
225.116	24.7175
228.009	29.493
230.901	52.7292
233.794	63.6921
236.687	85.1407
239.579	105.127
242.472	124.325
245.365	145.357
248.257	168.443
251.15	186.473
254.043	208.102
256.936	213.701
259.828	195.107
262.721	179.762
265.614	167.35
268.506	166.558
271.399	176.51
274.292	157.112
277.185	123.562
280.077	87.7291
282.97	58.3888
285.863	33.635
288.755	18.0438
291.648	11.5397
294.541	2.71698
297.433	1.23083
300.326	0.003235
303.219	4.638
306.111	7.75885
309.004	11.654
311.897	6.65088
314.79	12.5251
317.682	19.9846
320.575	18.4965
323.468	20.5111
326.36	22.3002
329.253	26.4433
332.146	26.4637
335.038	25.6376
337.931	33.2909
340.824	33.1816
343.717	30.3244
346.609	30.7014
349.502	26.4889
352.395	23.2114
355.287	18.0724
358.18	21.5699
361.073	18.8673
363.965	15.9976
366.858	13.0625
369.751	14.4682
372.644	13.6191
375.536	13.9832
378.429	8.24609
381.322	12.5142
384.214	10.8856
387.107	0.203308
390	2.92224
392.892	0.179871
395.785	5.67212
398.678	3.16425
401.57	5.01593
404.463	13.444
407.356	18.1582
410.249	33.3908
413.141	47.358
416.034	62.7844
418.927	74.6525
421.819	95.241
424.712	96.4833
427.605	96.7725
430.498	80.8368
433.39	63.7456
436.283	49.1564
439.176	35.308
442.068	30.9473
444.961	26.5069
447.854	17.7743
450.746	16.2462
453.639	15.8153
456.532	16.4537
459.425	20.1653
462.317	18.3662
465.21	18.6404
468.103	19.1573
470.995	14.0994
473.888	14.6815
476.781	7.13458
479.673	14.5019
482.566	11.5695
485.459	8.2608
488.351	9.87967
491.244	12.7026
494.137	17.8451
497.029	21.055
499.922	23.3318
502.815	31.5263
505.708	35.0576
508.6	37.4789
511.493	39.8009
514.386	40.6766
517.278	36.4373
520.171	27.5627
523.064	24.1734
525.957	18.5644
528.849	14.3273
531.742	9.44342
534.635	7.6481
537.527	2.09854
540.42	2.58765
543.313	4.53284
546.205	2.9176
549.098	1.17545
551.991	5.15195
554.884	2.92618
557.776	1.75089
560.669	1.54663
563.562	3.87412
566.454	4.78967
569.347	9.17783
572.24	10.7391
575.132	16.3972
578.025	22.9269
580.918	31.4041
583.811	32.8968
586.703	43.6049
589.596	53.6716
592.489	62.0279
595.381	66.4464
598.274	66.001
601.167	58.9568
604.059	54.666
606.952	40.6895
609.845	34.2621
612.737	20.7527
615.63	18.3522
618.523	8.30301
621.416	8.05512
624.308	4.50836
627.201	4.75742
630.094	2.79483
632.986	1.60437
635.879	1.29294
638.772	1.14127
641.664	1.57977
644.557	1.27148
647.45	3.9491
650.342	6.0332
653.235	8.8945
656.128	9.01752
659.021	7.95624
661.913	10.7814
664.806	13.7234
667.699	19.5456
670.591	20.7446
673.484	25.1585
676.377	26.0458
679.269	28.9544
682.162	29.1235
685.055	28.3727
687.948	30.8989
690.84	28.8502
693.733	24.0809
696.626	22.7609
699.518	21.6203
702.411	15.5765
705.304	14.5152
708.197	12.4784
711.089	6.90418
713.982	7.95032
716.875	4.07642
719.767	3.46027
722.66	4.70007
725.553	3.50617
728.445	4.55161
731.338	2.77896
734.231	2.1196
737.124	2.37698
740.016	2.54416
742.909	3.67899
745.802	0.713074
748.694	3.60895
751.587	0.342285
754.48	0.047089
757.372	1.49158
760.265	1.16742
763.158	1.94522
766.051	8.45636
768.943	1.47803
771.836	1.90164
774.729	4.83539
777.621	4.04688
780.514	8.41055
783.407	4.13608
786.299	1.4184
789.192	6.0943
792.085	8.18994
794.977	8.21292
797.87	7.47244
800.763	8.64652
803.655	10.164
806.548	14.1279
809.441	12.344
812.334	12.4269
815.226	10.5049
818.119	12.2219
821.012	9.26587
823.904	8.66162
826.797	11.1751
829.69	8.95776
832.582	8.50665
835.475	8.49207
838.368	9.67575
841.261	9.90048
844.153	12.1821
847.046	8.94528
849.939	12.2025
852.831	12.309
855.724	11.5786
858.617	13.3798
861.51	11.9396
864.402	13.7932
867.295	14.3557
870.188	11.9535
873.08	12.9641
875.973	8.51947
878.866	10.9943
881.758	7.67545
884.651	7.39734
887.544	5.45877
890.437	2.42813
893.329	0.563232
896.222	5.15356
899.115	8.72672
902.007	1.46799
904.9	6.18189
907.793	2.45172
910.685	1.85956
913.578	4.52948
916.471	0.763123
919.364	8.34201
922.256	2.1571
925.149	0.360138
928.042	2.24185
930.934	0.018768
933.827	2.47647
936.72	4.12799
939.612	6.23392
942.505	0.464752
945.398	2.52094
948.29	1.1507
951.183	0.553467
954.076	2.79651
956.968	4.46292
959.861	7.26132
962.754	5.26675
965.647	4.64508
968.539	7.57517
971.432	9.26776
974.325	10.2051
977.217	9.20506
980.11	3.27153
983.003	4.54358
985.895	3.09228
988.788	3.60423
991.681	4.81325
994.574	7.29149
997.466	6.47369
1000.36	3.18669
1003.25	3.14471
1006.14	1.5645
1009.04	3.43131
1011.93	1.04109
1014.82	0.208359
1017.72	0.211929
1020.61	2.60985
1023.5	0.646454
1026.39	1.7067
1029.29	3.5179
1032.18	1.21001
1035.07	2.81793
1037.96	0.278717
1040.86	5.36215
1043.75	6.27431
1046.64	4.5965
1049.54	6.06732
1052.43	2.76117
1055.32	5.77322
1058.21	7.11461
1061.11	3.33344
1064	5.37071
1066.89	6.68648
1069.78	2.20401
1072.68	1.9575
1075.57	4.64235
1078.46	0.968689
1081.35	3.92001
1084.25	5.12946
1087.14	4.60963
1090.03	7.63301
1092.92	8.83266
1095.82	7.62825
1098.71	6.24748
1101.6	9.17183
1104.5	5.67775
1107.39	11.842
1110.28	5.88265
1113.17	7.59007
1116.07	8.96777
1118.96	5.42947
1121.85	8.53703
1124.74	5.55542
1127.64	5.17873
1130.53	4.25871
1133.42	2.94276
1136.32	2.19136
1139.21	1.82887
1142.1	2.16975
1144.99	1.65825
1147.89	0.023392
1150.78	2.22577
1153.67	1.21936
1156.57	0.460007
1159.46	2.63983
1162.35	2.29939
1165.24	1.45398
1168.13	4.32304
1171.03	2.54581
1173.92	5.46544
1176.81	3.6281
1179.71	8.7198
1182.6	2.21037
1185.49	1.95218
1188.38	4.51126
1191.28	5.18874
1194.17	3.14223
1197.06	5.36595
1199.95	3.72667
1202.85	1.77049
1205.74	7.17587
1208.63	5.07191
1211.53	1.13461
1214.42	6.80534
1217.31	2.81276
1220.2	7.2137
1223.1	4.88657
1225.99	7.78714
1228.88	6.75407
1231.78	1.25304
1234.67	4.8015
1237.56	5.68179
1240.45	0.871674
1243.35	2.15356
1246.24	4.28516
1249.13	1.89316
1252.02	6.67033
1254.92	1.26352
1257.81	3.83284
1260.7	6.14537
1263.59	6.87488
1266.49	2.22243
1269.38	2.80633
1272.27	5.24008
1275.16	5.8398
1278.06	2.95396
1280.95	1.4693
1283.84	0.007736
