Measurement: Raman, 532 nm, unoriented, Raman Data Processed
Mineral: Tsumgallite
Rruff sample: R100125
Ideal chemistry: GaOOH
Locality: Tsumeb, Namibia
Source: William W. Pinch
Description: Pale green platy crystals, associated with galena and tennantite
Raman shift (cm-1)	intensity
170.584	0
173.477	0.03177
176.37	0.274095
179.263	0.611392
182.155	0.83955
185.048	1.05614
187.941	1.24873
190.833	1.79916
193.726	1.90681
196.619	1.43362
199.512	0.703251
202.404	0.411876
205.297	0.121845
208.19	0.030514
211.082	0.053272
213.975	0.029946
216.868	0.012659
219.761	0.003366
222.653	0.034917
225.546	0.105615
228.439	0.282591
231.331	0.426022
234.224	0.581244
237.117	0.817592
240.009	1.28479
242.902	1.99971
245.795	2.7918
248.688	3.71242
251.58	4.56479
254.473	5.81149
257.366	6.99441
260.258	7.37232
263.151	6.93836
266.044	5.94424
268.936	5.58482
271.829	5.9758
274.722	6.17407
277.615	5.40428
280.507	3.93357
283.4	2.77499
286.293	1.85484
289.185	1.22675
292.078	0.893861
294.971	0.589601
297.863	0.285191
300.756	0.254041
303.649	0.254629
306.541	0.235371
309.434	0.274868
312.327	0.3275
315.22	0.491322
318.112	0.555665
321.005	0.546649
323.898	0.468136
326.791	0.393902
329.683	0.331001
332.576	0.366509
335.469	0.348053
338.361	0.124123
341.254	0.118784
344.147	0.043561
347.039	0.031402
349.932	0.047435
352.825	0.020899
355.717	0.103966
358.61	0.026083
361.503	0.066773
364.396	0.046952
367.288	0.01633
370.181	0.069161
373.074	0.18618
375.966	0.237958
378.859	0.20863
381.752	0.18413
384.644	0.116801
387.537	0.127321
390.43	0.206528
393.323	0.294833
396.215	0.381183
399.108	0.510214
402.001	0.776216
404.894	1.0517
407.786	1.27055
410.679	1.72248
413.572	2.28231
416.464	2.85686
419.357	3.51285
422.25	4.25174
425.142	4.74338
428.035	5.09878
430.928	4.94418
433.82	4.24895
436.713	3.22531
439.606	2.34255
442.499	1.69682
445.391	1.12749
448.284	0.748101
451.177	0.519938
454.069	0.321724
456.962	0.28112
459.855	0.177629
462.748	0.107513
465.64	0.117826
468.533	0.117482
471.426	0.051926
474.318	0.053711
477.211	0.043341
480.104	0.016716
482.996	0.000879
485.889	0.041258
488.782	0.032615
491.675	0.180293
494.567	0.272786
497.46	0.370929
500.353	0.636225
503.245	0.812294
506.138	1.30683
509.031	1.48077
511.923	1.80139
514.816	2.01318
517.709	2.00509
520.602	1.93579
523.494	1.63192
526.387	1.39713
529.28	1.06593
532.172	0.836664
535.065	0.706842
537.958	0.440659
540.851	0.34113
543.743	0.268167
546.636	0.182588
549.529	0.08992
552.421	0.123329
555.314	0.044277
558.207	0.000274
561.099	0.084094
563.992	0.022345
566.885	0.019068
569.778	0.017668
572.67	0.003056
575.563	0.282558
578.456	0.357167
581.348	0.50764
584.241	0.786082
587.134	1.08351
590.027	1.43583
592.919	1.8864
595.812	2.308
598.705	2.57022
601.597	2.64285
604.49	2.51044
607.383	2.04544
610.275	1.53985
613.168	1.23672
616.061	0.799041
618.953	0.533529
621.846	0.336727
624.739	0.176178
627.632	0.045829
630.524	0.086007
633.417	0.069504
636.31	0.034811
639.202	0.016324
642.095	0.02127
644.988	0.112419
647.881	0.061914
650.773	0.184973
653.666	0.155005
656.559	0.242402
659.451	0.325668
662.344	0.231419
665.237	0.294954
668.13	0.311219
671.022	0.496148
673.915	0.548656
676.808	0.794984
679.7	0.824362
682.593	1.06815
685.486	1.12912
688.378	1.15496
691.271	1.28146
694.164	1.22917
697.057	1.119
699.949	0.984904
702.842	0.917608
705.735	0.643605
708.627	0.61476
711.52	0.417107
714.413	0.301484
717.305	0.265617
720.198	0.193058
723.091	0.18961
725.984	0.128245
728.876	0.159897
731.769	0.110622
734.662	0.084735
737.554	0.142033
740.447	0.096809
743.34	0.063381
746.232	0.050845
749.125	0.119457
752.018	0.06803
754.91	0.00379
757.803	0.036484
760.696	0.010543
763.589	0.034655
766.481	0.025076
769.374	0.115809
772.267	0.025107
775.159	0.054341
778.052	0.074768
780.945	0.031599
783.838	0.052366
786.73	0.132656
789.623	0.046242
792.516	0.097615
795.408	0.089976
798.301	0.060124
801.194	0.166285
804.087	0.169648
806.979	0.134067
809.872	0.154301
812.765	0.204943
815.657	0.184364
818.55	0.109472
821.443	0.18999
824.335	0.09243
827.228	0.131123
830.121	0.128041
833.014	0.183379
835.906	0.023503
838.799	0.098093
841.692	0.098614
844.584	0.06705
847.477	0.1108
850.37	0.067501
853.263	0.071274
856.155	0.131356
859.048	0.159256
861.941	0.073244
864.833	0.115148
867.726	0.119562
870.619	0.166574
873.511	0.14039
876.404	0.080158
879.297	0.094082
882.189	0.005983
885.082	0.094005
887.975	0.095258
890.868	0.027247
893.76	0.073831
896.653	0.092119
899.546	0.079058
902.438	0.096035
905.331	0.073492
908.224	0.022142
911.116	0.062114
914.009	0.013403
916.902	0.023325
919.795	0.121135
922.687	0.055542
925.58	0.006683
928.473	0.033293
931.365	0.056994
934.258	0.123358
937.151	0.088488
940.044	0.02148
942.936	0.079792
945.829	0.042725
948.722	0.120006
951.614	0.057575
954.507	0.020506
957.4	0.057795
960.293	0.021163
963.185	0.05767
966.078	0.105459
968.971	0.110264
971.863	0.159843
974.756	0.196724
977.649	0.259584
980.541	0.301075
983.434	0.245051
986.327	0.256491
989.22	0.17025
992.112	0.124557
995.005	0.18164
997.898	0.142858
1000.79	0.130604
1003.68	0.229174
1006.58	0.036724
1009.47	0.03039
1012.36	0.03116
1015.25	0.080955
1018.15	0.115537
1021.04	0.063088
1023.93	0.037603
1026.83	0.010187
1029.72	0.032228
1032.61	0.024308
1035.5	0.078419
1038.4	0.070892
1041.29	0.109944
1044.18	0.055588
1047.07	0.016198
1049.97	0.098431
1052.86	0.060117
1055.75	0.09939
1058.64	0.098188
1061.54	0.082646
1064.43	0.031883
1067.32	0.101138
1070.21	0.074224
1073.11	0.072952
1076	0.10595
1078.89	0.112335
1081.79	0.069398
1084.68	0.116626
1087.57	0.166338
1090.46	0.095461
1093.36	0.133152
1096.25	0.219666
1099.14	0.201202
1102.04	0.270037
1104.93	0.276945
1107.82	0.369765
1110.71	0.378482
1113.61	0.353631
1116.5	0.431174
1119.39	0.397753
1122.28	0.367995
1125.18	0.430271
1128.07	0.358788
1130.96	0.244653
1133.86	0.141647
1136.75	0.133585
1139.64	0.114305
1142.53	0.110499
1145.43	0.13648
1148.32	0.049444
1151.21	0.125719
1154.1	0.131107
1157	0.055125
1159.89	0.025287
1162.78	0.066146
1165.67	0.064497
1168.57	0.004686
1171.46	0.025076
1174.35	0.081542
1177.24	0.026956
1180.14	0.070177
1183.03	0.071499
1185.92	0.075805
1188.82	0.115841
1191.71	0.067819
1194.6	0.181737
1197.49	0.08593
1200.39	0.052014
1203.28	0.112903
1206.17	0.112874
1209.07	0.097443
1211.96	0.161802
1214.85	0.085418
1217.74	0.033361
1220.64	0.117422
1223.53	0.08648
1226.42	0.127927
1229.31	0.145286
1232.21	0.032573
1235.1	0.078889
1237.99	0.096796
1240.88	0.098371
1243.78	0.02078
1246.67	0.062029
1249.56	0.078907
1252.45	0.007107
1255.35	0.154022
1258.24	0.089951
1261.13	0.070186
1264.03	0.117135
1266.92	0.117513
1269.81	0.122817
1272.7	0.036608
1275.6	0.111997
1278.49	0.12174
1281.38	0.087194
1284.28	0.058099
1287.17	0.044371
1290.06	0.076149
1292.95	0.097656
1295.85	0.004014
1298.74	0.050143
1301.63	0.028561
