Measurement: Raman, 532 nm, unoriented, Raman Data Processed
Mineral: Tsumoite
Rruff sample: R080089
Ideal chemistry: BiTe
Locality: Sredniy Skarn, Tyrnyauz Mo-W Deposit, Baksan Valley, Kabardino-Balkarian Republic, Northern Caucasus Region, Russia
Source: Michael Scott
Description: Aggregates of metallic grey platelets associated with orange grossular
Raman shift (cm-1)	intensity
120.798	0
124.173	18.2194
127.548	55.9812
130.923	135.859
134.298	221.707
137.673	261.327
141.047	234.413
144.422	182.39
147.797	125.267
151.172	79.5928
154.547	57.2122
157.921	40.7068
161.296	31.2027
164.671	24.6936
168.046	17.2364
171.421	11.1082
174.796	6.61365
178.17	0.25647
181.545	3.09131
184.92	3.32111
188.295	5.34889
191.67	1.29378
195.044	1.8499
198.419	5.44832
201.794	10.4962
205.169	14.8824
208.544	17.3207
211.918	22.2761
215.293	25.7798
218.668	29.5949
222.043	29.4215
225.418	31.8025
228.792	33.3775
232.167	33.2597
235.542	34.1344
238.917	33.8289
242.292	30.3074
245.667	27.2662
249.041	23.2932
252.416	25.0888
255.791	21.9909
259.166	20.2243
262.541	18.1713
265.916	15.3194
269.29	10.564
272.665	11.537
276.04	9.56506
279.415	9.81825
282.79	6.16115
286.164	4.88345
289.539	5.56998
292.914	3.93434
296.289	3.67248
299.664	1.67947
303.038	3.0191
306.413	0.295609
309.788	0.124908
313.163	0.86026
316.538	1.00647
319.913	1.65566
323.287	0.275879
326.662	1.32225
330.037	0.160294
333.412	1.231
336.787	0.160324
340.161	1.80699
343.536	0.243362
346.911	1.78125
350.286	0.778915
353.661	0.702057
357.036	0.665833
360.41	1.39928
363.785	2.26442
367.16	0.321411
370.535	3.70964
373.91	2.39866
377.284	0.355896
380.659	0.064034
384.034	1.61621
387.409	0.034828
390.784	0.325851
394.159	1.95169
397.533	1.08835
400.908	1.75697
404.283	1.11109
407.658	1.2804
411.033	0.919029
414.408	1.36704
417.782	0.421364
421.157	2.59287
424.532	2.05926
427.907	2.24194
431.282	2.17699
434.656	4.27792
438.031	2.35603
441.406	2.42335
444.781	1.41886
448.156	2.92383
451.531	2.90719
454.905	3.74119
458.28	2.15806
461.655	1.83874
465.03	0.736725
468.404	1.38707
471.779	0.862053
475.154	0.373299
478.529	2.12911
481.904	1.19954
485.279	2.10511
488.653	1.86087
492.028	0.507332
495.403	1.23548
498.778	0.695786
502.153	2.75873
505.527	0.606415
508.902	1.29225
512.277	0.750885
515.652	0.831047
519.027	2.01297
522.402	2.36243
525.776	0.236763
529.151	2.4153
532.526	1.91682
535.901	2.24938
539.276	2.34691
542.65	1.33167
546.025	1.80244
549.4	0.675354
552.775	0.35202
556.15	1.87246
559.525	1.95171
562.899	0.445419
566.274	2.39288
569.649	0.026138
573.024	1.27238
576.399	1.54469
579.774	0.864243
583.148	3.49761
586.523	2.18616
589.898	1.30599
593.273	3.24467
596.648	1.59915
600.022	1.94244
603.397	2.8922
606.772	2.55111
610.147	2.53136
613.522	3.39265
616.896	3.70581
620.271	1.95772
623.646	3.3678
627.021	0.410728
630.396	1.53791
633.771	1.30903
637.145	0.06456
640.52	0.618301
643.895	0.654854
647.27	1.38927
650.645	2.66345
654.019	0.356659
657.394	1.3708
660.769	0.948708
664.144	1.75748
667.519	2.04759
670.894	0.462173
674.268	0.758202
677.643	0.884842
681.018	1.90125
684.393	0.72847
687.768	0.216087
691.143	0.198471
694.517	0.460152
697.892	1.74681
701.267	0.520782
704.642	1.56982
708.016	0.011925
711.391	2.40289
714.766	1.65501
718.141	2.41119
721.516	2.85796
724.891	0.867943
728.265	3.35649
731.64	2.10014
735.015	3.73813
738.39	2.68888
741.765	4.94521
745.139	3.5942
748.514	3.8529
751.889	3.03783
755.264	2.28807
758.639	1.71941
762.014	3.87622
765.388	2.76479
768.763	0.822464
772.138	1.30579
775.513	2.5022
778.888	2.29012
782.263	1.63808
785.637	0.28347
789.012	0.983009
792.387	0.683105
795.762	0.663132
799.137	0.02005
802.511	0.166496
805.886	0.75029
809.261	1.46356
812.636	0.146072
816.011	0.23838
819.385	1.92723
822.76	1.69997
826.135	0.671509
829.51	0.345985
832.885	1.65738
836.26	1.77085
839.634	2.03642
843.009	3.16665
846.384	2.2495
849.759	2.68096
853.134	1.95851
856.509	0.492676
859.883	1.00735
863.258	2.02235
866.633	2.22542
870.008	1.12204
873.383	2.31002
876.757	1.35323
880.132	1.50933
883.507	0.976212
886.882	1.01508
890.257	1.57305
893.631	0.761627
897.006	0.27771
900.381	0.195885
903.756	1.74297
907.131	1.46362
910.506	1.18021
913.88	0.297874
917.255	0.205406
920.63	0.246292
924.005	0.975578
927.38	1.0284
930.755	0.086975
934.129	2.26997
937.504	0.51519
940.879	2.03558
944.254	1.86162
947.629	1.9758
951.003	1.75752
954.378	3.04464
957.753	3.80572
961.128	3.89677
964.503	4.22056
967.877	4.98613
971.252	3.85151
974.627	3.81081
978.002	4.14645
981.377	3.95596
984.751	3.15873
988.126	1.94707
991.501	2.68359
994.876	1.15359
998.251	1.17384
1001.63	1.62475
1005	0.29805
1008.38	0.529259
1011.75	0.357391
1015.12	1.66151
1018.5	0.357635
1021.88	0.298477
1025.25	2.22768
1028.62	1.96845
1032	0.006332
1035.37	0.315315
1038.75	1.52107
1042.12	2.36012
1045.5	0.416977
1048.87	0.099037
1052.25	2.56606
1055.62	0.597511
1059	3.2455
1062.37	3.21365
1065.75	1.34867
1069.12	2.22089
1072.5	3.09692
1075.87	3.58856
1079.25	1.52574
1082.62	2.24477
1086	1.93367
1089.37	0.834122
1092.75	2.19489
1096.12	1.18809
1099.49	1.1817
1102.87	0.829597
1106.24	0.994484
1109.62	0.669373
1112.99	0.60463
1116.37	0.475281
1119.74	1.8755
1123.12	0.457649
1126.49	1.41223
1129.87	1.07492
1133.24	1.15543
1136.62	1.21702
1139.99	0.94841
1143.37	1.25708
1146.74	2.18333
1150.12	0.955551
1153.49	1.6617
1156.87	0.992607
1160.24	1.30333
1163.62	2.15159
1166.99	1.73562
1170.37	1.08914
1173.74	1.16525
1177.12	0.136307
1180.49	0.473648
1183.87	0.85318
1187.24	1.42487
1190.62	1.22942
1193.99	1.61666
1197.37	0.322952
1200.74	1.44901
1204.12	1.38795
1207.49	2.14536
1210.86	0.493858
1214.24	1.27126
1217.61	0.532562
1220.99	0.167305
1224.36	0.628227
1227.74	1.39909
1231.11	0.870628
1234.49	1.04152
1237.86	0.746094
1241.24	1.48169
1244.61	1.09624
1247.99	1.40733
1251.36	1.82052
1254.74	0.586586
1258.11	1.8958
1261.49	0.506546
1264.86	1.60181
1268.24	1.21645
1271.61	1.62123
1274.99	0.222809
1278.36	0.289322
1281.73	1.34391
1285.11	0.188034
1288.48	0.105331
1291.86	1.28111
1295.23	1.28018
1298.61	0.144722
1301.98	0.039505
