Measurement: Raman, 532 nm, unoriented, Raman Data Processed
Mineral: Tsumcorite
Rruff sample: R100185
Ideal chemistry: Pb^2+^Zn^2+^_2_(As^5+^O_4_)_2_2H_2_O
Locality: Mina Ojuela (Campo Sur), Mapimi, Durango, Mexico
Source: Marcus Origlieri
Description: Brilliant brown wedge-shaped crystals on pulverant segnitite, associated with colorless mimetite
Raman shift (cm-1)	intensity
129.122	0
132.497	2.35386
135.872	0.20537
139.247	4.57577
142.622	13.0922
145.996	25.5587
149.371	36.9382
152.746	64.447
156.121	101.754
159.496	127.95
162.871	120.519
166.245	106.959
169.62	109.077
172.995	103.718
176.37	104.681
179.745	105.965
183.119	115.897
186.494	127.684
189.869	141.261
193.244	159.503
196.619	168.61
199.994	176.988
203.369	178.106
206.743	163.832
210.118	148.729
213.493	126.044
216.868	99.2916
220.243	72.6848
223.617	52.0733
226.992	32.6724
230.367	19.6009
233.742	10.4529
237.117	2.95328
240.492	4.22395
243.866	1.2726
247.241	2.24424
250.616	1.77064
253.991	3.88313
257.366	4.4987
260.74	0.070541
264.115	3.70316
267.49	1.52998
270.865	0.358505
274.24	3.55044
277.615	10.0735
280.989	22.6801
284.364	35.6075
287.739	49.7645
291.114	65.4435
294.489	74.3057
297.863	66.0464
301.238	51.6474
304.613	38.3789
307.988	22.7911
311.363	14.1943
314.738	8.81331
318.112	4.80208
321.487	2.43811
324.862	2.08516
328.237	1.86492
331.612	2.38744
334.986	3.25018
338.361	2.20725
341.736	6.30169
345.111	9.89102
348.486	17.8408
351.861	21.4704
355.235	29.1643
358.61	31.4159
361.985	32.879
365.36	31.3294
368.735	24.4795
372.11	20.5537
375.484	14.897
378.859	13.5267
382.234	14.7687
385.609	16.7749
388.984	25.7308
392.358	33.9519
395.733	44.7502
399.108	49.2206
402.483	38.6996
405.858	18.3149
409.233	8.37796
412.607	2.01596
415.982	1.40083
419.357	2.29196
422.732	1.66831
426.107	1.97986
429.481	3.43496
432.856	7.87289
436.231	10.2193
439.606	14.3132
442.981	19.4571
446.356	24.3552
449.73	29.7144
453.105	38.1289
456.48	44.4352
459.855	53.4271
463.23	65.3745
466.604	75.8373
469.979	88.0472
473.354	97.6078
476.729	102.362
480.104	113.858
483.479	120.948
486.853	140.114
490.228	166.882
493.603	184.106
496.978	174.225
500.353	129.767
503.728	88.9912
507.102	63.4793
510.477	49.4884
513.852	40.5201
517.227	37.4714
520.602	32.3388
523.976	28.7042
527.351	26.4735
530.726	22.7351
534.101	19.8538
537.476	14.465
540.851	12.7353
544.225	7.74758
547.6	2.24625
550.975	0.158119
554.35	1.57119
557.725	1.1659
561.099	1.71356
564.474	2.11725
567.849	0.391476
571.224	0.555973
574.599	0.34671
577.973	1.55667
581.348	2.9772
584.723	4.07038
588.098	3.02778
591.473	4.95087
594.848	5.44316
598.222	6.86505
601.597	5.75014
604.972	6.62239
608.347	6.85364
611.722	6.15292
615.097	6.43128
618.471	5.38234
621.846	3.2052
625.221	3.71332
628.596	3.63211
631.971	2.97178
635.346	0.78064
638.72	0.824783
642.095	0.90604
645.47	3.09317
648.845	1.34764
652.22	2.16835
655.594	0.958492
658.969	2.2306
662.344	1.41385
665.719	0.645752
669.094	0.239525
672.468	0.374996
675.843	0.419594
679.218	0.560482
682.593	0.411057
685.968	3.53683
689.343	7.58421
692.717	10.3181
696.092	16.7527
699.467	22.4146
702.842	37.919
706.217	55.0644
709.592	73.8523
712.966	94.995
716.341	117.342
719.716	137.729
723.091	159.815
726.466	177.909
729.841	194.436
733.215	206.725
736.59	206.774
739.965	194.088
743.34	164.42
746.715	131.817
750.089	97.7783
753.464	70.7898
756.839	52.3346
760.214	36.3334
763.589	25.7622
766.963	15.7873
770.338	8.66099
773.713	6.07725
777.088	0.057701
780.463	2.98386
783.838	2.85171
787.212	2.38077
790.587	1.465
793.962	3.13577
797.337	10.3591
800.712	18.5855
804.087	28.0644
807.461	42.9065
810.836	55.166
814.211	75.4893
817.586	103.533
820.961	144.736
824.335	184.75
827.71	205.529
831.085	186.362
834.46	164.203
837.835	144.553
841.21	136.73
844.584	134.88
847.959	140.883
851.334	156.835
854.709	188.158
858.084	222.704
861.458	251.609
864.833	266.038
868.208	280.795
871.583	280.611
874.958	270.076
878.333	244.304
881.707	208.742
885.082	169.907
888.457	133.142
891.832	103.958
895.207	74.6758
898.582	58.4354
901.956	44.2176
905.331	32.9999
908.706	25.9062
912.081	14.8943
915.456	9.29113
918.83	4.06982
922.205	1.73558
925.58	0.728382
928.955	0.278534
932.33	0.590424
935.705	2.39766
939.079	0.605911
942.454	1.04759
945.829	1.20158
949.204	0.550419
952.579	1.0446
955.953	2.18892
959.328	3.39041
962.703	3.70325
966.078	5.19237
969.453	4.22673
972.827	7.47935
976.202	7.0623
979.577	6.5855
982.952	9.29361
986.327	7.63425
989.702	7.84564
993.077	7.93018
996.451	5.3559
999.826	6.49595
1003.2	6.63916
1006.58	5.48243
1009.95	3.7396
1013.33	3.27733
1016.7	3.14688
1020.08	3.32529
1023.45	3.77759
1026.83	1.66888
1030.2	1.51123
1033.57	1.21992
1036.95	1.89991
1040.32	1.0289
1043.7	0.451464
1047.07	1.93714
1050.45	0.482979
1053.82	1.22111
1057.2	2.11906
1060.57	1.46846
1063.95	3.43215
1067.32	1.0497
1070.7	1.61471
1074.07	1.45488
1077.45	0.282248
1080.82	1.30323
1084.2	0.807524
1087.57	0.839882
1090.95	0.520969
1094.32	0.911066
1097.7	1.32768
1101.07	0.850933
1104.45	0.36537
1107.82	0.184694
1111.19	0.752174
1114.57	2.4874
1117.94	2.21536
1121.32	2.60865
1124.69	1.59247
1128.07	2.48603
1131.44	2.71278
1134.82	1.00693
1138.19	1.21307
1141.57	0.516487
1144.94	2.48733
1148.32	0.847351
1151.69	0.451559
1155.07	1.88532
1158.44	0.391443
1161.82	2.31386
1165.19	2.14054
1168.57	0.149374
1171.94	0.258947
1175.32	1.89597
1178.69	3.29818
1182.07	1.7156
1185.44	4.12584
1188.82	1.21515
1192.19	2.99261
1195.57	2.53
1198.94	3.2953
1202.32	0.971567
1205.69	2.03977
1209.07	0.930477
1212.44	2.42415
1215.82	2.41323
1219.19	2.04297
1222.56	2.59419
1225.94	2.35628
1229.31	2.7711
1232.69	2.56696
1236.06	3.96199
1239.44	1.72535
1242.81	2.73313
1246.19	1.26438
1249.56	1.49701
1252.94	4.17682
1256.31	0.462267
1259.69	3.39513
1263.06	4.02552
1266.44	0.54847
1269.81	2.95965
1273.19	4.20961
1276.56	1.77372
1279.94	2.68982
1283.31	2.80002
1286.69	2.2527
1290.06	1.32502
1293.43	2.93302
1296.81	0.254522
1300.18	0.212915
