Measurement: Raman, 780 nm, unoriented, Raman Data Processed
Mineral: Tsumcorite
Rruff sample: R100185
Ideal chemistry: Pb^2+^Zn^2+^_2_(As^5+^O_4_)_2_2H_2_O
Locality: Mina Ojuela (Campo Sur), Mapimi, Durango, Mexico
Source: Marcus Origlieri
Description: Brilliant brown wedge-shaped crystals on pulverant segnitite, associated with colorless mimetite
Raman shift (cm-1)	intensity
105.069	0
108.444	1.05893
111.819	1.01016
115.193	4.17055
118.568	7.77322
121.943	12.3095
125.318	18.8736
128.693	23.9598
132.067	31.9034
135.442	42.182
138.817	52.6877
142.192	57.4278
145.567	55.4922
148.941	49.9373
152.316	50.1266
155.691	47.2023
159.066	41.0865
162.441	27.9772
165.816	18.3622
169.19	11.2228
172.565	5.58343
175.94	4.28688
179.315	1.43624
182.69	2.39386
186.065	4.89483
189.439	2.51188
192.814	3.63388
196.189	4.7064
199.564	4.18829
202.939	3.78874
206.313	3.88836
209.688	2.52483
213.063	2.17957
216.438	2.22512
219.813	0.747061
223.188	0.588844
226.562	0.021479
229.937	0.239929
233.312	1.17775
236.687	0.672647
240.061	1.83608
243.436	1.53409
246.811	1.55226
250.186	1.49856
253.561	0.538635
256.936	1.39195
260.31	0.521431
263.685	0.722668
267.06	1.6659
270.435	4.56116
273.81	4.25479
277.185	9.50411
280.559	8.83071
283.934	12.1918
287.309	8.52777
290.684	9.50629
294.059	11.8072
297.433	6.22805
300.808	4.30415
304.183	3.45664
307.558	0.415018
310.933	2.17978
314.308	0.066132
317.682	0.248497
321.057	2.15343
324.432	3.95709
327.807	6.41003
331.182	4.77241
334.556	7.60323
337.931	8.70911
341.306	11.096
344.681	10.6673
348.056	12.5974
351.43	10.5898
354.805	12.468
358.18	11.0565
361.555	10.9414
364.93	9.21415
368.305	7.05884
371.679	5.23079
375.054	5.70205
378.429	6.99591
381.804	7.27483
385.179	7.35356
388.553	11.4139
391.928	10.5993
395.303	10.6918
398.678	7.92784
402.053	5.46483
405.427	1.44863
408.802	2.60936
412.177	3.19726
415.552	0.855188
418.927	0.303373
422.301	2.32092
425.676	2.03721
429.051	3.62409
432.426	5.93217
435.801	5.60359
439.176	6.75236
442.55	8.32336
445.925	12.6946
449.3	13.6605
452.675	17.5976
456.05	16.6538
459.425	17.2464
462.799	20.4536
466.174	21.9383
469.549	27.9761
472.924	33.1608
476.299	39.1755
479.673	45.7954
483.048	49.0399
486.423	54.5319
489.798	53.2246
493.173	50.2135
496.547	38.7447
499.922	24.7245
503.297	16.7847
506.672	11.771
510.047	7.78003
513.422	4.24016
516.796	4.48957
520.171	2.11204
523.546	2.64722
526.921	3.03094
530.296	2.66012
533.67	1.34823
537.045	0.668965
540.42	1.34144
543.795	0.615173
547.17	1.18142
550.544	2.96265
553.919	1.13474
557.294	0.13961
560.669	0.623502
564.044	0.652604
567.418	0.716783
570.793	3.62387
574.168	0.922252
577.543	0.502178
580.918	2.47987
584.293	1.8638
587.667	4.213
591.042	1.82862
594.417	0.971683
597.792	3.98726
601.167	2.49076
604.542	3.82514
607.916	2.4922
611.291	2.43622
614.666	1.60415
618.041	0.581753
621.416	1.76743
624.79	2.27063
628.165	2.00604
631.54	2.66178
634.915	2.76621
638.29	1.99385
641.664	0.977832
645.039	1.82048
648.414	2.49285
651.789	1.55521
655.164	3.12346
658.538	1.03015
661.913	1.91299
665.288	0.658821
668.663	1.15123
672.038	0.57278
675.413	0.070814
678.787	0.50031
682.162	2.04896
685.537	2.4594
688.912	0.566895
692.287	1.327
695.662	0.48911
699.036	3.32781
702.411	4.46627
705.786	5.30765
709.161	7.2844
712.535	8.7011
715.91	12.53
719.285	12.5356
722.66	16.2336
726.035	18.9106
729.41	17.6248
732.784	16.6463
736.159	19.1027
739.534	14.1127
742.909	12.8916
746.284	7.5058
749.659	4.5099
753.033	3.61602
756.408	4.7332
759.783	0.744123
763.158	0.187451
766.533	1.25835
769.907	0.202322
773.282	0.652496
776.657	0.299564
780.032	1.91169
783.407	1.18286
786.782	0.439007
790.156	3.23435
793.531	4.51152
796.906	7.57909
800.281	13.2876
803.655	16.5544
807.03	22.4777
810.405	31.4127
813.78	38.6963
817.155	48.1675
820.53	54.4704
823.904	59.6514
827.279	58.1353
830.654	52.4452
834.029	42.8247
837.404	41.7625
840.779	36.6144
844.153	39.1629
847.528	44.2697
850.903	47.8864
854.278	48.4476
857.653	52.8434
861.027	58.8807
864.402	58.6129
867.777	54.1121
871.152	51.2323
874.527	43.7308
877.901	39.7534
881.276	30.4507
884.651	21.0322
888.026	13.599
891.401	10.4932
894.775	6.84374
898.15	4.91333
901.525	2.99545
904.9	1.15345
908.275	0.021417
911.65	0.298509
915.024	0.544706
918.399	1.18641
921.774	1.51189
925.149	0.681237
928.524	0.180538
931.899	0.213756
935.273	1.16949
938.648	0.533225
942.023	0.245386
945.398	1.40758
948.773	0.518848
952.147	1.49967
955.522	3.31042
958.897	1.85964
962.272	2.2293
965.647	2.05444
969.021	1.64569
972.396	2.66721
975.771	0.468476
979.146	0.821057
982.521	1.48952
985.895	1.19756
989.27	2.13025
992.645	1.88844
996.02	3.61068
999.395	0.473629
1002.77	2.70604
1006.14	2.01132
1009.52	1.95278
1012.89	2.34335
1016.27	1.86337
1019.64	1.63986
1023.02	1.68147
1026.39	1.52227
1029.77	0.711756
1033.14	0.198959
1036.52	2.10106
1039.89	1.69197
1043.27	2.19922
1046.64	2.66887
1050.02	2.42028
1053.39	4.08697
1056.77	3.02533
1060.14	2.68737
1063.52	2.98367
1066.89	0.208414
1070.27	1.19704
1073.64	1.72681
1077.02	1.02599
1080.39	1.99887
1083.77	1.95893
1087.14	1.48503
1090.52	1.85692
1093.89	1.75567
1097.26	1.97413
1100.64	0.823031
1104.01	0.806578
1107.39	1.81833
1110.76	0.596923
1114.14	1.74191
1117.51	1.97678
1120.89	2.29765
1124.26	2.32217
1127.64	2.14607
1131.01	2.3401
1134.39	1.3661
1137.76	2.99144
1141.14	2.04357
1144.51	0.236603
1147.89	2.98622
1151.26	2.15604
1154.64	0.617077
1158.01	0.005059
1161.39	3.85097
1164.76	3.35985
1168.13	0.117634
1171.51	3.39776
1174.88	0.371204
1178.26	3.02672
1181.63	0.571417
1185.01	3.12818
1188.38	2.56884
1191.76	2.54205
1195.13	3.33798
1198.51	2.5058
1201.88	1.39586
1205.26	1.32357
1208.63	3.16756
1212.01	0.067523
1215.38	3.66078
1218.76	1.39734
1222.13	3.53897
1225.51	1.31844
1228.88	3.38806
1232.26	0.313517
1235.63	2.95347
1239.01	0.808438
1242.38	3.8031
1245.76	3.45177
1249.13	0.088398
1252.51	2.76858
1255.88	4.56754
1259.26	1.60862
1262.63	2.16841
1266.01	1.85637
1269.38	1.46307
1272.76	0.022291
1276.13	3.94528
1279.5	0.034844
1282.88	2.6762
