Measurement: Raman, 785 nm, unoriented, Raman Data Processed
Mineral: Tsumebite
Rruff sample: R070446
Ideal chemistry: Pb_2_Cu(PO_4_)(SO_4_)(OH)
Locality: Tiger mine, Collins Vein, Tiger, Arizona, USA
Source: Joe Ruiz
Description: Sea blue tabular crystals on quartz associated with yellowish phosphohedyphane, goethite, hematite, cerussite, fluorite, and corkite.
Raman shift (cm-1)	intensity
158.152	0
161.045	1.76208
163.938	38.2539
166.83	50.9899
169.723	45.3382
172.616	54.5051
175.508	45.4742
178.401	49.1396
181.294	22.7453
184.186	21.3739
187.079	3.7211
189.972	3.12836
192.864	1.30579
195.757	9.07025
198.65	2.79126
201.543	0.95459
204.435	11.8083
207.328	39.5941
210.221	47.4248
213.113	57.4789
216.006	76.8084
218.899	122.762
221.792	126.547
224.684	149.213
227.577	150.024
230.47	139.041
233.362	153.889
236.255	156.646
239.148	123.115
242.041	121.404
244.933	82.6965
247.826	99.0364
250.719	73.2322
253.611	51.5067
256.504	48.8514
259.397	44.7217
262.289	29.5253
265.182	1.08484
268.075	13.913
270.967	7.03711
273.86	7.80676
276.753	11.1475
279.646	7.0929
282.538	11.0698
285.431	10.8212
288.324	2.6554
291.216	16.4482
294.109	21.9367
297.002	37.1357
299.894	78.9084
302.787	70.3183
305.68	98.9065
308.572	106.124
311.465	111.708
314.358	121.769
317.251	132.987
320.143	140.208
323.036	148.56
325.929	156.949
328.821	169.411
331.714	168.374
334.607	161.863
337.5	173.684
340.392	155.169
343.285	141.565
346.178	139.468
349.07	128.939
351.963	134.309
354.856	119.892
357.748	97.2158
360.641	74.4206
363.534	98.616
366.426	71.3829
369.319	86.8259
372.212	56.232
375.105	80.7434
377.997	90.2509
380.89	72.2256
383.783	110.327
386.675	113.461
389.568	121.608
392.461	95.0713
395.353	58.8843
398.246	22.132
401.139	33.4017
404.032	6.01886
406.924	6.07068
409.817	4.75104
412.71	12.2816
415.602	8.06232
418.495	19.4891
421.388	31.1216
424.281	43.1501
427.173	70.1058
430.066	113.314
432.959	182.705
435.851	259.408
438.744	315.502
441.637	354.703
444.529	315.998
447.422	242.899
450.315	161.469
453.208	118.204
456.1	98.7193
458.993	86.5346
461.886	104.87
464.778	108.14
467.671	123.444
470.564	101.77
473.457	62.5284
476.349	70.7696
479.242	36.381
482.135	33.2771
485.027	17.4348
487.92	16.5906
490.813	21.3126
493.705	8.81256
496.598	6.1821
499.491	1.57175
502.384	13.0158
505.276	0.407623
508.169	1.93872
511.062	3.26141
513.954	3.49597
516.847	13.1592
519.74	27.3608
522.632	24.0291
525.525	40.4663
528.418	45.3114
531.311	50.9083
534.203	72.9306
537.096	92.8773
539.989	95.8508
542.881	122.265
545.774	100.265
548.667	110.251
551.559	105.973
554.452	103.025
557.345	128.778
560.237	133.723
563.13	127.493
566.023	139.84
568.915	137.877
571.808	135.86
574.701	139.23
577.594	146.256
580.486	145.449
583.379	146.468
586.272	136.009
589.164	150.282
592.057	134.221
594.95	150.86
597.842	140.965
600.735	141.58
603.628	139.03
606.521	127.573
609.413	105.352
612.306	96.8289
615.199	91.2719
618.091	77.6586
620.984	52.0193
623.877	45.2677
626.769	63.5835
629.662	46.5743
632.555	49.3846
635.448	20.8002
638.34	9.08633
641.233	0.477859
644.126	2.21909
647.018	3.10707
649.911	0.317169
652.804	6.17108
655.697	1.3036
658.589	3.90721
661.482	7.61783
664.375	6.32347
667.267	0.871078
670.16	3.87317
673.053	10.8808
675.945	10.6902
678.838	3.26135
681.731	3.18213
684.624	8.61316
687.516	0.759079
690.409	10.3062
693.302	11.2845
696.194	10.7687
699.087	12.6029
701.98	2.34167
704.872	1.54777
707.765	9.46622
710.658	11.4463
713.551	8.74646
716.443	7.15912
719.336	15.2102
722.229	11.7021
725.121	0.707779
728.014	3.97514
730.907	14.4488
733.799	10.7578
736.692	6.48784
739.585	8.71571
742.477	7.05521
745.37	14.0202
748.263	6.75137
751.156	1.96537
754.048	3.40484
756.941	12.8292
759.834	2.49977
762.726	11.9635
765.619	8.50723
768.512	11.458
771.404	6.15482
774.297	9.21043
777.19	10.1089
780.083	5.12067
782.975	15.0302
785.868	3.28169
788.761	15.1748
791.653	6.56844
794.546	7.4836
797.439	1.72804
800.332	13.4908
803.224	11.913
806.117	4.81192
809.01	13.5063
811.902	9.10446
814.795	8.25366
817.688	13.105
820.58	12.0493
823.473	12.7582
826.366	18.6883
829.259	21.3365
832.151	16.0733
835.044	6.08757
837.937	7.6512
840.829	12.4514
843.722	12.6784
846.615	19.8223
849.507	18.3588
852.4	19.2756
855.293	0.980667
858.186	0.569504
861.078	7.4687
863.971	1.56343
866.864	5.46486
869.756	3.95726
872.649	9.58354
875.542	3.38905
878.434	11.6284
881.327	5.90805
884.22	11.0667
887.112	0.091095
890.005	0.747253
892.898	2.73149
895.791	7.07674
898.683	19.9039
901.576	22.5413
904.469	51.8097
907.361	55.9936
910.254	79.1279
913.147	92.5604
916.04	133.781
918.932	141.531
921.825	160.198
924.718	213.409
927.61	251.786
930.503	264.319
933.396	254.127
936.288	228.127
939.181	175.099
942.074	144.517
944.967	126.908
947.859	137.978
950.752	158.02
953.645	202.681
956.537	278.288
959.43	452.285
962.323	619.456
965.216	828.727
968.108	1061.17
971.001	1174.96
973.894	1097.55
976.786	827.636
979.679	549.341
982.572	354.447
985.464	216.386
988.357	115.529
991.25	65.1301
994.143	55.187
997.035	30.0382
999.928	2.78342
1002.82	9.05045
1005.71	5.25742
1008.61	12.9431
1011.5	6.47449
1014.39	9.17697
1017.28	0.074219
1020.18	10.1642
1023.07	0.35733
1025.96	17.2539
1028.86	20.5243
1031.75	33.5073
1034.64	39.2222
1037.53	37.8539
1040.43	59.9379
1043.32	71.9304
1046.21	76.915
1049.1	91.1516
1052	141.186
1054.89	136.407
1057.78	104.463
1060.67	95.0325
1063.57	94.1863
1066.46	99.9669
1069.35	84.0352
1072.24	100.941
1075.14	89.5604
1078.03	89.2735
1080.92	87.6716
1083.82	90.0588
1086.71	79.4844
1089.6	76.2839
1092.49	76.7772
1095.39	54.2908
1098.28	64.7262
1101.17	70.4759
1104.07	19.7706
1106.96	18.1505
1109.85	28.5789
1112.74	9.50732
1115.64	6.38769
1118.53	16.6559
1121.42	18.9164
1124.31	46.6565
1127.21	24.8308
1130.1	29.0681
1132.99	55.9125
1135.88	36.0269
1138.78	64.3052
1141.67	75.2271
1144.56	40.8265
1147.46	43.0657
1150.35	18.4938
1153.24	36.1265
1156.13	32.936
1159.03	42.8018
1161.92	28.4362
1164.81	28.6749
1167.7	57.3901
1170.6	12.4395
