Measurement: Raman, 780 nm, unoriented, Raman Data Processed
Mineral: Tsumcorite
Rruff sample: R060081
Ideal chemistry: Pb^2+^Zn^2+^_2_(As^5+^O_4_)_2_2H_2_O
Locality: Tsumeb mine, Tsumeb, Otavi District, Oshikoto, Namibia
Source: Marcus Origlieri
Description: Aggregate of yellowish-orange bladed crystals with significant chemical oscillations, associated with green duftite
Measured chemistry: Pb_1.00_Zn_1.00_(Fe_0.80_Zn_0.20_)_Σ=1_(As_1.00_O_4_)_2_(OH)·H_2_O ; trace amounts of Ca, Na, Cu, Al ; H_2_O estimated by difference
Raman shift (cm-1)	intensity
110.341	0
113.716	0.245819
117.091	3.04567
120.465	5.9391
123.84	12.2605
127.215	21.1885
130.59	31.5891
133.965	46.325
137.339	56.9922
140.714	65.6308
144.089	68.252
147.464	71.7956
150.839	77.026
154.214	78.785
157.588	69.0319
160.963	49.8757
164.338	31.3043
167.713	18.3289
171.088	9.57713
174.462	5.04025
177.837	3.3184
181.212	4.27309
184.587	4.65106
187.962	5.03154
191.337	6.43248
194.711	7.15166
198.086	8.68426
201.461	10.4271
204.836	11.0234
208.211	8.51804
211.585	7.9877
214.96	5.55853
218.335	2.47713
221.71	2.20287
225.085	0.544678
228.459	1.92133
231.834	1.80331
235.209	1.3455
238.584	1.67895
241.959	0.788345
245.333	0.247345
248.708	0.233734
252.083	0.966339
255.458	3.0632
258.833	2.61104
262.208	0.216492
265.582	1.1709
268.957	5.65146
272.332	11.1511
275.707	19.6206
279.082	24.8658
282.457	33.7902
285.831	40.5617
289.206	44.4575
292.581	44.6294
295.956	38.6585
299.331	33.9119
302.705	27.0693
306.08	23.977
309.455	24.981
312.83	27.1316
316.205	32.9988
319.579	43.6002
322.954	56.3453
326.329	70.8572
329.704	86.5728
333.079	104.409
336.454	123.078
339.828	137.459
343.203	143.459
346.578	146.096
349.953	146.448
353.328	146.438
356.702	144.486
360.077	133.704
363.452	120.469
366.827	101.216
370.202	81.0858
373.577	62.535
376.951	46.2738
380.326	32.439
383.701	25.0633
387.076	18.1264
390.451	13.5929
393.825	10.0024
397.2	10.2747
400.575	8.45383
403.95	4.42044
407.325	0.27211
410.7	2.33551
414.074	4.15126
417.449	2.94769
420.824	0.541489
424.199	1.77683
427.574	6.08223
430.948	10.0531
434.323	13.6691
437.698	16.7618
441.073	19.9294
444.448	21.515
447.822	24.3843
451.197	24.9755
454.572	27.2724
457.947	30.9679
461.322	36.8733
464.697	44.2113
468.071	56.4382
471.446	73.0076
474.821	94.9498
478.196	123.657
481.571	152.296
484.945	183.595
488.32	213.408
491.695	226.102
495.07	212.333
498.445	165.402
501.82	115.567
505.194	78.3938
508.569	54.4536
511.944	39.9728
515.319	29.7975
518.694	24.3329
522.068	18.8519
525.443	14.7132
528.818	10.5246
532.193	7.30912
535.568	4.11039
538.943	1.97852
542.317	0.283737
545.692	0.196457
549.067	0.997948
552.442	1.31214
555.817	0.427582
559.192	0.89682
562.566	0.123238
565.941	0.132584
569.316	0.229111
572.691	1.44167
576.066	2.2456
579.44	2.5283
582.815	3.05865
586.19	3.88965
589.565	4.89721
592.94	6.02404
596.314	5.83408
599.689	6.29807
603.064	7.191
606.439	6.86407
609.814	6.66264
613.188	6.90818
616.563	7.52094
619.938	7.106
623.313	7.65084
626.688	7.06529
630.063	7.85468
633.437	7.91693
636.812	8.49884
640.187	8.44685
643.562	8.33691
646.937	8.4996
650.312	9.20688
653.686	8.68186
657.061	7.91958
660.436	6.93824
663.811	7.09072
667.186	5.59803
670.56	4.4326
673.935	4.39219
677.31	3.44498
680.685	2.90832
684.06	2.41151
687.434	1.39809
690.809	1.14927
694.184	0.145149
697.559	0.589928
700.934	1.22237
704.308	1.55882
707.683	0.132599
711.058	1.18791
714.433	1.64397
717.808	4.21429
721.183	5.38037
724.557	7.72794
727.932	10.4198
731.307	13.1238
734.682	15.9694
738.057	19.3518
741.432	20.869
744.806	19.765
748.181	17.2755
751.556	13.9522
754.931	9.72108
758.306	4.00995
761.68	1.26167
765.055	1.09743
768.43	2.09974
771.805	1.93588
775.18	0.519791
778.554	2.54339
781.929	8.75145
785.304	15.3749
788.679	27.7492
792.054	40.8601
795.429	58.4719
798.803	80.6824
802.178	104.666
805.553	133.346
808.928	165.947
812.303	203.562
815.678	243.419
819.052	293.242
822.427	332.641
825.802	358.412
829.177	356.737
832.552	340.207
835.926	311.781
839.301	277.707
842.676	238.979
846.051	200.802
849.426	170.566
852.801	142.887
856.175	126.395
859.55	110.028
862.925	96.0199
866.3	83.8244
869.675	73.7707
873.049	61.3411
876.424	50.6514
879.799	39.382
883.174	29.8338
886.549	22.4843
889.923	16.3187
893.298	11.3288
896.673	6.21011
900.048	3.34643
903.423	0.777939
906.798	0.690216
910.172	1.55235
913.547	2.2281
916.922	2.2584
920.297	1.21664
923.672	0.008362
927.046	1.35455
930.421	2.08207
933.796	3.15608
937.171	2.18183
940.546	2.06565
943.92	3.14233
947.295	3.42143
950.67	3.72374
954.045	4.02517
957.42	5.37223
960.795	5.69661
964.169	5.74342
967.544	4.9434
970.919	4.50775
974.294	4.17501
977.669	3.71382
981.043	3.16184
984.418	2.56882
987.793	3.2436
991.168	2.86121
994.543	2.69283
997.918	2.56002
1001.29	2.40512
1004.67	2.42169
1008.04	1.91467
1011.42	1.654
1014.79	1.77697
1018.17	2.00956
1021.54	1.05653
1024.92	0.801155
1028.29	0.387581
1031.67	1.25409
1035.04	0.788063
1038.41	0.678497
1041.79	0.453056
1045.16	0.667618
1048.54	0.857315
1051.91	0.94178
1055.29	0.492752
1058.66	0.278362
1062.04	0.454552
1065.41	0.635712
1068.79	0.34906
1072.16	0.253941
1075.54	0.107002
1078.91	0.700729
1082.29	0.434231
1085.66	0.556099
1089.04	0.238483
1092.41	0.839767
1095.79	0.582016
1099.16	0.139381
1102.54	0.24033
1105.91	0.139256
1109.29	0.354893
1112.66	0.117779
1116.04	0.206745
1119.41	0.192955
1122.79	0.116768
1126.16	0.010689
1129.54	0.609924
1132.91	0.238274
1136.29	0.557693
1139.66	0.273102
1143.04	0.436779
1146.41	0.615906
1149.78	0.458664
1153.16	0.71582
1156.53	0.406818
1159.91	0.372112
1163.28	0.123634
1166.66	0.733448
1170.03	0.278156
1173.41	0.407703
1176.78	0.622604
1180.16	0.583599
1183.53	0.631191
1186.91	0.765869
1190.28	1.12568
1193.66	1.56028
1197.03	0.797741
1200.41	1.47066
1203.78	0.032192
1207.16	0.482517
1210.53	0.526348
1213.91	0.363117
1217.28	0.082443
1220.65	0.449512
1224.03	0.169479
1227.4	0.073456
1230.78	0.651237
1234.15	1.36545
1237.53	0.619221
1240.9	1.03253
1244.28	0.718517
1247.65	0.824268
1251.03	0.647591
1254.4	0.195492
1257.78	1.1353
1261.15	0.915417
1264.53	0.644337
1267.9	0.624516
1271.28	0.597839
1274.65	0.316704
1278.03	0.001495
