Measurement: Raman, 532 nm, unoriented, Raman Data Processed
Mineral: Tsumebite
Rruff sample: R070446
Ideal chemistry: Pb_2_Cu(PO_4_)(SO_4_)(OH)
Locality: Tiger mine, Collins Vein, Tiger, Arizona, USA
Source: Joe Ruiz
Description: Sea blue tabular crystals on quartz associated with yellowish phosphohedyphane, goethite, hematite, cerussite, fluorite, and corkite.
Raman shift (cm-1)	intensity
128.228	0
131.602	19.1903
134.977	157.168
138.352	295.493
141.727	514.249
145.102	709.288
148.476	787.733
151.851	773.48
155.226	841.05
158.601	864.037
161.976	846.848
165.351	727.553
168.725	648.271
172.1	591.942
175.475	550.126
178.85	454.074
182.225	393.121
185.6	307.267
188.974	236.609
192.349	198.706
195.724	159.435
199.099	134.504
202.474	122.198
205.848	112.782
209.223	114.891
212.598	122.732
215.973	112.707
219.348	150.862
222.722	161.53
226.097	185.687
229.472	168.281
232.847	200.438
236.222	210.016
239.596	198.643
242.971	178.758
246.346	155.352
249.721	117.558
253.096	79.7331
256.471	46.1614
259.846	0.838623
263.22	17.7977
266.595	4.422
269.97	1.80225
273.345	35.9416
276.719	10.8283
280.094	7.1817
283.469	35.553
286.844	60.2249
290.219	134.735
293.594	198.559
296.968	256.627
300.343	344.156
303.718	441.317
307.093	528.632
310.468	556.13
313.843	582.862
317.217	533.115
320.592	505.454
323.967	426.712
327.342	356.825
330.717	277.981
334.091	199.825
337.466	124.129
340.841	75.2501
344.216	49.6143
347.591	5.64258
350.966	1.11243
354.34	26.577
357.715	53.0622
361.09	31.774
364.465	1.39362
367.84	27.1719
371.214	64.1569
374.589	178.025
377.964	285.902
381.339	429.597
384.714	631.384
388.089	662.527
391.463	632.078
394.838	563.832
398.213	492.471
401.588	457.529
404.963	472.498
408.337	519.162
411.712	558.553
415.087	627.688
418.462	695.505
421.837	769.082
425.212	812.528
428.586	1009.23
431.961	1325.78
435.336	1718.14
438.711	2107.37
442.086	2099.99
445.46	1686.6
448.835	1210.63
452.21	927.175
455.585	884.796
458.96	1020.66
462.334	1213.32
465.709	1336.64
469.084	1273.43
472.459	973.623
475.834	710.841
479.209	559.546
482.584	515.946
485.958	426.616
489.333	324.55
492.708	255.188
496.083	160.278
499.458	115.717
502.832	65.3466
506.207	42.2195
509.582	17.8112
512.957	32.4708
516.332	44.3041
519.707	34.4391
523.081	12.359
526.456	23.374
529.831	79.636
533.206	127.641
536.581	161.194
539.955	167.601
543.33	118.634
546.705	73.5212
550.08	82.7057
553.455	108.385
556.83	101.099
560.204	141.179
563.579	151.145
566.954	149.646
570.329	142.923
573.704	138.398
577.078	116.768
580.453	156.084
583.828	183.401
587.203	193.849
590.578	233.778
593.952	292.868
597.327	348.183
600.702	367.329
604.077	396.172
607.452	370.082
610.827	274.08
614.201	207.351
617.576	181.557
620.951	160.861
624.326	177.918
627.701	196.221
631.075	147.654
634.45	76.3655
637.825	19.7281
641.2	7.84955
644.575	4.64792
647.949	4.90234
651.324	3.12857
654.699	5.11404
658.074	0.786713
661.449	1.00253
664.824	8.88031
668.198	9.31769
671.573	9.69959
674.948	10.2274
678.323	2.10202
681.698	18.6284
685.073	16.2565
688.447	28.45
691.822	7.72778
695.197	19.706
698.572	1.69437
701.947	19.4563
705.322	7.09225
708.696	19.9682
712.071	14.38
715.446	1.62286
718.821	16.4804
722.196	30.6572
725.57	25.4849
728.945	14.0742
732.32	6.98575
735.695	21.5443
739.07	7.8692
742.444	10.9535
745.819	21.7402
749.194	7.7514
752.569	16.396
755.944	6.76706
759.318	46.6567
762.693	25.7969
766.068	28.4882
769.443	15.6416
772.818	10.5635
776.193	6.76941
779.567	11.7272
782.942	18.8253
786.317	17.8132
789.692	36.6632
793.067	37.6973
796.442	27.9539
799.816	33.7683
803.191	51.3658
806.566	40.2903
809.941	47.0525
813.316	61.1813
816.69	91.4023
820.065	60.075
823.44	68.8019
826.815	80.2247
830.19	53.0662
833.564	51.6722
836.939	56.6262
840.314	66.9771
843.689	54.2577
847.064	58.27
850.439	44.5543
853.813	23.8893
857.188	6.10461
860.563	15.108
863.938	0.921448
867.313	8.60175
870.688	6.8161
874.062	11.9889
877.437	0.473022
880.812	17.866
884.187	2.65399
887.562	28.7337
890.937	5.62378
894.311	38.1232
897.686	59.0183
901.061	114.571
904.436	240.224
907.811	390.548
911.185	605.976
914.56	882.5
917.935	1118.49
921.31	1402.73
924.685	1639.42
928.059	1888.07
931.434	1922.28
934.809	1705.85
938.184	1378
941.559	1062.78
944.933	853.104
948.308	878.035
951.683	1108.8
955.058	1543.97
958.433	2360.03
961.808	3797.08
965.182	5716.01
968.557	7833.17
971.932	8944.44
975.307	7991.02
978.682	5565.96
982.057	3150.68
985.431	1762.26
988.806	1080.49
992.181	699.71
995.556	464.573
998.931	297.324
1002.3	198.864
1005.68	113.049
1009.05	64.182
1012.43	17.8717
1015.8	2.13623
1019.18	24.7365
1022.55	20.2546
1025.93	8.63806
1029.3	5.85217
1032.68	24.7223
1036.05	19.9513
1039.43	41.5713
1042.8	94.245
1046.18	171.273
1049.55	289.665
1052.93	405.401
1056.3	430.54
1059.68	224.213
1063.05	195.437
1066.43	157.208
1069.8	163.76
1073.18	161.601
1076.55	175.27
1079.93	153.992
1083.3	130.31
1086.68	179.208
1090.05	204.681
1093.43	196.276
1096.8	189.361
1100.17	210.292
1103.55	148.066
1106.92	138.684
1110.3	107.264
1113.67	89.9222
1117.05	103.614
1120.42	110.069
1123.8	118.603
1127.17	117.047
1130.55	117.573
1133.92	87.8163
1137.3	87.9194
1140.67	47.1232
1144.05	10.6785
1147.42	2.70135
1150.8	17.0465
1154.17	2.7713
1157.55	3.72534
1160.92	23.8812
1164.3	60.9636
1167.67	78.3301
1171.05	109.993
1174.42	145.058
1177.8	145.903
1181.17	143.1
1184.55	126.842
1187.92	122.361
1191.3	74.3581
1194.67	54.1141
1198.05	68.5379
1201.42	43.0002
1204.8	41.43
1208.17	24.0735
1211.54	11.3837
1214.92	20.8576
1218.29	7.29828
1221.67	29.3093
1225.04	14.3805
1228.42	14.3478
1231.79	9.66479
1235.17	33.1119
1238.54	45.9333
1241.92	25.1043
1245.29	47.3878
1248.67	35.9505
1252.04	27.8162
1255.42	16.5687
1258.79	4.16406
1262.17	28.5809
1265.54	19.9506
1268.92	10.5164
1272.29	14.9913
1275.67	31.1822
1279.04	3.0669
1282.41	25.0893
1285.79	26.3723
1289.16	15.2933
1292.54	10.329
1295.91	14.8378
1299.29	17.0832
1302.66	1.5155
1306.04	15.1373
1309.41	2.61206
1312.79	11.3447
1316.16	8.49963
