Measurement: Raman, 532 nm, unoriented, Raman Data Processed
Mineral: Tsumcorite
Rruff sample: R060081
Ideal chemistry: Pb^2+^Zn^2+^_2_(As^5+^O_4_)_2_2H_2_O
Locality: Tsumeb mine, Tsumeb, Otavi District, Oshikoto, Namibia
Source: Marcus Origlieri
Description: Aggregate of yellowish-orange bladed crystals with significant chemical oscillations, associated with green duftite
Measured chemistry: Pb_1.00_Zn_1.00_(Fe_0.80_Zn_0.20_)_Σ=1_(As_1.00_O_4_)_2_(OH)·H_2_O ; trace amounts of Ca, Na, Cu, Al ; H_2_O estimated by difference
Raman shift (cm-1)	intensity
98.0851	0
101.46	0.175404
104.835	0.281811
108.21	4.03133
111.584	12.5513
114.959	35.1075
118.334	61.5935
121.709	80.9091
125.084	101.827
128.458	132.898
131.833	178.996
135.208	209.672
138.583	244.787
141.958	265.797
145.333	286.027
148.707	312.739
152.082	346.608
155.457	355.691
158.832	307.797
162.207	234.431
165.582	173.47
168.956	132.28
172.331	104.841
175.706	86.8816
179.081	78.2301
182.456	71.566
185.83	68.9141
189.205	66.6541
192.58	65.0225
195.955	60.9053
199.33	59.5165
202.704	56.1332
206.079	53.2884
209.454	50.0205
212.829	44.4683
216.204	36.4646
219.578	28.5691
222.953	22.2885
226.328	18.0301
229.703	15.2634
233.078	13.8348
236.453	14.579
239.827	14.9769
243.202	12.3354
246.577	8.83899
249.952	5.73242
253.327	1.01083
256.702	3.03128
260.076	6.01273
263.451	7.41235
266.826	7.69
270.201	2.80753
273.576	4.18939
276.95	16.8856
280.325	28.1781
283.7	40.1568
287.075	54.532
290.45	57.3235
293.825	54.9446
297.199	46.1983
300.574	36.795
303.949	26.2568
307.324	23.0473
310.699	21.9439
314.073	26.5594
317.448	38.506
320.823	49.4435
324.198	62.7931
327.573	81.3202
330.947	104.365
334.322	136.809
337.697	169.495
341.072	198.738
344.447	219.061
347.822	234.038
351.196	247.341
354.571	253.756
357.946	249.629
361.321	228.792
364.696	203.18
368.07	168.51
371.445	136.365
374.82	102.466
378.195	71.2741
381.57	49.6515
384.945	34.8434
388.319	26.3893
391.694	21.3986
395.069	20.1432
398.444	17.6297
401.819	13.8092
405.193	4.80945
408.568	2.32889
411.943	6.29306
415.318	6.79483
418.693	2.96164
422.067	1.59372
425.442	11.0472
428.817	19.6641
432.192	26.1699
435.567	35.2005
438.942	43.2298
442.316	50.2032
445.691	57.5198
449.066	61.1968
452.441	69.0754
455.816	80.8258
459.19	92.3883
462.565	106.099
465.94	127.882
469.315	153.484
472.69	186.181
476.065	235.983
479.439	296.878
482.814	370.156
486.189	455.834
489.564	532.364
492.939	567.256
496.313	516.931
499.688	403.596
503.063	293.632
506.438	212.441
509.813	160.68
513.188	123.459
516.562	99.0097
519.937	79.7077
523.312	66.6792
526.687	54.7575
530.062	41.3535
533.436	29.87
536.811	21.7582
540.186	11.2996
543.561	5.94064
546.936	1.86498
550.311	0.592331
553.685	1.65958
557.06	2.5554
560.435	2.60406
563.81	2.51285
567.185	1.55029
570.559	0.008255
573.934	0.816223
577.309	2.73701
580.684	4.16206
584.059	5.50652
587.433	5.98106
590.808	7.79833
594.183	8.68938
597.558	11.0477
600.933	11.7703
604.308	13.4679
607.682	14.1323
611.057	14.8794
614.432	14.62
617.807	15.7992
621.182	14.916
624.557	13.3556
627.931	15.0565
631.306	16.3338
634.681	17.9035
638.056	18.7805
641.431	20.4758
644.805	20.3295
648.18	18.6458
651.555	17.9347
654.93	16.2716
658.305	14.7661
661.679	13.7784
665.054	10.9434
668.429	9.21011
671.804	8.72916
675.179	5.40321
678.553	4.84396
681.928	2.03078
685.303	1.81055
688.678	1.00346
692.053	1.6967
695.428	1.02487
698.802	0.392197
702.177	2.20512
705.552	4.25211
708.927	8.38771
712.302	12.3965
715.677	21.518
719.051	27.9498
722.426	34.3375
725.801	41.2224
729.176	50.1627
732.551	58.0782
735.925	64.6399
739.3	73.0782
742.675	76.8262
746.05	70.3351
749.425	60.1673
752.799	47.2753
756.174	30.0216
759.549	17.6256
762.924	5.49484
766.299	2.42374
769.673	4.59961
773.048	6.26843
776.423	3.30652
779.798	0.396088
783.173	11.6255
786.548	25.9895
789.922	47.0546
793.297	77.4597
796.672	111.596
800.047	149.904
803.422	198.747
806.797	247.273
810.171	301.457
813.546	357.801
816.921	434.574
820.296	523.81
823.671	605.819
827.045	660.395
830.42	679.439
833.795	680.081
837.17	658.001
840.545	617.889
843.919	564.463
847.294	500.51
850.669	445.738
854.044	403.449
857.419	368.242
860.794	334.118
864.168	304.271
867.543	272.628
870.918	239.312
874.293	206.578
877.668	168.544
881.043	135.207
884.417	107.337
887.792	82.494
891.167	62.2437
894.542	44.6781
897.917	30.8414
901.291	17.309
904.666	9.88921
908.041	2.52818
911.416	3.11104
914.791	5.00781
918.165	6.25568
921.54	4.39191
924.915	0.739594
928.29	2.60948
931.665	4.79733
935.04	4.07307
938.414	5.47562
941.789	4.75122
945.164	3.83269
948.539	4.2552
951.914	6.53036
955.288	7.8783
958.663	7.67671
962.038	8.64946
965.413	10.8763
968.788	11.4932
972.163	11.4224
975.537	9.13127
978.912	8.40625
982.287	8.16804
985.662	8.0619
989.037	6.98271
992.411	8.02263
995.786	6.80586
999.161	7.00954
1002.54	7.40117
1005.91	6.23923
1009.28	6.17586
1012.66	4.92557
1016.03	4.58563
1019.41	3.28786
1022.78	2.81024
1026.16	2.02269
1029.53	1.28194
1032.91	2.87363
1036.28	0.093979
1039.66	0.970215
1043.03	1.69092
1046.41	1.55202
1049.78	0.248856
1053.16	1.57826
1056.53	0.58345
1059.91	0.38504
1063.28	0.91777
1066.66	2.15117
1070.03	0.117279
1073.41	0.336929
1076.78	0.418503
1080.16	0.43808
1083.53	0.684708
1086.91	0.835281
1090.28	1.45575
1093.66	0.071091
1097.03	1.43077
1100.41	0.495438
1103.78	0.96965
1107.15	0.359695
1110.53	1.19795
1113.9	0.508759
1117.28	0.588928
1120.65	0.188156
1124.03	0.489868
1127.4	0.457214
1130.78	0.406342
1134.15	1.00009
1137.53	0.072083
1140.9	0.585938
1144.28	0.212402
1147.65	0.574326
1151.03	1.11128
1154.4	0.088791
1157.78	1.17918
1161.15	0.168289
1164.53	1.41402
1167.9	1.31999
1171.28	1.21967
1174.65	1.49019
1178.03	0.600342
1181.4	1.28319
1184.78	1.74188
1188.15	1.70642
1191.53	1.36005
1194.9	1.73007
1198.28	2.03052
1201.65	1.03119
1205.03	1.21755
1208.4	1.83884
1211.77	0.475082
1215.15	0.558746
1218.52	1.6884
1221.9	1.55278
1225.27	1.33621
1228.65	1.66916
1232.02	0.398087
1235.4	1.4101
1238.77	0.233414
1242.15	0.265152
1245.52	1.13478
1248.9	0.172394
1252.27	2.21527
1255.65	2.11305
1259.02	1.99361
1262.4	1.47166
1265.77	2.02936
1269.15	1.64931
1272.52	1.31392
1275.9	1.10429
1279.27	1.89186
1282.65	1.68309
1286.02	1.49989
1289.39	1.8114
1292.77	0.522461
1296.14	0.02832
1299.52	0.177841
