Measurement: Raman, 532 nm, unoriented, Raman Data Processed
Mineral: Tsumebite
Rruff sample: R080020
Ideal chemistry: Pb_2_Cu(PO_4_)(SO_4_)(OH)
Locality: Mex-Tex mine, Bingham, Hansonburg District, Socorro County, New Mexico, USA
Source: William W. Pinch
Description: Teal-green micro-crystals, massive, associated with quartz
Raman shift (cm-1)	intensity
139.689	0
143.064	9.24451
146.439	20.1594
149.814	20.6601
153.189	23.5632
156.564	25.1478
159.938	23.7957
163.313	21.7506
166.688	10.7123
170.063	6.87433
173.438	0.267456
176.812	0.982574
180.187	1.22317
183.562	1.00296
186.937	1.15088
190.312	2.75876
193.686	8.60947
197.061	13.5354
200.436	22.5397
203.811	24.715
207.186	25.7234
210.561	22.7725
213.935	20.6309
217.31	14.9648
220.685	15.1188
224.06	12.6684
227.435	14.0574
230.81	15.8932
234.184	15.4058
237.559	15.6745
240.934	12.8836
244.309	11.2221
247.684	7.71457
251.058	5.33462
254.433	1.65515
257.808	0.180328
261.183	3.47394
264.558	3.64285
267.933	0.442963
271.307	0.408539
274.682	1.51968
278.057	3.5502
281.432	5.26379
284.807	11.5752
288.181	17.4306
291.556	26.5944
294.931	34.0527
298.306	41.8446
301.681	52.4155
305.055	62.5399
308.43	68.7137
311.805	74.5798
315.18	71.3304
318.555	67.3662
321.93	58.432
325.304	50.3123
328.679	38.3789
332.054	26.9457
335.429	20.8276
338.804	13.5334
342.178	7.43335
345.553	3.15564
348.928	0.239655
352.303	1.04703
355.678	3.51184
359.053	5.9057
362.427	5.48215
365.802	1.02841
369.177	5.63376
372.552	14.8899
375.927	28.2102
379.301	46.1752
382.676	69.696
386.051	87.974
389.426	87.1072
392.801	76.2421
396.175	59.1149
399.55	49.3509
402.925	43.2279
406.3	39.6745
409.675	38.6183
413.05	41.659
416.424	49.0011
419.799	58.1762
423.174	72.1932
426.549	89.6953
429.924	117.85
433.298	163.315
436.673	216.074
440.048	252.288
443.423	244.518
446.798	209.453
450.173	181.745
453.547	175.004
456.922	202.153
460.297	265.334
463.672	317.984
467.047	279.39
470.421	198.34
473.796	136.317
477.171	99.4074
480.546	83.9158
483.921	71.5066
487.296	58.1864
490.67	44.6712
494.045	34.4177
497.42	26.1802
500.795	18.0477
504.17	6.66956
507.544	0.692749
510.919	2.1041
514.294	3.61508
517.669	4.23547
521.044	1.87068
524.418	0.191727
527.793	3.6859
531.168	9.1619
534.543	16.8528
537.918	18.273
541.293	14.2962
544.667	7.20502
548.042	5.48357
551.417	5.67287
554.792	7.20634
558.167	8.71475
561.541	10.3845
564.916	10.9191
568.291	11.1627
571.666	9.34886
575.041	8.74997
578.415	9.10346
581.79	8.84718
585.165	12.1731
588.54	14.9726
591.915	17.1322
595.29	18.5303
598.664	21.5104
602.039	25.1536
605.414	28.5323
608.789	25.256
612.164	17.8568
615.538	13.7512
618.913	12.5965
622.288	15.0242
625.663	15.059
629.038	14.8679
632.413	7.70306
635.787	2.5278
639.162	0.734726
642.537	1.06244
645.912	0.008209
649.287	0.562866
652.662	1.12
656.036	0.409103
659.411	0.827698
662.786	1.04729
666.161	0.136673
669.536	0.517792
672.91	0.487747
676.285	0.622635
679.66	0.759979
683.035	0.061508
686.41	1.33855
689.784	2.56514
693.159	4.10202
696.534	3.68666
699.909	2.10991
703.284	2.38118
706.659	2.06908
710.033	1.75345
713.408	2.96428
716.783	1.37338
720.158	0.610458
723.533	1.43456
726.907	0.460693
730.282	0.344574
733.657	1.87413
737.032	1.78981
740.407	2.16643
743.782	0.271393
747.156	0.882034
750.531	0.528915
753.906	1.77557
757.281	0.785492
760.656	1.70276
764.03	2.80335
767.405	2.51837
770.78	1.85057
774.155	2.6868
777.53	2.44017
780.904	3.70596
784.279	4.94545
787.654	5.90572
791.029	6.17018
794.404	5.52
797.779	6.285
801.153	6.81216
804.528	8.67143
807.903	8.72601
811.278	8.42857
814.653	6.12404
818.028	3.70698
821.402	4.98572
824.777	5.29987
828.152	3.06722
831.527	2.32253
834.902	3.40057
838.276	3.18234
841.651	2.16234
845.026	1.10661
848.401	0.042557
851.776	0.319092
855.15	0.299698
858.525	0.78006
861.9	0.077805
865.275	1.38982
868.65	1.34648
872.024	0.834763
875.399	1.61636
878.774	1.70302
882.149	0.630936
885.524	0.296967
888.899	0.90184
892.273	4.81177
895.648	10.9621
899.023	18.9592
902.398	31.2508
905.773	45.7742
909.148	65.3315
912.522	87.5841
915.897	111.34
919.272	136.856
922.647	154.931
926.022	169.72
929.396	184.353
932.771	189.578
936.146	165.531
939.521	129.22
942.896	101.179
946.27	92.765
949.645	105.284
953.02	141.341
956.395	207.487
959.77	317.134
963.144	469.766
966.519	654.364
969.894	846.043
973.269	921.203
976.644	736.372
980.019	440.383
983.393	235.762
986.768	136.398
990.143	81.1703
993.518	49.4251
996.893	32.5131
1000.27	19.3059
1003.64	12.8724
1007.02	6.8746
1010.39	2.97836
1013.77	0.201385
1017.14	0.706512
1020.52	1.53525
1023.89	0.059357
1027.27	1.47949
1030.64	1.16968
1034.02	0.027466
1037.39	0.200073
1040.77	0.79715
1044.14	5.34955
1047.52	6.36798
1050.89	9.78766
1054.27	10.676
1057.64	10.4368
1061.01	12.0491
1064.39	11.0071
1067.76	11.1011
1071.14	9.10098
1074.51	10.3521
1077.89	9.19092
1081.26	10.4982
1084.64	9.32117
1088.01	11.5219
1091.39	9.41766
1094.76	7.95734
1098.14	7.39508
1101.51	5.58905
1104.89	5.1236
1108.26	3.01056
1111.64	3.05514
1115.01	1.20172
1118.39	1.71521
1121.76	3.25906
1125.14	2.63867
1128.51	3.95053
1131.88	3.31728
1135.26	0.916245
1138.63	2.55692
1142.01	0.226486
1145.38	0.266479
1148.76	0.450394
1152.13	0.583099
1155.51	1.48338
1158.88	1.90187
1162.26	3.13248
1165.63	2.54672
1169.01	3.72902
1172.38	5.07501
1175.76	6.74274
1179.13	6.87205
1182.51	7.45474
1185.88	5.57733
1189.26	2.73846
1192.63	1.78175
1196.01	1.70165
1199.38	0.903442
1202.76	0.213013
1206.13	0.492523
1209.51	0.021957
1212.88	0.264908
1216.26	2.10559
1219.63	2.39946
1223.01	2.40813
1226.38	3.3241
1229.76	3.82907
1233.13	3.62643
1236.51	2.86693
1239.88	2.49367
1243.25	3.42554
1246.63	2.89543
1250	2.90724
1253.38	3.58005
1256.75	1.46724
1260.13	2.40312
1263.5	2.0024
1266.88	2.60944
1270.25	0.289444
1273.63	1.62677
1277	1.0639
1280.38	2.92361
1283.75	1.31183
1287.13	2.29095
1290.5	1.80736
1293.88	1.39296
1297.25	1.57059
1300.63	2.46944
1304	0.65741
