Measurement: Raman, 532 nm, unoriented, Raman Data Processed
Mineral: Tsumcorite
Rruff sample: R110036
Ideal chemistry: Pb^2+^Zn^2+^_2_(As^5+^O_4_)_2_2H_2_O
Locality: Tsumeb, Namibia
Source: William W Pinch
Description: Orange wedge-shaped crystals
Raman shift (cm-1)	intensity
177.273	0
180.166	2.28052
183.059	9.15088
185.951	33.7638
188.844	71.3097
191.737	113.816
194.629	152.911
197.522	183.68
200.415	192.433
203.308	195.576
206.2	186.728
209.093	156.206
211.986	124.267
214.878	98.0945
217.771	96.6361
220.664	141.007
223.556	148.721
226.449	154.235
229.342	168.011
232.234	183.575
235.127	204.504
238.02	223.082
240.913	222.864
243.805	190.617
246.698	147.15
249.591	102.528
252.483	49.3494
255.376	1.29065
258.269	19.47
261.161	39.9783
264.054	32.3105
266.947	13.7029
269.84	93.2527
272.732	209.685
275.625	343.059
278.518	508.002
281.41	675.606
284.303	829.748
287.196	926.991
290.089	940.154
292.981	863.865
295.874	712.961
298.767	548.6
301.659	419.859
304.552	337.647
307.445	303.388
310.337	337.882
313.23	427.694
316.123	563.238
319.015	734.882
321.908	912.196
324.801	1120.99
327.694	1357.71
330.586	1646.87
333.479	1923.06
336.372	2034.95
339.264	1923.95
342.157	1689.71
345.05	1502.88
347.942	1383.56
350.835	1348.65
353.728	1318.25
356.621	1286.59
359.513	1199.71
362.406	1070.89
365.299	916.346
368.191	734.864
371.084	557.697
373.977	401.032
376.87	259.691
379.762	152.008
382.655	71.3012
385.548	24.8295
388.44	13.5057
391.333	25.0542
394.226	30.5576
397.118	20.1703
400.011	0.507935
402.904	5.51123
405.796	15.0847
408.689	18.3108
411.582	16.7607
414.475	24.8138
417.367	75.7955
420.26	140.256
423.153	234.422
426.045	335.917
428.938	428.161
431.831	518.983
434.724	589.336
437.616	634.493
440.509	668.694
443.402	676.666
446.294	663.53
449.187	645.834
452.08	633.789
454.972	637.449
457.865	683.262
460.758	762.316
463.651	883.809
466.543	1042.99
469.436	1291.87
472.329	1663.05
475.221	2197.53
478.114	2937.17
481.007	3864.25
483.899	4947.17
486.792	6138.33
489.685	7178.9
492.577	7586.29
495.47	6922.35
498.363	5461.84
501.256	3944.02
504.148	2823.7
507.041	2085.64
509.934	1606.73
512.826	1299.16
515.719	1084.16
518.612	919.381
521.505	776.672
524.397	647.829
527.29	516.946
530.183	382.786
533.075	256.478
535.968	160.04
538.861	82.1998
541.753	35.3134
544.646	3.36182
547.539	21.2805
550.432	22.1282
553.324	25.3054
556.217	22.6529
559.11	16.6104
562.002	8.7905
564.895	1.86508
567.788	15.702
570.68	27.8259
573.573	38.7242
576.466	52.2788
579.359	68.3256
582.251	79.5177
585.144	97.1716
588.037	109.08
590.929	128.465
593.822	143.049
596.715	155.558
599.607	171.576
602.5	181.937
605.393	192.623
608.285	202.684
611.178	209.165
614.071	211.475
616.964	209.585
619.856	213.885
622.749	217.658
625.642	219.873
628.534	233.75
631.427	228.682
634.32	236.107
637.212	240.889
640.105	247.705
642.998	254.13
645.891	264.077
648.783	275.265
651.676	284.912
654.569	295.176
657.461	306.018
660.354	312.239
663.247	309.664
666.139	304.971
669.032	292.29
671.925	274.063
674.818	250.881
677.71	229.775
680.603	206.902
683.496	185.564
686.388	158.074
689.281	129.882
692.174	105.101
695.067	76.4324
697.959	52.2889
700.852	27.2609
703.745	4.03862
706.637	8.25153
709.53	25.8107
712.423	40.4092
715.315	49.9241
718.208	56.1237
721.101	49.6598
723.994	40.4506
726.886	24.7033
729.779	5.1825
732.672	9.67602
735.564	41.2985
738.457	92.6425
741.35	152.857
744.242	213.981
747.135	286.221
750.028	324.424
752.92	358.061
755.813	328.212
758.706	280.6
761.599	215.029
764.491	158.459
767.384	112.967
770.277	75.4437
773.169	75.731
776.062	86.6213
778.955	121.328
781.847	198.874
784.74	324.272
787.633	501.466
790.526	748.453
793.418	1067.37
796.311	1467.08
799.204	1927.8
802.096	2499.67
804.989	3156.44
807.882	3930.51
810.774	4879.4
813.667	6047.78
816.56	7433.7
819.453	9005.79
822.345	10619
825.238	12073.5
828.131	13218.8
831.023	14042.4
833.916	14394
836.809	14075.5
839.702	12922.8
842.594	11243.4
845.487	9364.57
848.38	7663.62
851.272	6252.54
854.165	5108.85
857.058	4203.8
859.95	3481.91
862.843	2868.33
865.736	2374.07
868.629	1952.68
871.521	1620.16
874.414	1337.26
877.307	1075.28
880.199	861.704
883.092	682.858
885.985	533.57
888.877	400.795
891.77	277.932
894.663	165.966
897.556	62.6953
900.448	14.8084
903.341	53.779
906.234	80.8056
909.126	90.1283
912.019	86.4078
914.912	61.359
917.804	9.9967
920.697	58.2606
923.59	129.253
926.482	194.345
929.375	235.226
932.268	227.447
935.161	193.089
938.053	152.162
940.946	121.828
943.839	114.322
946.731	121.967
949.624	135.696
952.517	157.931
955.409	170.811
958.302	188.12
961.195	191.028
964.088	181.36
966.98	164.837
969.873	134.276
972.766	109.467
975.658	94.4703
978.551	95.4413
981.444	97.9774
984.337	103.77
987.229	108.723
990.122	109.379
993.015	110.554
995.907	108.862
998.8	104.439
1001.69	94.23
1004.59	83.3212
1007.48	72.8339
1010.37	60.624
1013.26	52.2121
1016.16	41.6499
1019.05	35.38
1021.94	28.1815
1024.83	21.4899
1027.73	18.8376
1030.62	16.2089
1033.51	11.6013
1036.4	12.3141
1039.3	9.34363
1042.19	8.99034
1045.08	7.83542
1047.98	4.44667
1050.87	6.10262
1053.76	6.07935
1056.65	4.1398
1059.55	4.59074
1062.44	1.11881
1065.33	0.007462
1068.22	2.04796
1071.12	1.8082
1074.01	3.73853
1076.9	3.72652
1079.8	0.593369
1082.69	0.854729
1085.58	0.57795
1088.47	0.906898
1091.37	0.990921
1094.26	0.360809
1097.15	0.221443
1100.04	0.224876
1102.94	0.07711
1105.83	0.808823
1108.72	0.531914
1111.62	0.501938
1114.51	1.07407
1117.4	0.591339
1120.29	0.556969
1123.19	1.27637
1126.08	1.61537
1128.97	0.926651
1131.86	0.730156
1134.76	0.131004
1137.65	1.32223
1140.54	5.38991
1143.43	3.56464
1146.33	4.97052
1149.22	5.37183
1152.11	0.528
1155.01	4.25552
1157.9	5.50662
1160.79	4.74965
1163.68	6.83181
1166.58	8.5288
1169.47	6.04038
1172.36	7.93407
1175.26	16.5792
1178.15	7.46744
1181.04	4.90022
1183.93	4.50165
1186.83	7.57797
1189.72	7.38425
1192.61	6.5639
1195.5	5.42529
1198.4	2.95956
1201.29	5.9092
1204.18	2.57815
1207.07	4.67519
1209.97	3.34665
1212.86	0.654732
1215.75	3.09371
1218.64	1.83453
1221.54	2.53695
1224.43	4.98321
1227.32	2.45587
1230.22	1.86838
1233.11	3.42321
1236	2.37139
1238.89	4.19914
1241.79	4.13248
1244.68	3.21408
1247.57	3.21549
1250.46	3.51688
1253.36	6.03401
1256.25	5.85892
1259.14	6.82083
1262.04	4.65131
1264.93	3.33213
1267.82	4.76701
1270.71	2.54241
1273.61	1.99168
1276.5	2.08025
1279.39	6.68513
1282.29	1.83148
1285.18	5.21899
1288.07	5.3219
1290.96	6.01042
1293.86	2.94054
1296.75	2.97601
1299.64	2.60049
1302.53	0.703735
