Measurement: Raman, 780 nm, unoriented, Raman Data Processed
Mineral: Tsumebite
Rruff sample: R080020
Ideal chemistry: Pb_2_Cu(PO_4_)(SO_4_)(OH)
Locality: Mex-Tex mine, Bingham, Hansonburg District, Socorro County, New Mexico, USA
Source: William W. Pinch
Description: Teal-green micro-crystals, massive, associated with quartz
Raman shift (cm-1)	intensity
138.383	0
141.275	1.8746
144.168	3.17645
147.061	3.49879
149.953	3.73651
152.846	4.11716
155.739	4.50787
158.632	3.8899
161.524	3.51419
164.417	3.68288
167.31	3.89186
170.202	3.08959
173.095	1.63496
175.988	1.59746
178.881	0.633217
181.773	0.198387
184.666	0.23703
187.559	0.198769
190.451	0.33786
193.344	0.27282
196.237	0.316833
199.129	1.51433
202.022	2.67257
204.915	2.86715
207.808	3.97547
210.7	3.88775
213.593	4.58415
216.486	4.52639
219.378	3.7566
222.271	5.14193
225.164	4.71575
228.056	5.16265
230.949	4.67037
233.842	4.82442
236.734	3.24396
239.627	3.03966
242.52	3.53516
245.413	1.97316
248.305	1.85521
251.198	1.70068
254.091	0.169464
256.983	0.441498
259.876	0.906136
262.769	1.6131
265.661	1.73036
268.554	1.17232
271.447	2.58928
274.34	3.07604
277.232	3.81751
280.125	5.41349
283.018	5.47321
285.91	7.10037
288.803	8.74465
291.696	8.77533
294.589	9.56873
297.481	10.5457
300.374	10.9655
303.267	10.4781
306.159	10.193
309.052	9.52036
311.945	8.22916
314.837	7.40449
317.73	6.25357
320.623	4.78828
323.515	4.07706
326.408	2.12056
329.301	1.95197
332.194	1.73634
335.086	0.069115
337.979	0.230934
340.872	0.447037
343.764	0.106384
346.657	0.516953
349.55	0.913506
352.442	0.150124
355.335	0.459023
358.228	0.108124
361.121	0.159073
364.013	0.462326
366.906	1.61329
369.799	3.38605
372.691	4.89494
375.584	6.85937
378.477	8.38245
381.37	10.8822
384.262	13.9048
387.155	15.1677
390.048	17.1945
392.94	17.9926
395.833	19.4985
398.726	20.9626
401.618	22.6868
404.511	24.0859
407.404	24.5117
410.296	25.6685
413.189	26.1223
416.082	27.3056
418.975	28.9644
421.867	30.8042
424.76	33.5246
427.653	37.218
430.545	39.302
433.438	43.3564
436.331	45.4157
439.224	45.9383
442.116	43.318
445.009	36.6349
447.902	30.6973
450.794	26.2826
453.687	23.9745
456.58	22.0838
459.472	23.4917
462.365	24.4422
465.258	22.4359
468.151	18.1275
471.043	13.5134
473.936	10.6477
476.829	8.49512
479.721	7.38285
482.614	5.35126
485.507	3.7771
488.399	3.09771
491.292	2.06656
494.185	2.04622
497.077	0.590302
499.97	0.196362
502.863	0.181232
505.756	0.307129
508.648	0.228237
511.541	1.04991
514.434	0.388145
517.326	0.750107
520.219	0.110912
523.112	0.714779
526.005	0.283665
528.897	0.834709
531.79	1.62377
534.683	1.42506
537.575	0.921768
540.468	1.08779
543.361	0.583241
546.253	0.646355
549.146	0.596283
552.039	1.10946
554.932	1.03684
557.824	1.04628
560.717	1.69918
563.61	1.93254
566.502	0.619488
569.395	0.804485
572.288	0.768215
575.18	0.897274
578.073	0.931087
580.966	0.724525
583.859	1.56286
586.751	1.64212
589.644	1.30442
592.537	2.00752
595.429	2.68972
598.322	2.72492
601.215	3.14043
604.107	2.81217
607	3.24636
609.893	2.70819
612.785	2.32676
615.678	2.14561
618.571	1.4369
621.464	0.907619
624.356	1.16058
627.249	1.63428
630.142	1.4967
633.034	0.967808
635.927	0.725704
638.82	0.557056
641.712	0.218693
644.605	0.227459
647.498	0.644035
650.391	0.325077
653.283	0.504879
656.176	0.434101
659.069	0.405811
661.961	0.372566
664.854	0.438828
667.747	0.769943
670.639	0.758427
673.532	0.557564
676.425	0.149864
679.318	0.000866
682.21	0.971386
685.103	0.309616
687.996	0.074226
690.888	0.564014
693.781	1.01882
696.674	0.56052
699.567	0.769325
702.459	0.013397
705.352	0.050518
708.245	0.561016
711.137	0.673393
714.03	0.497593
716.923	0.295761
719.815	0.036434
722.708	0.102104
725.601	0.325974
728.494	0.547791
731.386	1.05273
734.279	0.045498
737.172	0.691692
740.064	0.727085
742.957	0.900234
745.85	0.126919
748.742	0.209084
751.635	0.187088
754.528	0.019283
757.42	0.143551
760.313	0.348404
763.206	0.941441
766.099	0.693455
768.991	0.687782
771.884	0.640923
774.777	0.615593
777.669	0.665169
780.562	0.042435
783.455	0.906349
786.347	1.08121
789.24	0.581745
792.133	1.44632
795.026	0.828587
797.918	1.19544
800.811	0.696739
803.704	0.173599
806.596	0.515327
809.489	1.04036
812.382	0.455227
815.274	0.853165
818.167	0.993542
821.06	0.933495
823.953	0.482155
826.845	1.15995
829.738	0.784943
832.631	0.659744
835.523	0.740093
838.416	0.473053
841.309	0.357941
844.201	0.525112
847.094	0.302612
849.987	0.183678
852.88	0.47718
855.772	0.455147
858.665	0.429611
861.558	0.109097
864.45	0.145878
867.343	0.337257
870.236	0.285854
873.128	0.11277
876.021	0.381424
878.914	0.486336
881.807	0.424782
884.699	0.011639
887.592	0.130253
890.485	0.35128
893.377	1.15029
896.27	2.42715
899.163	3.17966
902.055	4.56175
904.948	5.71713
907.841	7.79649
910.734	9.69412
913.626	11.9343
916.519	14.2902
919.412	16.7482
922.304	17.3713
925.197	18.7169
928.09	19.2466
930.982	18.9501
933.875	18.1401
936.768	17.0901
939.66	15.8336
942.553	16.299
945.446	18.9208
948.339	23.3847
951.231	30.4384
954.124	41.2067
957.017	52.4012
959.909	65.5941
962.802	76.2615
965.695	83.2766
968.587	86.0599
971.48	80.4782
974.373	66.2014
977.266	48.3283
980.158	33.0493
983.051	21.9647
985.944	15.1685
988.836	10.6222
991.729	7.31594
994.622	5.45661
997.514	4.55118
1000.41	3.04703
1003.3	2.06331
1006.19	1.37789
1009.09	1.022
1011.98	0.434299
1014.87	0.425491
1017.76	0.009815
1020.66	0.333206
1023.55	0.212563
1026.44	0.454086
1029.33	0.388477
1032.23	0.071018
1035.12	0.301899
1038.01	0.089966
1040.9	0.600384
1043.8	0.515495
1046.69	0.391212
1049.58	0.253258
1052.48	0.876915
1055.37	0.916771
1058.26	0.569942
1061.15	0.788731
1064.05	0.59478
1066.94	0.55117
1069.83	0.815346
1072.72	0.922848
1075.62	0.872818
1078.51	1.01391
1081.4	0.981861
1084.3	0.53381
1087.19	0.869125
1090.08	0.910461
1092.97	1.10396
1095.87	1.01313
1098.76	0.339851
1101.65	0.946213
1104.54	0.363644
1107.44	0.547409
1110.33	0.801743
1113.22	0.382538
1116.12	0.622124
1119.01	0.985771
1121.9	1.13171
1124.79	1.42317
1127.69	1.07943
1130.58	1.09937
1133.47	1.45104
1136.36	0.663639
1139.26	0.781311
1142.15	0.639084
1145.04	0.383793
1147.93	0.525089
1150.83	0.121246
1153.72	0.54221
1156.61	0.634918
1159.51	1.21138
1162.4	0.46759
1165.29	0.361336
1168.18	0.786751
1171.08	0.553268
1173.97	0.812634
1176.86	0.630013
1179.76	0.429062
1182.65	0.543293
1185.54	0.481441
1188.43	0.047512
1191.33	0.126846
1194.22	0.444046
1197.11	0.415218
1200	0.605736
1202.9	0.562355
1205.79	0.119286
1208.68	0.486473
1211.57	0.543789
1214.47	1.21439
1217.36	0.832851
1220.25	1.41943
1223.14	1.00257
1226.04	0.746395
1228.93	0.418076
1231.82	0.856266
1234.72	1.37405
1237.61	1.00848
1240.5	1.01829
1243.39	0.980148
