Measurement: Raman, 532 nm, unoriented, Raman Data Processed
Mineral: Tugarinovite
Rruff sample: R100218
Ideal chemistry: MoO_2_
Locality: Mining concentrate
Source: Mike Carducci, Climax Molybdenum Technology Center
Description: Black unconsolidated powder, representing a mixture with a Mo-oxide.
Raman shift (cm-1)	intensity
163.353	0
166.245	0.162838
169.138	0.582687
172.031	2.57504
174.924	4.02339
177.816	4.82027
180.709	4.02909
183.602	5.2271
186.494	10.3722
189.387	12.6916
192.28	15.5354
195.173	23.0956
198.065	29.8241
200.958	47.1709
203.851	58.7005
206.743	48.0748
209.636	39.5541
212.529	18.1768
215.421	9.98346
218.314	8.22316
221.207	10.2377
224.1	18.0992
226.992	15.3815
229.885	30.3834
232.778	13.3368
235.67	1.51512
238.563	3.033
241.456	2.91962
244.348	4.19898
247.241	1.48879
250.134	2.36981
253.026	0.022457
255.919	3.27354
258.812	1.1066
261.705	1.79099
264.597	1.70165
267.49	1.68053
270.383	2.84989
273.276	2.48367
276.168	1.9526
279.061	3.48458
281.954	2.61329
284.846	0.486545
287.739	0.688076
290.632	1.40735
293.524	1.32711
296.417	0.946226
299.31	2.66963
302.202	4.52503
305.095	1.42826
307.988	3.20107
310.881	3.18452
313.773	1.63671
316.666	2.39372
319.559	1.17504
322.451	1.87312
325.344	0.279819
328.237	0.827158
331.13	8.08981
334.022	9.0297
336.915	7.34697
339.808	17.3058
342.7	18.4692
345.593	28.6495
348.486	28.0429
351.378	32.8126
354.271	24.7819
357.164	26.7612
360.057	35.4093
362.949	44.0595
365.842	38.1119
368.735	21.1392
371.627	9.21428
374.52	5.88394
377.413	1.70453
380.305	1.77355
383.198	1.62013
386.091	5.1849
388.984	1.27667
391.876	4.07385
394.769	0.424995
397.662	0.499524
400.554	0.55617
403.447	1.3437
406.34	0.847239
409.233	4.48011
412.125	1.6223
415.018	0.940969
417.911	0.012474
420.803	1.27058
423.696	5.07001
426.589	1.71125
429.481	2.70568
432.374	1.20065
435.267	0.35155
438.159	2.8467
441.052	2.82264
443.945	0.794317
446.838	3.12424
449.73	3.25002
452.623	3.94918
455.516	10.0949
458.409	13.9429
461.301	8.0597
464.194	7.13343
467.087	4.61709
469.979	5.44954
472.872	3.97971
475.765	0.407354
478.657	2.69495
481.55	6.69881
484.443	13.5441
487.336	15.1729
490.228	25.1353
493.121	36.4495
496.014	46.8242
498.906	35.5782
501.799	14.4152
504.692	6.43531
507.584	1.17443
510.477	3.65314
513.37	2.9664
516.263	0.797083
519.155	2.25856
522.048	0.508849
524.941	1.92141
527.833	1.48992
530.726	3.38319
533.619	1.32684
536.511	4.64405
539.404	3.60505
542.297	7.01227
545.19	6.16859
548.082	8.22951
550.975	9.76687
553.868	17.5304
556.76	20.1078
559.653	27.2147
562.546	33.573
565.438	38.4497
568.331	39.5665
571.224	38.2951
574.117	35.1854
577.009	25.1453
579.902	18.9866
582.795	21.1159
585.687	15.6724
588.58	14.4129
591.473	11.7171
594.365	6.01272
597.258	2.45311
600.151	5.2777
603.044	1.85419
605.936	5.13822
608.829	0.753187
611.722	3.43691
614.614	3.31441
617.507	3.242
620.4	0.426349
623.293	5.21314
626.185	3.35631
629.078	0.292282
631.971	0.257333
634.863	3.49222
637.756	2.27243
640.649	3.93289
643.542	2.79604
646.434	0.324595
649.327	0.785184
652.22	0.692394
655.112	0.20098
658.005	1.02646
660.898	0.256817
663.79	1.02304
666.683	1.50682
669.576	4.31267
672.468	1.99782
675.361	2.4103
678.254	1.25015
681.147	2.07458
684.039	6.61501
686.932	2.47515
689.825	3.13789
692.717	0.300617
695.61	1.44622
698.503	3.89864
701.396	3.53025
704.288	2.75801
707.181	1.88996
710.074	4.3373
712.966	4.00089
715.859	7.98345
718.752	9.41434
721.644	10.202
724.537	16.4058
727.43	23.9129
730.323	27.5214
733.215	37.0835
736.108	46.0552
739.001	54.6473
741.893	53.1266
744.786	51.6467
747.679	36.6233
750.572	26.2613
753.464	25.6386
756.357	16.4768
759.25	11.8746
762.142	10.983
765.035	8.02243
767.928	8.98916
770.82	4.80746
773.713	3.91613
776.606	4.86547
779.499	6.65022
782.391	3.5572
785.284	2.35572
788.177	0.630829
791.069	0.208037
793.962	1.14648
796.855	1.14811
799.747	2.30161
802.64	0.052603
805.533	2.15548
808.426	1.55537
811.318	0.368832
814.211	0.772824
817.104	6.46016
819.996	7.15336
822.889	4.11148
825.782	0.320192
828.674	5.10841
831.567	3.4335
834.46	0.898489
837.353	2.21542
840.245	1.76349
843.138	2.62504
846.031	3.0831
848.923	2.72952
851.816	1.74739
854.709	2.46147
857.601	2.77874
860.494	1.53412
863.387	0.671037
866.28	1.67668
869.172	1.52039
872.065	2.57518
874.958	1.15153
877.851	1.87088
880.743	1.56332
883.636	5.11725
886.529	2.93056
889.421	2.07124
892.314	0.792074
895.207	3.16454
898.099	2.44389
900.992	4.39221
903.885	2.59074
906.778	2.74342
909.67	1.4224
912.563	0.712313
915.456	2.93427
918.348	1.75865
921.241	1.33921
924.134	3.8766
927.026	2.83622
929.919	2.69718
932.812	1.74378
935.705	0.144258
938.597	0.048934
941.49	0.579602
944.383	0.962672
947.275	2.81741
950.168	3.11813
953.061	0.383132
955.953	0.168248
958.846	1.639
961.739	2.31005
964.631	0.937127
967.524	2.45835
970.417	1.20803
973.31	3.42517
976.202	1.86896
979.095	2.10946
981.988	4.31025
984.88	0.443705
987.773	3.53125
990.666	3.77548
993.559	2.99625
996.451	2.19852
999.344	1.6649
1002.24	4.54959
1005.13	0.661044
1008.02	0.121701
1010.91	4.13825
1013.81	1.23337
1016.7	1.89384
1019.59	2.97621
1022.49	4.6768
1025.38	3.93881
1028.27	0.745875
1031.16	4.09832
1034.06	3.74855
1036.95	2.52399
1039.84	1.89948
1042.73	3.06805
1045.63	1.04774
1048.52	3.92775
1051.41	1.10627
1054.31	0.686288
1057.2	4.2604
1060.09	2.69581
1062.98	3.28369
1065.88	0.028366
1068.77	3.68518
1071.66	2.41596
1074.55	2.94847
1077.45	2.59628
1080.34	2.47425
1083.23	3.92511
1086.12	5.45716
1089.02	2.66432
1091.91	1.03295
1094.8	1.12781
1097.7	3.97805
1100.59	0.069985
1103.48	2.14846
1106.37	0.702014
1109.27	5.20056
1112.16	6.30548
1115.05	0.251883
1117.94	1.68734
1120.84	0.288668
1123.73	1.99414
1126.62	0.974288
1129.52	1.00108
1132.41	1.29274
1135.3	3.18941
1138.19	3.4167
1141.09	2.63039
1143.98	0.571021
1146.87	3.91825
1149.77	0.331237
1152.66	3.44647
1155.55	1.33745
1158.44	2.61151
1161.34	2.73181
1164.23	2.49404
1167.12	2.58853
1170.01	3.56505
1172.91	0.832382
1175.8	4.14323
1178.69	1.10157
1181.58	1.59307
1184.48	2.58032
1187.37	2.57912
1190.26	3.49351
1193.15	1.64818
1196.05	1.36388
1198.94	2.02058
1201.83	0.231508
1204.73	2.08725
1207.62	2.09975
1210.51	2.67563
1213.4	3.8117
1216.3	1.87149
1219.19	5.75356
1222.08	2.72121
1224.97	3.65881
1227.87	6.37855
1230.76	1.67225
1233.65	3.28216
1236.55	2.46511
1239.44	0.64997
1242.33	2.04119
1245.22	0.846377
1248.12	2.50618
1251.01	3.62974
1253.9	5.64767
1256.8	4.44069
1259.69	1.9964
1262.58	3.15445
1265.47	2.83626
1268.37	1.33995
1271.26	2.19083
1274.15	2.54255
1277.04	1.87026
1279.94	2.71728
1282.83	3.93225
1285.72	1.77087
1288.61	2.13266
1291.51	4.66805
1294.4	3.70606
1297.29	3.1104
1300.18	0.845706
