Measurement: Raman, 532 nm, unoriented, Raman Data Processed
Mineral: Tugtupite
Rruff sample: R050278
Ideal chemistry: Na_4_BeAlSi_4_O_12_Cl
Locality: Kvanefjeld, Ilimaussag, Greenland
Source: Marcus Origlieri
Description: Pink fine-grained aggregate associated with albite
Measured chemistry: Na_4.00_Be_1.00_Al_1.00_Si_4.00_O_12_Cl_1.00_ ; Be not measured but estimated by charge balance
Raman shift (cm-1)	intensity
135.932	0
138.825	2.03033
141.717	3.7796
144.61	7.61468
147.503	24.7228
150.395	44.8557
153.288	79.2287
156.181	151.39
159.073	252.268
161.966	210.491
164.859	120.942
167.751	52.5383
170.644	39.6304
173.537	35.5866
176.43	55.9553
179.322	92.077
182.215	84.3334
185.108	33.5063
188	25.041
190.893	23.5212
193.786	37.1918
196.679	54.3367
199.571	95.2315
202.464	173.671
205.357	176.428
208.249	39.8926
211.142	1.62073
214.035	14.1525
216.927	8.13269
219.82	0.9776
222.713	0.174622
225.606	16.3177
228.498	37.6043
231.391	63.0868
234.284	95.8758
237.176	138.365
240.069	214.835
242.962	359.636
245.854	418.766
248.747	278.959
251.64	270.751
254.532	299.028
257.425	373.921
260.318	487.012
263.211	630.566
266.103	762.345
268.996	826.115
271.889	780.043
274.781	673.853
277.674	552.075
280.567	460.06
283.459	418.263
286.352	440.756
289.245	527.884
292.138	489.957
295.03	257.099
297.923	133.014
300.816	86.9262
303.708	67.0266
306.601	62.4118
309.494	71.5891
312.387	97.7981
315.279	123.503
318.172	118.44
321.065	122.768
323.957	164.017
326.85	245.733
329.743	163.161
332.635	57.7942
335.528	22.9622
338.421	9.99701
341.313	1.06769
344.206	4.21185
347.099	5.34985
349.991	2.96619
352.884	1.05389
355.777	3.11688
358.67	5.06885
361.562	11.0971
364.455	23.956
367.348	35.8975
370.24	52.9145
373.133	72.1483
376.026	99.4125
378.918	134.848
381.811	176.012
384.704	222.061
387.597	241.512
390.489	212.871
393.382	143.835
396.275	80.1916
399.167	45.9412
402.06	27.118
404.953	9.46722
407.846	1.58472
410.738	4.6991
413.631	7.33307
416.524	1.98798
419.416	7.64661
422.309	26.0804
425.202	50.1447
428.094	75.7559
430.987	126.651
433.88	203.655
436.773	329.57
439.665	403.385
442.558	255.326
445.451	206.492
448.343	252.306
451.236	359.363
454.129	548.328
457.021	866.854
459.914	1259.23
462.807	1322.08
465.7	848.162
468.592	447.985
471.485	246.08
474.378	149.506
477.27	95.3126
480.163	64.0217
483.056	37.5178
485.948	26.798
488.841	16.6262
491.734	18.9688
494.627	31.8002
497.519	58.2416
500.412	92.0364
503.305	150.526
506.197	249.919
509.09	369.571
511.983	368.507
514.875	158.288
517.768	42.4863
520.661	1.81506
523.553	8.80798
526.446	1.6665
529.339	4.2345
532.232	28.996
535.124	60.1322
538.017	118.427
540.91	199.043
543.802	305.844
546.695	454.594
549.588	644.318
552.481	831.417
555.373	834.536
558.266	599.123
561.159	350.954
564.051	195.943
566.944	116.952
569.837	73.6856
572.729	47.1877
575.622	29.4235
578.515	21.8547
581.408	12.4774
584.3	8.07373
587.193	0.61853
590.086	0.429565
592.978	3.23193
595.871	0.565063
598.764	1.41321
601.656	4.05371
604.549	1.74145
607.442	9.47327
610.335	19.7435
613.227	40.7029
616.12	73.5918
619.013	117.882
621.905	178.323
624.798	290.447
627.691	448.53
630.583	573.029
633.476	396.72
636.369	170.824
639.261	95.7925
642.154	76.1188
645.047	74.2742
647.94	92.3832
650.832	122.971
653.725	159.477
656.618	172.8
659.51	115.409
662.403	60.9764
665.296	34.0583
668.188	20.4578
671.081	11.7425
673.974	9.77051
676.867	8.84851
679.759	5.50561
682.652	5.77686
685.545	4.26428
688.437	0.955811
691.33	0.05835
694.223	0.735962
697.115	2.27356
700.008	1.72546
702.901	1.96252
705.794	1.56213
708.686	0.489014
711.579	0.76001
714.472	1.85669
717.364	3.67285
720.257	0.693848
723.15	5.36121
726.043	8.60059
728.935	8.42151
731.828	10.8712
734.721	6.64478
737.613	6.28662
740.506	7.83643
743.399	9.63257
746.291	7.09802
749.184	9.91272
752.077	10.1948
754.97	7.5592
757.862	6.24597
760.755	9.85815
763.648	10.7643
766.54	10.8069
769.433	8.60181
772.326	10.579
775.218	17.8903
778.111	23.0425
781.004	38.9368
783.896	59.207
786.789	81.021
789.682	88.7956
792.574	65.1239
795.467	31.6548
798.36	18.7582
801.253	10.3219
804.145	10.6652
807.038	6.12244
809.931	5.08875
812.823	4.35803
815.716	0.598022
818.609	2.85913
821.501	0.085327
824.394	4.47766
827.287	0.362305
830.18	0.164429
833.072	0.464111
835.965	3.62476
838.858	2.38586
841.75	4.31714
844.643	8.5155
847.536	1.87048
850.428	2.8197
853.321	4.995
856.214	5.56653
859.107	6.00696
861.999	3.03259
864.892	2.82019
867.785	4.46057
870.677	4.78503
873.57	4.11865
876.463	0.397095
879.356	0.914795
882.248	2.40796
885.141	2.50635
888.034	0.119507
890.926	3.22388
893.819	2.63818
896.712	2.13538
899.604	1.63599
902.497	0.533813
905.39	1.40417
908.283	0.729736
911.175	0.360596
914.068	0.673706
916.961	3.36646
919.853	5.47998
922.746	4.92883
925.639	5.36121
928.531	7.76917
931.424	13.3884
934.317	9.85437
937.21	15.4678
940.102	19.147
942.995	25.3068
945.888	32.6931
948.78	36.8954
951.673	26.7752
954.566	20.0427
957.458	13.0654
960.351	10.8475
963.244	14.3806
966.136	17.3378
969.029	26.8569
971.922	30.6451
974.815	20.543
977.707	7.31299
980.6	8.01672
983.493	6.59106
986.385	2.13647
989.278	4.23083
992.171	2.17859
995.063	0.322144
997.956	1.03479
1000.85	1.68323
1003.74	1.69727
1006.63	1.64624
1009.53	8.82141
1012.42	10.3544
1015.31	14.5877
1018.21	14.5604
1021.1	16.4446
1023.99	20.1968
1026.88	21.7107
1029.78	31.0101
1032.67	39.9419
1035.56	63.6621
1038.45	117.423
1041.35	183.718
1044.24	271.854
1047.13	394.511
1050.03	615.708
1052.92	673.177
1055.81	363.8
1058.7	203.958
1061.6	131.788
1064.49	75.427
1067.38	38.6337
1070.27	18.4523
1073.17	8.94495
1076.06	6.01477
1078.95	2.54639
1081.84	0.475464
1084.74	1.94934
1087.63	1.21704
1090.52	0.047852
1093.41	2.1001
1096.31	6.08667
1099.2	10.7985
1102.09	21.145
1104.99	20.6182
1107.88	31.7482
1110.77	46.51
1113.66	79.3389
1116.56	121.185
1119.45	186.777
1122.34	279.011
1125.23	384.468
1128.13	451.635
1131.02	411.233
1133.91	290.675
1136.81	196.119
1139.7	124.713
1142.59	88.3072
1145.48	60.8426
1148.38	46.5828
1151.27	32.2147
1154.16	16.5132
1157.06	12.0319
1159.95	8.94714
1162.84	8.34326
1165.73	9.37915
1168.62	4.84229
1171.52	5.24512
1174.41	1.99719
1177.3	2.65918
1180.2	3.94202
1183.09	3.06128
1185.98	2.15259
1188.87	0.484863
1191.77	0.399536
1194.66	3.86951
1197.55	2.15796
1200.44	0.445923
1203.34	1.323
1206.23	1.9458
1209.12	3.51477
1212.02	3.25915
1214.91	4.86304
1217.8	6.81335
1220.69	2.68958
1223.59	3.70203
1226.48	2.28491
1229.37	5.70398
1232.27	11.6687
1235.16	14.541
1238.05	2.81458
1240.94	3.7157
1243.84	3.52087
1246.73	9.19104
1249.62	12.964
1252.51	9.89661
1255.41	12.6748
1258.3	3.51147
1261.19	8.54822
1264.09	7.85107
1266.98	4.44592
1269.87	0.584106
