Measurement: Raman, 780 nm, unoriented, Raman Data Processed
Mineral: Tugtupite
Rruff sample: R050278
Ideal chemistry: Na_4_BeAlSi_4_O_12_Cl
Locality: Kvanefjeld, Ilimaussag, Greenland
Source: Marcus Origlieri
Description: Pink fine-grained aggregate associated with albite
Measured chemistry: Na_4.00_Be_1.00_Al_1.00_Si_4.00_O_12_Cl_1.00_ ; Be not measured but estimated by charge balance
Raman shift (cm-1)	intensity
133.653	0
136.546	1.20573
139.438	2.48506
142.331	3.57518
145.224	6.97855
148.116	15.781
151.009	29.9079
153.902	54.9414
156.794	101.888
159.687	129.867
162.58	75.0841
165.472	32.8361
168.365	15.0785
171.258	10.8469
174.151	19.3728
177.043	33.5686
179.936	52.4779
182.829	34.5106
185.721	14.9516
188.614	12.4948
191.507	14.8863
194.399	25.7891
197.292	40.0362
200.185	65.4088
203.078	104.725
205.97	64.3564
208.863	10.2554
211.756	5.00169
214.648	7.82851
217.541	4.35312
220.434	0.972336
223.326	7.34506
226.219	20.806
229.112	29.4136
232.005	45.8731
234.897	64.6807
237.79	90.3985
240.683	133.226
243.575	205.258
246.468	180.054
249.361	168.278
252.253	174.859
255.146	201.71
258.039	249.499
260.932	311.769
263.824	378.558
266.717	431.685
269.61	438.788
272.502	402.073
275.395	336.394
278.288	277.805
281.18	242.482
284.073	234.476
286.966	257.224
289.859	291.633
292.751	214.543
295.644	107.83
298.537	58.2936
301.429	39.0832
304.322	33.8453
307.215	35.9736
310.108	44.5422
313	54.0707
315.893	61.642
318.786	61.2422
321.678	69.2006
324.571	95.7112
327.464	119.473
330.356	55.2304
333.249	18.4415
336.142	6.31905
339.034	1.02817
341.927	2.05859
344.82	1.79704
347.712	1.81577
350.605	3.79185
353.498	1.27252
356.391	1.84286
359.283	4.83453
362.176	8.72809
365.069	16.0342
367.961	23.7326
370.854	34.8754
373.747	46.6964
376.639	60.2744
379.532	76.7231
382.425	94.1187
385.318	108.724
388.21	106.939
391.103	86.3483
393.996	52.6625
396.888	28.0374
399.781	15.3103
402.674	6.72771
405.567	3.41135
408.459	1.98286
411.352	3.77873
414.245	1.70212
417.137	1.51511
420.03	10.6536
422.923	24.0148
425.815	35.7916
428.708	49.4993
431.601	76.9068
434.493	118.082
437.386	178.266
440.279	183.661
443.172	129.977
446.064	134.321
448.957	164.708
451.85	227.262
454.742	320.94
457.635	474.7
460.528	625.631
463.421	544.005
466.313	316.825
469.206	167.353
472.099	96.6317
474.991	61.4922
477.884	40.3466
480.777	27.0709
483.669	19.2692
486.562	14.7139
489.455	12.6535
492.348	19.7232
495.24	31.1872
498.133	39.0924
501.026	54.756
503.918	81.6502
506.811	125.989
509.704	169.155
512.596	122.296
515.489	40.0269
518.382	5.73923
521.274	3.09805
524.167	3.0533
527.06	1.16725
529.953	8.32309
532.845	24.6162
535.738	46.8215
538.631	82.0095
541.523	120.885
544.416	167.891
547.309	231.368
550.202	308.408
553.094	367.008
555.987	328.884
558.88	213.175
561.772	122.159
564.665	69.3039
567.558	43.6031
570.45	27.3372
573.343	16.4723
576.236	14.0156
579.129	7.6894
582.021	3.57481
584.914	1.19732
587.807	0.423904
590.699	0.246643
593.592	1.75155
596.485	0.726646
599.377	1.4651
602.27	0.4524
605.163	4.19357
608.056	7.80431
610.948	16.0187
613.841	31.6516
616.734	50.8516
619.626	70.0826
622.519	99.1589
625.412	144.856
628.304	215.13
631.197	236.554
634.09	129.358
636.982	57.7863
639.875	34.0546
642.768	27.5121
645.661	26.1493
648.553	30.7796
651.446	36.2198
654.339	43.7226
657.231	38.9016
660.124	22.2076
663.017	11.5873
665.909	8.30959
668.802	4.76233
671.695	2.9774
674.588	3.88431
677.48	1.3438
680.373	1.85291
683.266	0.443878
686.158	0.731667
689.051	0.718567
691.944	0.203438
694.837	0.368477
697.729	0.825386
700.622	0.920975
703.515	1.02953
706.407	1.1467
709.3	0.700684
712.193	0.304657
715.085	0.132843
717.978	0.820198
720.871	1.18319
723.764	1.42788
726.656	1.29341
729.549	1.40708
732.442	1.53845
735.334	2.12582
738.227	2.13509
741.12	1.63516
744.012	2.04045
746.905	2.43269
749.798	2.71354
752.691	3.0704
755.583	2.27759
758.476	1.95445
761.369	1.08927
764.261	2.88565
767.154	2.00393
770.047	2.3038
772.939	5.7671
775.832	8.39249
778.725	12.6063
781.617	17.1595
784.51	23.1431
787.403	29.1181
790.296	27.9562
793.188	16.1135
796.081	7.4485
798.974	3.42333
801.866	2.34723
804.759	1.81625
807.652	0.822906
810.544	0.577827
813.437	0.375313
816.33	1.2957
819.223	0.730415
822.115	0.524689
825.008	0.385078
827.901	0.135612
830.793	1.37199
833.686	0.373634
836.579	0.748154
839.471	1.31403
842.364	1.76663
845.257	0.438622
848.15	2.00059
851.042	1.09718
853.935	2.06655
856.828	2.12587
859.72	1.94965
862.613	2.53246
865.506	0.871872
868.399	2.29402
871.291	0.628883
874.184	0.47683
877.077	1.85055
879.969	1.43778
882.862	1.38595
885.755	0.828384
888.647	0.176926
891.54	0.539711
894.433	0.384483
897.326	0.660393
900.218	0.438698
903.111	0.199654
906.004	1.25478
908.896	0.704712
911.789	1.48256
914.682	0.703842
917.574	0.790886
920.467	1.89054
923.36	1.05239
926.252	1.68243
929.145	2.19437
932.038	2.15811
934.931	3.26416
937.823	4.96721
940.716	6.81234
943.609	7.58739
946.501	9.57032
949.394	9.15563
952.287	6.39054
955.179	4.30316
958.072	4.21783
960.965	4.63373
963.857	6.16615
966.75	8.33743
969.643	10.9482
972.536	9.10342
975.428	4.54996
978.321	1.89478
981.214	0.912384
984.106	0.874638
986.999	0.367836
989.892	1.34752
992.784	0.863197
995.677	0.083023
998.57	0.32864
1001.46	0.780735
1004.36	0.871094
1007.25	1.66852
1010.14	2.44207
1013.03	2.05364
1015.93	3.54919
1018.82	4.22851
1021.71	5.20054
1024.6	6.36919
1027.5	9.70208
1030.39	12.5269
1033.28	19.1227
1036.17	32.5638
1039.07	54.9552
1041.96	82.5346
1044.85	115.173
1047.75	158.913
1050.64	220.321
1053.53	190.716
1056.42	91.6286
1059.32	50.6109
1062.21	30.8246
1065.1	18.1694
1067.99	9.28174
1070.89	5.53531
1073.78	3.32704
1076.67	0.704166
1079.57	0.09269
1082.46	0.470524
1085.35	0.085117
1088.24	0.09243
1091.14	0.549911
1094.03	2.10867
1096.92	4.6655
1099.81	7.10581
1102.71	7.55337
1105.6	10.109
1108.49	15.9295
1111.38	25.1033
1114.28	38.1506
1117.17	56.3663
1120.06	81.3037
1122.96	110.653
1125.85	141.911
1128.74	149.119
1131.63	123.198
1134.53	84.7148
1137.42	54.8566
1140.31	36.7231
1143.2	25.9055
1146.1	18.3421
1148.99	12.5147
1151.88	10.0109
1154.78	7.29256
1157.67	5.3811
1160.56	3.33054
1163.45	2.35199
1166.35	2.55196
1169.24	1.57457
1172.13	0.467339
1175.03	0.24107
1177.92	0.93375
1180.81	0.177303
1183.7	0.139381
1186.6	0.423897
1189.49	0.132298
1192.38	0.087646
1195.27	0.473225
1198.17	0.03368
1201.06	0.736698
1203.95	1.97305
1206.84	0.484886
1209.74	0.51601
1212.63	1.04258
1215.52	1.54326
1218.41	1.6572
1221.31	0.223469
1224.2	1.15712
1227.09	0.201077
