Measurement: Raman, 514 nm, unoriented, Raman Data Processed
Mineral: Tugtupite
Rruff sample: R050278
Ideal chemistry: Na_4_BeAlSi_4_O_12_Cl
Locality: Kvanefjeld, Ilimaussag, Greenland
Source: Marcus Origlieri
Description: Pink fine-grained aggregate associated with albite
Measured chemistry: Na_4.00_Be_1.00_Al_1.00_Si_4.00_O_12_Cl_1.00_ ; Be not measured but estimated by charge balance
Raman shift (cm-1)	intensity
108.691	0
112.864	284.809
117.034	828.838
121.203	205.67
125.369	188.67
129.534	218.899
133.696	61.704
137.857	101.451
142.016	238.591
146.172	219.746
150.327	461.958
154.48	1145.89
158.63	1921.69
162.779	1656.88
166.926	1065.16
171.07	774.788
175.213	675.221
179.354	1214.8
183.493	966.267
187.63	841.851
191.765	628.002
195.898	676.267
200.029	1585.02
204.158	2219.48
208.285	1447.68
212.41	433.804
216.533	345.884
220.654	177.939
224.773	136.972
228.891	199.869
233.006	446.251
237.119	822.274
241.231	1583.11
245.34	1592.04
249.448	1573.05
253.553	1526.49
257.657	1850.34
261.758	3002.61
265.858	4512.31
269.956	4817.56
274.052	4147.81
278.146	3026.01
282.237	2336.42
286.327	2447.05
290.416	2827.23
294.502	1835.12
298.586	832.543
302.668	428.916
306.749	422.021
310.827	406.326
314.903	585.762
318.978	1133.29
323.051	1435.86
327.121	1921.51
331.19	1086.08
335.257	507.654
339.322	164.107
343.385	229.627
347.446	83.744
351.505	11.094
355.563	40.252
359.618	187.76
363.672	82.66
367.723	60.092
371.773	98.811
375.821	365.727
379.866	183.77
383.91	601.01
387.952	1352.18
391.992	932.113
396.031	391.338
400.067	349.729
404.101	336.986
408.134	340.143
412.165	207.256
416.193	232.352
420.22	240.674
424.245	253.891
428.268	573.035
432.289	1024.78
436.309	2429.22
440.326	2888.71
444.342	1874.21
448.355	1534.98
452.367	2306.75
456.377	6302.98
460.385	12253.8
464.391	10641.4
468.395	5448.8
472.398	2701
476.398	2652.97
480.397	2376.72
484.394	1411.18
488.389	830.545
492.382	657.646
496.373	675.586
500.362	1314.14
504.349	2842.92
508.335	4312.61
512.319	3325.5
516.3	1315.29
520.28	474.836
524.259	226.088
528.235	204.51
532.209	234.117
536.182	443.123
540.152	1087.57
544.121	1538.24
548.088	3733.18
552.053	6851.56
556.017	7309.26
559.978	4336.27
563.938	1857.26
567.895	958.258
571.851	759.6
575.805	603.84
579.758	821.314
583.708	572.322
587.657	335.383
591.603	203.467
595.548	435.285
599.491	108.791
603.432	270.152
607.372	328.178
611.309	304.115
615.245	579.807
619.179	694.768
623.111	1491.46
627.041	3090.03
630.97	5362.44
634.896	2639.29
638.821	1707.44
642.744	643.758
646.665	821.459
650.584	846.244
654.502	715.125
658.418	543.576
662.331	323.053
666.244	114.143
670.154	402.752
674.062	572.344
677.969	223.26
681.874	134.252
685.777	232.68
689.678	175.146
693.577	412.441
697.475	330.484
701.371	173.139
705.265	181.133
709.157	50.662
713.047	312.799
716.936	278.879
720.823	253.652
724.708	120.199
728.591	25.719
732.472	162.189
736.352	223.809
740.23	461.445
744.106	284.783
747.98	148.471
751.853	543.445
755.723	308.479
759.592	337.822
763.459	717.381
767.325	714.576
771.188	567.162
775.05	214.555
778.91	340.766
782.768	418.453
786.625	513.631
790.479	344.982
794.332	249.982
798.183	352.701
802.033	248.371
805.88	80.004
809.726	238.094
813.57	325.541
817.413	411.725
821.253	190.508
825.092	338.969
828.929	339.699
832.764	60.18
836.598	84.512
840.429	133.637
844.259	119.18
848.088	193.586
851.914	233.219
855.739	270.312
859.562	52.305
863.383	24.441
867.203	94.668
871.02	3.508
874.836	156.195
878.65	233.152
882.463	276.984
886.274	261.684
890.083	160.152
893.89	226.156
897.695	107.988
901.499	76.965
905.301	36.766
909.102	223.496
912.9	223.84
916.697	197.996
920.492	268.316
924.285	292.789
928.077	351.445
931.867	442.418
935.655	561.965
939.442	375.965
943.226	570.922
947.009	626.484
950.791	316.855
954.57	28.82
958.348	517.059
962.124	111.305
965.899	458.754
969.671	942.098
973.442	939.871
977.211	831.828
980.979	712.461
984.745	141.316
988.509	37.656
992.271	343.867
996.032	473.551
999.791	548.273
1003.55	641.387
1007.3	572.898
1011.06	721.688
1014.81	609.23
1018.56	587.012
1022.31	951.223
1026.06	1588.59
1029.8	1377.44
1033.55	1281.48
1037.29	1851.8
1041.03	3009.98
1044.77	4211.66
1048.5	7196.72
1052.24	12794.7
1055.97	6281.35
1059.7	3317.82
1063.43	2310.7
1067.16	1355.11
1070.89	964.961
1074.61	1067.23
1078.34	481.133
1082.06	846.453
1085.78	540.949
1089.5	651.195
1093.21	843.559
1096.93	894.684
1100.64	1467.51
1104.35	1332.41
1108.06	1442.65
1111.77	1225.16
1115.48	1286.68
1119.18	1733.26
1122.89	3116.65
1126.59	3785.4
1130.29	4920.59
1133.99	3275.79
1137.68	1718.85
1141.38	1125.27
1145.07	676.629
1148.76	565.957
1152.45	464.297
1156.14	477.418
1159.83	102.293
1163.51	271.027
1167.19	319.164
1170.88	132.48
1174.56	146.164
1178.23	343.387
1181.91	147.492
1185.59	42.113
1189.26	60.27
1192.93	585.535
1196.6	279.66
1200.27	527.156
1203.94	249.789
1207.6	682.957
1211.27	646.812
1214.93	400.984
1218.59	708.797
1222.25	712.75
1225.9	899.305
1229.56	1109.68
1233.21	598.137
1236.86	474.859
1240.51	1062.06
1244.16	785.359
1247.81	905.543
1251.45	471.922
1255.1	582.066
1258.74	207.973
1262.38	529.219
1266.02	414.078
1269.66	773.832
1273.29	540.754
1276.93	351.484
1280.56	514.453
1284.19	271.102
1287.82	510.488
1291.45	754.293
1295.07	508.641
1298.7	226.422
1302.32	422.418
1305.94	138.887
1309.56	128.395
1313.18	398.516
1316.8	372.062
1320.41	735.602
1324.02	0
