Measurement: Raman, 780 nm, unoriented, Raman Data Processed
Mineral: Tugtupite
Rruff sample: R050562
Ideal chemistry: Na_4_BeAlSi_4_O_12_Cl
Locality: Kvanefjeld, Ilimaussag, Greenland
Source: Dave Bunk Minerals
Description: Pink fragment
Measured chemistry: Na_4.00_Be_1.00_Al_1.00_Si_4.00_O_12_Cl_1.00_; BeO estimated by difference; trace amounts of Fe
Raman shift (cm-1)	intensity
108.939	0
112.314	9.09285
115.689	126.445
119.064	20.9373
122.439	29.9343
125.814	75.4454
129.188	81.6068
132.563	23.7477
135.938	1.49995
139.313	2.51187
142.688	7.33159
146.062	8.54393
149.437	23.3324
152.812	53.0343
156.187	159.353
159.562	217.599
162.936	101.966
166.311	40.1955
169.686	20.2482
173.061	35.5781
176.436	64.0058
179.811	97.278
183.185	46.4562
186.56	17.8276
189.935	15.9369
193.31	36.8322
196.685	71.2281
200.06	161.984
203.434	297.408
206.809	114.891
210.184	22.574
213.559	6.14091
216.934	4.53571
220.308	5.04205
223.683	4.32724
227.058	6.86168
230.433	25.9373
233.808	44.3431
237.182	81.0943
240.557	176.126
243.932	190.244
247.307	161.654
250.682	159.42
254.056	159.7
257.431	230.163
260.806	327.377
264.181	455.114
267.556	534.131
270.931	510.252
274.305	420.418
277.68	317.805
281.055	235.879
284.43	220.703
287.805	263.44
291.18	256.492
294.554	120.537
297.929	60.1127
301.304	40.4318
304.679	35.7977
308.054	43.8715
311.428	65.9094
314.803	89.9018
318.178	133.715
321.553	185.275
324.928	296.187
328.302	295.185
331.677	85.3279
335.052	30.6143
338.427	12.5058
341.802	1.36298
345.176	0.306236
348.551	3.44589
351.926	5.30839
355.301	5.48465
358.676	2.11868
362.051	5.16965
365.425	8.57547
368.8	18.7327
372.175	32.1906
375.55	50.3841
378.925	79.1599
382.3	117.44
385.674	170.471
389.049	203.526
392.424	148.149
395.799	72.414
399.174	31.9044
402.548	17.8937
405.923	7.49362
409.298	0.475914
412.673	1.01404
416.048	0.285316
419.422	9.48259
422.797	20.5187
426.172	38.8852
429.547	72.3251
432.922	137.106
436.296	266.339
439.671	347.012
443.046	237.74
446.421	213.863
449.796	271.093
453.171	438.196
456.545	818.092
459.92	1422.19
463.295	1395.66
466.67	766.061
470.045	352.515
473.42	183.304
476.794	106.513
480.169	65.0011
483.544	38.1613
486.919	20.9735
490.293	8.58058
493.668	11.1948
497.043	18.1016
500.418	30.626
503.793	60.7069
507.168	143.494
510.542	211.102
513.917	91.1422
517.292	15.1614
520.667	2.50061
524.042	4.28507
527.417	0.671066
530.791	15.3249
534.166	40.4792
537.541	84.3914
540.916	146.04
544.291	245.108
547.665	409.295
551.04	655.823
554.415	806.067
557.79	593.406
561.165	312.745
564.539	162.801
567.914	90.5871
571.289	53.5963
574.664	34.086
578.039	19.8798
581.413	11.5321
584.788	8.39909
588.163	2.2048
591.538	0.176041
594.913	2.74412
598.288	0.417618
601.662	2.10438
605.037	5.58135
608.412	13.5792
611.787	26.0376
615.162	50.4639
618.537	80.1444
621.911	129.355
625.286	247.624
628.661	474.496
632.036	473.301
635.41	187.64
638.785	75.3599
642.16	40.7653
645.535	30.8276
648.91	37.7357
652.285	52.6213
655.659	43.3408
659.034	25.0655
662.409	14.436
665.784	5.85441
669.159	5.35526
672.534	3.32107
675.908	3.97622
679.283	7.78678
682.658	3.70627
686.033	1.76052
689.408	2.07532
692.782	1.17371
696.157	1.6311
699.532	0.332314
702.907	0.676384
706.282	0.17524
709.656	3.35865
713.031	1.82409
716.406	1.15998
719.781	3.39552
723.156	4.00665
726.53	4.94306
729.905	3.90929
733.28	5.30404
736.655	0.183022
740.03	5.21622
743.405	5.1199
746.779	3.24137
750.154	3.98917
753.529	5.18905
756.904	4.64403
760.279	4.64014
763.654	4.35445
767.028	3.62743
770.403	2.18328
773.778	8.37405
777.153	15.7147
780.528	21.8707
783.902	21.9356
787.277	27.1356
790.652	18.9877
794.027	11.3414
797.402	7.48831
800.776	4.99578
804.151	2.00977
807.526	1.01389
810.901	0.728409
814.276	2.93302
817.65	0.390472
821.025	4.74669
824.4	3.24521
827.775	2.44625
831.15	5.1583
834.525	4.06799
837.899	3.76655
841.274	3.39168
844.649	5.46943
848.024	3.20186
851.399	7.21418
854.774	6.8472
858.148	8.52209
861.523	5.99532
864.898	6.03606
868.273	4.83431
871.648	2.73762
875.022	0.521194
878.397	4.54289
881.772	1.75257
885.147	2.60548
888.522	1.19014
891.896	1.57243
895.271	0.300659
898.646	7.44138
902.021	1.05147
905.396	0.544914
908.77	1.34022
912.145	0.475822
915.52	1.092
918.895	2.52827
922.27	0.831802
925.645	3.13248
929.019	3.27522
932.394	3.86601
935.769	7.03739
939.144	11.6533
942.519	16.7503
945.894	12.8923
949.268	15.6242
952.643	5.49888
956.018	12.4893
959.393	14.0714
962.768	19.7119
966.142	41.6821
969.517	72.3068
972.892	59.0595
976.267	31.2822
979.642	26.9647
983.016	26.8762
986.391	15.2556
989.766	6.97243
993.141	1.02133
996.516	0.458809
999.89	1.44826
1003.26	0.250923
1006.64	1.3739
1010.01	4.1859
1013.39	8.4763
1016.76	14.5083
1020.14	18.2542
1023.51	19.7764
1026.89	27.5514
1030.26	55.1242
1033.64	78.3212
1037.01	129.148
1040.39	218.998
1043.76	333.942
1047.14	480.603
1050.51	861.01
1053.89	749.649
1057.26	289.536
1060.64	145.521
1064.01	84.0324
1067.39	44.827
1070.76	22.9292
1074.14	12.0538
1077.51	6.12201
1080.89	4.28511
1084.26	1.14748
1087.64	1.28419
1091.01	2.28995
1094.38	13.3667
1097.76	20.1025
1101.13	19.8777
1104.51	15.0657
1107.88	28.4844
1111.26	38.3873
1114.63	62.1986
1118.01	101.036
1121.38	172.633
1124.76	268.185
1128.13	364.851
1131.51	318.139
1134.88	211.552
1138.26	124.903
1141.63	79.3354
1145.01	46.8034
1148.38	36.2969
1151.76	20.7774
1155.13	9.5348
1158.51	12.0319
1161.88	6.21539
1165.26	1.58604
1168.63	2.14594
1172.01	2.54419
1175.38	0.364349
1178.76	2.16883
1182.13	0.568817
1185.51	0.201477
1188.88	0.333237
1192.26	3.43903
1195.63	5.06456
1199.01	0.585823
1202.38	2.58117
1205.75	3.23585
1209.13	6.61186
1212.5	5.92347
1215.88	6.4166
1219.25	9.70243
1222.63	10.0181
1226	12.0566
1229.38	18.1927
1232.75	16.1797
1236.13	20.7269
1239.5	15.0439
1242.88	21.4907
1246.25	21.8343
1249.63	13.6558
1253	14.0552
1256.38	11.835
1259.75	8.4112
1263.13	7.74793
1266.5	2.11851
1269.88	4.19179
1273.25	1.50243
1276.62	5.49654
1280	0.185539
1283.38	2.45508
