Measurement: Raman, 532 nm, unoriented, Raman Data Processed
Mineral: Tugtupite
Rruff sample: R050562
Ideal chemistry: Na_4_BeAlSi_4_O_12_Cl
Locality: Kvanefjeld, Ilimaussag, Greenland
Source: Dave Bunk Minerals
Description: Pink fragment
Measured chemistry: Na_4.00_Be_1.00_Al_1.00_Si_4.00_O_12_Cl_1.00_; BeO estimated by difference; trace amounts of Fe
Raman shift (cm-1)	intensity
132.577	0
135.952	8.80789
139.327	60.7884
142.702	60.2071
146.077	100.283
149.451	186.789
152.826	301.559
156.201	604.03
159.576	797.543
162.951	435.174
166.326	214.437
169.7	156.33
173.075	177.981
176.45	277.167
179.825	349.849
183.2	183.25
186.575	93.429
189.949	94.2845
193.324	162.008
196.699	277.571
200.074	500.901
203.449	840.028
206.823	344.606
210.198	42.307
213.573	12.985
216.948	16.9555
220.323	19.4548
223.697	18.3292
227.072	28.5828
230.447	80.1774
233.822	133.341
237.197	262.172
240.572	521.732
243.946	630.933
247.321	566.908
250.696	561.853
254.071	619.973
257.446	864.376
260.82	1251.07
264.195	1726.9
267.57	2049.95
270.945	1969.87
274.32	1610.52
277.695	1222.93
281.07	925.569
284.444	842.223
287.819	967.337
291.194	944.222
294.569	458.767
297.943	231.12
301.318	151.356
304.693	135.038
308.068	165.861
311.443	244.17
314.818	331.04
318.192	423.011
321.567	454.483
324.942	449.546
328.317	393.994
331.692	136.395
335.067	46.9027
338.441	15.7624
341.816	2.96014
345.191	5.45258
348.566	6.68304
351.941	8.30951
355.315	9.64209
358.69	5.40125
362.065	19.3536
365.44	43.2681
368.815	68.8447
372.19	128.006
375.565	210.336
378.939	319.35
382.314	471.259
385.689	661.457
389.064	744.033
392.438	527.649
395.813	263.62
399.188	135.952
402.563	61.6547
405.938	23.4664
409.313	0.112732
412.688	9.89038
416.062	5.0271
419.437	29.398
422.812	92.0208
426.187	182.775
429.562	327.875
432.936	588.728
436.311	1061
439.686	1311
443.061	887.219
446.436	853.986
449.81	1113.25
453.185	1798
456.56	3100.55
459.935	4830.6
463.31	4454.88
466.685	2471.4
470.059	1163.39
473.434	614.655
476.809	377.129
480.184	231.03
483.559	115.756
486.933	61.0068
490.308	25.2561
493.683	27.8801
497.058	53.5207
500.433	107.606
503.808	227.455
507.183	473.1
510.557	648.41
513.932	260.401
517.307	29.7162
520.682	16.7494
524.057	14.7456
527.431	10.0319
530.806	59.2053
534.181	162.623
537.556	345.618
540.931	619.595
544.306	1041.87
547.68	1657.45
551.055	2434.16
554.43	2740.87
557.805	1921.48
561.18	1006.74
564.554	534.986
567.929	306.853
571.304	185.99
574.679	112.83
578.054	68.7398
581.428	38.6535
584.803	15.6715
588.178	4.07007
591.553	1.14276
594.928	2.84601
598.303	3.29138
601.677	3.62659
605.052	14.2744
608.427	42.5185
611.802	88.5861
615.177	195.047
618.552	339.732
621.926	565.019
625.301	1026.86
628.676	1681.49
632.051	1494.82
635.426	566.109
638.801	244.472
642.175	166.454
645.55	158.81
648.925	199.08
652.3	246.97
655.675	215.737
659.049	108.779
662.424	50.0143
665.799	30.2879
669.174	18.2904
672.549	8.35736
675.923	8.4256
679.298	5.00928
682.673	7.2096
686.048	8.5368
689.423	1.48914
692.798	2.62628
696.172	4.61939
699.547	4.32654
702.922	2.52057
706.297	3.02624
709.672	3.60132
713.047	6.44397
716.421	11.4346
719.796	19.579
723.171	15.85
726.546	21.8498
729.921	25.125
733.295	18.8896
736.67	18.9322
740.045	14.4892
743.42	21.2344
746.795	23.6014
750.17	20.6689
753.544	23.1561
756.919	15.7833
760.294	10.4475
763.669	14.1424
767.044	13.0861
770.418	21.9696
773.793	35.4291
777.168	62.5096
780.543	86.0629
783.918	99.3887
787.293	95.3446
790.667	57.8704
794.042	29.0242
797.417	11.6561
800.792	9.28949
804.167	8.02216
807.542	4.19452
810.916	3.77759
814.291	1.49384
817.666	2.91095
821.041	2.5
824.416	6.75751
827.79	7.39459
831.165	11.9119
834.54	3.94171
837.915	1.16748
841.29	8.13287
844.665	4.82727
848.039	4.87286
851.414	2.59741
854.789	5.98334
858.164	12.3104
861.539	8.68616
864.913	7.42346
868.288	0.209595
871.663	1.87225
875.038	1.3067
878.413	5.71197
881.788	1.63721
885.162	4.00842
888.537	7.46258
891.912	2.27313
895.287	7.07275
898.662	1.79804
902.037	2.61719
905.411	2.77246
908.786	0.866333
912.161	0.663818
915.536	8.71179
918.911	8.19556
922.285	1.73144
925.66	1.87451
929.035	12.1534
932.41	19.6229
935.785	24.0456
939.159	31.8007
942.534	48.2003
945.909	63.4025
949.284	50.6122
952.659	46.2312
956.034	67.2672
959.409	102.13
962.783	188.515
966.158	309.849
969.533	430.301
972.908	307.066
976.283	161.003
979.657	117.291
983.032	82.8757
986.407	43.9492
989.782	18.7694
993.157	1.10181
996.532	6.87012
999.906	2.75037
1003.28	3.24744
1006.66	5.6499
1010.03	13.2462
1013.41	28.6484
1016.78	47.7831
1020.15	64.0148
1023.53	87.5767
1026.9	138.4
1030.28	229.46
1033.65	369.341
1037.03	612.569
1040.4	1040.03
1043.78	1478.48
1047.15	2032.68
1050.53	3105
1053.9	2165.38
1057.28	890.697
1060.65	507.06
1064.03	306.13
1067.4	163.868
1070.78	80.0271
1074.15	35.7428
1077.53	15.8768
1080.9	7.59912
1084.28	0.039429
1087.65	0.692139
1091.03	1.11072
1094.4	11.3629
1097.78	33.3308
1101.15	39.5657
1104.53	57.0032
1107.9	87.6946
1111.28	154.272
1114.65	267.803
1118.03	460.78
1121.4	728.77
1124.78	1090.77
1128.15	1337.3
1131.52	1098.58
1134.9	681.215
1138.27	412.077
1141.65	253.602
1145.02	161.058
1148.4	109.941
1151.77	65.4686
1155.15	54.4623
1158.52	36.5627
1161.9	26.6943
1165.27	11.7839
1168.65	0.939453
1172.02	6.37366
1175.4	2.20252
1178.77	1.08545
1182.15	2.25977
1185.52	9.13843
1188.9	1.19946
1192.27	0.716553
1195.65	2.7279
1199.02	0.060913
1202.4	1.52893
1205.77	3.89478
1209.14	9.23962
1212.52	2.67127
1215.89	2.73804
1219.27	1.15808
1222.64	5.36072
1226.02	12.9789
1229.39	10.7888
1232.77	6.79688
1236.14	5.23291
1239.52	8.7998
1242.89	6.51794
1246.27	2.28064
1249.64	11.9874
1253.02	14.3644
1256.39	11.0602
1259.77	5.46887
1263.14	11.3047
1266.52	11.9073
1269.89	11.0507
1273.27	5.63306
1276.64	0.261353
1280.02	8.0542
1283.39	2.54663
1286.77	5.88538
1290.14	8.2157
1293.52	6.14258
1296.89	2.62268
1300.27	3.69727
