Measurement: Raman, 532 nm, unoriented, Raman Data Processed
Mineral: Tuite
Rruff sample: R120115
Ideal chemistry: Ca_3_(PO_4_)_2_
Locality: Synthetic, at P = 15 GPa and T = 1300 deg C
Source: Shuangmeng Zhai and Xiande Xie
Description: Aggregates of small transparent colorless grains
Raman shift (cm-1)	intensity
188.196	0
191.088	54.897
193.981	93.7995
196.874	62.4102
199.766	26.567
202.659	9.0636
205.552	7.04242
208.445	26.7301
211.337	39.5175
214.23	24.9859
217.123	9.82193
220.015	6.13699
222.908	1.82269
225.801	0.970703
228.693	5.1008
231.586	3.21597
234.479	3.27765
237.371	0.865479
240.264	0.021912
243.157	5.62854
246.05	8.11044
248.942	10.2308
251.835	16.3398
254.728	29.6039
257.62	40.4753
260.513	53.5793
263.406	72.8995
266.298	96.157
269.191	122.194
272.084	150.981
274.977	182.593
277.869	207.303
280.762	201.085
283.655	168.558
286.547	128.698
289.44	100.755
292.333	78.4061
295.226	52.0512
298.118	36.6985
301.011	26.1677
303.904	20.7381
306.796	18.3547
309.689	8.9989
312.582	6.63117
315.474	6.24731
318.367	3.67212
321.26	2.02319
324.152	2.2804
327.045	0.377747
329.938	2.224
332.831	0.710144
335.723	1.72876
338.616	1.03155
341.509	1.17371
344.401	0.077393
347.294	0.979492
350.187	0.565247
353.079	1.94611
355.972	4.04181
358.865	0.88269
361.758	1.82635
364.65	2.49585
367.543	5.39587
370.436	5.55115
373.328	9.29096
376.221	9.60559
379.114	14.3084
382.007	18.0721
384.899	22.8464
387.792	32.0677
390.685	44.4151
393.577	62.3399
396.47	94.4271
399.363	145.457
402.255	214.939
405.148	323.81
408.041	481.419
410.933	648.487
413.826	617.758
416.719	359.998
419.612	182.559
422.504	99.2935
425.397	58.6495
428.29	40.6415
431.182	29.0617
434.075	18.0146
436.968	13.8494
439.861	10.8284
442.753	8.73321
445.646	5.96051
448.539	6.28217
451.431	4.10382
454.324	0.237427
457.217	2.8457
460.109	3.58752
463.002	0.303955
465.895	0.882751
468.788	2.16187
471.68	0.019836
474.573	1.44299
477.466	2.22699
480.358	2.97485
483.251	2.76538
486.144	3.41577
489.036	2.32312
491.929	1.67346
494.822	1.93665
497.714	0.768738
500.607	0.46344
503.5	2.9588
506.393	0.12384
509.285	0.624573
512.178	0.742737
515.071	2.48297
517.963	0.218628
520.856	0.326477
523.749	0.9823
526.641	3.84247
529.534	1.03235
532.427	0.411194
535.32	3.76434
538.212	4.83618
541.105	7.71472
543.998	6.11835
546.89	2.38654
549.783	2.98377
552.676	3.75403
555.568	5.11102
558.461	5.19916
561.354	12.914
564.247	23.5967
567.139	38.1617
570.032	66.8583
572.925	120.362
575.817	220.011
578.71	280.198
581.603	54.9857
584.495	16.6017
587.388	10.9628
590.281	4.37286
593.174	1.01892
596.066	2.86609
598.959	0.499207
601.852	0.949829
604.744	0.354065
607.637	0.21344
610.53	0.636841
613.423	1.39484
616.315	0.098633
619.208	3.75757
622.101	6.2981
624.993	5.41589
627.886	9.24908
630.779	21.595
633.671	39.5355
636.564	69.2895
639.457	116.57
642.35	101.526
645.242	34.1101
648.135	13.8062
651.028	11.5562
653.92	6.7074
656.813	4.20319
659.706	3.18933
662.598	2.57361
665.491	2.78101
668.384	3.13257
671.277	0.545532
674.169	0.165588
677.062	1.85339
679.955	0.029419
682.847	0.275269
685.74	0.640747
688.633	0.743713
691.525	7.00311
694.418	2.27649
697.311	7.39886
700.203	9.01959
703.096	13.9031
705.989	23.4683
708.882	40.7662
711.774	54.0729
714.667	39.7991
717.56	19.5573
720.452	8.69305
723.345	4.66638
726.238	2.34015
729.13	4.02106
732.023	2.63239
734.916	5.53827
737.809	5.31781
740.701	3.50793
743.594	3.04291
746.487	5.58112
749.379	4.80383
752.272	5.75159
755.165	3.69086
758.058	0.402222
760.95	0.08844
763.843	4.63049
766.736	1.42261
769.628	4.20648
772.521	5.48712
775.414	2.84503
778.306	3.22284
781.199	3.30878
784.092	1.28772
786.985	0.624634
789.877	0.091064
792.77	5.38873
795.663	5.78607
798.555	5.79224
801.448	6.47369
804.341	9.55017
807.233	9.02649
810.126	10.0181
813.019	9.18268
815.912	11.7245
818.804	14.8154
821.697	18.2142
824.59	16.3984
827.482	18.2513
830.375	14.1887
833.268	15.7123
836.16	14.2035
839.053	15.9424
841.946	16.7936
844.838	12.7138
847.731	12.5175
850.624	8.55908
853.517	10.0016
856.409	9.88574
859.302	7.94971
862.195	6.43317
865.087	5.82056
867.98	4.1908
870.873	4.63788
873.765	1.20575
876.658	1.22217
879.551	2.04437
882.444	3.87518
885.336	3.20422
888.229	1.43243
891.122	0.741028
894.014	2.7254
896.907	0.774597
899.8	0.741089
902.692	0.864136
905.585	1.48169
908.478	1.92065
911.371	4.09345
914.263	4.77423
917.156	7.76739
920.049	8.26617
922.941	5.29938
925.834	8.44421
928.727	6.75354
931.62	8.84528
934.512	8.96814
937.405	11.8019
940.298	14.1613
943.19	12.9023
946.083	13.4367
948.976	13.1768
951.868	16.7538
954.761	24.4872
957.654	36.345
960.547	62.8132
963.439	105.74
966.332	205.914
969.225	434.376
972.117	795.719
975.01	1585.8
977.903	2999.1
980.795	1504.97
983.688	348.113
986.581	152.298
989.473	76.8386
992.366	67.4504
995.259	94.707
998.152	148.407
1001.04	279.504
1003.94	399.844
1006.83	138.883
1009.72	49.0071
1012.62	27.2099
1015.51	15.9733
1018.4	10.6779
1021.29	14.8738
1024.19	1.72589
1027.08	4.12427
1029.97	3.3064
1032.86	0.097595
1035.76	0.324036
1038.65	4.41174
1041.54	0.631592
1044.43	2.32013
1047.33	0.356079
1050.22	1.19757
1053.11	2.50555
1056.01	2.66058
1058.9	1.55713
1061.79	6.07611
1064.68	12.8268
1067.58	19.603
1070.47	30.4499
1073.36	54.8983
1076.26	109.782
1079.15	199.816
1082.04	341.233
1084.93	391.013
1087.83	408.513
1090.72	291.067
1093.61	282.404
1096.5	321.721
1099.4	236.982
1102.29	113.094
1105.18	55.0891
1108.07	36.3149
1110.97	31.1321
1113.86	32.0421
1116.75	20.4325
1119.64	16.6335
1122.54	11.9509
1125.43	8.55609
1128.32	10.052
1131.22	4.29547
1134.11	5.61975
1137	2.92383
1139.89	2.05017
1142.79	0.744873
1145.68	1.62524
1148.57	2.68475
1151.46	2.41394
1154.36	0.755432
1157.25	5.93872
1160.14	9.01086
1163.04	8.92651
1165.93	2.99786
1168.82	4.95093
1171.71	6.11224
1174.61	7.20801
1177.5	4.768
1180.39	8.16345
1183.28	11.7661
1186.18	9.29785
1189.07	6.22388
1191.96	1.61523
1194.86	1.09296
1197.75	3.76526
1200.64	2.92596
1203.53	1.81323
1206.43	0.266602
1209.32	2.4046
1212.21	2.29144
1215.1	5.72034
1218	5.75861
1220.89	5.98956
1223.78	9.97681
1226.67	8.76477
1229.57	6.76196
1232.46	8.84943
1235.35	7.06427
1238.25	4.66248
1241.14	6.27161
1244.03	6.52869
1246.92	10.4605
1249.82	13.4258
1252.71	12.5699
1255.6	7.03815
1258.49	14.8923
1261.39	8.37848
1264.28	7.68707
1267.17	6.03564
1270.07	5.55444
1272.96	0.977844
1275.85	1.27051
1278.74	1.84167
1281.64	2.5733
1284.53	2.5105
1287.42	0.035583
1290.31	7.4693
1293.21	4.34436
1296.1	1.20026
1298.99	1.18939
1301.88	0
