Measurement: Raman, 780 nm, unoriented, Raman Data Processed
Mineral: Tuite
Rruff sample: R120115
Ideal chemistry: Ca_3_(PO_4_)_2_
Locality: Synthetic, at P = 15 GPa and T = 1300 deg C
Source: Shuangmeng Zhai and Xiande Xie
Description: Aggregates of small transparent colorless grains
Raman shift (cm-1)	intensity
139.411	0
142.304	0.504105
145.197	4.13027
148.089	8.74012
150.982	16.4963
153.875	20.0249
156.767	17.7532
159.66	11.0154
162.553	9.73502
165.446	17.147
168.338	33.7418
171.231	59.1737
174.124	80.4999
177.016	71.3424
179.909	50.6907
182.802	53.3302
185.694	76.8452
188.587	110.303
191.48	137.624
194.373	126.705
197.265	82.5504
200.158	50.9601
203.051	33.9294
205.943	29.4069
208.836	33.1232
211.729	27.1098
214.621	13.5675
217.514	7.89931
220.407	7.62631
223.299	5.9446
226.192	1.09126
229.085	1.63346
231.978	1.60224
234.87	1.05669
237.763	0.444817
240.656	0.9123
243.548	2.75774
246.441	4.65688
249.334	4.92436
252.226	8.71159
255.119	13.4599
258.012	18.8035
260.904	25.1068
263.797	31.8077
266.69	41.0415
269.583	55.758
272.475	69.419
275.368	84.5293
278.261	92.7268
281.153	90.2135
284.046	76.016
286.939	64.1454
289.832	54.7379
292.724	43.7993
295.617	30.3922
298.51	20.2389
301.402	14.863
304.295	10.4338
307.188	7.92725
310.08	5.61078
312.973	3.87177
315.866	2.71346
318.759	1.82115
321.651	2.5218
324.544	1.28559
327.437	0.002594
330.329	0.839676
333.222	1.15586
336.115	1.26341
339.007	0.38121
341.9	0.398468
344.793	0.114899
347.685	0.431858
350.578	0.412132
353.471	1.76849
356.364	0.930504
359.256	1.0631
362.149	3.46753
365.042	3.68547
367.934	3.38003
370.827	4.94432
373.72	5.26008
376.613	6.78015
379.505	9.74086
382.398	11.7165
385.291	16.2723
388.183	20.9876
391.076	30.2616
393.969	44.4785
396.861	63.1799
399.754	101.388
402.647	163.172
405.539	267.776
408.432	408.805
411.325	530.97
414.217	442.173
417.11	242.958
420.003	122.633
422.896	67.748
425.788	41.1125
428.681	28.2165
431.574	18.1527
434.466	13.6871
437.359	10.0649
440.252	7.52468
443.144	5.35965
446.037	4.54538
448.93	1.84537
451.823	1.96516
454.715	1.20469
457.608	0.31715
460.501	0.337128
463.393	0.4865
466.286	0.606735
469.179	0.498844
472.072	0.523243
474.964	1.57687
477.857	0.57465
480.75	0.465096
483.642	0.407589
486.535	0.738857
489.428	1.32976
492.32	0.346199
495.213	1.26449
498.106	1.71873
500.998	0.498928
503.891	1.25095
506.784	0.607742
509.677	1.36835
512.569	1.36438
515.462	0.648708
518.355	0.389149
521.247	0.282963
524.14	1.68805
527.033	0.854301
529.926	1.04056
532.818	1.31942
535.711	0.772491
538.604	0.622906
541.496	1.03524
544.389	1.53687
547.282	0.549019
550.174	1.87925
553.067	3.52203
555.96	3.46457
558.852	5.49064
561.745	7.67319
564.638	12.6246
567.53	23.549
570.423	52.7535
573.316	106.236
576.209	234.18
579.101	176.987
581.994	32.101
584.887	10.4046
587.779	5.89682
590.672	1.8529
593.565	0.924042
596.457	0.296803
599.35	1.03741
602.243	1.47856
605.136	0.288727
608.028	0.081375
610.921	0.449375
613.814	0.043781
616.706	0.662685
619.599	1.71849
622.492	2.90185
625.385	1.91539
628.277	6.59066
631.17	14.4764
634.063	28.0986
636.955	53.4132
639.848	84.2022
642.741	52.6233
645.633	17.7466
648.526	10.4086
651.419	5.54147
654.312	4.51543
657.204	2.5199
660.097	1.90381
662.99	2.18587
665.882	2.36417
668.775	0.852646
671.668	0.786777
674.56	1.48783
677.453	0.950302
680.346	0.041531
683.239	1.51019
686.131	0.601818
689.024	1.54629
691.917	1.71838
694.809	1.81969
697.702	3.83757
700.595	3.94606
703.487	8.6388
706.38	14.8702
709.273	23.6764
712.165	24.7817
715.058	15.3958
717.951	6.76115
720.843	2.60646
723.736	1.80184
726.629	1.10507
729.522	1.7315
732.414	2.51664
735.307	1.69123
738.2	1.99155
741.092	1.42184
743.985	0.636791
746.878	1.46248
749.77	3.10197
752.663	2.47188
755.556	1.34275
758.449	3.12482
761.341	2.64687
764.234	0.980488
767.127	1.12366
770.019	0.691769
772.912	3.03738
775.805	1.26548
778.697	0.247952
781.59	1.77975
784.483	1.06246
787.376	0.3288
790.268	2.07139
793.161	0.240456
796.054	2.88951
798.946	0.407986
801.839	3.90647
804.732	4.03472
807.625	5.20085
810.517	4.58243
813.41	4.2907
816.303	8.34971
819.195	6.7694
822.088	7.70597
824.981	6.13435
827.873	7.40133
830.766	5.6665
833.659	7.30551
836.552	6.51287
839.444	5.73304
842.337	5.6392
845.23	4.20813
848.122	5.00796
851.015	6.18327
853.908	1.89806
856.8	3.48841
859.693	3.62622
862.586	2.4142
865.479	2.19429
868.371	0.975113
871.264	1.36214
874.157	1.79279
877.049	1.45665
879.942	1.34909
882.835	0.369034
885.727	0.284447
888.62	0.242916
891.513	0.225418
894.405	1.09623
897.298	0.677963
900.191	1.04993
903.083	0.958771
905.976	0.969479
908.869	2.22766
911.762	2.49684
914.654	3.00992
917.547	3.19992
920.44	2.57036
923.332	3.54441
926.225	3.28642
929.118	4.95727
932.01	3.86665
934.903	5.9982
937.796	8.7663
940.689	9.85995
943.581	6.93168
946.474	7.59747
949.367	11.9435
952.259	16.205
955.152	24.0029
958.045	32.2058
960.937	53.2204
963.83	83.7853
966.723	153.143
969.615	303.213
972.508	699.31
975.401	1512.51
978.294	2275.13
981.186	687.672
984.079	183.099
986.972	79.2708
989.864	49.9887
992.757	46.7606
995.65	64.333
998.543	117.118
1001.43	232.45
1004.33	233.706
1007.22	67.9923
1010.11	28.1016
1013.01	15.7629
1015.9	8.68689
1018.79	4.03463
1021.68	1.9122
1024.58	0.168911
1027.47	0.257477
1030.36	0.068909
1033.26	1.19387
1036.15	0.885242
1039.04	0.143734
1041.93	3.54147
1044.83	0.723625
1047.72	0.768494
1050.61	0.859627
1053.5	1.2151
1056.4	0.250912
1059.29	0.526428
1062.18	3.49258
1065.08	6.87076
1067.97	12.4586
1070.86	16.165
1073.75	33.4842
1076.64	65.0452
1079.54	119.666
1082.43	206.807
1085.32	308.68
1088.22	186.6
1091.11	129.762
1094	146.166
1096.89	146.677
1099.79	88.5152
1102.68	40.2771
1105.57	22.3139
1108.46	14.6357
1111.36	10.5106
1114.25	9.08813
1117.14	9.81786
1120.04	5.26334
1122.93	4.95927
1125.82	5.96878
1128.71	2.20664
1131.61	0.968582
1134.5	0.568207
1137.39	0.563934
1140.29	0.418465
1143.18	0.316238
1146.07	0.992081
1148.96	1.18432
1151.86	0.408279
1154.75	1.2636
1157.64	4.26073
1160.53	5.43142
1163.43	1.81712
1166.32	4.5086
1169.21	3.21801
1172.1	3.21928
1175	3.92923
1177.89	4.95031
1180.78	5.41923
1183.67	9.13837
1186.57	7.7907
1189.46	7.23055
1192.35	6.88647
1195.25	4.8534
1198.14	4.36528
1201.03	6.53735
1203.92	4.33332
1206.82	2.94509
1209.71	3.31771
1212.6	5.17162
1215.49	9.18259
1218.39	8.69068
1221.28	9.98987
1224.17	9.26833
1227.07	9.85097
1229.96	13.7103
1232.85	13.5423
1235.74	13.6985
1238.64	14.773
1241.53	16.6273
1244.42	18.8658
1247.32	21.125
1250.21	22.9978
1253.1	21.6452
1255.99	19.2412
1258.88	17.8032
1261.78	11.7852
1264.67	10.418
1267.56	7.94135
1270.46	5.73521
1273.35	2.34754
1276.24	0.266899
1279.13	0.257584
1282.03	0.674934
