Measurement: Raman, 532 nm, unoriented, Raman Data Processed
Mineral: Tumchaite
Rruff sample: R070047
Ideal chemistry: Na_2_ZrSi_4_O_11_2H_2_O
Locality: Vuoriyarvi Massif, Murmansk region, Russia
Source: Michael Scott
Description: Fragment of a colorless vitreous crystal, co-type material. Associated with minor calcite
Raman shift (cm-1)	intensity
142.702	0
146.077	110.675
149.451	336.796
152.826	372.325
156.201	234.704
159.576	91.6357
162.951	38.2727
166.326	30.9192
169.7	31.9072
173.075	45.406
176.45	70.4141
179.825	100.67
183.2	133.656
186.575	186.09
189.949	234.63
193.324	280.106
196.699	269.451
200.074	258.312
203.449	224.974
206.823	189.018
210.198	148.356
213.573	142.577
216.948	181.234
220.323	203.382
223.697	162.029
227.072	70.4438
230.447	12.3899
233.822	1.90308
237.197	20.1824
240.572	20.2522
243.946	4.17725
247.321	2.55301
250.696	19.9404
254.071	28.4529
257.446	41.3904
260.82	66.1187
264.195	100.239
267.57	147.63
270.945	199.58
274.32	270.596
277.695	368.864
281.07	479.986
284.444	607.525
287.819	726.641
291.194	751.779
294.569	649.432
297.943	492.27
301.318	378.762
304.693	293.519
308.068	225.021
311.443	172.06
314.818	136.326
318.192	124.784
321.567	122.74
324.942	132.5
328.317	171.643
331.692	197.976
335.067	208.22
338.441	177.546
341.816	142.208
345.191	109.579
348.566	65.3774
351.941	31.6243
355.315	27.6668
358.69	20.6157
362.065	7.37671
365.44	3.2019
368.815	4.32861
372.19	2.96875
375.565	0.12915
378.939	7.45361
382.314	13.3406
385.689	27.0689
389.064	21.0896
392.438	20.7363
395.813	16.5842
399.188	25.5779
402.563	11.5955
405.938	0.317871
409.313	14.5911
412.688	14.0962
416.062	9.11401
419.437	4.91357
422.812	17.7717
426.187	18.3879
429.562	27.9004
432.936	28.656
436.311	12.1121
439.686	8.30859
443.061	4.64917
446.436	6.32129
449.81	12.3069
453.185	22.366
456.56	46.074
459.935	57.813
463.31	97.47
466.685	131.535
470.059	158.724
473.434	185.723
476.809	194.496
480.184	196.208
483.559	188.809
486.933	194.006
490.308	242.461
493.683	311.069
497.058	387.113
500.433	393.128
503.808	336.314
507.183	279.153
510.557	240.969
513.932	219.708
517.307	240.946
520.682	286.188
524.057	379.945
527.431	466.699
530.806	583.118
534.181	698.237
537.556	772.912
540.931	749.964
544.306	617.266
547.68	425.897
551.055	273.996
554.43	169.976
557.805	106.679
561.18	71.3989
564.554	35.4526
567.929	19.5198
571.304	11.6189
574.679	5.03756
578.054	9.82471
581.428	9.39771
584.803	11.0523
588.178	7.26074
591.553	11.5447
594.928	14.4082
598.303	21.533
601.677	47.1855
605.052	71.3469
608.427	110.157
611.802	171.329
615.177	248.349
618.552	347.727
621.926	448.312
625.301	534.545
628.676	531.105
632.051	420.31
635.426	276.235
638.801	177.215
642.175	123.946
645.55	81.5845
648.925	53.0425
652.3	34.1719
655.675	22.9019
659.049	7.95654
662.424	7.45483
665.799	2.06397
669.174	8.62305
672.549	0.853271
675.923	5.43896
679.298	2.34351
682.673	8.69043
686.048	0.190918
689.423	6.43726
692.798	2.98511
696.172	6.74658
699.547	17.324
702.922	33.0654
706.297	32.1023
709.672	34.2144
713.047	24.0505
716.421	34.5603
719.796	8.54956
723.171	21.6843
726.546	1.13135
729.921	0.168945
733.295	7.33862
736.67	2.7561
740.045	0.326904
743.42	0.653076
746.795	13.8433
750.17	3.802
753.544	16.5679
756.919	15.8784
760.294	14.4099
763.669	10.2654
767.044	14.4683
770.418	18.0298
773.793	31.46
777.168	23.4399
780.543	27.373
783.918	29.5085
787.293	42.0557
790.667	39.5063
794.042	50.667
797.417	47.1099
800.792	56.9829
804.167	58.8713
807.542	50.0269
810.916	23.9959
814.291	11.7908
817.666	9.07593
821.041	4.17871
824.416	0.330811
827.79	4.73291
831.165	3.74512
834.54	8.17505
837.915	10.9607
841.29	5.96167
844.665	3.16333
848.039	0.301514
851.414	8.9331
854.789	4.09229
858.164	3.63403
861.539	5.07056
864.913	10.3284
868.288	16.4168
871.663	29.9473
875.038	33.3889
878.413	27.3875
881.788	56.9695
885.162	61.2539
888.537	86.1064
891.912	134.013
895.287	195.188
898.662	265.906
902.037	354.092
905.411	449.285
908.786	508.724
912.161	487.468
915.536	397.012
918.911	282.464
922.285	197.72
925.66	165.765
929.035	175.254
932.41	203.977
935.785	257.346
939.159	351.197
942.534	440.234
945.909	538.284
949.284	586.078
952.659	574.42
956.034	480.277
959.409	360.675
962.783	247.671
966.158	166.405
969.533	111.199
972.908	80.5603
976.283	52.625
979.657	47.9922
983.032	40.4273
986.407	38.1658
989.782	32.9534
993.157	17.0418
996.532	3.44653
999.906	9.09058
1003.28	3.72046
1006.66	7.47656
1010.03	11.6619
1013.41	3.86011
1016.78	0.480957
1020.15	6.50781
1023.53	4.8125
1026.9	12.7627
1030.28	32.0354
1033.65	35.6882
1037.03	43.406
1040.4	56.6882
1043.78	63.384
1047.15	111.728
1050.53	123.802
1053.9	123.651
1057.28	121.991
1060.65	108.332
1064.03	109.108
1067.4	111.44
1070.78	118.196
1074.15	120.17
1077.53	136.524
1080.9	138.407
1084.28	132.548
1087.65	86.417
1091.03	73.9419
1094.4	53.7405
1097.78	45.0298
1101.15	57.8049
1104.53	27.7581
1107.9	17.3091
1111.28	8.98926
1114.65	24.3359
1118.03	15.5979
1121.4	16.9387
1124.78	0.071777
1128.15	11.3694
1131.52	4.09448
1134.9	18.1853
1138.27	6.99976
1141.65	3.37964
1145.02	5.09277
1148.4	2.31348
1151.77	7.0918
1155.15	13.6457
1158.52	9.5835
1161.9	2.97119
1165.27	1.4436
1168.65	5.94214
1172.02	15.2915
1175.4	2.78223
1178.77	9.21582
1182.15	12.0923
1185.52	3.79321
1188.9	12.531
1192.27	6.40405
1195.65	3.16943
1199.02	1.31152
1202.4	1.71631
1205.77	5.81201
1209.14	7.04736
1212.52	2.6394
1215.89	3.9353
1219.27	13.8318
1222.64	3.86182
1226.02	14.4866
1229.39	7.29443
1232.77	14.3145
1236.14	2.36475
1239.52	4.97852
1242.89	3.23804
1246.27	2.85791
1249.64	12.6821
1253.02	11.4883
1256.39	15.4624
1259.77	10.0781
1263.14	4.40381
1266.52	15.5195
1269.89	20.8916
1273.27	18.1709
1276.64	13.2896
1280.02	16.1382
1283.39	14.8584
1286.77	10.9224
1290.14	8.51514
1293.52	16.9331
1296.89	1.08057
1300.27	12.7437
