Measurement: Raman, 532 nm, unoriented, Raman Data Processed
Mineral: Tundrite-(Ce)
Rruff sample: R060837
Ideal chemistry: Na_2_Ce^3+^_2_TiO_2_SiO_4_(CO_3_)_2_
Locality: Barkeviksjaer, Norway
Source: Michael Scott
Description: Brown elongated bladed crystals associated with white orthoclase and black amphibole
Measured chemistry: (Na_1.95_Ca_0.05_)_Σ=2_(Ce_1.15_La_0.60_Nd_0.25_)_Σ=2_(Ti_0.95_Nb_0.05_)_Σ=1_O_2_Si_1.00_O_4_(CO_3_)_2_; CO_2_ estimated by difference
Raman shift (cm-1)	intensity
171.181	0
174.074	89
176.966	387.125
179.859	1008.16
182.752	1409.8
185.644	1953.08
188.537	2364.38
191.43	1807
194.323	1439.17
197.215	1264.36
200.108	1783.14
203.001	2334.94
205.893	4288.41
208.786	5127.48
211.679	5413.88
214.571	4855.72
217.464	6330.69
220.357	8427.77
223.25	9875.56
226.142	9088.44
229.035	5410.12
231.928	2907.02
234.82	1094.23
237.713	645.594
240.606	755.922
243.498	983.172
246.391	1371.02
249.284	911
252.177	257.297
255.069	143.078
257.962	1628.89
260.855	4099.16
263.747	7966.19
266.64	10009.3
269.533	9816.47
272.425	4990.84
275.318	906.75
278.211	345.391
281.103	743.594
283.996	106.031
286.889	569.766
289.782	1545.94
292.674	3050.88
295.567	5493.08
298.46	8370.56
301.352	13800.1
304.245	20786.1
307.138	27782.4
310.031	32220.3
312.923	31308.3
315.816	24375.7
318.709	14573.8
321.601	7076.11
324.494	2850.2
327.387	731.391
330.279	25.5781
333.172	1174.64
336.065	4134.39
338.957	8555.47
341.85	13199.7
344.743	17769.5
347.635	18922.4
350.528	14576.8
353.421	8628.11
356.314	3325.83
359.206	411.141
362.099	583.172
364.992	246.516
367.884	1042.33
370.777	3358.28
373.67	7356.61
376.562	14244
379.455	23341.1
382.348	34389.6
385.241	48362.3
388.133	60638.4
391.026	67186.6
393.919	65351.6
396.811	58088.9
399.704	45986.5
402.597	31480.2
405.49	19503.9
408.382	10888.5
411.275	6541.56
414.168	5252.44
417.06	6112.48
419.953	6367.81
422.846	6511.77
425.738	4703.36
428.631	3694.88
431.524	4831.73
434.416	7058.16
437.309	10541.5
440.202	12978
443.094	12314
445.987	9638.7
448.88	5047.86
451.773	2365.86
454.665	1264.58
457.558	72.9531
460.451	334.766
463.343	518.109
466.236	285.469
469.129	907.266
472.022	2497.78
474.914	3721.84
477.807	4507.92
480.7	6150.45
483.592	9570.36
486.485	11371.2
489.378	9454.06
492.27	5940.09
495.163	3807.88
498.056	2297.78
500.949	1592.19
503.841	1509.81
506.734	2281.06
509.627	2101.47
512.519	1606.06
515.412	2146.56
518.305	2574.59
521.197	2425.53
524.09	2280.5
526.983	2401.81
529.875	1323.91
532.768	882.375
535.661	423.406
538.554	676.875
541.446	294.094
544.339	392.531
547.232	671.438
550.124	353.594
553.017	698.938
555.91	101.406
558.802	180.406
561.695	327.469
564.588	262.969
567.481	877.938
570.373	944.25
573.266	353.531
576.159	12.9375
579.051	556.938
581.944	621.375
584.837	38.75
587.729	933.594
590.622	872.125
593.515	148.219
596.408	158.406
599.3	3.4375
602.193	198.469
605.086	674.562
607.978	1086.72
610.871	1479.75
613.764	1104.69
616.656	519.406
619.549	873.625
622.442	1213.5
625.335	1843.28
628.227	1902.31
631.12	1206.25
634.013	1248.62
636.905	2267.44
639.798	3111.56
642.691	3806.75
645.583	4635.28
648.476	7151.69
651.369	8623.5
654.261	9094.44
657.154	9613.94
660.047	11143.3
662.94	12904.8
665.832	16094.8
668.725	18906.4
671.618	21029.2
674.51	19257.2
677.403	17395.7
680.296	16487.4
683.188	17006.3
686.081	16994.8
688.974	15798
691.866	14522.3
694.759	14356.8
697.652	15315.2
700.545	16347.9
703.437	19735.1
706.33	24304.4
709.223	27155.3
712.115	25972.6
715.008	20972.7
717.901	14995.9
720.793	9989.34
723.686	6667.34
726.579	3945.5
729.472	2290
732.364	926.406
735.257	90.625
738.15	588.25
741.042	57.875
743.935	1085.06
746.828	2120.91
749.721	2540.03
752.613	557.469
755.506	1470.22
758.399	1328.12
761.291	246.312
764.184	160.594
767.077	464.375
769.969	1037.5
772.862	1463.34
775.755	143.812
778.648	286.719
781.54	626.094
784.433	1312.38
787.326	1382.94
790.218	2269.72
793.111	3173.72
796.004	3904.09
798.896	3812.53
801.789	3516.03
804.682	3971.09
807.574	3161.88
810.467	3460.91
813.36	4188.53
816.253	3611.28
819.145	2208.72
822.038	1384.69
824.931	1273.22
827.823	648.688
830.716	1127.88
833.609	83.8125
836.501	35.7188
839.394	118.062
842.287	31.4062
845.179	178.594
848.072	143.906
850.965	459.938
853.858	875.688
856.75	251.531
859.643	1042.22
862.536	1600.94
865.428	2073.62
868.321	2000.81
871.214	1829.03
874.106	2056.41
876.999	3322.38
879.892	4828.94
882.784	5905.72
885.677	8622.66
888.57	11641.2
891.463	15773.3
894.355	21236.1
897.248	26258.1
900.141	29038.3
903.033	33669.3
905.926	39067.7
908.819	45443.6
911.712	49604
914.604	52771.1
917.497	53888.7
920.39	53837.4
923.282	52953.6
926.175	48897.8
929.068	42708.7
931.96	37657.3
934.853	32665.5
937.746	28828.7
940.639	25557.5
943.531	21523.4
946.424	18241.2
949.317	15581.2
952.209	13534.3
955.102	11292.6
957.995	9740
960.887	8433.03
963.78	7295.88
966.673	5342.44
969.566	3785.84
972.458	2449.75
975.351	1709.31
978.244	2128.66
981.136	1177.31
984.029	472.312
986.922	354.75
989.814	475.031
992.707	662.375
995.6	411.031
998.492	133.75
1001.38	1344.22
1004.28	1450.16
1007.17	1805.12
1010.06	1413.28
1012.96	1872.97
1015.85	1849.41
1018.74	1973.12
1021.63	2215.41
1024.53	4474.81
1027.42	5124.88
1030.31	5633.25
1033.2	5499.34
1036.1	5952.62
1038.99	7137.78
1041.88	6013.56
1044.78	4401.75
1047.67	2762.72
1050.56	2412.59
1053.45	3416.06
1056.35	4129.66
1059.24	3182.41
1062.13	1837.22
1065.03	864.844
1067.92	69.7188
1070.81	394.344
1073.7	1395.72
1076.6	446.219
1079.49	253.219
1082.38	1035.34
1085.27	444.312
1088.17	611.156
1091.06	783.156
1093.95	1272.25
1096.84	1845.84
1099.74	2022.44
1102.63	1958.41
1105.52	1836.5
1108.41	2309.59
1111.31	1246.53
1114.2	699.438
1117.09	1341.53
1119.99	755.406
1122.88	59.625
1125.77	506.469
1128.66	2881.84
1131.56	3897.59
1134.45	3621.25
1137.34	2396.59
1140.23	1246.81
1143.13	1957.66
1146.02	324.219
1148.91	183.281
1151.81	703.594
1154.7	1793.5
1157.59	2490.03
1160.48	2297.59
1163.38	1127.38
1166.27	349.75
1169.16	197.312
1172.05	1345.38
1174.95	3016.62
1177.84	2823.12
1180.73	3066.91
1183.62	3925.34
1186.52	3901.06
1189.41	3547.94
1192.3	2500.66
1195.2	2458.41
1198.09	2370.84
1200.98	2727.56
1203.87	2824.81
1206.77	3310.12
1209.66	4588.25
1212.55	4806.56
1215.44	4188.09
1218.34	3288.44
1221.23	2993.47
1224.12	2994.5
1227.02	4007.12
1229.91	4080.59
1232.8	4434.41
1235.69	5114.25
1238.59	4807.5
1241.48	4385.81
1244.37	4588.38
1247.26	5113.34
1250.16	4297.28
1253.05	2590.75
1255.94	2268.44
1258.84	2597.31
1261.73	1451.91
1264.62	195.469
1267.51	20.5938
1270.41	3424.66
1273.3	4547.53
1276.19	4373.66
1279.08	1344
1281.98	777.375
1284.87	129.906
1287.76	5.09375
