Measurement: Raman, 532 nm, unoriented, Raman Data Processed
Mineral: Tunellite
Rruff sample: R050283
Ideal chemistry: SrB_6_O_9_(OH)_2_3H_2_O
Locality: Boron, Kern County, California, USA
Source: Marcus Origlieri
Description: Colorless flattened tabular crystals
Measured chemistry: (Sr_0.96_Ba_0.06_)_Σ=1_B_6_O_9_(OH)_2_·3H_2_O ; B not measured but estimated by stoichiometry
Raman shift (cm-1)	intensity
113.567	0
116.942	23.644
120.316	109.798
123.691	267.609
127.066	383.651
130.441	232.416
133.816	126.477
137.19	113.058
140.565	133.077
143.94	209.408
147.315	340.016
150.69	394.716
154.065	352.799
157.439	254.956
160.814	158.211
164.189	115.819
167.564	111.484
170.939	117.04
174.313	98.4159
177.688	83.0734
181.063	71.139
184.438	70.8304
187.813	75.5925
191.187	74.5054
194.562	56.585
197.937	36.9771
201.312	36.9884
204.687	45.0967
208.061	36.8843
211.436	16.7614
214.811	1.18549
218.186	4.34955
221.561	7.49051
224.936	9.7373
228.31	10.344
231.685	5.65076
235.06	1.01802
238.435	14.6089
241.81	28.9146
245.185	42.7876
248.559	53.7171
251.934	53.9998
255.309	48.6211
258.684	45.1791
262.059	31.1695
265.433	18.5938
268.808	13.6559
272.183	7.52531
275.558	7.25587
278.933	7.01616
282.308	4.70985
285.682	4.13977
289.057	5.72075
292.432	5.27408
295.807	5.50237
299.182	6.04353
302.556	11.2081
305.931	22.9813
309.306	45.0029
312.681	89.3576
316.056	152.774
319.43	207.852
322.805	270.736
326.18	402.289
329.555	590.439
332.93	612.887
336.305	330.086
339.679	163.173
343.054	111.181
346.429	104.889
349.804	130.994
353.179	188.804
356.553	273.829
359.928	364.269
363.303	448.993
366.678	559.62
370.053	631.654
373.428	498.206
376.802	285.021
380.177	155.153
383.552	84.5137
386.927	43.77
390.302	20.9981
393.676	7.32843
397.051	1.73257
400.426	5.09131
403.801	7.91489
407.176	6.78879
410.55	2.97867
413.925	5.89584
417.3	23.3581
420.675	35.4288
424.05	36.7947
427.425	30.5059
430.799	31.0137
434.174	33.5592
437.549	41.1554
440.924	54.2533
444.299	83.9455
447.673	130.58
451.048	200.532
454.423	304.658
457.798	464.968
461.173	633.853
464.548	583.183
467.922	380.02
471.297	252.835
474.672	190.257
478.047	153.545
481.422	127.171
484.796	105.316
488.171	90.5172
491.546	80.4984
494.921	70.5461
498.296	64.58
501.671	65.3771
505.045	76.2726
508.42	100.008
511.795	133.27
515.17	192.968
518.545	289.693
521.919	382.389
525.294	296.991
528.669	134.269
532.044	57.0654
535.419	19.7807
538.794	0.267578
542.168	7.19907
545.543	7.36023
548.918	2.46899
552.293	22.8573
555.668	46.2893
559.043	78.0463
562.417	138.187
565.792	212.514
569.167	220.812
572.542	117.833
575.917	38.7234
579.291	7.19693
582.666	3.32288
586.041	5.2106
589.416	1.34622
592.791	13.864
596.165	28.4457
599.54	26.8593
602.915	12.4088
606.29	13.003
609.665	28.7643
613.039	56.9645
616.414	103.394
619.789	176.381
623.164	263.782
626.539	341.631
629.914	434.336
633.288	515.208
636.663	530.153
640.038	473.481
643.413	384.305
646.788	292.511
650.163	218.718
653.537	159.103
656.912	116.726
660.287	86.261
663.662	66.2043
667.037	47.4719
670.411	34.7198
673.786	25.1118
677.161	21.9451
680.536	11.2602
683.911	1.82248
687.285	3.68759
690.66	1.0072
694.035	6.7074
697.41	18.8044
700.785	31.7669
704.159	43.5209
707.534	58.3383
710.909	77.9164
714.284	97.8163
717.659	128.03
721.034	164.408
724.408	217.623
727.783	284.224
731.158	345.83
734.533	388.549
737.908	397.934
741.283	349.976
744.657	243.114
748.032	140.905
751.407	73.5586
754.782	37.221
758.157	16.1258
761.531	5.95906
764.906	2.35809
768.281	2.114
771.656	4.33153
775.031	1.99643
778.405	0.359756
781.78	2.72199
785.155	6.52447
788.53	10.7402
791.905	10.0706
795.28	12.9502
798.654	17.89
802.029	29.1965
805.404	48.52
808.779	77.2878
812.154	108.174
815.529	131.667
818.903	127.332
822.278	95.1001
825.653	58.2711
829.028	34.1302
832.403	18.5734
835.777	9.87213
839.152	4.60434
842.527	2.95398
845.902	3.95212
849.277	5.59306
852.652	8.92967
856.026	8.53017
859.401	9.91609
862.776	7.85377
866.151	9.95282
869.526	11.8926
872.9	14.4998
876.275	16.206
879.65	19.8606
883.025	18.4508
886.4	19.289
889.774	20.4612
893.149	24.5191
896.524	32.272
899.899	39.0103
903.274	26.2183
906.649	13.4014
910.023	8.03523
913.398	4.4693
916.773	2.6076
920.148	2.72195
923.523	1.02989
926.898	0.213364
930.272	0.834412
933.647	1.49416
937.022	2.16194
940.397	3.24861
943.771	2.40642
947.146	2.17302
950.521	1.48419
953.896	2.28595
957.271	7.93625
960.646	14.0815
964.02	27.695
967.395	41.6837
970.77	63.2739
974.145	93.2465
977.52	132.115
980.894	177.106
984.269	219.831
987.644	256.417
991.019	298.547
994.394	311.698
997.769	244.11
1001.14	147.624
1004.52	83.4549
1007.89	49.5474
1011.27	28.8466
1014.64	19.5497
1018.02	13.5461
1021.39	14.4757
1024.77	20.7902
1028.14	34.1874
1031.52	51.9586
1034.89	73.2748
1038.27	96.2597
1041.64	100.822
1045.02	88.6714
1048.39	64.9432
1051.77	49.5335
1055.14	41.503
1058.52	39.2212
1061.89	38.0085
1065.27	41.7791
1068.64	46.1114
1072.02	56.2615
1075.39	67.0259
1078.76	81.8162
1082.14	83.2905
1085.51	74.3287
1088.89	53.9794
1092.26	35.533
1095.64	21.7148
1099.01	14.8547
1102.39	9.48671
1105.76	9.21236
1109.14	10.0171
1112.51	15.8427
1115.89	14.1399
1119.26	10.8566
1122.64	6.27486
1126.01	1.76865
1129.39	1.32809
1132.76	3.30945
1136.14	3.07948
1139.51	2.60991
1142.89	0.343414
1146.26	0.597382
1149.63	0.376617
1153.01	0.255157
1156.38	1.95245
1159.76	3.01338
1163.13	5.41434
1166.51	5.907
1169.88	8.23972
1173.26	8.8623
1176.63	9.6862
1180.01	10.5202
1183.38	10.0416
1186.76	9.62795
1190.13	9.47284
1193.51	7.98763
1196.88	6.66858
1200.26	4.55206
1203.63	2.55919
1207.01	2.05199
1210.38	2.02176
1213.76	2.02714
1217.13	2.28932
1220.51	2.01268
1223.88	3.47563
1227.26	3.56616
1230.63	5.80222
1234.01	6.70979
1237.38	5.94598
1240.76	4.62665
1244.13	3.78233
1247.51	3.11632
1250.88	2.84258
1254.26	2.2298
1257.63	2.51056
1261	1.92123
1264.38	1.45944
1267.75	0.856766
