Measurement: Raman, 780 nm, unoriented, Raman Data Processed
Mineral: Tunellite
Rruff sample: R070755
Ideal chemistry: SrB_6_O_9_(OH)_2_3H_2_O
Locality: Jennifer mine, U.S. Borax Mine, Boron, Kramer District, Kern Co., California, USA
Source: Michael Scott
Description: Colorless rhombohedron with defined cleavage
Raman shift (cm-1)	intensity
172.813	0
175.706	17.4976
178.599	69.1445
181.491	321.43
184.384	426.788
187.277	613.401
190.169	702.256
193.062	726.436
195.955	558.741
198.847	335.88
201.74	260.006
204.633	341.387
207.526	283.519
210.418	253.851
213.311	118.026
216.204	44.5664
219.096	58.355
221.989	38.0039
224.882	29.6763
227.774	26.2681
230.667	12.3682
233.56	27.7939
236.453	129.341
239.345	276.094
242.238	345.969
245.131	479.975
248.023	521.513
250.916	593.247
253.809	516.115
256.701	623.46
259.594	646.664
262.487	503.726
265.38	414.059
268.272	253.306
271.165	125.043
274.058	43.1594
276.95	7.59253
279.843	0.734131
282.736	41.5701
285.628	28.7319
288.521	176.862
291.414	126.998
294.307	191.046
297.199	198.988
300.092	138.382
302.985	113.949
305.877	73.5491
308.77	205.136
311.663	459.035
314.555	918.165
317.448	1467.28
320.341	2013.86
323.234	2720.83
326.126	3914.34
329.019	5925.65
331.912	7903.49
334.804	6599.78
337.697	3628.5
340.59	1800.48
343.483	892.764
346.375	535.393
349.268	297.439
352.161	372.465
355.053	420.3
357.946	560.549
360.839	684.586
363.731	669.482
366.624	666.783
369.517	656.624
372.409	751.932
375.302	586.24
378.195	403.744
381.088	248.199
383.98	153.356
386.873	65.2092
389.766	18.1375
392.658	75.4102
395.551	3.4812
398.444	14.314
401.337	29.5164
404.229	3.30273
407.122	50.1333
410.015	47.2822
412.907	32.2019
415.8	31.1321
418.693	63.9736
421.585	189.562
424.478	238.197
427.371	362.272
430.264	389.16
433.156	574.661
436.049	710.357
438.942	780.006
441.834	924.524
444.727	1086.21
447.62	1439.87
450.512	1942.99
453.405	2801.82
456.298	4128.28
459.19	6284.6
462.083	8288.24
464.976	7933.7
467.868	5937.66
470.761	4309.88
473.654	3459.81
476.547	2903.22
479.439	2543.57
482.332	2250.36
485.225	1975.09
488.117	1699.28
491.01	1457.72
493.903	1258.96
496.796	1030.67
499.688	932.766
502.581	724.741
505.474	644.862
508.366	642.082
511.259	584.983
514.152	728.657
517.044	899.129
519.937	1209.38
522.83	1329.9
525.722	948.286
528.615	522.196
531.508	321.4
534.401	158.146
537.293	24.0293
540.186	68.5579
543.079	34.6123
545.971	47.4248
548.864	105.243
551.757	180.954
554.649	403.891
557.542	645.68
560.435	1122.48
563.328	1840.23
566.22	2745.27
569.113	3038.24
572.006	2079.91
574.898	1011.01
577.791	443.183
580.684	186.219
583.577	71.5413
586.469	27.9602
589.362	20.2556
592.255	116.817
595.147	252.4
598.04	330.677
600.933	122.494
603.825	18.2849
606.718	47.3603
609.611	26.1392
612.504	147.407
615.396	348.368
618.289	699.579
621.182	1141.68
624.074	1619.34
626.967	1853.49
629.86	2317.69
632.752	2837.15
635.645	3109.42
638.538	3179.33
641.431	2924.25
644.323	2561.72
647.216	2228.7
650.109	1816.76
653.001	1587.72
655.894	1306.25
658.787	1149.09
661.679	998.065
664.572	834.055
667.465	735.217
670.357	676.208
673.25	567.398
676.143	542.793
679.036	408.12
681.928	244.953
684.821	79.8779
687.714	11.3848
690.606	38.2576
693.499	6.92065
696.392	32.5625
699.284	142.181
702.177	158.947
705.07	273.78
707.963	402.205
710.855	470.062
713.748	523.183
716.641	538.274
719.533	550.894
722.426	696.26
725.319	921.572
728.212	1159.35
731.104	1409.81
733.997	1667.04
736.89	1869.2
739.782	1861.6
742.675	1634.45
745.568	1231.61
748.46	797.668
751.353	455.43
754.246	246.517
757.139	139.237
760.031	80.1822
762.924	51.7218
765.817	21.2971
768.709	11.8678
771.602	32.9763
774.495	3.3971
777.388	18.7151
780.28	8.93835
783.173	92.1497
786.066	110.21
788.958	132.812
791.851	148.6
794.744	88.5225
797.636	101.221
800.529	113.46
803.422	196.863
806.314	306.078
809.207	452.486
812.1	642.812
814.993	821.972
817.885	837.579
820.778	740.077
823.671	549.968
826.563	368.271
829.456	271.04
832.349	180.598
835.241	117.956
838.134	23.6779
841.027	16.1503
843.919	21.8503
846.812	72.5538
849.705	37.3302
852.598	29.5714
855.49	62.9919
858.383	61.9139
861.276	50.0483
864.168	62.1593
867.061	38.021
869.954	64.2985
872.846	94.0288
875.739	98.1609
878.632	143.77
881.525	135.944
884.417	185.343
887.31	160.967
890.203	198.112
893.095	270.929
895.988	328.4
898.881	377.249
901.774	343.629
904.666	166.709
907.559	96.4612
910.452	80.0833
913.344	42.396
916.237	2.3147
919.13	2.05872
922.022	13.7285
924.915	6.54761
927.808	2.61877
930.701	20.712
933.593	6.30176
936.486	11.5309
939.379	8.61365
942.271	10.0768
945.164	3.11707
948.057	17.9834
950.949	40.7358
953.842	22.8723
956.735	36.0935
959.628	51.4582
962.52	126.814
965.413	142.324
968.306	277.025
971.198	434.749
974.091	637.132
976.984	881.124
979.876	1173.3
982.769	1440.78
985.662	1664.25
988.554	1790.2
991.447	2047.77
994.34	2073.16
997.233	1727.23
1000.12	1154.43
1003.02	691.516
1005.91	442.681
1008.8	302.383
1011.7	202.725
1014.59	178.081
1017.48	153.914
1020.37	176.571
1023.27	219.4
1026.16	282.086
1029.05	412.709
1031.94	571.923
1034.84	810.146
1037.73	1012.04
1040.62	1111.78
1043.52	1036.58
1046.41	896.078
1049.3	693.467
1052.19	575.581
1055.09	511.697
1057.98	479.556
1060.87	443.096
1063.77	402.828
1066.66	419.046
1069.55	419.012
1072.44	415.735
1075.34	467.213
1078.23	486.077
1081.12	474.443
1084.01	430.331
1086.91	388.901
1089.8	320.064
1092.69	205.85
1095.58	117.654
1098.48	76.1151
1101.37	39.9764
1104.26	8.89832
1107.15	8.53381
1110.05	10.4132
1112.94	46.8026
1115.83	23.4781
1118.73	26.7374
1121.62	12.8905
1124.51	5.15942
1127.4	17.1052
1130.3	42.8207
1133.19	51.4829
1136.08	41.6847
1138.97	29.7446
1141.87	78.7599
1144.76	77.7063
1147.65	73.7301
1150.55	63.5446
1153.44	55.2666
1156.33	61.5864
1159.22	51.7963
1162.12	72.5972
1165.01	62.9176
1167.9	96.0456
1170.8	59.3003
1173.69	73.3772
1176.58	84.33
1179.47	55.3661
1182.37	53.3661
1185.26	59.089
1188.15	72.6008
1191.04	64.1194
1193.94	31.5989
1196.83	27.509
1199.72	14.7732
1202.61	24.1493
1205.51	8.33154
1208.4	28.4036
1211.29	5.13623
1214.18	53.891
1217.08	61.213
1219.97	54.6136
1222.86	61.5315
1225.76	80.5094
1228.65	50.1058
1231.54	51.6273
1234.43	69.3198
1237.33	51.3953
1240.22	14.1999
1243.11	2.79712
1246.01	26.3545
1248.9	42.9353
1251.79	27.2982
1254.68	20.2625
1257.58	27.7963
1260.47	22.9977
1263.36	12.8806
