Measurement: Raman, 780 nm, unoriented, Raman Data Processed
Mineral: Tunellite
Rruff sample: R050283
Ideal chemistry: SrB_6_O_9_(OH)_2_3H_2_O
Locality: Boron, Kern County, California, USA
Source: Marcus Origlieri
Description: Colorless flattened tabular crystals
Measured chemistry: (Sr_0.96_Ba_0.06_)_Σ=1_B_6_O_9_(OH)_2_·3H_2_O ; B not measured but estimated by stoichiometry
Raman shift (cm-1)	intensity
117.111	0
120.004	34.8628
122.897	146.987
125.79	259.014
128.682	239.85
131.575	100.232
134.468	25.6421
137.36	2.39763
140.253	3.69907
143.146	1.50397
146.038	24.7899
148.931	54.1659
151.824	80.0464
154.716	93.961
157.609	84.3075
160.502	67.3529
163.395	60.3063
166.287	65.7577
169.18	72.1254
172.073	65.7847
174.965	49.1563
177.858	40.2277
180.751	35.084
183.643	33.0289
186.536	32.0957
189.429	35.0391
192.322	36.3899
195.214	34.3454
198.107	33.0497
201	35.121
203.892	40.5127
206.785	37.1817
209.678	25.2985
212.571	13.5331
215.463	4.78401
218.356	1.40704
221.249	0.692078
224.141	1.88249
227.034	1.57224
229.927	0.566414
232.819	4.0518
235.712	7.33566
238.605	10.0508
241.498	14.4744
244.39	18.9317
247.283	22.5408
250.176	20.8207
253.068	14.8053
255.961	8.32775
258.854	5.07429
261.746	1.66798
264.639	0.115768
267.532	1.00757
270.425	0.242493
273.317	0.347839
276.21	0.43177
279.103	0.108765
281.995	0.881119
284.888	0.014931
287.781	0.997177
290.673	1.8902
293.566	1.27595
296.459	1.25232
299.351	1.53703
302.244	2.89809
305.137	4.79614
308.03	10.0304
310.922	16.3047
313.815	25.2283
316.708	36.0382
319.6	45.2354
322.493	56.7998
325.386	76.2213
328.279	104.465
331.171	119.876
334.064	90.8157
336.957	56.7718
339.849	50.7605
342.742	56.4124
345.635	72.3777
348.527	97.2524
351.42	133.032
354.313	178.918
357.205	234.142
360.098	293.017
362.991	345.886
365.884	420.289
368.776	486.016
371.669	446.186
374.562	304.75
377.454	181.493
380.347	105.865
383.24	62.0391
386.132	39.8356
389.025	21.7799
391.918	12.7331
394.81	6.09247
397.703	1.38374
400.596	0.775444
403.489	2.45319
406.381	2.08656
409.274	1.31317
412.167	2.46598
415.059	8.42757
417.952	15.1075
420.845	17.3985
423.738	15.1021
426.63	10.906
429.523	5.98312
432.416	2.62527
435.308	0.792694
438.201	0.623978
441.094	2.02863
443.986	4.22557
446.879	9.26978
449.772	14.5794
452.665	22.6239
455.557	37.4419
458.45	54.1959
461.343	67.6101
464.235	54.7743
467.128	30.0945
470.021	16.5052
472.913	9.89069
475.806	8.41593
478.699	5.99561
481.592	5.5938
484.484	6.15145
487.377	6.54781
490.27	7.42742
493.162	9.28078
496.055	11.5427
498.948	15.4374
501.841	23.8774
504.733	35.4883
507.626	48.6761
510.519	65.3786
513.411	89.1596
516.304	127.697
519.197	185.208
522.089	234.837
524.982	187.387
527.875	99.6218
530.768	48.4917
533.66	24.6651
536.553	9.97355
539.446	3.24796
542.338	0.459633
545.231	1.9678
548.124	1.77563
551.016	1.37219
553.909	4.55415
556.802	8.5955
559.694	13.7463
562.587	25.4876
565.48	39.0171
568.373	46.1306
571.265	33.9869
574.158	16.9314
577.051	6.07487
579.943	0.676407
582.836	0.834534
585.729	0.852089
588.621	0.408012
591.514	1.63113
594.407	3.43757
597.299	5.96268
600.192	8.39056
603.085	12.6536
605.978	18.543
608.87	26.1383
611.763	35.5199
614.656	49.9157
617.548	71.7893
620.441	99.6826
623.334	130.675
626.226	154.777
629.119	183.526
632.012	206.798
634.905	214.789
637.797	199.673
640.69	168.932
643.583	134.523
646.475	100.808
649.368	74.0808
652.261	52.2009
655.154	34.6509
658.046	23.42
660.939	12.8651
663.832	5.81263
666.724	1.34225
669.617	1.00823
672.51	1.86998
675.402	0.682953
678.295	3.17601
681.188	3.56253
684.081	2.93407
686.973	3.40474
689.866	5.5426
692.759	8.81372
695.651	12.1875
698.544	15.5252
701.437	18.3192
704.329	22.1435
707.222	28.4876
710.115	34.3556
713.008	44.3922
715.9	57.1277
718.793	72.5803
721.686	90.6077
724.578	111.766
727.471	139.154
730.364	159.875
733.256	174.032
736.149	179.716
739.042	168.418
741.934	139.05
744.827	97.7324
747.72	60.2206
750.613	35.2566
753.505	20.6253
756.398	12.5338
759.291	6.9992
762.183	3.27766
765.076	1.12237
767.969	0.517822
770.861	0.319859
773.754	1.18614
776.647	0.37405
779.54	0.482925
782.432	0.390968
785.325	0.224983
788.218	1.24364
791.11	2.83098
794.003	3.94532
796.896	5.68747
799.788	8.16954
802.681	13.3397
805.574	18.3407
808.467	25.2874
811.359	35.0048
814.252	42.3483
817.145	44.2011
820.037	36.2068
822.93	25.6163
825.823	16.2078
828.716	10.107
831.608	5.26266
834.501	3.08192
837.394	1.96678
840.286	1.08801
843.179	1.40569
846.072	1.60946
848.964	2.00725
851.857	2.78967
854.75	3.23612
857.643	2.98738
860.535	2.8044
863.428	3.17625
866.321	3.83054
869.213	4.71359
872.106	5.28896
874.999	5.82354
877.891	5.81254
880.784	5.75784
883.677	5.22036
886.569	4.33837
889.462	3.99579
892.355	4.02805
895.248	4.91404
898.14	5.97309
901.033	5.8435
903.926	4.14912
906.818	3.09685
909.711	1.894
912.604	0.782574
915.496	1.26981
918.389	1.05918
921.282	0.348337
924.175	0.069986
927.067	0.081026
929.96	0.011215
932.853	0.049023
935.745	0.630829
938.638	0.177437
941.531	0.904627
944.423	0.164452
947.316	0.764517
950.209	0.169502
953.102	0.299364
955.994	0.813345
958.887	2.21188
961.78	3.30061
964.672	5.92987
967.565	7.75286
970.458	12.2137
973.351	17.0148
976.243	23.8264
979.136	32.7341
982.029	41.6289
984.921	51.3181
987.814	60.8864
990.707	71.5085
993.599	79.2601
996.492	70.189
999.385	49.363
1002.28	31.5945
1005.17	19.5531
1008.06	14.4558
1010.96	7.96921
1013.85	5.11353
1016.74	2.36852
1019.63	0.91885
1022.53	0.895836
1025.42	0.939552
1028.31	1.74679
1031.2	3.5348
1034.1	5.77346
1036.99	7.51775
1039.88	8.58791
1042.78	8.90599
1045.67	6.85774
1048.56	5.06095
1051.45	4.70479
1054.35	4.15727
1057.24	4.30093
1060.13	6.02478
1063.02	8.3291
1065.92	11.164
1068.81	14.9284
1071.7	19.4553
1074.6	24.4391
1077.49	28.2051
1080.38	31.1662
1083.27	29.8177
1086.17	26.6819
1089.06	21.9835
1091.95	17.9447
1094.84	14.5664
1097.74	12.5136
1100.63	12.2745
1103.52	12.7221
1106.41	14.5262
1109.31	15.7703
1112.2	16.2844
1115.09	17.5878
1117.98	14.7711
1120.88	11.9752
1123.77	9.23929
1126.66	6.62858
1129.56	4.10365
1132.45	2.26426
1135.34	1.15054
1138.23	0.167355
1141.13	0.063871
1144.02	0.715176
1146.91	0.571268
1149.81	0.475309
1152.7	0.168354
1155.59	0.167437
1158.48	0.438591
1161.38	0.17104
1164.27	1.64824
1167.16	1.78326
1170.05	1.9786
1172.95	2.23968
1175.84	2.11197
1178.73	1.90044
1181.62	1.53003
1184.52	1.74693
1187.41	1.05605
1190.3	1.71754
1193.2	1.32522
1196.09	1.5437
1198.98	1.55224
1201.87	0.924803
1204.77	0.65007
1207.66	0.475439
1210.55	0.708143
1213.44	0.91819
1216.34	1.33124
1219.23	0.750198
1222.12	1.12841
1225.02	1.14842
1227.91	0.631271
1230.8	0.842043
1233.69	0.688759
1236.59	0.943123
1239.48	0.584311
1242.37	0.529867
1245.26	0.438183
1248.16	0.176035
