Measurement: Raman, 514 nm, unoriented, Raman Data Processed
Mineral: Tunellite
Rruff sample: R050283
Ideal chemistry: SrB_6_O_9_(OH)_2_3H_2_O
Locality: Boron, Kern County, California, USA
Source: Marcus Origlieri
Description: Colorless flattened tabular crystals
Measured chemistry: (Sr_0.96_Ba_0.06_)_Σ=1_B_6_O_9_(OH)_2_·3H_2_O ; B not measured but estimated by stoichiometry
Raman shift (cm-1)	intensity
86.404	0
90.587	817.674
94.768	3131.63
98.947	5058.14
103.124	5814.3
107.3	8217.72
111.473	7861.73
115.644	10339
119.813	12399.3
123.981	16820.8
128.146	15598.4
132.309	7099.4
136.47	4627.2
140.63	5181.69
144.787	10439.5
148.942	14569.4
153.096	12728.5
157.247	9012.08
161.396	6915.41
165.544	5754.29
169.689	5445.77
173.833	4671.04
177.974	4166.64
182.114	4235.49
186.251	5008.27
190.387	5237.72
194.52	4140.44
198.652	2846.52
202.782	2767.27
206.909	2684.49
211.035	1417.32
215.159	188.512
219.281	18.666
223.4	181.717
227.518	391.676
231.634	449.145
235.748	65.396
239.86	213.316
243.97	526.549
248.079	746.172
252.185	846.602
256.289	878.512
260.391	337.361
264.492	40.68
268.59	364.375
272.687	585.537
276.781	467.182
280.874	399.943
284.964	257.943
289.053	293.707
293.14	363.988
297.225	273.217
301.308	237.111
305.389	363.375
309.468	1196.42
313.545	2394.7
317.62	4206.01
321.693	6740.75
325.765	13227.3
329.834	23593.8
333.902	19681.9
337.967	9230.96
342.031	4552.75
346.093	3142.03
350.153	3625.11
354.21	5378.75
358.267	8733.41
362.321	12848.1
366.373	18824.2
370.423	21542.9
374.471	14581.1
378.518	8347.59
382.563	4532.6
386.605	2345.3
390.646	1299.72
394.685	746.092
398.722	210.381
402.757	206.953
406.79	59.9
410.821	186.512
414.851	670.348
418.878	1086.07
422.904	1285.22
426.927	1405.64
430.949	1227.38
434.969	1560.61
438.987	1979.57
443.003	2019.18
447.018	3346.68
451.03	5242.31
455.041	10523.5
459.049	21202.3
463.056	25709.7
467.061	17908.5
471.064	11770
475.065	8656.1
479.064	7098.39
483.062	5940.15
487.057	4757.25
491.051	3832.45
495.043	3420.78
499.032	3025.28
503.02	2955.96
507.007	2948.9
510.991	3537.2
514.973	5922.92
518.954	11337.1
522.933	14564.7
526.91	7665.75
530.885	3628.48
534.858	1532.25
538.829	250.373
542.799	196.084
546.766	0.434
550.732	340.861
554.696	886.475
558.658	2313.5
562.618	5926.85
566.576	10990.4
570.533	9135.83
574.488	3986.37
578.44	984.75
582.391	178.264
586.341	194.609
590.288	243.441
594.233	947.289
598.177	1296.04
602.119	701.004
606.059	705.961
609.997	1210.23
613.933	2149.7
617.868	4665.93
621.801	8098.78
625.731	11936.3
629.66	15423.2
633.588	20025.8
637.513	20997.3
641.437	18577.6
645.358	14400.2
649.278	11076.3
653.196	8787.92
657.113	6059.07
661.027	4846.74
664.94	3936.91
668.851	2956.58
672.76	2481.73
676.667	2594.36
680.572	2011.69
684.476	1197.13
688.378	720.947
692.278	1085.59
696.176	1355.96
700.072	2217.56
703.967	2448.42
707.86	3673.93
711.751	3908.2
715.64	5279.09
719.527	6385.28
723.413	8340.52
727.297	12033.9
731.179	15116.4
735.059	16545.9
738.937	16804.6
742.814	13282.3
746.689	8093.48
750.562	4036.15
754.433	2151.77
758.303	1231.4
762.17	361.963
766.036	57.375
769.901	25.914
773.763	103.209
777.624	184.098
781.482	172.279
785.339	62.789
789.195	261.826
793.048	322.496
796.9	242.721
800.75	364.605
804.598	971.213
808.445	1669.54
812.289	3828.57
816.132	5133.32
819.973	4510.77
823.813	2969.16
827.65	1557.73
831.486	889.232
835.32	366.402
839.152	31.152
842.983	251.939
846.812	372.783
850.639	70.725
854.464	191.32
858.288	36.84
862.11	272.213
865.93	50.611
869.748	329.361
873.564	456.678
877.379	596.582
881.192	767.074
885.004	590.164
888.813	558.574
892.621	675.064
896.427	1075.94
900.232	1746.47
904.034	1046.58
907.835	521.621
911.634	429.693
915.432	439.809
919.227	268.061
923.021	226.09
926.813	221.764
930.604	316.596
934.393	331.236
938.18	563.949
941.965	407.934
945.749	365.469
949.53	557.666
953.311	876.9
957.089	1026.96
960.866	1315.88
964.641	2160.98
968.414	3106.36
972.185	4112.69
975.955	6297.94
979.723	8960.12
983.49	11471.1
987.254	13144.8
991.017	16168.4
994.779	18245.8
998.538	14518.7
1002.3	9090.6
1006.05	6334.77
1009.81	4942.27
1013.56	4487.04
1017.31	4153.2
1021.06	3924.66
1024.81	4587.71
1028.55	4964.47
1032.3	5855.27
1036.04	7775.81
1039.78	8989.72
1043.52	8968.73
1047.26	7727.96
1050.99	6521.68
1054.73	6025.69
1058.46	5847.65
1062.19	5954.81
1065.92	5669.59
1069.65	5636.71
1073.37	6091.77
1077.1	6938.98
1080.82	7612.77
1084.54	7716.93
1088.26	6622.15
1091.97	5048.62
1095.69	4109.64
1099.4	3062.07
1103.12	2979.36
1106.83	2540.77
1110.54	2739.82
1114.24	2960.7
1117.95	2658.55
1121.65	2564.88
1125.35	2164.15
1129.06	1313.81
1132.75	1276.85
1136.45	1564.8
1140.15	891.188
1143.84	958.105
1147.53	949
1151.22	967.895
1154.91	1133.47
1158.6	1086.73
1162.28	781.121
1165.97	1042.52
1169.65	1118.35
1173.33	771.555
1177.01	886.129
1180.69	473.047
1184.36	882.312
1188.04	665.945
1191.71	451.953
1195.38	313.297
1199.05	171.996
1202.71	776.059
1206.38	342.363
1210.04	2.129
1213.71	35.359
1217.37	138.844
1221.03	8.977
1224.68	96.562
1228.34	206.656
1231.99	155.871
1235.65	11.715
1239.3	166.051
1242.95	94.441
1246.59	226.922
1250.24	182.16
1253.88	211.402
1257.53	389.402
1261.17	385.715
1264.81	132.598
1268.45	110.141
1272.08	46.965
1275.72	71.039
1279.35	88.82
1282.98	264.426
1286.61	177.445
1290.24	47.672
1293.87	242.309
1297.49	757.535
1301.11	525.07
1304.73	629.934
1308.36	1116.13
1311.97	1310.71
1315.59	2485.73
1319.2	2176.25
1322.82	1646.39
1326.43	1735.57
1330.04	1195.25
1333.65	1612.94
1337.26	780.844
1340.86	1123.62
1344.47	856.949
1348.07	1340.01
1351.67	1222.29
1355.27	1501.89
1358.87	1878.19
1362.46	1742.12
1366.06	1817.28
1369.65	1975.18
1373.24	1602.96
1376.83	1374.19
1380.42	1291.58
1384	1430.73
1387.59	898.227
1391.17	1128.12
1394.75	1302.18
1398.33	689.051
1401.91	1007.24
1405.49	935.949
1409.06	1245.08
1412.64	1667.41
1416.21	1487.73
1419.78	1638.63
1423.35	1564.54
1426.91	1658.94
1430.48	1537.27
1434.05	1548.67
1437.61	1688.32
1441.17	1485.69
1444.73	1282.25
1448.29	1124.45
1451.84	1285.93
1455.4	1231.94
1458.95	1073.34
1462.5	552.035
1466.05	329.832
1469.6	444.785
1473.15	651.684
1476.69	25.906
1480.24	1227.44
1483.78	314.133
1487.32	69.07
