Measurement: Raman, 532 nm, unoriented, Raman Data Processed
Mineral: Tunellite
Rruff sample: R070755
Ideal chemistry: SrB_6_O_9_(OH)_2_3H_2_O
Locality: Jennifer mine, U.S. Borax Mine, Boron, Kramer District, Kern Co., California, USA
Source: Michael Scott
Description: Colorless rhombohedron with defined cleavage
Raman shift (cm-1)	intensity
164.513	0
167.406	126.609
170.298	161.428
173.191	309.978
176.084	232.135
178.976	213.017
181.869	296.343
184.762	253.578
187.655	367.385
190.547	391.016
193.44	325.152
196.333	10.2617
199.225	42.3018
202.118	25.6533
205.011	229.614
207.904	234.503
210.796	171.13
213.689	49.5576
216.582	13.7051
219.474	86.3144
222.367	166.55
225.26	90.749
228.152	185.577
231.045	63.4551
233.938	89.3926
236.83	68.8076
239.723	104.227
242.616	264.97
245.508	272.97
248.401	390.996
251.294	558.165
254.187	537.567
257.079	563.188
259.972	546.949
262.865	489.45
265.757	579.052
268.65	330.03
271.543	309.372
274.435	179.655
277.328	127.975
280.221	19.9727
283.114	14.9043
286.006	65.4775
288.899	24.6289
291.792	70.9102
294.684	68.8682
297.577	22.5938
300.47	3.14453
303.363	260.021
306.255	241.423
309.148	266.61
312.041	463.101
314.933	630.227
317.826	954.833
320.719	1144.18
323.611	1792.4
326.504	2281.41
329.397	4046.69
332.289	5014.4
335.182	3457.2
338.075	1660.52
340.968	1020.68
343.86	641.124
346.753	661.434
349.646	777.156
352.538	1138.65
355.431	1589.13
358.324	2127.93
361.216	2562.03
364.109	3191.96
367.002	3992.06
369.895	4914.85
372.787	4198.67
375.68	2858.12
378.573	1630.93
381.465	968.139
384.358	696.167
387.251	482.343
390.144	364.929
393.036	385.195
395.929	266.343
398.822	344.874
401.714	285.529
404.607	204.608
407.5	104.141
410.392	67.4375
413.285	50.8516
416.178	31.043
419.07	42.1855
421.963	58.4941
424.856	98.4463
427.749	49.1523
430.641	29.0957
433.534	158.066
436.427	162.516
439.319	232.163
442.212	343.667
445.105	376.544
447.998	494.088
450.89	792.285
453.783	1143.34
456.676	2062.7
459.568	3308.38
462.461	4214.47
465.354	3524.28
468.246	2243.31
471.139	1513.43
474.032	1143.98
476.925	848.411
479.817	763.596
482.71	725.069
485.603	756.183
488.495	565.908
491.388	541.058
494.281	417.007
497.173	243.694
500.066	248.144
502.959	138.124
505.851	21.2383
508.744	184.167
511.637	309.303
514.529	640.256
517.422	1260.4
520.315	2281.77
523.208	2690.72
526.1	1999.78
528.993	1092.51
531.886	613.319
534.778	424.937
537.671	272.512
540.564	36.6572
543.457	37.0654
546.349	11.498
549.242	53.709
552.135	48.0625
555.027	203.436
557.92	320.921
560.813	700.08
563.705	1297.45
566.598	2112.47
569.491	2122.45
572.384	1387.91
575.276	860.727
578.169	540.251
581.062	369.878
583.954	229.581
586.847	270.61
589.74	198.957
592.632	236.309
595.525	321.559
598.418	261.685
601.311	107.814
604.203	48.207
607.096	146.598
609.989	85.9297
612.881	332.717
615.774	514.237
618.667	1072.84
621.559	1642.62
624.452	2062.18
627.345	2464.89
630.237	2968.36
633.13	3461.4
636.023	3639.44
638.916	3391.76
641.808	2896.55
644.701	2370.5
647.594	1811.41
650.486	1523.66
653.379	1230.74
656.272	987.167
659.164	930.848
662.057	769.36
664.95	583.983
667.843	527.858
670.735	442.334
673.628	414.649
676.521	449.318
679.413	345.884
682.306	142.932
685.199	14.9004
688.091	55.0693
690.984	22.6426
693.877	120.933
696.77	223.578
699.662	393.695
702.555	490.504
705.448	644.346
708.34	830.852
711.233	983.376
714.126	1085.24
717.019	1252.29
719.911	1309.44
722.804	1569.06
725.697	1991.76
728.589	2493.44
731.482	2775.49
734.375	2901.96
737.267	3003.02
740.16	2796.27
743.053	2462.91
745.946	1813.71
748.838	1212.96
751.731	868.314
754.624	672.889
757.516	419.026
760.409	359.379
763.302	272.949
766.194	204.967
769.087	139.625
771.98	88.29
774.872	49.8711
777.765	31.0078
780.658	112.306
783.551	13.4697
786.443	68.9853
789.336	53.7832
792.229	89.1045
795.121	94.4756
798.014	211.914
800.907	226.084
803.799	236.278
806.692	367.598
809.585	554.713
812.478	817.286
815.37	773.167
818.263	903.266
821.156	633.388
824.048	439.161
826.941	308.019
829.834	107.357
832.726	78.3096
835.619	143
838.512	15.6611
841.404	126.48
844.297	100.306
847.19	100.567
850.083	178.312
852.975	204.255
855.868	149.275
858.761	231.25
861.653	224.133
864.546	153.152
867.439	129.139
870.332	92.4551
873.224	137.96
876.117	169.401
879.01	211.416
881.902	202.064
884.795	280.603
887.688	288.921
890.58	298.384
893.473	394.987
896.366	512.033
899.259	506.407
902.151	465.978
905.044	342.305
907.937	255.188
910.829	262.152
913.722	146.429
916.615	78.4004
919.507	112.598
922.4	67.416
925.293	10.6328
928.186	8.53711
931.078	12.1377
933.971	35.1768
936.864	49.5225
939.756	94.1348
942.649	21.4521
945.542	66.6094
948.434	28.3867
951.327	2.08789
954.22	4.33106
957.112	112.723
960.005	74.6113
962.898	12.3184
965.791	79.2353
968.683	205.614
971.576	417.859
974.469	534.806
977.361	836.716
980.254	1069.12
983.147	1424.62
986.039	1744.52
988.932	2058.29
991.825	2291.31
994.718	2377.57
997.61	2018.01
1000.5	1414.05
1003.4	908.349
1006.29	654.091
1009.18	557.185
1012.07	453.896
1014.97	432.824
1017.86	310.528
1020.75	365.91
1023.64	402.952
1026.54	499.17
1029.43	616.182
1032.32	754.316
1035.21	868.352
1038.11	1006.52
1041	1098.82
1043.89	1039.24
1046.79	861.506
1049.68	761.297
1052.57	658.955
1055.46	578.273
1058.36	541.445
1061.25	593.741
1064.14	644.398
1067.04	683.315
1069.93	620.47
1072.82	675.649
1075.71	760.534
1078.61	867.06
1081.5	843.199
1084.39	744.757
1087.28	619.197
1090.18	388.481
1093.07	371.258
1095.96	173.845
1098.86	223.127
1101.75	132.841
1104.64	87.9277
1107.53	180.249
1110.43	167.16
1113.32	130.356
1116.21	94.3447
1119.1	71.8916
1122	3.875
1124.89	35.3252
1127.78	10.5049
1130.67	4.03027
1133.57	1.38477
1136.46	23.124
1139.35	41.0635
1142.24	19.4609
1145.14	15.0713
1148.03	33.9815
1150.92	17.8193
1153.82	15.3232
1156.71	32.5098
1159.6	123.737
1162.49	151.764
1165.39	112.265
1168.28	217.878
1171.17	219.609
1174.07	290.772
1176.96	315.728
1179.85	372.748
1182.74	350.981
1185.64	488.903
1188.53	385.688
1191.42	422.273
1194.31	275.985
1197.21	301.482
1200.1	314.438
1202.99	262.613
1205.88	372.323
1208.78	269.728
1211.67	342.134
1214.56	383.769
1217.45	294.748
1220.35	301.095
1223.24	283.248
1226.13	279.017
1229.03	270.402
1231.92	164.217
1234.81	114.542
1237.7	260.908
1240.6	139.051
1243.49	108.081
1246.38	120.66
1249.28	107.002
1252.17	109.358
1255.06	32.1289
1257.95	20.5254
1260.85	22.7881
1263.74	2.61426
1266.63	44.1318
1269.52	0.59082
1272.42	109.02
1275.31	26.4609
1278.2	71.1436
