Measurement: Raman, 532 nm, unoriented, Raman Data Processed
Mineral: Tungstenite
Rruff sample: R070616
Ideal chemistry: WS_2_
Locality: Emma mine, Little Cottonwood Canyon, Salt Lake County, Utah, USA
Source: James Shigley
Description: Gray metallic massive, X-ray diffraction shows this to be the 3R polytype. Intimately associated with galena
Raman shift (cm-1)	intensity
172.366	0
175.258	11.4343
178.151	67.7285
181.044	4.55896
183.936	18.6332
186.829	96.8863
189.722	101.852
192.615	131.077
195.507	172.771
198.4	138.175
201.293	49.9891
204.185	48.5659
207.078	22.7897
209.971	25.7039
212.863	11.3589
215.756	15.2351
218.649	55.1984
221.542	19.569
224.434	45.1586
227.327	52.8378
230.22	48.3381
233.112	0.475464
236.005	6.52942
238.898	29.7001
241.79	3.77661
244.683	31.9985
247.576	7.13769
250.469	26.1193
253.361	47.4226
256.254	55.5797
259.147	26.6451
262.039	31.5463
264.932	11.439
267.825	55.2063
270.717	9.96814
273.61	99.7919
276.503	185.324
279.396	152.646
282.288	271.82
285.181	257.093
288.074	368.175
290.966	467.945
293.859	526.222
296.752	559.047
299.644	615.417
302.537	668.971
305.43	773.423
308.322	844.413
311.215	809.334
314.108	910.201
317.001	953.956
319.893	1011.46
322.786	1103.87
325.679	1332.55
328.571	1649.93
331.464	2167.44
334.357	2782.51
337.25	3443.53
340.142	3934.54
343.035	4274.59
345.928	4499.76
348.82	4413.14
351.713	3897.3
354.606	1895.33
357.498	709.055
360.391	343.795
363.284	208.876
366.176	117.286
369.069	44.6068
371.962	3.71045
374.854	20.9607
377.747	13.1251
380.64	25.7594
383.533	29.7341
386.425	74.5599
389.318	113.813
392.211	190.961
395.103	399.423
397.996	765.257
400.889	1355.72
403.781	1909.08
406.674	2178.7
409.567	2670.89
412.46	3429.64
415.352	4543.69
418.245	3076.7
421.138	1018.27
424.03	363.468
426.923	212.972
429.816	102.549
432.709	78.2042
435.601	58.5427
438.494	46.3927
441.387	2.69934
444.279	10.4585
447.172	7.51184
450.065	22.1163
452.957	0.590942
455.85	41.6401
458.743	65.4913
461.635	24.5188
464.528	52.5042
467.421	138.057
470.313	68.3722
473.206	117.033
476.099	142.35
478.992	142.494
481.884	92.2987
484.777	137.357
487.67	116.93
490.562	175.233
493.455	208.131
496.348	175.05
499.24	245.955
502.133	266.743
505.026	266.611
507.919	327.542
510.811	319.522
513.704	329.845
516.597	296.906
519.489	235.636
522.382	155.132
525.275	134.215
528.168	97.2296
531.06	118.756
533.953	86.4919
536.846	115.609
539.738	76.661
542.631	19.0681
545.524	10.2545
548.416	14.276
551.309	13.6774
554.202	11.9779
557.095	24.7687
559.987	67.5803
562.88	98.1643
565.773	68.0538
568.665	70.9526
571.558	173.296
574.451	127.912
577.343	93.1895
580.236	47.6087
583.129	43.4599
586.021	0.587798
588.914	11.5316
591.807	12.1493
594.699	29.18
597.592	20.373
600.485	18.6631
603.378	3.23975
606.27	0.55188
609.163	2.81787
612.056	35.2269
614.948	117.117
617.841	79.9294
620.734	54.8015
623.626	31.6249
626.519	45.1963
629.412	54.4401
632.305	16.9293
635.197	54.239
638.09	41.2756
640.983	31.9679
643.875	49.2344
646.768	82.0901
649.661	73.3303
652.553	73.4791
655.446	43.7809
658.339	25.218
661.232	71.7662
664.124	62.0199
667.017	46.9586
669.91	61.6386
672.802	75.9556
675.695	74.7074
678.588	106.674
681.481	135.557
684.373	161.766
687.266	164.274
690.159	151.013
693.051	171.349
695.944	121.269
698.837	117.311
701.729	90.8263
704.622	47.785
707.515	20.3051
710.407	12.594
713.3	5.00757
716.193	16.7841
719.086	18.725
721.978	23.5546
724.871	14.6525
727.764	21.3315
730.656	15.0741
733.549	28.9154
736.442	37.2028
739.334	29.101
742.227	32.2014
745.12	41.3101
748.013	27.8361
750.905	41.2562
753.798	33.7168
756.691	34.4828
759.583	36.452
762.476	52.3193
765.369	21.4383
768.261	43.9082
771.154	17.2714
774.047	26.3677
776.939	3.71716
779.832	5.24658
782.725	22.3765
785.618	28.9174
788.51	23.3846
791.403	38.8998
794.296	15.7594
797.188	4.58716
800.081	22.9248
802.974	21.8671
805.866	4.8346
808.759	10.8011
811.652	47.8117
814.545	0.030273
817.437	64.271
820.33	1.84387
823.223	52.6975
826.115	44.5889
829.008	62.9659
831.901	80.2129
834.793	58.7302
837.686	26.8247
840.579	56.4211
843.471	40.3921
846.364	35.4438
849.257	15.6298
852.15	26.5977
855.042	56.7492
857.935	46.113
860.828	20.6967
863.72	48.0142
866.613	33.7842
869.506	12.4994
872.399	8.27258
875.291	26.1005
878.184	16.8998
881.077	6.23498
883.969	33.4685
886.862	18.7772
889.755	24.4702
892.647	15.6372
895.54	38.3668
898.433	5.58936
901.325	26.8505
904.218	27.2882
907.111	27.3848
910.004	10.2096
912.896	13.7986
915.789	46.0706
918.682	58.2295
921.574	39.1619
924.467	11.4835
927.36	50.7128
930.252	43.2832
933.145	40.3049
936.038	16.8285
938.931	18.3969
941.823	5.89404
944.716	50.4562
947.609	43.8025
950.501	38.5251
953.394	54.9085
956.287	6.31396
959.179	8.99243
962.072	18.8788
964.965	20.4382
967.857	30.3364
970.75	47.8447
973.643	23.3087
976.536	49.2797
979.428	1.1947
982.321	43.2689
985.214	38.0857
988.106	41.6903
990.999	33.3114
993.892	54.1492
996.784	1.02625
999.677	50.4818
1002.57	35.275
1005.46	40.8811
1008.36	40.5084
1011.25	30.8372
1014.14	47.7045
1017.03	57.0866
1019.93	24.2653
1022.82	46.3146
1025.71	46.3082
1028.6	63.783
1031.5	19.3016
1034.39	37.5851
1037.28	38.2002
1040.17	35.5425
1043.07	50.7838
1045.96	67.1028
1048.85	65.2489
1051.75	45.4363
1054.64	60.2001
1057.53	13.7383
1060.42	33.0767
1063.32	79.1561
1066.21	40.7644
1069.1	43.3408
1071.99	75.7604
1074.89	6.43469
1077.78	26.7986
1080.67	48.2438
1083.57	28.9707
1086.46	42.9884
1089.35	63.4939
1092.24	69.9028
1095.14	22.0911
1098.03	10.087
1100.92	56.6918
1103.81	2.50183
1106.71	39.946
1109.6	15.5913
1112.49	12.5205
1115.38	32.8488
1118.28	10.9098
1121.17	22.5264
1124.06	40.1177
1126.96	2.18079
1129.85	25.4539
1132.74	38.3464
1135.63	22.9811
1138.53	9.50806
1141.42	0.625977
1144.31	1.75232
1147.2	1.36621
1150.1	12.4273
1152.99	26.828
1155.88	49.2832
1158.78	44.495
1161.67	44.5909
1164.56	56.9523
1167.45	34.3425
1170.35	5.45972
1173.24	61.0947
1176.13	19.8702
1179.02	32.5083
1181.92	36.6191
1184.81	52.3569
1187.7	24.803
1190.6	21.6234
1193.49	32.416
1196.38	56.7101
1199.27	67.7508
1202.17	49.5698
1205.06	73.2275
1207.95	27.2944
1210.84	54.2213
1213.74	54.6707
1216.63	39.6742
1219.52	4.83496
1222.41	11.9592
1225.31	21.8544
1228.2	51.7623
1231.09	13.999
1233.99	64.5402
1236.88	63.4098
1239.77	45.0319
1242.66	33.3792
1245.56	51.5853
1248.45	52.4048
1251.34	31.394
1254.23	32.4955
1257.13	13.25
1260.02	51.3809
1262.91	34.3972
1265.81	32.7957
1268.7	25.4889
1271.59	33.5491
1274.48	51.2449
1277.38	0
