Measurement: Raman, 780 nm, unoriented, Raman Data Processed
Mineral: Tungstenite
Rruff sample: R070616
Ideal chemistry: WS_2_
Locality: Emma mine, Little Cottonwood Canyon, Salt Lake County, Utah, USA
Source: James Shigley
Description: Gray metallic massive, X-ray diffraction shows this to be the 3R polytype. Intimately associated with galena
Raman shift (cm-1)	intensity
166.225	0
169.118	33.689
172.011	8.97607
174.903	9.08496
177.796	87.1274
180.689	79.0371
183.581	25.3189
186.474	79.5088
189.367	155.449
192.259	157.565
195.152	75.8721
198.045	93.1064
200.938	75.8291
203.83	4.01904
206.723	34.9617
209.616	39.2041
212.508	53.4788
215.401	46.6111
218.294	20.5225
221.186	65.3328
224.079	113.131
226.972	80.0784
229.864	213.038
232.757	145.792
235.65	254.368
238.543	284.43
241.435	365.388
244.328	408.48
247.221	420.107
250.113	506.44
253.006	545.355
255.899	484.614
258.791	438.455
261.684	360.207
264.577	337.613
267.47	307.207
270.362	233.982
273.255	263.252
276.148	213.928
279.04	223.898
281.933	221.762
284.826	251.184
287.719	292.074
290.611	296.428
293.504	263.957
296.397	204.459
299.289	217.379
302.182	356.104
305.075	382.795
307.967	442.353
310.86	498.5
313.753	613.712
316.646	704.095
319.538	805.873
322.431	959.443
325.324	1066.12
328.216	1256.06
331.109	1536.95
334.002	1761.02
336.894	2011.66
339.787	2014.83
342.68	1890.64
345.572	1656.38
348.465	1175.6
351.358	754.135
354.251	382.814
357.143	206.991
360.036	85.6182
362.929	50.3315
365.821	20.759
368.714	12.114
371.607	0.630371
374.5	47.5278
377.392	6.47436
380.285	21.2034
383.178	19.0696
386.07	66.4783
388.963	143.665
391.856	182.637
394.748	221.287
397.641	321.851
400.534	380.935
403.426	459.719
406.319	515.251
409.212	587.7
412.105	557.717
414.997	398.85
417.89	183.639
420.783	87.8176
423.675	51.9228
426.568	62.2263
429.461	58.2725
432.353	21.8906
435.246	3.57275
438.139	39.8159
441.032	4.68726
443.924	10.834
446.817	19.5608
449.71	45.9753
452.602	21.3791
455.495	8.36743
458.388	21.8118
461.281	49.406
464.173	64.9553
467.066	32.9385
469.959	74.0903
472.851	55.5984
475.744	62.1599
478.637	104.18
481.529	71.4717
484.422	87.9236
487.315	64.3616
490.207	103.459
493.1	93.3955
495.993	84.9131
498.886	115.846
501.778	132.388
504.671	116.645
507.564	110.908
510.456	158.643
513.349	117.164
516.242	99.425
519.135	78.45
522.027	87.26
524.92	50.3906
527.813	39.072
530.705	80.2061
533.598	58.8865
536.491	53.1067
539.383	71.4968
542.276	85.9656
545.169	38.1401
548.062	55.8608
550.954	2.73144
553.847	46.1831
556.74	22.3557
559.632	37.1277
562.525	28.3884
565.418	33.2148
568.31	75.5794
571.203	39.1099
574.096	55.9194
576.989	13.7439
579.881	13.0891
582.774	41.0732
585.667	27.8469
588.559	57.991
591.452	0.849854
594.345	11.1956
597.237	65.3564
600.13	58.4834
603.023	11.3025
605.915	30.1692
608.808	73.479
611.701	67.1343
614.594	24.8323
617.486	54.26
620.379	71.5962
623.272	25.2156
626.164	87.4197
629.057	23.7791
631.95	96.5283
634.842	96.0908
637.735	77.2441
640.628	116.889
643.521	119.164
646.413	145.621
649.306	121.45
652.199	152.627
655.091	157.714
657.984	145.764
660.877	201.913
663.769	157.865
666.662	191.327
669.555	198.091
672.448	220.44
675.34	218.967
678.233	210.861
681.126	294.323
684.018	302.672
686.911	277.249
689.804	289.355
692.697	244.425
695.589	231.219
698.482	215.109
701.375	225.964
704.267	190.566
707.16	185.84
710.053	120.126
712.945	92.166
715.838	146.495
718.731	53.5518
721.624	44.4875
724.516	79.113
727.409	9.07788
730.302	42.8071
733.194	13.4727
736.087	43.8227
738.98	25.5671
741.872	25.8613
744.765	3.48169
747.658	8.07007
750.551	33.988
753.443	3.17603
756.336	51.4307
759.229	29.9521
762.121	95.5981
765.014	145.819
767.907	196.429
770.799	200.144
773.692	324.194
776.585	329.077
779.477	440.725
782.37	511.442
785.263	587.034
788.156	647.707
791.048	701.291
793.941	723.698
796.834	785.582
799.726	854.331
802.619	810.138
805.512	784.369
808.404	739.346
811.297	625.126
814.19	556.238
817.083	467.022
819.975	376.875
822.868	363.879
825.761	293.072
828.654	230.02
831.546	179.773
834.439	183.5
837.332	123.6
840.224	84.7972
843.117	82.2823
846.01	58.1554
848.902	61.3214
851.795	39.0664
854.688	1.1366
857.581	33.8193
860.473	3.89612
863.366	34.9596
866.259	64.5913
869.151	49.928
872.044	81.4159
874.937	114.263
877.829	101.344
880.722	78.2571
883.615	99.1365
886.508	69.8507
889.4	2.21558
892.293	45.6858
895.186	4.84998
898.078	33.981
900.971	31.922
903.864	17.173
906.756	3.88269
909.649	19.0002
912.542	0.729614
915.434	3.68542
918.327	6.57117
921.22	19.6968
924.113	14.3344
927.005	28.614
929.898	31.2992
932.791	34.0068
935.683	37.5935
938.576	50.1719
941.469	34.545
944.361	39.2444
947.254	40.9392
950.147	62.2555
953.04	65.9542
955.932	38.6588
958.825	38.9674
961.718	25.1483
964.61	45.3246
967.503	88.1713
970.396	30.6611
973.288	20.6123
976.181	36.0449
979.074	18.1986
981.967	62.6582
984.859	4.88367
987.752	39.8026
990.645	28.5443
993.537	28.01
996.43	24.0646
999.323	52.454
1002.22	61.8356
1005.11	2.72437
1008	19.7799
1010.89	21.6534
1013.79	44.756
1016.68	72.8876
1019.57	49.1212
1022.46	29.5868
1025.36	28.4839
1028.25	15.5248
1031.14	63.5066
1034.04	35.5845
1036.93	34.2517
1039.82	52.0554
1042.71	41.9949
1045.61	38.9261
1048.5	15.2943
1051.39	51.139
1054.28	19.9819
1057.18	17.834
1060.07	55.6338
1062.96	29.7982
1065.86	26.3995
1068.75	49.7695
1071.64	17.6102
1074.53	43.9016
1077.43	38.4435
1080.32	35.578
1083.21	23.4683
1086.1	58.3353
1089	63.4651
1091.89	28.4473
1094.78	33.6853
1097.67	12.9963
1100.57	35.9983
1103.46	29.83
1106.35	42.0288
1109.24	10.4304
1112.14	43.8131
1115.03	6.87512
1117.92	58.7096
1120.82	40.7372
1123.71	10.5201
1126.6	23.5906
1129.49	0.182007
1132.39	31.9288
1135.28	58.0503
1138.17	29.848
1141.07	6.59582
1143.96	46.0198
1146.85	40.2289
1149.74	72.2237
1152.64	51.9166
1155.53	31.3438
1158.42	45.8578
1161.31	6.83447
1164.21	31.3544
1167.1	49.6146
1169.99	16.4426
1172.88	42.2808
1175.78	28.0316
1178.67	51.5629
1181.56	26.1134
1184.46	61.7113
1187.35	3.16199
1190.24	46.8044
1193.13	38.9773
1196.03	34.9093
1198.92	62.4318
1201.81	13.3351
1204.7	11.2103
1207.6	19.704
1210.49	6.79639
1213.38	27.3232
1216.28	21.084
1219.17	37.3694
1222.06	38.7694
1224.95	0.34668
1227.85	19.125
1230.74	33.0185
1233.63	43.4689
1236.52	36.6522
1239.42	44.1903
1242.31	24.8685
1245.2	20.9304
1248.1	9.92651
1250.99	33.7036
1253.88	31.2635
1256.77	21.2887
1259.67	41.183
