Measurement: Raman, 532 nm, unoriented, Raman Data Processed
Mineral: Tungusite
Rruff sample: R070757
Ideal chemistry: Ca_14_Fe^2+^_9_Si_24_O_60_(OH)_22_
Locality: Nizhnyaya Tunguska River Basin (Lower Tunguska River), Evenkia (Evenkiyskiy Autonomous okrug), Krasnoyarsk Territory (Krasnoyarsk Kray; Krasnoyarskii Krai), Eastern-Siberian Region, Russia
Source: Michael Scott
Description: Dark green micaceous flakes
Raman shift (cm-1)	intensity
156.799	0
159.692	34.1897
162.584	50.6338
165.477	88.1389
168.37	163.292
171.263	142.92
174.155	173.353
177.048	127.059
179.941	101.01
182.833	23.0281
185.726	3.40149
188.619	8.73401
191.512	77.7576
194.404	185.076
197.297	322.964
200.19	536.823
203.082	714.543
205.975	838.092
208.868	710.84
211.76	614.674
214.653	404.503
217.546	236.042
220.439	130.878
223.331	60.4907
226.224	19.4501
229.117	17.99
232.009	17.4105
234.902	64.978
237.795	56.2048
240.687	152.852
243.58	178.052
246.473	220.718
249.365	304.922
252.258	339.667
255.151	470.712
258.044	497.913
260.936	644.924
263.829	749.832
266.722	796.641
269.614	976.187
272.507	1426.5
275.4	1892.93
278.293	2291.07
281.185	2384.88
284.078	2078.44
286.971	1646.03
289.863	1064.72
292.756	757.066
295.649	706.996
298.541	648.982
301.434	469.604
304.327	309.934
307.219	206.27
310.112	169.656
313.005	96.4026
315.898	91.6451
318.79	13.4684
321.683	27.0537
324.576	9.41919
327.468	30.9104
330.361	45.4678
333.254	114.844
336.147	251.855
339.039	419.54
341.932	651.042
344.825	848.586
347.717	939.027
350.61	1035.01
353.503	1257.3
356.395	1328
359.288	1082.04
362.181	608.977
365.074	329.575
367.966	237.849
370.859	177.933
373.752	120.63
376.644	33.7685
379.537	30.3784
382.43	0.576294
385.322	12.1202
388.215	2.38818
391.108	67.2644
394	151.468
396.893	123.186
399.786	216.043
402.678	211.423
405.571	139.674
408.464	70.0223
411.357	73.1755
414.249	66.6499
417.142	54.144
420.035	73.0746
422.927	46.9951
425.82	62.8933
428.713	48.395
431.606	90.11
434.498	160.249
437.391	228.353
440.284	231.563
443.176	236.542
446.069	216.604
448.962	258.766
451.854	297.444
454.747	335.989
457.64	291.642
460.533	342.956
463.425	390.789
466.318	336.9
469.211	209.919
472.103	213.05
474.996	231.296
477.889	241.267
480.781	315.049
483.674	371.266
486.567	405.643
489.459	433.083
492.352	503.795
495.245	561.582
498.138	600.512
501.03	676.981
503.923	583.286
506.816	441.048
509.708	276.87
512.601	130.4
515.494	35.7206
518.386	7.82831
521.279	22.2574
524.172	2.25232
527.065	2.65772
529.957	3.5036
532.85	12.2853
535.743	2.35767
538.635	7.15955
541.528	28.1963
544.421	46.6982
547.313	28.2697
550.206	55.0757
553.099	81.065
555.992	184.112
558.884	341.22
561.777	569.388
564.67	893.155
567.562	1590.01
570.455	2677.49
573.348	3715
576.24	3472.88
579.133	2290.67
582.026	1501.99
584.919	1263.56
587.811	1369.39
590.704	1713.36
593.597	2416.05
596.489	3476.28
599.382	4508.17
602.275	5031.88
605.168	4587.7
608.06	3565.3
610.953	2546.45
613.846	1870.42
616.738	1411.62
619.631	1119.78
622.524	949.631
625.416	813.463
628.309	748.242
631.202	757.611
634.095	726.401
636.987	611.792
639.88	509.872
642.773	403.777
645.665	290.227
648.558	208.508
651.451	165.165
654.343	153.052
657.236	126.973
660.129	74.3691
663.021	64.9791
665.914	10.0618
668.807	25.0981
671.699	2.12909
674.592	32.7127
677.485	13.3405
680.378	2.18133
683.27	4.73273
686.163	5.22766
689.056	30.9996
691.948	45.3193
694.841	82.0807
697.734	175.98
700.626	274.98
703.519	358.116
706.412	369.205
709.305	262.71
712.197	184.577
715.09	112.068
717.983	71.7653
720.875	61.3356
723.768	22.1268
726.661	40.5521
729.553	2.20569
732.446	3.33258
735.339	4.15497
738.232	7.33582
741.124	6.11554
744.017	4.58966
746.91	3.42395
749.802	17.0311
752.695	35.1246
755.588	72.9223
758.481	62.6763
761.373	108.862
764.266	156.279
767.159	221.975
770.051	291.031
772.944	396.942
775.837	402.581
778.729	348.823
781.622	278.151
784.515	200.724
787.408	150.791
790.3	119.923
793.193	91.0284
796.086	73.3941
798.978	52.0016
801.871	30.0737
804.764	12.5204
807.656	62.8098
810.549	15.5787
813.442	35.6965
816.335	12.3994
819.227	35.1502
822.12	21.8411
825.013	10.2964
827.905	32.7307
830.798	19.036
833.691	7.3783
836.583	39.1037
839.476	77.5956
842.369	34.2176
845.261	7.81189
848.154	13.0726
851.047	15.7736
853.94	32.9785
856.832	25.8409
859.725	25.1677
862.618	22.1632
865.51	11.1271
868.403	1.57269
871.296	10.1509
874.188	20.9168
877.081	3.79446
879.974	13.0405
882.867	17.7587
885.759	24.2271
888.652	31.2886
891.545	21.4876
894.437	18.7838
897.33	2.19107
900.223	5.53217
903.115	30.4164
906.008	27.0075
908.901	35.1237
911.794	11.9062
914.686	37.4366
917.579	23.9982
920.472	33.7791
923.364	34.4286
926.257	22.6757
929.15	8.47363
932.043	24.6403
934.935	3.83838
937.828	23.86
940.721	22.0497
943.613	18.626
946.506	18.4952
949.399	30.1348
952.291	11.2309
955.184	2.75812
958.077	32.0565
960.97	6.44665
963.862	4.12286
966.755	18.9528
969.648	2.86206
972.54	2.02136
975.433	20.8118
978.326	2.3764
981.218	28.2866
984.111	48.4796
987.004	69.7681
989.896	69.3449
992.789	71.4813
995.682	114.751
998.574	107.307
1001.47	103.6
1004.36	177.879
1007.25	184.256
1010.14	201.611
1013.04	249.105
1015.93	270.721
1018.82	323.194
1021.72	410.417
1024.61	502.823
1027.5	599.611
1030.39	699.922
1033.29	848.912
1036.18	1060.59
1039.07	1214.2
1041.96	1305.77
1044.86	1206.95
1047.75	1159.61
1050.64	1231.93
1053.54	1393.29
1056.43	1657.19
1059.32	1943.75
1062.21	2032.74
1065.11	1686.82
1068	1246.18
1070.89	852.813
1073.79	582.107
1076.68	390.387
1079.57	260.598
1082.46	158.787
1085.36	114.693
1088.25	43.075
1091.14	43.9417
1094.03	32.5699
1096.93	17.5697
1099.82	3.2135
1102.71	15.0052
1105.6	6.15064
1108.5	6.45068
1111.39	15.0309
1114.28	4.31928
1117.17	6.38477
1120.07	24.8648
1122.96	18.5254
1125.85	57.2398
1128.75	25.0511
1131.64	69.6679
1134.53	53.0855
1137.42	29.2705
1140.32	27.2009
1143.21	40.1028
1146.1	6.76642
1148.99	2.74152
1151.89	39.5411
1154.78	52.0706
1157.67	80.7705
1160.57	66.6295
1163.46	63.4196
1166.35	41.9709
1169.24	57.4321
1172.14	14.172
1175.03	5.41766
1177.92	7.03686
1180.82	8.31052
1183.71	6.24274
1186.6	1.28116
1189.49	9.17285
1192.38	21.0276
1195.28	15.0472
1198.17	8.56351
1201.06	21.3758
1203.96	14.2509
1206.85	9.0068
1209.74	19.0529
1212.63	30.4057
1215.53	11.6079
1218.42	22.661
1221.31	21.7394
1224.2	34.3098
1227.1	18.5186
1229.99	21.252
1232.88	21.6725
1235.78	10.3309
1238.67	14.363
1241.56	29.8037
1244.45	18.3604
1247.35	29.8634
1250.24	25.3212
1253.13	12.5788
1256.03	18.6044
1258.92	36.0998
1261.81	0.725128
1264.7	23.7584
