Measurement: Raman, 780 nm, unoriented, Raman Data Processed
Mineral: Tungusite
Rruff sample: R070757
Ideal chemistry: Ca_14_Fe^2+^_9_Si_24_O_60_(OH)_22_
Locality: Nizhnyaya Tunguska River Basin (Lower Tunguska River), Evenkia (Evenkiyskiy Autonomous okrug), Krasnoyarsk Territory (Krasnoyarsk Kray; Krasnoyarskii Krai), Eastern-Siberian Region, Russia
Source: Michael Scott
Description: Dark green micaceous flakes
Raman shift (cm-1)	intensity
149.672	0
152.564	13.2217
155.457	134.302
158.35	148.891
161.242	194.923
164.135	308.154
167.028	368.825
169.921	359.983
172.813	354.122
175.706	181.297
178.599	26.436
181.491	11.4858
184.384	0.438477
187.277	47.8062
190.169	122.325
193.062	192.278
195.955	417.018
198.847	608.616
201.74	912.003
204.633	994.389
207.526	967.579
210.418	821.189
213.311	609.881
216.204	376.489
219.096	234.758
221.989	100.025
224.882	27.0535
227.774	21.3227
230.667	33.9522
233.56	18.1086
236.453	100.805
239.345	145.931
242.238	205.072
245.131	298.721
248.023	412.296
250.916	547.949
253.809	578.366
256.701	697.565
259.594	858.17
262.487	1066.15
265.38	1193.34
268.272	1455.7
271.165	1805.4
274.058	2371.82
276.95	2878.44
279.843	3005.06
282.736	2829.38
285.628	2372.52
288.521	1759.74
291.414	1261.93
294.307	1021.88
297.199	1020.29
300.092	801.801
302.985	496.856
305.877	328.973
308.77	214.977
311.663	149.783
314.555	134.82
317.448	52.3706
320.341	14.2522
323.234	26.0872
326.126	6.72436
329.019	84.0374
331.912	184.701
334.804	300.94
337.697	514.548
340.59	740.226
343.483	1009.55
346.375	1227.84
349.268	1313.09
352.161	1440.43
355.053	1592.26
357.946	1445.38
360.839	1031.2
363.731	605.968
366.624	350.891
369.517	198.817
372.409	118.405
375.302	40.6932
378.195	32.557
381.088	32.3512
383.98	14.7706
386.873	4.4519
389.766	76.5647
392.658	115.387
395.551	155.638
398.444	134.378
401.337	165.978
404.229	139.061
407.122	72.5255
410.015	31.486
412.907	55.1345
415.8	2.77527
418.693	10.1454
421.585	47.6376
424.478	58.1266
427.371	76.2461
430.264	106.828
433.156	143.853
436.049	160.01
438.942	191.024
441.834	229.619
444.727	197.992
447.62	232.356
450.512	307.503
453.405	354.084
456.298	400.352
459.19	389.844
462.083	485.8
464.976	543.047
467.868	486.126
470.761	492.083
473.654	551.672
476.547	673.818
479.439	782.107
482.332	993.213
485.225	1104.86
488.117	1316.17
491.01	1554.06
493.903	1749
496.796	1931.73
499.688	1856.31
502.581	1586.78
505.474	1173.32
508.366	796.461
511.259	496.627
514.152	300.831
517.044	196.423
519.937	24.4085
522.83	46.8191
525.722	43.3649
528.615	16.6421
531.508	43.2594
534.401	33.1171
537.293	32.1454
540.186	18.9939
543.079	14.9398
545.971	2.68396
548.864	36.1515
551.757	98.6937
554.649	147.148
557.542	254.461
560.435	526.956
563.328	939.857
566.22	1472.92
569.113	2387.49
572.006	3181.24
574.898	3441.16
577.791	2680.14
580.684	1827.21
583.577	1418.56
586.469	1465.59
589.362	1743.77
592.255	2310.25
595.147	3183.91
598.04	4115.65
600.933	4902.49
603.825	4812.2
606.718	3981.52
609.611	3037.97
612.504	2240.25
615.396	1648.53
618.289	1267.56
621.182	1102.36
624.074	917.031
626.967	863.563
629.86	781.217
632.752	783.174
635.645	680.948
638.538	694.641
641.431	438.431
644.323	360.793
647.216	256.216
650.109	181.455
653.001	141.968
655.894	145.916
658.787	85.1183
661.679	77.0133
664.572	50.3877
667.465	14.5341
670.357	0.025024
673.25	40.2601
676.143	34.471
679.036	4.81323
681.928	13.2665
684.821	13.1464
687.714	13.9556
690.606	35.2714
693.499	88.6377
696.392	178.822
699.284	243.51
702.177	374.815
705.07	381.047
707.963	339.849
710.855	199.08
713.748	136.095
716.641	81.6093
719.533	44.5434
722.426	48.0713
725.319	7.97113
728.212	40.0427
731.104	6.90796
733.997	44.1528
736.89	7.00214
739.782	3.50171
742.675	5.57013
745.568	0.666626
748.46	21.2006
751.353	5.18426
754.246	45.456
757.139	95.9377
760.031	114.009
762.924	130.065
765.817	211.704
768.709	292.11
771.602	335.195
774.495	415.676
777.388	395.951
780.28	348.854
783.173	251.186
786.066	206.935
788.958	148.899
791.851	117.535
794.744	75.8661
797.636	47.6511
800.529	37.4027
803.422	12.5302
806.314	30.121
809.207	15.9202
812.1	20.9217
814.993	19.6293
817.885	14.3118
820.778	6.38831
823.671	0.947144
826.563	28.5538
829.456	23.2004
832.349	2.86267
835.241	26.0064
838.134	49.3163
841.027	64.5352
843.919	19.8232
846.812	27.5698
849.705	35.3258
852.598	14.9007
855.49	34.4029
858.383	43.9458
861.276	37.6884
864.168	29.9391
867.061	27.484
869.954	7.40784
872.846	39.4071
875.739	31.1243
878.632	19.2772
881.525	3.31793
884.417	20.8625
887.31	27.9575
890.203	33.6623
893.095	34.051
895.988	40.2329
898.881	7.4043
901.774	20.7142
904.666	17.1084
907.559	5.56043
910.452	12.4396
913.344	20.2369
916.237	10.1777
919.13	12.0319
922.022	38.3845
924.915	14.4878
927.808	29.9819
930.701	14.1104
933.593	23.5117
936.486	30.6204
939.379	36.9102
942.271	21.8721
945.164	25.1576
948.057	18.2969
950.949	21.4158
953.842	31.67
956.735	4.67456
959.628	10.1062
962.52	15.1169
965.413	24.6811
968.306	8.9422
971.198	9.76648
974.091	7.75537
976.984	13.1009
979.876	31.2152
982.769	28.5985
985.662	43.4362
988.554	53.1152
991.447	66.2808
994.34	54.5754
997.233	84.6832
1000.12	104.16
1003.02	90.4193
1005.91	124.72
1008.8	131.629
1011.7	196.159
1014.59	236.467
1017.48	222.037
1020.37	279.972
1023.27	362.184
1026.16	454.176
1029.05	547.975
1031.94	646.493
1034.84	818.947
1037.73	1005.35
1040.62	1130.44
1043.52	1029.88
1046.41	987.466
1049.3	967.882
1052.19	1124.81
1055.09	1308.36
1057.98	1560.51
1060.87	1654.25
1063.77	1416.45
1066.66	1103.3
1069.55	743.401
1072.44	503.93
1075.34	344.812
1078.23	225.204
1081.12	137.34
1084.01	84.5426
1086.91	69.3239
1089.8	23.0751
1092.69	10.7305
1095.58	37.5683
1098.48	8.38196
1101.37	3.19324
1104.26	7.44434
1107.15	12.5518
1110.05	28.0494
1112.94	23.9821
1115.83	12.6044
1118.73	21.053
1121.62	35.9471
1124.51	7.77362
1127.4	53.8847
1130.3	52.8291
1133.19	46.9961
1136.08	34.7814
1138.97	24.8967
1141.87	17.6116
1144.76	43.1819
1147.65	44.2007
1150.55	72.7302
1153.44	74.9462
1156.33	68.2042
1159.22	92.0478
1162.12	60.9489
1165.01	66.6185
1167.9	60.1747
1170.8	15.6501
1173.69	25.4033
1176.58	43.3702
1179.47	20.9453
1182.37	1.50378
1185.26	1.20026
1188.15	24.4801
1191.04	29.9993
1193.94	31.4862
1196.83	21.5626
1199.72	25.0996
1202.61	2.19562
1205.51	33.5558
1208.4	13.0671
1211.29	32.5941
1214.18	7.85852
1217.08	51.271
1219.97	42.9556
1222.86	45.7291
1225.76	34.985
1228.65	37.0297
1231.54	28.3297
1234.43	36.5822
1237.33	39.28
1240.22	32.3527
1243.11	56.3187
1246.01	35.9383
1248.9	19.0519
1251.79	11.3019
1254.68	16.992
1257.58	15.0013
1260.47	0.216431
