Measurement: Raman, 532 nm, unoriented, Raman Data Processed
Mineral: Tunisite
Rruff sample: R060776
Ideal chemistry: NaCa_2_Al_4_(CO_3_)_4_(OH)_8_Cl
Locality: Condorcet, Drome, France
Source: Michael Scott
Description: Transparent colorless tabular crystals
Measured chemistry: (Na_0.99_K_0.01_)_âˆ‘=0.99_Ca_1.99_Al_4.00_(CO_3_)_4.05_(OH)_7.78_Cl_1.03_
Raman shift (cm-1)	intensity
168.288	0
171.181	21.5312
174.074	568.654
176.966	1646.62
179.859	2015.94
182.752	2228.43
185.645	2741.06
188.537	3855.14
191.43	4951.77
194.323	5726.48
197.215	6108.28
200.108	5892.54
203.001	4496.61
205.893	3138.38
208.786	2069.78
211.679	1525.92
214.572	1653.97
217.464	1677.87
220.357	1748.1
223.25	1422.59
226.142	924.449
229.035	759.351
231.928	825.624
234.82	870.708
237.713	342.131
240.606	35.5137
243.498	239.091
246.391	97.4717
249.284	157.587
252.176	69.0615
255.069	136.001
257.962	292.981
260.855	564.562
263.747	870.053
266.64	1344.95
269.533	1843.77
272.425	2411.85
275.318	3252.71
278.211	3907.74
281.103	4355.39
283.996	4621.21
286.889	5045.77
289.782	5581.99
292.674	5619.47
295.567	4668.84
298.46	3323.06
301.352	2260.18
304.245	1644.14
307.138	1253.65
310.03	1090.21
312.923	939.32
315.816	887.844
318.709	950.112
321.601	978.48
324.494	1162.38
327.387	1151.7
330.279	1006.33
333.172	804.736
336.065	483.581
338.957	322.344
341.85	158.774
344.743	123.325
347.635	141.658
350.528	101.949
353.421	149.272
356.314	269.16
359.206	8.38379
362.099	71.8545
364.992	58.0742
367.884	23.1553
370.777	47.4824
373.67	130.43
376.562	342.208
379.455	421.815
382.348	570.019
385.241	791.098
388.133	955.481
391.026	1050.79
393.919	1136.47
396.811	1345.07
399.704	1596.44
402.597	2031.64
405.49	2468.68
408.382	2818.86
411.275	3121.78
414.168	3329.99
417.06	3339.13
419.953	2654.29
422.846	1947.19
425.738	1488.86
428.631	1160.18
431.524	935.027
434.417	789.24
437.309	715.763
440.202	639.634
443.095	626.885
445.987	409.3
448.88	350.926
451.773	225.954
454.665	202.621
457.558	98.8662
460.451	15.1865
463.343	73.1025
466.236	38.7871
469.129	30.2324
472.022	26.6309
474.914	26.8398
477.807	19.6895
480.7	47.1514
483.592	90.6621
486.485	128.51
489.378	50.6094
492.27	106.691
495.163	177.728
498.056	187.162
500.948	274.69
503.841	487.599
506.734	618.325
509.627	767.734
512.519	1003.13
515.412	1403.44
518.305	1966.34
521.197	2824.74
524.09	3735.4
526.983	5241.78
529.875	6676.38
532.768	7246.27
535.661	5334.67
538.554	3122.56
541.446	1910.72
544.339	1487.46
547.232	1125.92
550.124	900.106
553.017	665.664
555.91	450.902
558.802	429.178
561.695	398.787
564.588	357.685
567.481	254.429
570.373	196.564
573.266	198.617
576.159	169.807
579.051	72.1416
581.944	37.8584
584.837	11.4941
587.729	76.2432
590.622	54.1709
593.515	83.0869
596.407	17.6328
599.3	42.0137
602.193	53.0674
605.086	13.5566
607.978	34.9785
610.871	134.853
613.764	82.8086
616.656	169.077
619.549	129.786
622.442	195.843
625.334	187.747
628.227	169.511
631.12	180.63
634.013	49.9326
636.905	82.9297
639.798	21.6416
642.691	67.1514
645.583	97.2129
648.476	62.252
651.369	126.915
654.261	46.0303
657.154	78.2793
660.047	16.4385
662.94	27.5869
665.832	108.529
668.725	73.582
671.618	244.608
674.51	130.93
677.403	136.519
680.296	91.0928
683.188	140.443
686.081	53.3574
688.974	94.4268
691.867	13.5615
694.759	21.6494
697.652	28.4775
700.545	103.573
703.437	40.1309
706.33	44.6045
709.223	56.4209
712.115	53.6055
715.008	209.997
717.901	388.956
720.794	672.174
723.686	1078.77
726.579	1467.13
729.472	1891.28
732.364	1989.77
735.257	1791.02
738.15	1520.14
741.042	1313.08
743.935	1281.28
746.828	1148.84
749.721	1036.78
752.613	552.223
755.506	515.165
758.399	334.914
761.291	248.996
764.184	185.128
767.077	166.234
769.969	267.932
772.862	191.735
775.755	322.692
778.648	441.831
781.54	767.023
784.433	886.13
787.326	966.909
790.218	890.577
793.111	748.844
796.004	572.746
798.896	413.876
801.789	416.372
804.682	344.971
807.574	275.035
810.467	234.112
813.36	180.631
816.253	194.676
819.145	136.017
822.038	160.324
824.931	133.933
827.823	112.151
830.716	111.638
833.609	226.302
836.501	522.248
839.394	784.19
842.287	664.909
845.18	363.001
848.072	331.611
850.965	416.031
853.858	963.346
856.75	411.995
859.643	54.9287
862.536	6.85156
865.428	26.1611
868.321	18.1289
871.214	48.3623
874.106	7.66504
876.999	49.5234
879.892	41.4756
882.784	123.277
885.677	126.893
888.57	69.6113
891.463	187.204
894.355	182.989
897.248	286.297
900.141	110.196
903.033	119.147
905.926	80.4619
908.819	128.611
911.711	149.453
914.604	173.695
917.497	160.972
920.39	171.148
923.282	248.56
926.175	273.545
929.068	220.093
931.96	199.44
934.853	99.8164
937.746	149.071
940.638	102.986
943.531	131.323
946.424	94.4619
949.317	64.1231
952.209	83.7656
955.102	80.2578
957.995	19.8369
960.887	2.34277
963.78	129.798
966.673	58.46
969.565	60.5645
972.458	42.208
975.351	30.2598
978.244	41.3037
981.136	61.748
984.029	47.8193
986.922	14.1133
989.814	43.6367
992.707	29.2168
995.6	12.0068
998.492	57.9883
1001.38	75.0156
1004.28	82.1357
1007.17	73.6279
1010.06	96.2959
1012.96	125.444
1015.85	259.231
1018.74	330.004
1021.63	595.8
1024.53	845.644
1027.42	996.157
1030.31	1053.56
1033.2	833.281
1036.1	571.464
1038.99	494.87
1041.88	244.026
1044.78	111.373
1047.67	23.6533
1050.56	20.2891
1053.45	27.3477
1056.35	4.09766
1059.24	15.3223
1062.13	44.2695
1065.03	28.1729
1067.92	47.8623
1070.81	78.7881
1073.7	81.9414
1076.6	86.9199
1079.49	158.673
1082.38	81.7432
1085.27	269.059
1088.17	394.928
1091.06	459.837
1093.95	772.962
1096.84	1116.1
1099.74	1661.5
1102.63	2305.14
1105.52	3315.34
1108.41	4547.4
1111.31	6205.99
1114.2	9197.05
1117.09	14524.7
1119.99	23038
1122.88	36181.1
1125.77	49011.9
1128.66	47367.7
1131.56	29836.5
1134.45	16156.6
1137.34	9258.33
1140.23	5867.87
1143.13	4018.27
1146.02	2854.14
1148.91	2103.89
1151.81	1614.28
1154.7	1280.65
1157.59	1022.08
1160.48	717.631
1163.38	564.925
1166.27	377.167
1169.16	252.333
1172.05	246.016
1174.95	311.086
1177.84	194.903
1180.73	217.898
1183.62	292.624
1186.52	139.711
1189.41	124.97
1192.3	31.7607
1195.2	91.0147
1198.09	37.3379
1200.98	17.6611
1203.87	13.0518
1206.77	90.4082
1209.66	80.6494
1212.55	35.3154
1215.44	0.567383
1218.34	16.1064
1221.23	63.9795
1224.12	8.71289
1227.02	75.9541
1229.91	54.25
1232.8	88.543
1235.69	111.587
1238.59	144.15
1241.48	147.038
1244.37	166.876
1247.26	146.096
1250.16	185.732
1253.05	128.045
1255.94	100.504
1258.84	159.594
1261.73	53.6445
1264.62	27.542
1267.51	35.9805
1270.41	106.686
1273.3	199.543
1276.19	230.409
1279.08	90.5713
1281.98	174.022
1284.87	96.0635
1287.76	56.6435
1290.65	60.918
1293.55	0
