Measurement: Raman, 785 nm, unoriented, Raman Data Processed
Mineral: Tunisite
Rruff sample: R060776
Ideal chemistry: NaCa_2_Al_4_(CO_3_)_4_(OH)_8_Cl
Locality: Condorcet, Drome, France
Source: Michael Scott
Description: Transparent colorless tabular crystals
Measured chemistry: (Na_0.99_K_0.01_)_âˆ‘=0.99_Ca_1.99_Al_4.00_(CO_3_)_4.05_(OH)_7.78_Cl_1.03_
Raman shift (cm-1)	intensity
165.882	0
168.775	48.3398
171.668	100.994
174.561	294.836
177.453	448.16
180.346	620.892
183.239	743.918
186.131	1388.63
189.024	2153.03
191.917	2874.01
194.809	3382.3
197.702	3771.46
200.595	3563.65
203.488	2553.9
206.38	1725.88
209.273	1021.23
212.166	585.56
215.058	531.348
217.951	745.139
220.844	717.894
223.736	588.636
226.629	298.603
229.522	302.097
232.415	419.06
235.307	401.26
238.2	93.8144
241.093	83.9336
243.985	116.126
246.878	21.0186
249.771	20.8281
252.663	105.056
255.556	34.0264
258.449	192.329
261.341	360.732
264.234	410.906
267.127	567.095
270.02	897.364
272.912	1250.32
275.805	1693.33
278.698	1963.55
281.59	2118.57
284.483	2366.65
287.376	2625.36
290.268	2731.84
293.161	2651.53
296.054	1986.33
298.947	1375.97
301.839	948.952
304.732	779.869
307.625	710.505
310.517	560.758
313.41	481.683
316.303	507.418
319.195	463.281
322.088	509.441
324.981	718.641
327.874	773.019
330.766	664.175
333.659	494.523
336.552	278.06
339.444	158.602
342.337	158.775
345.23	183.469
348.122	165.416
351.015	145.179
353.908	146.541
356.801	114.783
359.693	42.7754
362.586	19.8613
365.479	22.54
368.371	56.5791
371.264	141.832
374.157	211.826
377.049	302.489
379.942	285.93
382.835	359.769
385.728	315.059
388.62	288.348
391.513	483.892
394.406	658.066
397.298	790.324
400.191	993.928
403.084	1072.81
405.977	1242.93
408.869	1387.45
411.762	1446.59
414.655	1602.53
417.547	1478.93
420.44	1161.35
423.333	896.472
426.225	693.005
429.118	580.727
432.011	456.17
434.904	317.248
437.796	392.6
440.689	303.229
443.582	280.761
446.474	227.948
449.367	158.345
452.26	131.004
455.152	16.0801
458.045	70.1465
460.938	24.5293
463.831	96.8291
466.723	74.3564
469.616	61.6865
472.509	33.1074
475.401	87.957
478.294	7.47461
481.187	6.85742
484.079	34.7119
486.972	92.6299
489.865	14.4736
492.758	67.9463
495.65	97.5
498.543	94.3887
501.436	204.108
504.328	210.208
507.221	294.508
510.114	389.287
513.006	516.366
515.899	618.37
518.792	881.65
521.685	1274.84
524.577	1789.1
527.47	2606.7
530.363	3126.2
533.255	3060.51
536.148	1997.68
539.041	1237.56
541.933	816.337
544.826	634.879
547.719	459.791
550.612	308.3
553.504	293.111
556.397	188.766
559.29	182.138
562.182	225.692
565.075	141.106
567.968	27.7285
570.86	40.3789
573.753	101.683
576.646	49.1201
579.539	112.157
582.431	179.889
585.324	42.8691
588.217	123.365
591.109	9.89941
594.002	28.4873
596.895	38.4199
599.787	55.3467
602.68	0.12793
605.573	48.2598
608.466	76.9268
611.358	89.1709
614.251	29.6797
617.144	22.4609
620.036	141.447
622.929	104.975
625.822	60.2012
628.714	89.8428
631.607	116.402
634.5	145.519
637.393	79.8018
640.285	66.9062
643.178	38.9228
646.071	79.0811
648.963	4.64356
651.856	23.7012
654.749	11.4395
657.641	24.502
660.534	214.512
663.427	63.2627
666.32	36.3145
669.212	38.8184
672.105	103.394
674.998	81.1338
677.89	129.878
680.783	31.1572
683.676	5.82227
686.568	43.8018
689.461	32.2129
692.354	55.2978
695.247	0.319336
698.139	51.5879
701.032	7.51172
703.925	2.08691
706.817	1.3916
709.71	8.54102
712.603	71.6231
715.495	128.092
718.388	199.403
721.281	269.108
724.174	464.779
727.066	635.515
729.959	753.534
732.852	821.44
735.744	801.873
738.637	612.742
741.53	596.396
744.422	548.944
747.315	425.323
750.208	333.073
753.101	259.174
755.993	197.886
758.886	57.5459
761.779	40.1465
764.671	63.6094
767.564	60.0107
770.457	70.5781
773.349	127.402
776.242	177.207
779.135	170.161
782.028	255.711
784.92	388.533
787.813	411.285
790.706	329.126
793.598	248.154
796.491	195.14
799.384	116.236
802.276	97.0908
805.169	135.287
808.062	13.833
810.955	98.8418
813.847	71.9853
816.74	74.9951
819.633	2.00586
822.525	37.791
825.418	0.708008
828.311	14.793
831.203	51.335
834.096	104.637
836.989	247.791
839.881	236.078
842.774	216.814
845.667	55.2207
848.56	96.4658
851.452	233.679
854.345	416.896
857.238	133.23
860.13	25.0674
863.023	5.10547
865.916	5.88281
868.808	27.4111
871.701	23.1963
874.594	63.0669
877.487	53.0361
880.379	30.7217
883.272	2.10889
886.165	2.83789
889.057	17.2583
891.95	7.12109
894.843	28.5034
897.735	27.6265
900.628	80.0464
903.521	97.4614
906.414	94.8125
909.306	56.6553
912.199	102.987
915.092	116.665
917.984	104.296
920.877	29.6006
923.77	86.8774
926.662	50.062
929.555	63.1055
932.448	108.188
935.341	109.587
938.233	92.3354
941.126	102.213
944.019	14.7046
946.911	47.0913
949.804	92.4375
952.697	45.0361
955.589	70.1831
958.482	46.0352
961.375	53.2891
964.268	7.15381
967.16	39.0259
970.053	38.5234
972.946	64.4351
975.838	103.556
978.731	45.772
981.624	83.7705
984.516	30.1431
987.409	51.8433
990.302	75.2627
993.195	7.56201
996.087	23.8901
998.98	16.8296
1001.87	72.3418
1004.76	74.4688
1007.66	46.7026
1010.55	84.7324
1013.44	45.9702
1016.34	118.521
1019.23	173.454
1022.12	179.389
1025.01	223.75
1027.91	271.133
1030.8	298.419
1033.69	232.039
1036.59	175.734
1039.48	110.466
1042.37	96.6064
1045.26	25.603
1048.16	1.38916
1051.05	22.8799
1053.94	7.59863
1056.83	21.4575
1059.73	15.1069
1062.62	40.396
1065.51	43.0796
1068.4	34.6357
1071.3	7.89502
1074.19	42.2993
1077.08	4.78809
1079.98	37.6758
1082.87	53.0151
1085.76	64.9209
1088.65	133.139
1091.55	182.542
1094.44	222.065
1097.33	364.321
1100.22	510.425
1103.12	692.76
1106.01	869.258
1108.9	1201.72
1111.8	1681.68
1114.69	2583.88
1117.58	4051.7
1120.47	6771
1123.37	11023.1
1126.26	14160.1
1129.15	12151.7
1132.04	7159.28
1134.94	3938.96
1137.83	2270.26
1140.72	1507.06
1143.62	953.721
1146.51	735.727
1149.4	541.606
1152.29	343.079
1155.19	252.058
1158.08	244.394
1160.97	217.671
1163.86	146.027
1166.76	78.7402
1169.65	101.406
1172.54	131.423
1175.43	85.7578
1178.33	10.6279
1181.22	30.5273
1184.11	13.2222
1187.01	18.3955
1189.9	20.4116
1192.79	7.36133
1195.68	43.4004
1198.58	63.0395
1201.47	29.2319
1204.36	43.5415
1207.25	2.93213
1210.15	35.8804
1213.04	7.84863
1215.93	42.3774
1218.83	130.762
1221.72	118.167
1224.61	72.9141
1227.5	91.2988
1230.4	25.6973
1233.29	70.0796
1236.18	78.5151
1239.07	38.1465
1241.97	97.9888
1244.86	149.242
1247.75	103.492
1250.64	93.9023
1253.54	25.5449
1256.43	84.2788
1259.32	38.9067
1262.22	103.912
1265.11	48.5855
1268	0.838379
