Measurement: Raman, 780 nm, unoriented, Raman Data Processed
Mineral: Turneaureite
Rruff sample: R070758
Ideal chemistry: Ca_5_(As^5+^O_4_)_3_Cl
Locality: ZCA Mine No. 4 (St Joe Mine), Balmat, Balmat-Edwards Zinc District, St Lawrence Co., New York, USA
Source: Michael Scott
Description: Colorless to grayish white massive that fluoresces bright orange under SW UV.
Raman shift (cm-1)	intensity
151.118	0
154.011	1.16931
156.903	21.4861
159.796	50.5267
162.689	77.6769
165.581	15.0502
168.474	78.9341
171.367	58.6794
174.26	95.5233
177.152	116.805
180.045	143.949
182.938	109.948
185.83	158.604
188.723	124.95
191.616	148.903
194.508	120.238
197.401	132.624
200.294	127.659
203.186	139.631
206.079	95.0518
208.972	91.3115
211.865	78.9604
214.757	88.5063
217.65	110.872
220.543	91.9343
223.435	16.897
226.328	42.0583
229.221	70.5527
232.113	75.8635
235.006	167.882
237.899	122.473
240.792	78.27
243.684	163.368
246.577	92.2595
249.47	84.4575
252.362	57.3572
255.255	137.691
258.148	176.924
261.041	138.761
263.933	170.033
266.826	257.132
269.719	219.607
272.611	208.203
275.504	231.554
278.397	130.755
281.289	125.341
284.182	119.404
287.075	13.1313
289.967	56.1133
292.86	82.3003
295.753	55.2153
298.646	15.5601
301.538	62.3428
304.431	111.341
307.324	215.86
310.216	341.622
313.109	497.834
316.002	666.548
318.894	929.115
321.787	1141.29
324.68	1376.01
327.573	1690.72
330.465	1992.96
333.358	2355.74
336.251	2771.72
339.143	3150.41
342.036	3482.45
344.929	3702.49
347.822	3822.68
350.714	3761.59
353.607	3615.36
356.5	3167.98
359.392	2761.44
362.285	2416.96
365.178	2105.84
368.07	1795.9
370.963	1349.16
373.856	1176.32
376.748	912.52
379.641	702.241
382.534	481.734
385.427	321.665
388.319	97.8809
391.212	65.5942
394.105	9.25879
396.997	49.8125
399.89	14.7017
402.783	123.89
405.675	44.752
408.568	55.812
411.461	61.7227
414.354	154.6
417.246	134.335
420.139	257.054
423.032	317.308
425.924	444.738
428.817	419.117
431.71	595.701
434.603	632.24
437.495	735.387
440.388	782.112
443.281	784.186
446.173	859.216
449.066	778.504
451.959	780.334
454.851	787.777
457.744	745.297
460.637	683.59
463.529	715.609
466.422	673.392
469.315	668.598
472.208	616.615
475.1	610.503
477.993	520.606
480.886	504.108
483.778	468.341
486.671	366.87
489.564	345.442
492.457	322.606
495.349	288.493
498.242	268.799
501.135	176.513
504.027	194.487
506.92	129.576
509.813	73.2612
512.705	109.656
515.598	29.5405
518.491	33.5166
521.384	6.14453
524.276	32.8398
527.169	22.3345
530.062	24.1895
532.954	6.73608
535.847	8.45142
538.74	30.6628
541.632	2.11963
544.525	3.6936
547.418	12.0957
550.311	14.6982
553.203	15.2981
556.096	51.6426
558.989	23.7769
561.881	0.526367
564.774	41.4109
567.667	66.1648
570.559	80.8916
573.452	58.8931
576.345	97.6821
579.237	86.5623
582.13	103.832
585.023	100.486
587.916	116.568
590.808	98.5796
593.701	101.36
596.594	121.27
599.486	82.6482
602.379	95.5283
605.272	101.815
608.164	53.9612
611.057	82.3135
613.95	86.1702
616.843	99.4871
619.735	98.1877
622.628	110.221
625.521	91.3486
628.413	102.672
631.306	63.1309
634.199	92.8076
637.091	87.7686
639.984	54.3911
642.877	111.023
645.77	92.9111
648.662	109.026
651.555	60.2422
654.448	120.913
657.34	116.164
660.233	136.363
663.126	117.866
666.019	169.265
668.911	139.786
671.804	157.591
674.697	144.139
677.589	157.588
680.482	206.111
683.375	179.2
686.267	176.615
689.16	198.108
692.053	195.576
694.946	215.493
697.838	262.958
700.731	228.968
703.624	271.842
706.516	236.885
709.409	256.746
712.302	245.561
715.194	250.725
718.087	223.793
720.98	241.043
723.872	169.294
726.765	212.682
729.658	216.66
732.551	170.121
735.443	173.837
738.336	138.084
741.229	138.01
744.121	128.702
747.014	84.5028
749.907	91.7186
752.799	56.9835
755.692	37.8779
758.585	7.26062
761.478	28.3402
764.37	3.61353
767.263	18.454
770.156	7.75513
773.048	35.3878
775.941	9.17078
778.834	20.9967
781.726	18.4025
784.619	4.34302
787.512	6.08899
790.405	58.4023
793.297	79.4154
796.19	202.353
799.083	346.209
801.975	470.409
804.868	646.384
807.761	780.28
810.654	868.423
813.546	835.029
816.439	724.713
819.332	605.395
822.224	532.117
825.117	581.723
828.01	620.933
830.902	701.516
833.795	750.178
836.688	861.599
839.58	1022.98
842.473	1286.87
845.366	1529.98
848.259	1723
851.151	1718.29
854.044	1463.09
856.937	1092.59
859.829	760.5
862.722	514.818
865.615	336.175
868.507	237.778
871.4	134.449
874.293	101.255
877.186	113.21
880.078	139.112
882.971	149.902
885.864	193.738
888.756	207.191
891.649	173.932
894.542	118.484
897.434	62.03
900.327	53.5952
903.22	58.0894
906.112	39.3569
909.005	8.14154
911.898	0.341309
914.791	1.20514
917.683	2.01752
920.576	3.19031
923.469	3.63098
926.361	14.244
929.254	10.7512
932.147	7.74396
935.04	21.1303
937.932	19.4917
940.825	55.4309
943.718	58.5482
946.61	48.6061
949.503	64.6195
952.396	31.4292
955.288	40.0997
958.181	30.6299
961.074	32.4706
963.967	26.5056
966.859	18.2846
969.752	16.2075
972.645	1.73389
975.537	14.0485
978.43	15.7207
981.323	0.77063
984.216	10.8987
987.108	3.98828
990.001	21.1291
992.894	12.0365
995.786	16.6682
998.679	33.4282
1001.57	39.6407
1004.46	31.6697
1007.36	42.6072
1010.25	40.752
1013.14	38.1527
1016.03	19.3799
1018.93	46.309
1021.82	40.448
1024.71	46.6805
1027.61	96.3269
1030.5	50.9065
1033.39	61.7749
1036.28	64.8151
1039.18	106.265
1042.07	71.9081
1044.96	112.14
1047.86	94.6016
1050.75	83.6666
1053.64	73.9204
1056.53	139.616
1059.43	130.567
1062.32	125.316
1065.21	168.414
1068.1	182.346
1071	168.467
1073.89	203.972
1076.78	248.07
1079.67	229.603
1082.57	259.859
1085.46	273.71
1088.35	273.919
1091.24	294.624
1094.14	325.757
1097.03	304.843
1099.92	327.462
1102.82	318.632
1105.71	336.012
1108.6	355.3
1111.49	417.824
1114.39	361.748
1117.28	382.474
1120.17	376.98
1123.07	335.502
1125.96	377.361
1128.85	325.769
1131.74	319.288
1134.64	274.037
1137.53	212.415
1140.42	196.931
1143.31	157.621
1146.21	130.911
1149.1	99.1152
1151.99	44.457
1154.88	75.9136
1157.78	30.7183
1160.67	64.5293
1163.56	29.314
1166.46	52.5112
1169.35	32.3955
1172.24	44.1904
1175.13	10.9058
1178.03	4.08984
1180.92	80.77
1183.81	213.612
1186.7	273.709
1189.6	380.639
1192.49	379.427
1195.38	510.154
1198.28	508.835
1201.17	569.538
1204.06	515.475
1206.95	348.807
1209.85	344.601
1212.74	271.353
1215.63	288.628
1218.52	226.145
1221.42	151.103
1224.31	162.991
1227.2	99.8359
1230.1	69.2949
1232.99	15.6123
1235.88	33.4922
