Measurement: Raman, 532 nm, unoriented, Raman Data Processed
Mineral: Turquoise
Rruff sample: R050225
Ideal chemistry: CuAl_6_(PO_4_)_4_(OH)_8_4H_2_O
Locality: Badger Prospect, Lander County, Nevada, USA
Source: Marcus Origlieri
Description: Light blue massive
Measured chemistry: Cu_1.00_(Al_5.83_Fe^3+^_0.17_)_Σ=6_(P_1.00_O_4_)_4_(OH)_8_·4H_2_O
Raman shift (cm-1)	intensity
130.869	0
133.762	15.1396
136.655	29.1084
139.547	32.6952
142.44	21.2046
145.333	10.4609
148.225	12.4732
151.118	18.6806
154.011	20.9993
156.903	15.6927
159.796	2.73319
162.689	0.332977
165.582	3.3992
168.474	0.138336
171.367	9.74707
174.26	19.7673
177.152	20.355
180.045	9.61255
182.938	1.09403
185.83	3.63687
188.723	13.632
191.616	26.5888
194.508	43.0522
197.401	53.3383
200.294	63.983
203.187	69.5212
206.079	75.1599
208.972	81.5087
211.865	83.4655
214.757	82.2509
217.65	85.1249
220.543	88.578
223.435	96.5384
226.328	108.326
229.221	121.901
232.113	124.313
235.006	108.462
237.899	90.513
240.792	76.4307
243.684	72.9372
246.577	53.8908
249.47	37.3114
252.362	27.2358
255.255	20.3842
258.148	14.4438
261.041	9.51804
263.933	5.25198
266.826	2.31311
269.719	1.91501
272.611	0.988708
275.504	1.11771
278.397	1.60037
281.289	1.5011
284.182	0.18219
287.075	3.39587
289.967	6.43033
292.86	12.9428
295.753	19.355
298.646	26.4044
301.538	33.0767
304.431	34.6043
307.324	38.7332
310.216	44.3627
313.109	48.2944
316.002	56.1993
318.894	63.0628
321.787	66.2045
324.68	68.2182
327.573	72.0164
330.465	74.0637
333.358	71.9577
336.251	64.4391
339.143	53.854
342.036	40.4374
344.929	28.4386
347.822	15.3622
350.714	7.91769
353.607	4.49762
356.5	0.917725
359.392	1.60013
362.285	1.91211
365.178	1.46326
368.07	0.231628
370.963	0.147797
373.856	2.3432
376.748	6.06928
379.641	8.1879
382.534	15.2069
385.427	11.1089
388.319	9.1528
391.212	5.70602
394.105	3.92633
396.997	6.20514
399.89	13.1516
402.783	24.7651
405.675	37.8396
408.568	62.0328
411.461	87.2121
414.354	113.88
417.246	126.956
420.139	120.45
423.032	105.417
425.924	85.4923
428.817	63.8482
431.71	53.4553
434.603	47.3931
437.495	44.2746
440.388	39.0267
443.281	35.7227
446.173	31.5283
449.066	27.1849
451.959	24.1132
454.851	24.3066
457.744	26.4769
460.637	36.0603
463.529	45.9909
466.422	49.5208
469.315	51.3485
472.208	49.6321
475.1	46.1748
477.993	46.2864
480.886	46.5255
483.778	44.0371
486.671	38.1652
489.564	32.5564
492.457	29.1023
495.349	25.4506
498.242	21.6263
501.135	15.2542
504.027	12.5512
506.92	9.58191
509.813	3.71936
512.705	0.882599
515.598	3.99127
518.491	4.27725
521.384	3.77628
524.276	0.85611
527.169	1.70505
530.062	8.6868
532.954	15.983
535.847	28.3845
538.74	40.0668
541.632	51.1705
544.525	59.5089
547.418	59.7432
550.311	56.999
553.203	48.4221
556.096	38.8246
558.989	33.3364
561.881	33.6175
564.774	38.7349
567.667	42.2266
570.559	39.1447
573.452	38.0466
576.345	35.4535
579.237	35.3013
582.13	39.5774
585.023	48.3767
587.915	54.8784
590.808	55.0641
593.701	48.6872
596.594	37.7799
599.486	26.405
602.379	17.7129
605.272	11.2343
608.164	8.32825
611.057	7.18478
613.95	6.91107
616.842	10.8005
619.735	15.4519
622.628	22.2595
625.521	28.8305
628.413	34.5052
631.306	41.7374
634.199	47.591
637.091	53.3129
639.984	56.9183
642.877	54.0468
645.769	51.1219
648.662	44.1233
651.555	36.1916
654.448	29.0557
657.34	22.5977
660.233	18.6934
663.126	14.6631
666.018	13.6847
668.911	12.3648
671.804	9.78018
674.697	8.54877
677.589	5.69229
680.482	3.3761
683.375	1.47949
686.267	1.57013
689.16	0.996796
692.053	1.74695
694.945	1.59836
697.838	1.91049
700.731	0.256744
703.624	0.764496
706.516	0.451233
709.409	0.101257
712.302	1.00409
715.194	0.926514
718.087	2.62241
720.98	1.89273
723.872	1.94647
726.765	2.51471
729.658	3.42889
732.551	3.06805
735.443	3.16754
738.336	4.46442
741.229	4.25201
744.121	5.30765
747.014	3.92297
749.907	4.06891
752.799	3.14597
755.692	1.88565
758.585	1.14023
761.477	0.875366
764.37	1.25992
767.263	1.45142
770.156	2.01331
773.048	3.76871
775.941	5.19788
778.834	7.45334
781.726	8.82221
784.619	11.1599
787.512	13.1967
790.404	15.9678
793.297	19.0925
796.19	22.3536
799.083	26.5354
801.975	30.399
804.868	38.2819
807.761	44.697
810.653	48.5797
813.546	50.1416
816.439	50.3559
819.332	44.273
822.224	39.4463
825.117	32.706
828.01	27.6618
830.902	22.3491
833.795	19.3329
836.688	15.7187
839.58	13.2407
842.473	11.2928
845.366	8.87433
848.259	7.08524
851.151	4.01382
854.044	4.34143
856.937	2.67603
859.829	4.35562
862.722	2.16766
865.615	0.758118
868.507	0.720978
871.4	0.271515
874.293	0.69931
877.186	2.91107
880.078	1.66989
882.971	1.14157
885.864	2.50644
888.756	1.11112
891.649	2.06247
894.542	3.59494
897.434	1.42377
900.327	1.47784
903.22	0.937317
906.112	1.19235
909.005	0.514923
911.898	1.32553
914.791	2.17416
917.683	0.144867
920.576	0.330353
923.469	1.29654
926.361	0.448456
929.254	0.852081
932.147	1.1709
935.039	0.360138
937.932	0.433472
940.825	0.118347
943.718	1.09445
946.61	0.870087
949.503	2.09091
952.396	1.8681
955.288	2.91989
958.181	1.88736
961.074	0.643677
963.966	0.400269
966.859	0.928162
969.752	3.89914
972.645	9.1441
975.537	15.5303
978.43	22.205
981.323	30.6191
984.215	33.9874
987.108	34.6812
990.001	36.6147
992.893	35.1366
995.786	37.4693
998.679	39.2473
1001.57	44.2913
1004.46	49.8893
1007.36	57.4619
1010.25	65.7696
1013.14	75.9806
1016.03	91.0213
1018.93	109.36
1021.82	131.08
1024.71	158.097
1027.61	185.743
1030.5	220.873
1033.39	252.398
1036.28	281.625
1039.18	294.607
1042.07	284.7
1044.96	251.006
1047.86	209.28
1050.75	172.78
1053.64	144.044
1056.53	125.372
1059.43	106.135
1062.32	89.7804
1065.21	73.5603
1068.1	57.154
1071	42.0016
1073.89	28.774
1076.78	18.0515
1079.67	11.584
1082.57	6.85053
1085.46	6.20917
1088.35	5.79303
1091.24	9.72464
1094.14	10.4545
1097.03	15.5222
1099.92	17.1306
1102.82	21.4227
1105.71	21.0187
1108.6	16.2707
1111.49	10.251
1114.39	6.34662
1117.28	1.96667
1120.17	1.15961
1123.07	1.86905
1125.96	2.43369
1128.85	4.27728
1131.74	2.2153
1134.64	0.38269
1137.53	1.70013
1140.42	4.04861
1143.31	6.16666
1146.21	10.0584
1149.1	16.1007
1151.99	18.7307
1154.88	24.1653
1157.78	28.9149
1160.67	28.1342
1163.56	29.8533
1166.45	26.8669
1169.35	24.3096
1172.24	22.494
1175.13	22.7561
1178.03	20.9412
1180.92	20.1408
1183.81	17.42
1186.7	13.8589
1189.6	11.1779
1192.49	6.19009
1195.38	5.22986
1198.28	2.12445
1201.17	1.00114
1204.06	0.387833
1206.95	0.847031
1209.85	1.31119
1212.74	0.20166
1215.63	1.67091
1218.52	0.567047
1221.42	0.806641
1224.31	0.082764
1227.2	0.291016
1230.1	0.94928
1232.99	1.80379
1235.88	0.693665
1238.77	0.766556
1241.67	1.07964
1244.56	3.02919
1247.45	3.47859
1250.34	3.59071
1253.24	3.68135
1256.13	2.93169
1259.02	2.60832
1261.91	2.05998
1264.81	1.32172
1267.7	1.34619
1270.59	0.152664
1273.48	0.584198
1276.38	1.23998
1279.27	0.687378
1282.16	0.005341
