Measurement: Raman, 532 nm, unoriented, Raman Data Processed
Mineral: Turquoise
Rruff sample: R050418
Ideal chemistry: CuAl_6_(PO_4_)_4_(OH)_8_4H_2_O
Locality: Panoche Valley, San Benito County, California, USA
Source: Marcus Origlieri
Description: Pale-blue botryoidal crust on colorless quartz
Raman shift (cm-1)	intensity
98.578	0
101.47	5611.28
104.363	17974.6
107.256	21476.5
110.149	18219.9
113.041	11298.8
115.934	8683.56
118.827	8991.78
121.719	8815.06
124.612	15691.8
127.505	13886.5
130.398	12033.8
133.29	15185.9
136.183	13308.2
139.076	13698.7
141.968	13065.7
144.861	11645.4
147.754	4245.45
150.646	2929.33
153.539	5617.86
156.432	2083.62
159.324	433.109
162.217	1237.19
165.11	2602.47
168.003	148.312
170.895	594.438
173.788	2937.25
176.681	2687.25
179.573	1005.14
182.466	373.984
185.359	3388.42
188.251	6936.8
191.144	8921
194.037	10742.9
196.93	12371.4
199.822	14258.6
202.715	16863.2
205.608	18107.4
208.5	18672.7
211.393	18631.3
214.286	17879.8
217.178	14230.9
220.071	13031.1
222.964	9958.62
225.857	9025.83
228.749	9853.02
231.642	10660.2
234.535	10657.2
237.427	8643.94
240.32	6098.09
243.213	5123.39
246.105	4185.36
248.998	3519.33
251.891	2395.59
254.784	2207.02
257.676	1423.08
260.569	664.453
263.462	417.031
266.354	425.234
269.247	255.25
272.14	180.875
275.033	235.203
277.925	803.453
280.818	234.125
283.711	1110.92
286.603	584.422
289.496	1050.88
292.389	2097.25
295.281	2762.47
298.174	3858.31
301.067	4510.61
303.96	5309.22
306.852	5576.06
309.745	5309.56
312.638	6501.38
315.53	7157.44
318.423	7604.95
321.316	8207.8
324.208	7935.02
327.101	7883.58
329.994	8161.92
332.887	8027.86
335.779	7896.3
338.672	6629.31
341.565	5483.44
344.457	4127.94
347.35	2487.7
350.243	1600.27
353.135	970.297
356.028	842.969
358.921	501.422
361.814	549.844
364.706	7.312
367.599	321.984
370.492	33
373.384	175.891
376.277	77.938
379.17	1020.2
382.062	1121.31
384.955	1081.81
387.848	654.219
390.741	606.703
393.633	662.125
396.526	521
399.419	765.328
402.311	1633.5
405.204	3516.84
408.097	5190.88
410.99	7712.88
413.882	9805.78
416.775	10889.5
419.668	10376.8
422.56	9437.44
425.453	7373.92
428.346	5943.61
431.238	5097.17
434.131	4445.16
437.024	4136.64
439.917	3559.52
442.809	2795.88
445.702	2677.27
448.595	2734.23
451.487	2089.14
454.38	2313.17
457.273	2781.95
460.165	3790.41
463.058	4413.78
465.951	5046.48
468.844	4873.47
471.736	4138.78
474.629	3927.62
477.522	3582.62
480.414	3264.36
483.307	2901.67
486.2	2551.25
489.092	2180.72
491.985	1806.08
494.878	1237.41
497.771	846.219
500.663	427.625
503.556	200.109
506.449	34.5
509.341	81.906
512.234	16.766
515.127	145.714
518.019	627.703
520.912	20.359
523.805	235.562
526.698	303.422
529.59	1461.42
532.483	2854.31
535.376	3207.03
538.268	4730.5
541.161	5762.92
544.054	6619.03
546.946	6924.25
549.839	6175.23
552.732	5277.03
555.625	4653.78
558.517	3772.41
561.41	3972.86
564.303	3945.14
567.195	3941.64
570.088	3727.25
572.981	3195.75
575.873	3301.95
578.766	2902.06
581.659	3852.48
584.552	4658.45
587.444	5621.11
590.337	5611.47
593.23	5646.95
596.122	4598.53
599.015	3499.23
601.908	2452.75
604.8	1712.31
607.693	1187.06
610.586	1002.03
613.479	934.062
616.371	1329.03
619.264	1864.8
622.157	2475.5
625.049	2860.42
627.942	3696.06
630.835	4650.3
633.727	4918.98
636.62	5853.94
639.513	5806.64
642.406	5711.98
645.298	5090.2
648.191	4020.55
651.084	3749.91
653.976	2705.19
656.869	2464.27
659.762	2221.72
662.654	1603.73
665.547	1410.41
668.44	1345.55
671.333	1244.64
674.225	646.562
677.118	909.094
680.011	417.078
682.903	109.438
685.796	70.297
688.689	152.578
691.581	362.625
694.474	61.125
697.367	21.875
700.26	84.031
703.152	179.281
706.045	68.844
708.938	181.781
711.83	65.906
714.723	303.188
717.616	71.656
720.508	411.312
723.401	132.391
726.294	208.781
729.187	242.625
732.079	325.578
734.972	716.953
737.865	1225.53
740.758	220.328
743.65	765.141
746.543	919.609
749.436	409.141
752.328	426.797
755.221	1004.2
758.114	97.578
761.006	929.562
763.899	880.594
766.792	753.891
769.685	1193.42
772.577	1322.44
775.47	1163.19
778.363	1573.58
781.255	1508.94
784.148	2583.39
787.041	2390.45
789.933	2427.73
792.826	2937.81
795.719	3106.81
798.612	3683.7
801.504	3841.64
804.397	5225.89
807.29	5212.97
810.182	6145.69
813.075	5414.22
815.968	5583.7
818.86	4769.7
821.753	4207.2
824.646	3294.52
827.539	2786.45
830.431	2723
833.324	2409.25
836.217	1572.84
839.109	1210.47
842.002	1079.5
844.895	781.484
847.787	355.953
850.68	837.422
853.573	289.203
856.466	227.516
859.358	256.641
862.251	65.047
865.144	280.969
868.036	152.062
870.929	464.578
873.822	121.953
876.714	350.812
879.607	270.922
882.5	367.203
885.393	36.891
888.285	399.484
891.178	964.5
894.071	584.484
896.963	25.641
899.856	230.328
902.749	619.266
905.641	138.625
908.534	278.359
911.427	81.766
914.32	6.156
917.212	99.859
920.105	125.085
922.998	141.656
925.89	116.297
928.783	150.844
931.676	365.797
934.568	192.562
937.461	28.625
940.354	226.406
943.247	31.953
946.139	59.516
949.032	594
951.925	209.453
954.817	49.641
957.71	128.234
960.603	40.656
963.495	294.474
966.388	260.406
969.281	1105.47
972.174	1341.81
975.066	2076.27
977.959	2755.97
980.852	3557.38
983.744	3541.42
986.637	3812.09
989.53	4121.67
992.422	4613.2
995.315	5296.16
998.208	5725
1001.1	6471.7
1003.99	6688.5
1006.89	7069.33
1009.78	7796
1012.67	8812.22
1015.56	9785.14
1018.46	12029.7
1021.35	14427.9
1024.24	17395.1
1027.13	21079
1030.03	24965
1032.92	28007.6
1035.81	30902.7
1038.71	30976.2
1041.6	28270.2
1044.49	24292.7
1047.38	20448.4
1050.28	17068.8
1053.17	14562.7
1056.06	12454.3
1058.95	10679.2
1061.85	9003.58
1064.74	7179.11
1067.63	5163.58
1070.53	3518.11
1073.42	2050.34
1076.31	1143.25
1079.2	723.891
1082.1	472.078
1084.99	733.969
1087.88	377.906
1090.77	1521.03
1093.67	1767.52
1096.56	2086.52
1099.45	2658.08
1102.35	2963.42
1105.24	2650.27
1108.13	1838.72
1111.02	894.922
1113.92	760.734
1116.81	368.438
1119.7	45.422
1122.59	186.812
1125.49	274.406
1128.38	192.781
1131.27	544.531
1134.16	23.25
1137.06	114.672
1139.95	768.594
1142.84	574.297
1145.74	859.141
1148.63	1461.83
1151.52	2126.39
1154.41	3172.17
1157.31	3410.02
1160.2	3022.95
1163.09	2696.14
1165.98	2448.91
1168.88	1946.19
1171.77	2086.69
1174.66	1824.27
1177.56	1601.38
1180.45	1797.83
1183.34	1384.03
1186.23	1427.61
1189.13	1069.72
1192.02	462.672
1194.91	245.5
1197.8	119.188
1200.7	169.281
1203.59	235.25
1206.48	401.875
1209.38	150.109
1212.27	472.281
1215.16	714.609
1218.05	283
1220.95	200.078
1223.84	757.234
1226.73	614.953
1229.62	609.938
1232.52	509.312
1235.41	1034.92
1238.3	579.812
1241.19	883.25
1244.09	469.719
1246.98	400.125
1249.87	404.016
1252.77	8.312
