Measurement: Raman, 532 nm, unoriented, Raman Data Processed
Mineral: Turquoise
Rruff sample: R050554
Ideal chemistry: CuAl_6_(PO_4_)_4_(OH)_8_4H_2_O
Locality: Bishop mine, Lynch Station, Campbell County, Virginia, USA
Source: Dave Bunk Minerals
Description: Group of blue bladed crystals
Measured chemistry: (Cu_0.97_Zn_0.02_Ca_0.01_)_Σ=1_Al_6.00_(P_1.00_O_4_)_4_(OH)_8_·4H_2_O
Raman shift (cm-1)	intensity
117.442	0
120.817	3.96216
124.192	52.3632
127.567	169.677
130.942	187.296
134.317	244.65
137.691	472.244
141.066	758.915
144.441	520.284
147.816	330.52
151.191	355.137
154.565	456.849
157.94	377.577
161.315	230.288
164.69	173.873
168.065	158.33
171.44	246.655
174.814	475.611
178.189	597.637
181.564	197.363
184.939	72.702
188.314	72.9916
191.688	122.338
195.063	220.361
198.438	356.133
201.813	462.156
205.188	374.825
208.562	289.2
211.937	323.082
215.312	413.847
218.687	561.49
222.062	580.473
225.437	712.412
228.811	1138.84
232.186	1573.06
235.561	1128.08
238.936	545.952
242.311	373.593
245.685	335.157
249.06	274.925
252.435	220.184
255.81	213.301
259.185	265.086
262.56	261.042
265.934	132.819
269.309	28.3344
272.684	3.24499
276.059	15.0571
279.434	33.0266
282.808	33.1495
286.183	7.51172
289.558	30.8177
292.933	55.2188
296.308	74.8937
299.683	120.885
303.057	151.494
306.432	124.608
309.807	115.463
313.182	146.786
316.557	200.424
319.932	254.042
323.306	270.813
326.681	283.806
330.056	321.388
333.431	378.511
336.805	373.559
340.18	289.587
343.555	194.652
346.93	119.287
350.305	49.9955
353.68	31.4419
357.054	48.8121
360.429	76.8101
363.804	88.6203
367.179	66.6542
370.554	26.2927
373.928	6.74597
377.303	18.2545
380.678	55.3215
384.053	77.4133
387.428	54.198
390.803	22.9679
394.177	4.74988
397.552	16.8212
400.927	10.7355
404.302	11.1073
407.677	51.8826
411.051	118.872
414.426	219.571
417.801	268.846
421.176	231.615
424.551	259.554
427.926	226.249
431.3	175.421
434.675	199.88
438.05	223.201
441.425	238.839
444.8	271.471
448.174	313.643
451.549	329.76
454.924	324.305
458.299	362.453
461.674	470.233
465.048	602.32
468.423	683.346
471.798	641.821
475.173	506.136
478.548	410.848
481.923	378.315
485.297	369.278
488.672	326.48
492.047	294.265
495.422	255.759
498.797	214.558
502.171	168.747
505.546	127.181
508.921	88.8267
512.296	61.4016
515.671	31.8734
519.046	3.57263
522.42	22.0703
525.795	24.6318
529.17	13.8463
532.545	14.4305
535.92	65.1046
539.294	129.089
542.669	204.876
546.044	256.888
549.419	269.301
552.794	230.04
556.169	164.149
559.543	126.723
562.918	114.393
566.293	143.045
569.668	169.606
573.043	179.005
576.418	177.355
579.792	195.201
583.167	277.052
586.542	397.445
589.917	503.546
593.292	511.382
596.666	385.074
600.041	216.88
603.416	114.374
606.791	62.477
610.166	45.8276
613.54	46.9055
616.915	56.5363
620.29	79.6413
623.665	122.391
627.04	166.934
630.414	208.49
633.789	237.085
637.164	260.028
640.539	286.069
643.914	289.004
647.289	250.202
650.663	181.972
654.038	127.049
657.413	101.331
660.788	68.1488
664.163	43.2249
667.538	25.4583
670.912	12.1688
674.287	1.56073
677.662	6.09961
681.037	12.2295
684.412	10.71
687.786	2.8446
691.161	6.95728
694.536	16.7731
697.911	23.941
701.286	27.6114
704.66	18.6839
708.035	14.4294
711.41	9.96747
714.785	11.6385
718.16	11.4612
721.534	12.4046
724.909	20.6289
728.284	31.8616
731.659	29.3072
735.034	35.5574
738.409	31.5935
741.783	27.6749
745.158	25.4916
748.533	18.4223
751.908	11.1258
755.283	5.83447
758.658	2.92194
762.032	5.37311
765.407	2.28155
768.782	3.47162
772.157	1.77466
775.532	4.69556
778.906	11.6904
782.281	16.2742
785.656	28.3007
789.031	36.9955
792.406	57.2152
795.78	76.121
799.155	90.813
802.53	116.71
805.905	144.872
809.28	165.178
812.654	168.86
816.029	154.062
819.404	122.942
822.779	98.3842
826.154	79.6067
829.529	56.696
832.903	49.4996
836.278	35.3071
839.653	27.1064
843.028	25.3611
846.403	12.8711
849.778	7.51569
853.152	11.4491
856.527	6.4892
859.902	4.31372
863.277	1.05945
866.652	2.39105
870.026	0.510132
873.401	0.439819
876.776	2.72974
880.151	2.43097
883.526	5.05261
886.9	3.86548
890.275	9.64471
893.65	9.27075
897.025	6.1651
900.4	9.83343
903.775	9.12836
907.149	9.35864
910.524	12.6733
913.899	13.8069
917.274	20.3885
920.649	22.5792
924.024	29.83
927.398	36.8909
930.773	46.939
934.148	58.732
937.523	65.3919
940.898	61.6348
944.272	44.6489
947.647	30.1057
951.022	17.0702
954.397	0.805664
957.772	6.39893
961.146	9.75891
964.521	15.397
967.896	7.08392
971.271	3.3465
974.646	28.2184
978.021	62.4852
981.395	91.6425
984.77	109.951
988.145	107.487
991.52	106.207
994.895	114.213
998.269	135.841
1001.64	155.882
1005.02	158.299
1008.39	162.536
1011.77	185.859
1015.14	229.667
1018.52	306.912
1021.89	429.793
1025.27	620.914
1028.64	933.733
1032.02	1361.13
1035.39	1906.13
1038.77	2461.21
1042.14	2629.94
1045.52	2183.41
1048.89	1501.03
1052.27	991.188
1055.64	720.076
1059.02	609.855
1062.39	564.311
1065.77	499.858
1069.14	392.267
1072.52	257.249
1075.89	155.455
1079.27	90.7942
1082.64	56.1122
1086.02	35.4491
1089.39	31.9553
1092.76	50.9764
1096.14	55.266
1099.51	72.0458
1102.89	85.9789
1106.26	89.7204
1109.64	66.3102
1113.01	31.8956
1116.39	6.81567
1119.76	5.95367
1123.14	7.52301
1126.51	7.96423
1129.89	5.01581
1133.26	5.10773
1136.64	1.81403
1140.01	8.66522
1143.39	16.0565
1146.76	32.1972
1150.14	62.7621
1153.51	94.205
1156.89	131.601
1160.26	160.42
1163.63	148.64
1167.01	109.445
1170.38	83.206
1173.76	66.6403
1177.13	67.6063
1180.51	74.2019
1183.88	75.501
1187.26	59.5463
1190.63	40.4116
1194.01	24.2952
1197.38	17.1229
1200.76	10.7151
1204.13	7.33545
1207.51	3.09882
1210.88	5.45856
1214.26	5.57575
1217.63	3.67963
1221.01	3.74158
1224.38	2.34857
1227.76	1.927
1231.13	3.11615
1234.51	0.398438
1237.88	0.940796
1241.26	3.95435
1244.63	5.31073
1248.01	8.41144
1251.38	5.58765
1254.76	1.94733
1258.13	5.96295
1261.51	11.5973
1264.88	7.73682
1268.26	6.05859
1271.63	5.24579
1275	2.12665
1278.38	5.07983
1281.75	4.62567
1285.13	3.03851
1288.5	6.67303
1291.88	2.39703
1295.25	0.414795
1298.63	7.85187
1302	0.511963
