Measurement: Raman, 780 nm, unoriented, Raman Data Processed
Mineral: Turquoise
Rruff sample: R050225
Ideal chemistry: CuAl_6_(PO_4_)_4_(OH)_8_4H_2_O
Locality: Badger Prospect, Lander County, Nevada, USA
Source: Marcus Origlieri
Description: Light blue massive
Measured chemistry: Cu_1.00_(Al_5.83_Fe^3+^_0.17_)_Σ=6_(P_1.00_O_4_)_4_(OH)_8_·4H_2_O
Raman shift (cm-1)	intensity
141.047	0
143.94	0.252953
146.833	0.868668
149.725	1.26268
152.618	1.68517
155.511	0.715302
158.404	0.163425
161.296	0.209728
164.189	0.995312
167.082	2.548
169.974	4.80046
172.867	6.21765
175.76	5.91301
178.652	5.60239
181.545	5.50748
184.438	7.30373
187.331	9.90616
190.223	11.935
193.116	13.8945
196.009	15.8183
198.901	18.1854
201.794	18.6314
204.687	19.4604
207.579	20.9374
210.472	20.2974
213.365	21.3408
216.257	21.5945
219.15	21.4395
222.043	22.5054
224.936	22.6405
227.828	22.3176
230.721	19.9125
233.614	17.2121
236.506	13.8967
239.399	11.6655
242.292	9.64762
245.185	7.48426
248.077	5.05061
250.97	3.38336
253.863	2.32208
256.755	1.30881
259.648	0.345402
262.541	0.427643
265.433	0.106125
268.326	0.507187
271.219	0.061367
274.111	0.03965
277.004	0.263523
279.897	0.677929
282.79	1.12796
285.682	2.28122
288.575	2.68928
291.468	4.56878
294.36	4.85189
297.253	5.63745
300.146	7.2065
303.038	8.56322
305.931	10.0247
308.824	11.6334
311.717	13.5872
314.609	15.0075
317.502	15.886
320.395	17.1605
323.287	17.545
326.18	16.9079
329.073	15.6217
331.966	13.7005
334.858	11.3569
337.751	9.01197
340.644	6.81677
343.536	4.41937
346.429	2.94922
349.322	1.88648
352.214	0.955826
355.107	0.094433
358	0.352577
360.892	0.225712
363.785	0.31171
366.678	0.107353
369.571	0.029747
372.463	0.282505
375.356	0.838966
378.249	0.496948
381.141	0.537369
384.034	0.261246
386.927	0.138489
389.82	0.434681
392.712	1.872
395.605	3.26294
398.498	5.99149
401.39	8.09066
404.283	11.0373
407.176	13.6069
410.068	17.0506
412.961	19.2976
415.854	19.2299
418.747	18.2536
421.639	15.4276
424.532	12.8847
427.425	9.78201
430.317	7.67066
433.21	7.04881
436.103	6.4661
438.995	5.9488
441.888	5.53411
444.781	5.88232
447.673	5.53207
450.566	5.7547
453.459	6.17786
456.352	7.08303
459.244	7.38265
462.137	8.23613
465.03	8.13777
467.922	7.95317
470.815	8.31468
473.708	8.06339
476.601	7.42469
479.493	7.01498
482.386	6.49023
485.279	5.85037
488.171	5.31301
491.064	4.57181
493.957	3.97197
496.849	2.8761
499.742	1.91732
502.635	1.67013
505.527	1.02587
508.42	0.099155
511.313	0.124363
514.206	0.447006
517.098	0.497871
519.991	0.549931
522.884	0.033794
525.776	0.418587
528.669	1.38234
531.562	2.55798
534.455	3.55414
537.347	3.42864
540.24	4.16615
543.133	4.33049
546.025	4.11959
548.918	3.43475
551.811	3.49682
554.703	2.97004
557.596	3.8096
560.489	3.94492
563.381	5.16243
566.274	5.86198
569.167	6.34296
572.06	6.40609
574.952	6.33793
577.845	6.21892
580.738	6.21464
583.63	6.26156
586.523	6.16583
589.416	5.86691
592.308	5.32386
595.201	4.14817
598.094	3.56968
600.986	2.92403
603.879	2.59702
606.772	2.62536
609.665	3.10562
612.557	4.0967
615.45	4.49428
618.343	6.12411
621.235	6.73665
624.128	7.21714
627.021	7.98705
629.913	8.12683
632.806	7.95749
635.699	7.6158
638.592	7.4437
641.484	6.80134
644.377	5.30021
647.27	4.43417
650.162	3.76954
653.055	3.38214
655.948	2.74126
658.841	2.42449
661.733	1.9084
664.626	1.72201
667.519	1.39228
670.411	1.27492
673.304	0.887531
676.197	0.725824
679.089	0.497999
681.982	0.061188
684.875	0.168917
687.768	0.134333
690.66	0.262796
693.553	0.330204
696.446	0.122478
699.338	0.392372
702.231	0.244375
705.124	0.134617
708.016	0.180269
710.909	0.056637
713.802	0.234961
716.694	0.265545
719.587	0.468359
722.48	0.290237
725.373	0.435867
728.265	0.594526
731.158	0.687622
734.051	0.736137
736.943	0.652161
739.836	0.703978
742.729	0.76622
745.621	0.680559
748.514	0.56671
751.407	0.340981
754.3	0.949352
757.192	0.228729
760.085	0.226034
762.978	0.081366
765.87	0.01145
768.763	0.434029
771.656	0.363705
774.548	0.783846
777.441	0.996672
780.334	1.35874
783.227	1.45027
786.119	1.78788
789.012	2.07878
791.905	2.71769
794.797	2.98037
797.69	3.97432
800.583	4.54465
803.476	5.05833
806.368	5.48428
809.261	5.76124
812.154	5.5774
815.046	5.12724
817.939	4.80443
820.832	3.98115
823.724	4.08791
826.617	3.29595
829.51	3.09158
832.403	3.09988
835.295	2.52906
838.188	2.42224
841.081	2.53784
843.973	1.99117
846.866	1.82216
849.759	1.51953
852.651	1.84601
855.544	1.44682
858.437	1.59145
861.33	1.38832
864.222	1.12567
867.115	1.24197
870.008	1.3494
872.9	1.18143
875.793	1.20322
878.686	1.30639
881.578	0.948277
884.471	0.861074
887.364	0.882101
890.256	0.632307
893.149	0.731956
896.042	0.479095
898.935	0.599726
901.827	0.237871
904.72	0.162853
907.613	0.463526
910.505	0.097954
913.398	0.248901
916.291	0.046186
919.183	0.192764
922.076	0.122978
924.969	0.014997
927.862	0.362588
930.754	0.14439
933.647	0.34676
936.54	0.284367
939.432	0.116999
942.325	0.310537
945.218	0.121811
948.111	0.26988
951.003	0.202652
953.896	0.202583
956.789	0.12347
959.681	0.12974
962.574	0.840193
965.467	0.778828
968.359	1.33553
971.252	1.7575
974.145	2.42978
977.038	3.03715
979.93	3.96477
982.823	3.82229
985.716	4.11964
988.608	5.01864
991.501	4.32787
994.394	4.76549
997.286	5.09582
1000.18	5.54054
1003.07	6.48419
1005.96	7.59598
1008.86	9.21964
1011.75	11.0608
1014.64	12.9406
1017.53	16.0817
1020.43	18.8145
1023.32	22.2792
1026.21	26.5351
1029.11	29.9008
1032	33.104
1034.89	35.2313
1037.78	34.8398
1040.68	32.6584
1043.57	28.2402
1046.46	24.4723
1049.36	21.1534
1052.25	17.8768
1055.14	15.4256
1058.03	13.115
1060.93	10.6778
1063.82	8.52501
1066.71	6.20159
1069.6	5.04721
1072.5	3.39486
1075.39	2.37035
1078.28	1.77503
1081.17	1.3588
1084.07	1.33824
1086.96	1.47714
1089.85	1.76221
1092.74	2.00691
1095.64	2.02318
1098.53	1.98081
1101.42	2.07424
1104.32	1.67457
1107.21	1.35092
1110.1	0.579841
1112.99	0.122847
1115.89	0.138144
1118.78	0.227099
1121.67	0.260542
1124.57	0.088475
1127.46	0.173642
1130.35	0.069194
1133.24	0.071399
1136.14	0.276873
1139.03	0.843738
1141.92	0.774268
1144.81	1.30757
1147.71	2.12213
1150.6	2.43558
1153.49	2.80291
1156.38	3.07637
1159.28	3.04007
1162.17	2.80471
1165.06	2.62333
1167.96	2.66581
1170.85	2.4731
1173.74	2.35943
1176.63	1.96601
1179.53	1.89907
1182.42	1.23296
1185.31	1.38841
1188.2	0.545051
1191.1	0.864331
1193.99	0.433146
1196.88	0.647964
1199.78	0.300404
1202.67	0.429203
1205.56	0.150522
1208.45	0.089353
1211.35	0.207344
1214.24	0.356931
1217.13	0.090023
1220.02	0.339709
1222.92	0.442069
1225.81	0.120694
1228.7	0.189584
1231.6	0.319925
1234.49	0.439787
1237.38	0.829122
1240.27	0.542145
1243.17	0.741865
1246.06	0.311399
1248.95	0.320661
1251.84	0.478912
1254.74	0.226537
1257.63	0.494621
1260.52	0.340432
1263.41	0.305132
1266.31	0.060128
1269.2	0.063821
1272.09	0.139943
