Measurement: Raman, 514 nm, unoriented, Raman Data Processed
Mineral: Turquoise
Rruff sample: R050225
Ideal chemistry: CuAl_6_(PO_4_)_4_(OH)_8_4H_2_O
Locality: Badger Prospect, Lander County, Nevada, USA
Source: Marcus Origlieri
Description: Light blue massive
Measured chemistry: Cu_1.00_(Al_5.83_Fe^3+^_0.17_)_Σ=6_(P_1.00_O_4_)_4_(OH)_8_·4H_2_O
Raman shift (cm-1)	intensity
128.146	0
132.309	210.236
136.47	1346.46
140.63	1005.4
144.787	686.895
148.942	1000.58
153.096	1009.68
157.247	602.381
161.396	31.467
165.544	85.762
169.689	593.516
173.833	1500.39
177.974	743.967
182.114	144.039
186.251	2.549
190.387	864.908
194.52	2174.1
198.652	3063.24
202.782	3962.61
206.909	5252.75
211.035	4840.48
215.159	4049.31
219.281	4123.05
223.4	4814.46
227.518	5876.34
231.634	6417.23
235.748	5175.27
239.86	4690.44
243.97	3526.61
248.079	2352.78
252.185	1455.76
256.289	1098.33
260.391	527.52
264.492	329.439
268.59	176.17
272.687	61.797
276.781	17.615
280.874	105.531
284.964	603.893
289.053	248.359
293.14	243.162
297.225	848.902
301.308	1328.1
305.389	1260.69
309.468	1591.46
313.545	1648.54
317.62	2053.89
321.693	2553.5
325.765	2652.74
329.834	3220.89
333.902	3363.17
337.967	3261.32
342.031	2651.46
346.093	1284.71
350.153	808.418
354.21	473.125
358.267	242.143
362.321	538.5
366.373	532.672
370.423	401.256
374.471	541.031
378.518	1319.23
382.563	1637.24
386.605	1573.36
390.646	1187.71
394.685	1093.01
398.722	926.479
402.757	1384.2
406.79	2262.19
410.821	4875.28
414.851	6833.3
418.878	7689.78
422.904	6956.09
426.927	5800.25
430.949	4655.22
434.969	4316.4
438.987	3902.22
443.003	3809.91
447.018	3571.68
451.03	2989.4
455.041	2647.5
459.049	3371.07
463.056	4128.03
467.061	4594.36
471.064	4381.05
475.065	4006.09
479.064	4355.49
483.062	4327.23
487.057	4077.3
491.051	3574.77
495.043	3290.61
499.032	2994.74
503.02	2997.17
507.007	2683.88
510.991	2309.87
514.973	2120.13
518.954	2013.64
522.933	1931.38
526.91	1729.35
530.885	2469.53
534.858	3055.89
538.829	3851.41
542.799	4950.02
546.766	5601.31
550.732	5206.42
554.696	4491.85
558.658	4366.82
562.618	4363.27
566.576	4814.08
570.533	4780.93
574.488	4500.94
578.44	4083.88
582.391	4404.44
586.341	5226.88
590.288	5966.37
594.233	5428.74
598.177	4546.57
602.119	3733.14
606.059	3175.9
609.997	3153.05
613.933	2770.88
617.868	2967.69
621.801	2831.6
625.731	3626.93
629.66	3869.78
633.588	3998.13
637.513	4713.98
641.437	5124.3
645.358	4540.09
649.278	3740.34
653.196	3544.03
657.113	2516.15
661.027	2261.68
664.94	1999.63
668.851	1401.97
672.76	1269.69
676.667	950.791
680.572	758.258
684.476	660.084
688.378	187.262
692.278	287.76
696.176	82.434
700.072	85.773
703.967	263.74
707.86	34.418
711.751	249.512
715.64	75.521
719.527	60.461
723.413	141.236
727.297	92.125
731.179	16.67
735.059	180.264
738.937	48.922
742.814	155.834
746.689	97.236
750.562	69.125
754.433	21.15
758.303	108.764
762.17	57.477
766.036	5.328
769.901	224.203
773.763	442.221
777.624	439.586
781.482	544.322
785.339	641.445
789.195	1003.97
793.048	1290.92
796.9	1385.3
800.75	1629.13
804.598	2463.43
808.445	2796.22
812.289	3382.51
816.132	3439.31
819.973	3363.66
823.813	3115.57
827.65	2199.05
831.486	1996.13
835.32	1512.85
839.152	1307.2
842.983	1019.61
846.812	823.799
850.639	809.859
854.464	625.961
858.288	308.41
862.11	334.605
865.93	161.592
869.748	311.756
873.564	110.936
877.379	116.043
881.192	195.281
885.004	238.141
888.813	506.926
892.621	433.734
896.427	2.277
900.232	173.09
904.034	252.842
907.835	511.627
911.634	172.539
915.432	410.01
919.227	559.955
923.021	415.812
926.813	483.307
930.604	572.758
934.393	679.973
938.18	931.82
941.965	770.301
945.749	754.418
949.53	788.197
953.311	906.633
957.089	1110.82
960.866	1342.72
964.641	1488.25
968.414	1630.5
972.185	1840.69
975.955	2900.7
979.723	3824.65
983.49	4576.64
987.254	4698.47
991.017	4656.12
994.779	5310.63
998.538	5429.04
1002.3	5357.38
1006.05	5945.84
1009.81	6541.78
1013.56	7711.01
1017.31	9033.75
1021.06	10436.9
1024.81	12497.9
1028.55	14598.2
1032.3	17542.1
1036.04	20790.5
1039.78	22736.1
1043.52	21443.9
1047.26	17792.9
1050.99	14494.2
1054.73	12238.6
1058.46	10843.4
1062.19	9643.02
1065.92	8079.69
1069.65	6445.44
1073.37	5056.68
1077.1	3796.84
1080.82	3275.17
1084.54	3032.66
1088.26	2714.32
1091.97	2748.52
1095.69	2862.5
1099.4	3258.38
1103.12	3592.3
1106.83	3308.1
1110.54	2997.83
1114.24	2280.17
1117.95	1531.15
1121.65	1691.59
1125.35	1563.75
1129.06	836.703
1132.75	1133.81
1136.45	1246.03
1140.15	1173.01
1143.84	1078.91
1147.53	1487.4
1151.22	1578.42
1154.91	2132.28
1158.6	2448
1162.28	2475.49
1165.97	2466.15
1169.65	1934.68
1173.33	1824.5
1177.01	1512.61
1180.69	1384.52
1184.36	1589.17
1188.04	1206.53
1191.71	929.031
1195.38	625.934
1199.05	200.127
1202.71	481.242
1206.38	216.629
1210.04	47.803
1213.71	36.582
1217.37	8.08
1221.03	94.643
1224.68	118.664
1228.34	215.971
1231.99	69.578
1235.65	26.375
1239.3	151.006
1242.95	38.627
1246.59	183.311
1250.24	186.496
1253.88	107.266
1257.53	233.316
1261.17	73.957
1264.81	73.615
1268.45	72.309
1272.08	15.121
1275.72	42.684
1279.35	157.379
1282.98	34.332
1286.61	44.375
1290.24	130.793
1293.87	183.301
1297.49	172.998
1301.11	56.537
1304.73	86.973
1308.36	231.965
1311.97	135.842
1315.59	294.438
1319.2	13.168
1322.82	130.975
1326.43	403.414
1330.04	194.316
1333.65	108.854
1337.26	107.074
1340.86	321.363
1344.47	373.285
1348.07	594.59
1351.67	592.91
1355.27	554.619
1358.87	597.576
1362.46	490.572
1366.06	680.295
1369.65	519.115
1373.24	562.283
1376.83	493.039
1380.42	577.541
1384	546.711
1387.59	291.961
1391.17	728.273
1394.75	557.215
1398.33	456.324
1401.91	518.625
1405.49	387.354
1409.06	193.951
1412.64	511.633
1416.21	298.762
1419.78	288.311
1423.35	199.719
1426.91	398.199
1430.48	184.16
1434.05	333.754
1437.61	433.078
1441.17	384.281
1444.73	303.258
1448.29	244.773
1451.84	437.535
1455.4	502.598
1458.95	334.418
1462.5	213.43
1466.05	129.883
1469.6	194.137
1473.15	1.117
