Measurement: Raman, 780 nm, unoriented, Raman Data Processed
Mineral: Tuscanite
Rruff sample: R060605
Ideal chemistry: KCa_6_(Si,Al)_10_O_22_(SO_4_,CO_3_)_2_(OH)H_2_O
Locality: Latera Caldera, Pitigliano Tuscany, Italy
Source: Michael Scott
Description: Light tan colored prismatic crystals
Measured chemistry: (K_0.97_Sr_0.03_)_Σ=1_(Ca_5.58_Na_0.31_Mg_0.07_Fe^3+^_0.04_)_Σ=6_(Si_6.57_Al_3.43_)_Σ=10_O_22_((SO_4_)_1.41_(PO_4_)_0.33_(CO_3_)_0.26_)_Σ=2_(OH)·H_2_O; OH by charge balance; CO_3_ by difference
Raman shift (cm-1)	intensity
90.2353	0
93.6102	22.8788
96.985	14.1479
100.36	6.57611
103.735	2.1499
107.109	5.39316
110.484	2.43021
113.859	3.71106
117.234	10.6199
120.609	22.4845
123.984	24.8925
127.358	28.5569
130.733	17.8372
134.108	11.5088
137.483	7.49057
140.858	0.977539
144.232	5.09491
147.607	3.63489
150.982	2.09106
154.357	9.42584
157.732	14.6587
161.107	19.1266
164.481	19.8301
167.856	25.5087
171.231	26.4285
174.606	29.8532
177.981	34.2866
181.355	39.8233
184.73	44.1393
188.105	49.0268
191.48	57.1066
194.855	65.1026
198.229	72.7731
201.604	80.5117
204.979	89.15
208.354	92.6896
211.729	100.105
215.103	97.4105
218.478	101.76
221.853	99.6329
225.228	79.2998
228.603	75.6778
231.978	61.7132
235.352	58.3015
238.727	44.7141
242.102	38.7997
245.477	37.1025
248.852	38.0508
252.226	39.2182
255.601	43.6538
258.976	45.874
262.351	50.6435
265.726	52.8484
269.101	63.1308
272.475	63.1197
275.85	65.3704
279.225	59.4897
282.6	49.1191
285.975	37.8732
289.349	26.0637
292.724	18.1105
296.099	9.41065
299.474	3.73621
302.849	5.33496
306.224	6.08936
309.598	2.22839
312.973	1.5647
316.348	10.4322
319.723	29.8445
323.098	50.5095
326.472	74.7283
329.847	108.111
333.222	138.747
336.597	170.045
339.972	188.542
343.346	210.335
346.721	225.417
350.096	226.113
353.471	223.863
356.846	214.765
360.221	186.598
363.595	146.045
366.97	111.343
370.345	74.1901
373.72	44.4545
377.095	25.2661
380.469	13.4308
383.844	2.74268
387.219	6.53857
390.594	7.85107
393.969	3.85571
397.344	1.97632
400.718	17.3677
404.093	34.1626
407.468	54.666
410.843	82.4266
414.217	111.51
417.592	149.051
420.967	186.033
424.342	207.984
427.717	232.506
431.092	256.636
434.466	276.256
437.841	289.552
441.216	299.997
444.591	310.235
447.966	308.929
451.341	300.929
454.715	285.106
458.09	256.153
461.465	225.35
464.84	182.487
468.215	143.099
471.589	105.16
474.964	69.5044
478.339	52.9045
481.714	36.0947
485.089	26.3256
488.463	22.6234
491.838	33.4089
495.213	50.0961
498.588	62.5179
501.963	65.3782
505.337	67.1837
508.712	62.1764
512.087	62.3466
515.462	63.209
518.837	58.7758
522.212	54.9127
525.586	49.7323
528.961	42.963
532.336	31.1387
535.711	24.9169
539.086	25.0939
542.46	16.2985
545.835	11.7465
549.21	18.5186
552.585	9.33325
555.96	3.48364
559.335	2.53613
562.709	0.755249
566.084	1.73828
569.459	4.92969
572.834	0.629272
576.209	2.67725
579.583	2.70044
582.958	1.81061
586.333	0.885925
589.708	0.011047
593.083	2.71979
596.457	1.22321
599.832	2.21783
603.207	7.44067
606.582	11.7231
609.957	15.043
613.332	20.493
616.706	33.4766
620.081	33.9179
623.456	42.6713
626.831	52.2903
630.206	54.7435
633.58	61.6151
636.955	64.1213
640.33	65.522
643.705	66.2156
647.08	64.2434
650.455	63.7255
653.829	53.9961
657.204	49.6882
660.579	46.0879
663.954	38.1939
667.329	34.882
670.703	33.3719
674.078	27.7692
677.453	22.6182
680.828	19.0883
684.203	17.9223
687.577	17.1807
690.952	13.2962
694.327	11.9075
697.702	7.21753
701.077	5.03882
704.452	3.08478
707.826	1.83392
711.201	2.78412
714.576	1.45587
717.951	2.28461
721.326	1.98199
724.7	1.15393
728.075	4.79782
731.45	5.66724
734.825	4.38605
738.2	8.02203
741.574	13.6795
744.949	16.9409
748.324	19.0109
751.699	22.9222
755.074	24.3612
758.449	25.9362
761.823	28.8707
765.198	30.9634
768.573	36.6644
771.948	26.0292
775.323	22.1093
778.697	17.3213
782.072	15.3565
785.447	12.4952
788.822	9.70679
792.197	6.53693
795.572	4.49353
798.946	0.159882
802.321	0.883606
805.696	0.763641
809.071	0.326416
812.446	0.286224
815.82	2.66119
819.195	7.17816
822.57	9.19452
825.945	12.9558
829.32	15.2418
832.694	16.4566
836.069	18.498
839.444	18.6869
842.819	18.4524
846.194	16.8538
849.569	14.8495
852.943	14.3058
856.318	11.6829
859.693	11.0442
863.068	8.86948
866.443	8.09473
869.817	2.91003
873.192	1.66385
876.567	1.2746
879.942	2.07574
883.317	1.74554
886.692	1.44257
890.066	0.050842
893.441	2.18683
896.816	3.51715
900.191	9.47745
903.566	12.2617
906.94	15.0908
910.315	18.5312
913.69	20.0857
917.065	23.9185
920.44	20.0621
923.814	18.4516
927.189	19.5082
930.564	22.9654
933.939	26.0628
937.314	26.8423
940.689	15.7111
944.063	10.6079
947.438	1.81439
950.813	4.62039
954.188	4.96847
957.563	5.24414
960.937	5.06058
964.312	2.39712
967.687	3.08264
971.062	6.36151
974.437	12.6723
977.812	25.6782
981.186	49.1324
984.561	78.4896
987.936	113.662
991.311	136.671
994.686	114.48
998.06	76.6039
1001.43	65.4206
1004.81	62.3749
1008.18	61.0176
1011.56	63.9275
1014.93	67.529
1018.31	75.3637
1021.68	79.2221
1025.06	85.4979
1028.43	93.3497
1031.81	97.8934
1035.18	105.366
1038.56	108.603
1041.93	113.782
1045.31	118.348
1048.68	121.915
1052.06	127.298
1055.43	134.744
1058.81	137.173
1062.18	145.605
1065.56	146.938
1068.93	159.881
1072.31	172.311
1075.68	186.442
1079.06	197.479
1082.43	202.227
1085.81	192.381
1089.18	183.673
1092.56	175.174
1095.93	145.774
1099.31	134.913
1102.68	110.68
1106.05	88.2324
1109.43	74.9134
1112.8	46.4235
1116.18	28.8126
1119.55	8.76038
1122.93	15.2285
1126.3	22.7242
1129.68	38.3733
1133.05	36.9944
1136.43	34.7251
1139.8	5.84375
1143.18	19.8042
1146.55	68.2642
1149.93	137.538
1153.3	207.912
1156.68	317.224
1160.05	424.621
1163.43	573.67
1166.8	721.687
1170.18	881.055
1173.55	1047.4
1176.93	1197.49
1180.3	1316.31
1183.67	1436.87
1187.05	1521.52
1190.42	1581.21
1193.8	1627.27
1197.17	1663.68
1200.55	1697.54
1203.92	1704.47
1207.3	1698.73
1210.67	1736.38
1214.05	1771.8
1217.42	1781.48
1220.8	1819.37
1224.17	1849.67
1227.55	1867.44
1230.92	1843.13
1234.3	1816.23
1237.67	1768.02
1241.05	1661.21
1244.42	1538.58
1247.8	1391.43
1251.17	1217.88
1254.55	1023.15
1257.92	787.299
1261.3	578.158
1264.67	384.961
1268.05	225.919
1271.42	101.172
1274.8	15.3935
1278.17	4.91894
1281.55	48.3603
