Measurement: Raman, 780 nm, unoriented, Raman Data Processed
Mineral: Tuscanite
Rruff sample: R050324
Ideal chemistry: KCa_6_(Si,Al)_10_O_22_(SO_4_,CO_3_)_2_(OH)H_2_O
Locality: Valle Biachella, Sacrofano, Roma, Lazio, Italy
Source: Marcus Origlieri
Description: Colorless platy crystals
Measured chemistry: K_1.00_(Ca_5.55_Na_0.45_)_Σ=6_(Si_6.62_Al_3.38_)_10_O_22_((SO_4_)_1.80_(PO_4_)_0.17_(CO_3_)_0.03_)_Σ=2_(OH)·H_2_O
Raman shift (cm-1)	intensity
155.681	0
158.573	2.06924
161.466	2.95679
164.359	2.19998
167.251	0.409332
170.144	1.69864
173.037	0.209015
175.93	3.53378
178.822	4.55173
181.715	9.29791
184.608	6.82965
187.5	12.6723
190.393	13.6405
193.286	16.9546
196.179	21.6159
199.071	29.0581
201.964	34.4412
204.857	44.672
207.749	47.4688
210.642	51.019
213.535	48.8661
216.427	50.5625
219.32	55.2089
222.213	51.2983
225.106	45.5474
227.998	36.0704
230.891	33.2968
233.784	28.027
236.676	23.5189
239.569	29.0105
242.462	24.2194
245.354	22.6299
248.247	27.8292
251.14	25.0976
254.032	24.9813
256.925	30.9078
259.818	32.5949
262.711	34.7975
265.603	41.1348
268.496	42.4843
271.389	45.968
274.281	40.1388
277.174	34.5607
280.067	24.8784
282.959	20.2935
285.852	9.54926
288.745	3.72479
291.638	2.43231
294.53	7.60126
297.423	9.19647
300.316	9.80987
303.208	7.10956
306.101	1.33618
308.994	3.72101
311.887	6.09296
314.779	16.7347
317.672	23.7536
320.565	31.2341
323.457	47.1713
326.35	62.2884
329.243	83.0135
332.135	103.947
335.028	123.105
337.921	144.268
340.813	156.87
343.706	179.441
346.599	196.432
349.492	202.774
352.384	192.549
355.277	170.208
358.17	147.025
361.062	126.435
363.955	108.161
366.848	94.8084
369.74	85.8902
372.633	82.7158
375.526	79.1725
378.419	82.7144
381.311	90.0957
384.204	92.115
387.097	102.07
389.989	108.555
392.882	118.886
395.775	129.683
398.668	148.899
401.56	162.732
404.453	184.538
407.346	207.318
410.238	214.789
413.131	227.313
416.024	222.377
418.916	210.058
421.809	197.813
424.702	173.821
427.594	151.04
430.487	141.062
433.38	130.603
436.273	127.204
439.165	122.995
442.058	112.256
444.951	121.695
447.843	109.205
450.736	94.7622
453.629	82.3321
456.522	56.6644
459.414	45.4975
462.307	36.7471
465.2	29.6679
468.092	23.5757
470.985	24.2381
473.878	23.9406
476.77	17.4358
479.663	13.5198
482.556	1.08447
485.449	6.95312
488.341	11.8075
491.234	6.05255
494.127	8.87091
497.019	2.69818
499.912	10.033
502.805	26.9763
505.697	35.837
508.59	28.5142
511.483	28.76
514.375	16.5867
517.268	12.3338
520.161	9.71924
523.054	17.0223
525.946	12.0754
528.839	14.8107
531.732	10.9255
534.624	10.4151
537.517	9.66907
540.41	8.12421
543.303	10.4619
546.195	10.6681
549.088	4.00281
551.981	2.8111
554.873	0.206909
557.766	0.345032
560.659	1.9339
563.551	2.20587
566.444	1.63965
569.337	5.84528
572.23	5.81738
575.122	6.19293
578.015	7.02362
580.908	8.92212
583.8	7.65424
586.693	13.011
589.586	17.9377
592.478	17.4921
595.371	20.1228
598.264	20.3425
601.156	24.9117
604.049	27.4423
606.942	29.5926
609.835	29.6717
612.727	34.7344
615.62	35.4763
618.513	37.4521
621.405	38.0987
624.298	43.0804
627.191	45.3547
630.083	44.591
632.976	40.5165
635.869	38.9033
638.761	37.3256
641.654	32.514
644.547	31.704
647.44	27.843
650.332	25.9425
653.225	20.7318
656.118	13.5715
659.01	9.16959
661.903	4.89529
664.796	5.86514
667.688	4.30667
670.581	4.96191
673.474	5.56549
676.367	5.62918
679.259	4.76358
682.152	5.17462
685.045	4.60455
687.937	4.93051
690.83	1.3363
693.723	2.92618
696.615	0.536682
699.508	2.01462
702.401	0.383728
705.294	0.326294
708.186	0.314514
711.079	0.031219
713.972	0.203217
716.864	2.31863
719.757	0.810059
722.65	0.437073
725.543	1.53824
728.435	0.321045
731.328	2.60788
734.221	0.527161
737.113	4.14612
740.006	4.1106
742.899	7.45688
745.791	8.0932
748.684	7.36749
751.577	9.48956
754.47	8.56882
757.362	10.7681
760.255	12.7745
763.148	13.5365
766.04	16.9934
768.933	19.8869
771.826	17.7657
774.718	19.2455
777.611	15.3297
780.504	12.5908
783.396	13.4851
786.289	10.9107
789.182	7.92011
792.075	6.25745
794.967	5.83783
797.86	6.21399
800.753	4.70738
803.645	4.25844
806.538	5.71108
809.431	5.64726
812.323	7.91718
815.216	4.69952
818.109	4.23183
821.002	5.83411
823.894	5.60637
826.787	6.48071
829.68	3.83972
832.572	4.67631
835.465	5.61465
838.358	4.47839
841.25	1.41302
844.143	0.924332
847.036	0.181168
849.929	1.8517
852.821	0.919739
855.714	1.43976
858.607	0.586975
861.5	1.57571
864.392	1.63106
867.285	0.404236
870.178	3.76404
873.07	4.32228
875.963	3.14516
878.856	3.67505
881.748	4.485
884.641	5.69899
887.534	3.63011
890.427	6.49428
893.319	6.24615
896.212	9.19289
899.105	12.5617
901.997	14.9823
904.89	19.6443
907.783	22.2783
910.675	22.0868
913.568	25.501
916.461	26.239
919.353	25.441
922.246	25.1887
925.139	29.1067
928.032	29.3406
930.924	29.4561
933.817	27.7719
936.71	23.4107
939.602	20.4137
942.495	12.6328
945.388	6.20984
948.28	1.39532
951.173	0.853394
954.066	1.9062
956.958	3.70847
959.851	0.001343
962.744	0.114212
965.637	5.03145
968.529	11.1229
971.422	23.7989
974.315	43.1588
977.207	70.1404
980.1	107.493
982.993	151.111
985.885	191.864
988.778	223.499
991.671	216.512
994.564	154.889
997.456	86.1531
1000.35	49.85
1003.24	42.4756
1006.13	40.1772
1009.03	40.2908
1011.92	31.554
1014.81	31.5213
1017.71	30.1319
1020.6	31.3763
1023.49	31.0032
1026.38	33.8326
1029.28	33.0724
1032.17	33.5669
1035.06	34.6078
1037.95	32.4964
1040.85	36.4265
1043.74	34.6243
1046.63	36.9751
1049.53	38.7556
1052.42	43.0653
1055.31	44.3094
1058.2	42.2922
1061.1	46.9728
1063.99	46.2576
1066.88	48.3976
1069.77	42.084
1072.67	40.4765
1075.56	36.2021
1078.45	26.3903
1081.35	23.1853
1084.24	22.2416
1087.13	15.0568
1090.02	9.90286
1092.91	5.09888
1095.81	6.11639
1098.7	4.96564
1101.59	3.18567
1104.49	3.09088
1107.38	0.016418
1110.27	4.52429
1113.16	4.164
1116.06	2.15851
1118.95	8.43176
1121.84	9.2323
1124.73	6.28247
1127.63	1.76471
1130.52	2.33948
1133.41	13.8341
1136.31	37.4836
1139.2	48.9855
1142.09	76.9564
1144.98	105.93
1147.88	148.429
1150.77	187.73
1153.66	237.025
1156.56	285.143
1159.45	342.411
1162.34	401.255
1165.23	478.546
1168.13	554.504
1171.02	632.615
1173.91	711.793
1176.8	784.295
1179.7	845.618
1182.59	898.018
1185.48	935.174
1188.38	966.073
1191.27	975.387
1194.16	960.974
1197.05	941.151
1199.94	899.263
1202.84	847.733
1205.73	780.192
1208.62	717.585
1211.52	650.101
1214.41	587.622
1217.3	519.132
1220.19	446.376
1223.09	388.405
1225.98	341.799
1228.87	296.341
1231.77	248.557
1234.66	215.54
1237.55	176.32
1240.44	139.932
1243.34	116.04
1246.23	92.155
1249.12	65.4221
1252.01	51.2148
1254.91	38.1313
1257.8	21.2935
1260.69	8.95923
1263.59	18.939
1266.48	0.29541
1269.37	3.42749
1272.26	0.48291
1275.16	5.1062
1278.05	20.0205
1280.94	8.49609
1283.83	6.41064
