Measurement: Raman, 780 nm, unoriented, Raman Data Processed
Mineral: Tuzlaite
Rruff sample: R120036
Ideal chemistry: NaCaB_5_O_8_(OH)_2_3H_2_O
Locality: Tuzla mine, Tuzla, Tuzla Canton, Federation of Bosnia and Herzegovina, Bosnia and Herzegovina
Source: Bob Jenkins
Description: Seam of colorless massive fibers
Raman shift (cm-1)	intensity
92.5678	0
95.9426	25.8998
99.3174	12.9485
102.692	0.850494
106.067	27.6477
109.442	23.4696
112.817	10.3664
116.192	0.261627
119.566	9.2208
122.941	36.0182
126.316	31.6594
129.691	20.747
133.066	11.6123
136.44	12.8912
139.815	17.544
143.19	9.48099
146.565	4.56088
149.94	2.67957
153.315	12.6588
156.689	12.542
160.064	10.5842
163.439	21.0611
166.814	36.7964
170.189	51.0399
173.563	57.9758
176.938	53.9047
180.313	46.9076
183.688	44.9088
187.063	39.4659
190.437	27.0089
193.812	14.8614
197.187	12.4705
200.562	9.53958
203.937	9.89307
207.311	8.25064
210.686	3.73062
214.061	1.29446
217.436	2.7421
220.811	4.10724
224.186	9.82582
227.56	13.6904
230.935	15.519
234.31	10.03
237.685	10.7049
241.06	12.6174
244.435	18.8933
247.809	15.7199
251.184	7.84895
254.559	2.84854
257.934	1.97725
261.309	1.73224
264.683	0.09436
268.058	6.92294
271.433	9.5824
274.808	10.4846
278.183	6.5697
281.558	8.24403
284.932	8.24429
288.307	9.06944
291.682	6.44545
295.057	6.95328
298.432	1.82007
301.806	0.10083
305.181	0.804825
308.556	0.764908
311.931	4.38338
315.306	8.07684
318.68	11.8162
322.055	17.1472
325.43	19.5889
328.805	19.4823
332.18	20.4958
335.555	30.0918
338.929	35.6058
342.304	28.4299
345.679	19.8911
349.054	13.6493
352.429	14.6534
355.803	12.7484
359.178	16.1294
362.553	14.9734
365.928	15.2301
369.303	15.4142
372.678	10.1416
376.052	5.26282
379.427	1.25029
382.802	0.277802
386.177	1.4613
389.552	0.335052
392.926	0.990631
396.301	1.17867
399.676	2.08751
403.051	1.4164
406.426	2.66469
409.8	3.04436
413.175	4.0761
416.55	4.63795
419.925	7.24991
423.3	10.4664
426.675	13.6684
430.049	20.7512
433.424	20.0718
436.799	20.1851
440.174	22.2674
443.549	25.4854
446.923	29.5489
450.298	30.5176
453.673	33.7435
457.048	34.3587
460.423	41.0624
463.798	61.6288
467.172	90.9642
470.547	84.7252
473.922	37.9925
477.297	13.4197
480.672	3.02948
484.046	0.394592
487.421	1.59966
490.796	1.4288
494.171	0.776382
497.546	0.454987
500.921	2.54776
504.295	8.3528
507.67	8.41252
511.045	12.1981
514.42	16.5613
517.795	21.9984
521.169	27.7081
524.544	37.2201
527.919	43.5373
531.294	54.1435
534.669	70.2055
538.044	91.2249
541.418	114.113
544.793	120.741
548.168	102.849
551.543	77.9965
554.918	54.2061
558.293	35.5069
561.667	26.1086
565.042	23.9023
568.417	26.6825
571.792	32.5223
575.167	40.2204
578.541	49.1672
581.916	72.3592
585.291	99.6963
588.666	84.6768
592.041	45.9512
595.415	19.2086
598.79	10.4065
602.165	4.8203
605.54	2.69569
608.915	0.44603
612.29	1.47867
615.664	0.239792
619.039	1.17354
622.414	0.166367
625.789	0.995377
629.164	0.619858
632.538	0.378616
635.913	1.62441
639.288	0.952423
642.663	0.158096
646.038	0.678467
649.413	3.2843
652.787	6.66527
656.162	9.63917
659.537	17.9989
662.912	21.2044
666.287	17.6487
669.661	9.10521
673.036	2.98044
676.411	1.67235
679.786	1.50533
683.161	3.60826
686.535	4.22519
689.91	7.56241
693.285	9.56877
696.66	10.8496
700.035	11.4614
703.41	11.3453
706.784	8.49217
710.159	8.10078
713.534	4.22212
716.909	4.1676
720.284	2.14783
723.659	1.98254
727.033	1.78188
730.408	3.02711
733.783	3.5549
737.158	1.37152
740.533	4.98538
743.907	7.98306
747.282	15.2329
750.657	26.3096
754.032	40.5777
757.407	59.33
760.782	60.1494
764.156	37.3742
767.531	17.6142
770.906	7.75949
774.281	4.32797
777.656	6.1684
781.03	3.78892
784.405	3.05463
787.78	0.429337
791.155	1.59354
794.53	0.11232
797.904	0.608093
801.279	0.603378
804.654	1.28699
808.029	3.79356
811.404	8.53752
814.779	13.2023
818.153	20.5659
821.528	27.6598
824.903	33.2349
828.278	32.5739
831.653	26.3416
835.028	19.6331
838.402	14.86
841.777	12.0671
845.152	10.2506
848.527	12.0787
851.902	12.2981
855.276	14.7283
858.651	17.8001
862.026	17.4948
865.401	18.6855
868.776	17.1085
872.15	14.5012
875.525	11.0276
878.9	7.93158
882.275	8.45386
885.65	6.11148
889.024	3.18321
892.399	4.23798
895.774	1.23159
899.149	1.39218
902.524	0.152458
905.899	0.454727
909.273	0.682243
912.648	0.600159
916.023	1.26506
919.398	0.906075
922.773	1.7572
926.148	3.01395
929.522	2.79204
932.897	5.28799
936.272	3.33975
939.647	1.55676
943.022	0.494514
946.396	2.4265
949.771	1.62353
953.146	1.71296
956.521	3.14175
959.896	3.18753
963.27	1.59772
966.645	2.46289
970.02	2.42537
973.395	2.18272
976.77	1.64569
980.145	2.1009
983.519	1.29179
986.894	4.24779
990.269	3.66708
993.644	1.53635
997.019	0.744186
1000.39	0.06839
1003.77	0.077881
1007.14	1.13372
1010.52	0.177475
1013.89	2.30834
1017.27	4.18631
1020.64	4.58804
1024.02	6.85786
1027.39	7.04438
1030.77	9.6292
1034.14	8.45508
1037.52	9.75674
1040.89	8.76141
1044.27	9.62621
1047.64	8.21626
1051.02	8.85306
1054.39	8.9137
1057.77	10.0095
1061.14	11.1846
1064.52	12.816
1067.89	11.3656
1071.27	12.1622
1074.64	10.8147
1078.01	9.80891
1081.39	7.21423
1084.76	6.34915
1088.14	4.33803
1091.51	4.64405
1094.89	3.65147
1098.26	4.89442
1101.64	3.07318
1105.01	3.19376
1108.39	3.72475
1111.76	2.66119
1115.14	3.42786
1118.51	3.07859
1121.89	1.78465
1125.26	1.98202
1128.64	1.58237
1132.01	0.876831
1135.39	1.39692
1138.76	0.246422
1142.14	0.269043
1145.51	0.057518
1148.88	0.322014
1152.26	0.403168
1155.63	1.02699
1159.01	0.603729
1162.38	0.45359
1165.76	0.575722
1169.13	0.587952
1172.51	0.003807
1175.88	1.1862
1179.26	0.328041
1182.63	0.446625
1186.01	2.26782
1189.38	1.07069
1192.76	1.49291
1196.13	0.893745
1199.51	1.99705
1202.88	0.5709
1206.26	1.85274
1209.63	2.84859
1213.01	2.38275
1216.38	3.40628
1219.76	2.4527
1223.13	3.84271
1226.51	3.66411
1229.88	4.59195
1233.26	4.5495
1236.63	3.53814
1240.01	2.87296
1243.38	4.39158
1246.76	1.93398
1250.13	0.362946
1253.51	0.362473
1256.88	1.32035
1260.25	1.54388
1263.63	2.12111
1267	0.733017
1270.38	0.83567
1273.75	1.27501
1277.13	0.3153
1280.5	0.613884
1283.88	1.39185
