Measurement: Raman, 532 nm, unoriented, Raman Data Processed
Mineral: Tuzlaite
Rruff sample: R120036
Ideal chemistry: NaCaB_5_O_8_(OH)_2_3H_2_O
Locality: Tuzla mine, Tuzla, Tuzla Canton, Federation of Bosnia and Herzegovina, Bosnia and Herzegovina
Source: Bob Jenkins
Description: Seam of colorless massive fibers
Raman shift (cm-1)	intensity
176.791	0
179.684	0.921204
182.577	16.071
185.469	27.5998
188.362	23.2508
191.255	18.8642
194.147	9.68869
197.04	4.4028
199.933	5.54004
202.825	12.2919
205.718	15.4812
208.611	14.6294
211.504	13.0503
214.396	9.70194
217.289	9.92004
220.182	10.1891
223.074	16.9264
225.967	23.5573
228.86	27.883
231.752	23.1575
234.645	17.8433
237.538	12.9839
240.43	13.4947
243.323	17.995
246.216	20.0215
249.109	16.8226
252.001	8.98465
254.894	0.644928
257.787	0.386627
260.679	1.7988
263.572	1.37408
266.465	4.34039
269.358	8.4465
272.25	12.7786
275.143	13.9134
278.036	11.8072
280.928	14.94
283.821	13.5508
286.714	13.1095
289.606	13.0473
292.499	12.4842
295.392	10.1861
298.284	4.84116
301.177	4.44022
304.07	1.08581
306.963	5.64371
309.855	1.01532
312.748	7.72824
315.641	15.5854
318.533	22.5274
321.426	28.6563
324.319	35.5532
327.212	31.703
330.104	29.1076
332.997	37.1376
335.89	49.7806
338.782	59.7125
341.675	53.51
344.568	40.9293
347.46	36.999
350.353	26.3185
353.246	25.5856
356.139	28.4396
359.031	33.8901
361.924	33.9755
364.817	33.2294
367.709	33.6219
370.602	28.8773
373.495	20.5404
376.387	12.8026
379.28	6.63437
382.173	1.33141
385.065	0.144608
387.958	0.765991
390.851	0.91568
393.744	1.99915
396.636	0.822525
399.529	2.52055
402.422	1.09915
405.314	2.52232
408.207	5.42143
411.1	7.32294
413.993	9.39848
416.885	7.87068
419.778	10.1798
422.671	14.4543
425.563	17.395
428.456	28.1075
431.349	34.1221
434.241	35.6377
437.134	40.543
440.027	45.9948
442.92	53.3185
445.812	60.6422
448.705	67.2996
451.598	63.8498
454.49	60.5346
457.383	70.0899
460.276	84.0147
463.168	113.124
466.061	162.674
468.954	196.452
471.846	150.192
474.739	72.0901
477.632	30.4642
480.525	12.4322
483.417	6.74582
486.31	2.77435
489.203	2.32648
492.095	2.71591
494.988	2.14499
497.881	0.529327
500.774	2.68848
503.666	5.58655
506.559	10.2915
509.452	13.307
512.344	17.0243
515.237	23.7452
518.13	28.4325
521.022	37.3023
523.915	47.5403
526.808	57.3775
529.701	66.0136
532.593	84.3
535.486	107.353
538.379	137.104
541.271	168.187
544.164	188.776
547.057	183.862
549.949	159.875
552.842	126.67
555.735	94.1519
558.628	67.6915
561.52	55.6255
564.413	50.1005
567.306	49.1304
570.198	56.2729
573.091	67.2053
575.984	82.079
578.876	99.5571
581.769	133.365
584.662	176.448
587.554	186.081
590.447	132.817
593.34	73.7873
596.232	38.3086
599.125	20.8577
602.018	12.42
604.911	7.30533
607.803	4.34932
610.696	1.8141
613.589	1.87566
616.481	1.09253
619.374	0.353867
622.267	0.651535
625.159	0.611542
628.052	1.80667
630.945	1.45888
633.838	2.11783
636.73	2.1964
639.623	1.44307
642.516	0.036987
645.408	0.040619
648.301	1.72217
651.194	6.32785
654.087	11.6017
656.979	20.1123
659.872	28.3735
662.765	38.4472
665.657	34.9902
668.55	21.2127
671.443	10.6831
674.335	3.84586
677.228	1.54999
680.121	0.812469
683.014	4.48938
685.906	9.98828
688.799	11.9525
691.692	18.2292
694.584	20.2066
697.477	23.2099
700.37	25.7532
703.263	24.3352
706.155	21.4242
709.048	18.8832
711.941	15.0447
714.833	12.0088
717.726	8.30136
720.619	6.05359
723.511	5.72037
726.404	7.84271
729.297	10.4775
732.189	11.5256
735.082	11.1861
737.975	7.9603
740.868	8.69385
743.76	14.8687
746.653	23.4809
749.546	36.7846
752.438	60.489
755.331	89.4577
758.224	117.387
761.116	121.782
764.009	86.4938
766.902	50.2496
769.795	25.9784
772.687	14.5408
775.58	8.17017
778.473	6.25635
781.365	7.55542
784.258	7.36917
787.151	5.21515
790.043	2.55283
792.936	0.27832
795.829	0.170441
798.722	2.9386
801.614	0.209808
804.507	0.426361
807.4	3.93164
810.292	9.94196
813.185	17.668
816.078	27.5254
818.971	40.1292
821.863	53.8534
824.756	60.5884
827.649	63.7673
830.541	58.0238
833.434	46.7094
836.327	37.8512
839.219	27.6959
842.112	22.8441
845.005	21.3628
847.898	21.4205
850.79	21.402
853.683	22.7029
856.576	31.6811
859.468	32.3817
862.361	34.4644
865.254	35.4417
868.146	29.8717
871.039	27.8192
873.932	24.1947
876.824	20.7836
879.717	14.6309
882.61	13.2403
885.503	8.86148
888.395	7.9977
891.288	5.27126
894.181	4.00644
897.073	0.558441
899.966	0.029068
902.859	0.656616
905.751	0.05545
908.644	0.741058
911.537	1.25687
914.43	0.201462
917.322	3.35455
920.215	1.55185
923.108	4.78343
926	6.85458
928.893	8.52454
931.786	9.84482
934.678	12.2658
937.571	6.69061
940.464	8.83
943.357	5.61018
946.249	2.45891
949.142	4.54263
952.035	3.53799
954.927	3.07489
957.82	5.17377
960.713	3.81319
963.606	6.22893
966.498	4.72946
969.391	3.37451
972.284	2.38142
975.176	1.75703
978.069	1.86621
980.962	4.01518
983.854	1.99028
986.747	8.56259
989.64	9.76187
992.533	2.32434
995.425	1.75813
998.318	0.860519
1001.21	1.55992
1004.1	0.771072
1007	1.48309
1009.89	2.10223
1012.78	1.16556
1015.67	5.09386
1018.57	10.0421
1021.46	12.7033
1024.35	16.7596
1027.24	17.1001
1030.14	19.9585
1033.03	20.035
1035.92	20.6226
1038.82	23.0325
1041.71	18.8374
1044.6	19.7091
1047.49	22.261
1050.39	21.6825
1053.28	20.3116
1056.17	22.0304
1059.07	21.6706
1061.96	24.7725
1064.85	24.3501
1067.74	25.579
1070.63	25.207
1073.53	24.4338
1076.42	20.1919
1079.31	21.3842
1082.21	15.6056
1085.1	14.6711
1087.99	11.4652
1090.88	9.2402
1093.78	10.241
1096.67	10.5715
1099.56	11.4801
1102.45	12.6396
1105.35	11.4645
1108.24	11.6245
1111.13	13.4672
1114.03	9.75944
1116.92	11.4445
1119.81	8.49773
1122.7	7.67032
1125.6	5.00778
1128.49	7.74934
1131.38	5.12779
1134.28	2.86327
1137.17	2.95775
1140.06	2.65331
1142.95	1.3728
1145.85	1.75993
1148.74	1.34309
1151.63	0.165665
1154.52	0.129623
1157.42	2.44142
1160.31	0.449097
1163.2	0.56427
1166.09	0.426315
1168.99	0.835632
1171.88	0.18605
1174.77	1.3242
1177.66	0.214066
1180.56	0.71933
1183.45	0.515579
1186.34	1.53265
1189.24	1.85919
1192.13	0.774002
1195.02	1.27089
1197.91	1.82107
1200.81	2.50191
1203.7	1.33946
1206.59	3.87215
1209.48	4.01537
1212.38	4.60202
1215.27	6.67664
1218.16	5.06677
1221.06	3.76837
1223.95	6.83296
1226.84	8.31296
1229.73	8.83901
1232.63	9.51446
1235.52	9.84549
1238.41	9.36687
1241.31	7.98096
1244.2	6.99409
1247.09	7.06862
1249.98	4.4714
1252.88	6.12038
1255.77	4.27743
1258.66	3.59528
1261.55	3.38655
1264.45	3.43971
1267.34	0.481674
1270.23	1.09465
1273.12	1.31869
1276.02	1.01723
1278.91	3.18642
1281.8	3.69063
1284.69	0.025742
1287.59	2.1176
1290.48	2.44821
1293.37	2.2265
1296.27	0.146225
1299.16	1.28072
1302.05	0.72757
